#------------------------------------------------------------------------------
#$Date: 2016-06-11 05:09:49 +0300 (Sat, 11 Jun 2016) $
#$Revision: 183351 $
#$URL: file:///home/coder/svn-repositories/cod/cif/2/24/17/2241713.cif $
#------------------------------------------------------------------------------
#
# This file is available in the Crystallography Open Database (COD),
# http://www.crystallography.net/. The original data for this entry
# were provided by IUCr Journals, http://journals.iucr.org/.
#
# The file may be used within the scientific community so long as
# proper attribution is given to the journal article from which the
# data were obtained.
#
data_2241713
loop_
_publ_author_name
'Gomes, L\'igia R.'
'Low, John Nicolson'
'Fonseca, Andr\'e'
'Matos, Maria Jo\~ao'
'Borges, Fernanda'
_publ_section_title
;
 Crystal structures of three 6-substituted coumarin-3-carboxamide
 derivatives
;
_journal_issue                   7
_journal_name_full               'Acta Crystallographica Section E'
_journal_page_first              926
_journal_page_last               932
_journal_paper_doi               10.1107/S2056989016008665
_journal_volume                  72
_journal_year                    2016
_chemical_formula_iupac          'C18 H15 N O4'
_chemical_formula_moiety         'C18 H15 N O4'
_chemical_formula_sum            'C18 H15 N O4'
_chemical_formula_weight         309.31
_chemical_name_systematic
;
6-Methyl-<i>N</i>-(3-methoxyphenyl)-2-oxo-2<i>H</i>-chromene-3-carboxamide
;
_space_group_crystal_system      triclinic
_space_group_IT_number           2
_space_group_name_Hall           '-P 1'
_space_group_name_H-M_alt        'P -1'
_symmetry_space_group_name_Hall  '-P 1'
_symmetry_space_group_name_H-M   'P -1'
_atom_sites_solution_hydrogens   mixed
_audit_creation_method           SHELXL-2014/7
_cell_angle_alpha                75.827(4)
_cell_angle_beta                 88.318(4)
_cell_angle_gamma                71.271(4)
_cell_formula_units_Z            2
_cell_length_a                   7.1028(4)
_cell_length_b                   10.1367(4)
_cell_length_c                   10.8171(5)
_cell_measurement_reflns_used    9156
_cell_measurement_temperature    100(2)
_cell_measurement_theta_max      27.5000
_cell_measurement_theta_min      1.9560
_cell_volume                     714.10(6)
_computing_cell_refinement
;
CrysAlis PRO (Rigaku Oxford Diffraction, 2015)
;
_computing_data_collection
;
CrysAlis PRO (Rigaku Oxford Diffraction, 2015)
;
_computing_data_reduction
;
CrysAlis PRO (Rigaku Oxford Diffraction, 2015)
;
_computing_molecular_graphics
;
Mercury (Macrae <i>et al.</i>,  2006)
;
_computing_publication_material
;
OSCAIL (McArdle <i>et al.</i>,  2004),
SHELXL2014 (Sheldrick, 2015b) and
PLATON (Spek, 2009)
;
_computing_structure_refinement
;
OSCAIL (McArdle <i>et al.</i>,  2004),
<i>ShelXle</i> (H\"ubschle <i>et al.</i>,  2011) and
SHELXL-2014/7 (Sheldrick, 2015b)
;
_computing_structure_solution
;
OSCAIL (McArdle <i>et al.</i>,  2004) and
SHELXT (Sheldrick, 2015a)
;
_diffrn_ambient_temperature      100(2)
_diffrn_detector_area_resol_mean 28.5714
_diffrn_measured_fraction_theta_full 1.000
_diffrn_measured_fraction_theta_max 0.996
_diffrn_measurement_device       'four-circle \k diffractometer'
_diffrn_measurement_device_type  'Rigaku AFC12 (Right)'
_diffrn_measurement_method       'profile data from \w-scans'
_diffrn_radiation_monochromator  'Confocal mirrors, HF Varimax'
_diffrn_radiation_type           'Mo K\a'
_diffrn_radiation_wavelength     0.71075
_diffrn_reflns_av_R_equivalents  0.0252
_diffrn_reflns_limit_h_max       9
_diffrn_reflns_limit_h_min       -9
_diffrn_reflns_limit_k_max       13
_diffrn_reflns_limit_k_min       -13
_diffrn_reflns_limit_l_max       14
_diffrn_reflns_limit_l_min       -14
_diffrn_reflns_number            15638
_diffrn_reflns_theta_full        25.242
_diffrn_reflns_theta_max         27.480
_diffrn_reflns_theta_min         1.945
_exptl_absorpt_coefficient_mu    0.102
_exptl_absorpt_correction_T_max  1.00000
_exptl_absorpt_correction_T_min  0.89320
_exptl_absorpt_correction_type   multi-scan
_exptl_absorpt_process_details
;
(CrysAlis PRO; Rigaku Oxford Diffraction, 2015)
;
_exptl_crystal_colour            colourless
_exptl_crystal_density_diffrn    1.439
_exptl_crystal_description       needle
_exptl_crystal_F_000             324
_exptl_crystal_size_max          0.200
_exptl_crystal_size_mid          0.040
_exptl_crystal_size_min          0.020
_refine_diff_density_max         0.372
_refine_diff_density_min         -0.206
_refine_ls_extinction_method     none
_refine_ls_goodness_of_fit_ref   1.020
_refine_ls_hydrogen_treatment    mixed
_refine_ls_matrix_type           full
_refine_ls_number_parameters     214
_refine_ls_number_reflns         3261
_refine_ls_number_restraints     0
_refine_ls_restrained_S_all      1.020
_refine_ls_R_factor_all          0.0576
_refine_ls_R_factor_gt           0.0469
_refine_ls_shift/su_max          0.001
_refine_ls_shift/su_mean         0.000
_refine_ls_structure_factor_coef Fsqd
_refine_ls_weighting_details
'w=1/[\s^2^(Fo^2^)+(0.0823P)^2^+0.2203P] where P=(Fo^2^+2Fc^2^)/3'
_refine_ls_weighting_scheme      calc
_refine_ls_wR_factor_gt          0.1304
_refine_ls_wR_factor_ref         0.1390
_reflns_number_gt                2704
_reflns_number_total             3262
_reflns_threshold_expression     'I > 2\s(I)'
_cod_data_source_file            hb7589sup1.cif
_cod_data_source_block           2
_cod_database_code               2241713
_shelx_space_group_comment
;
The symmetry employed for this shelxl refinement is uniquely defined
by the following loop, which should always be used as a source of
symmetry information in preference to the above space-group names.
They are only intended as comments.
;
_shelx_estimated_absorpt_t_min   0.980
_shelx_estimated_absorpt_t_max   0.998
_shelx_hkl_file
;
   0   0  -1 1.15603 5.50553   1
   0   0   1-4.81782 6.01485   6
   0   0   1 2.56063 4.26908   4
   0   0   1 2.58488 7.15609   1
   0   0  -1 3.83888 7.65094   6
   0   0   2 63085.0 262.736   1
   0   0   2 63895.2 271.114   6
   0   0  -2 62224.5 222.259   4
   0   0  -2 64988.5 264.925   1
   0   0  -2 61753.5 177.822   2
   0   0  -2 60418.9 232.040   7
   0   0   2 63070.7 231.122   4
   0   0  -3 2609.95 61.9336   7
   0   0   3 2539.01 60.6944   4
   0   0   3 2692.61 70.5161   1
   0   0  -3 2796.24 49.7837   2
   0   0   3 2663.10 72.5310   6
   0   0  -3 2609.79 68.6799   1
   0   0  -3 2742.90 74.2543   6
   0   0  -3 2731.76 60.9689   4
   0   0   4 111.297 34.0388   6
   0   0  -4 86.3729 30.0842   1
   0   0  -4 85.4518 19.1547   2
   0   0   4 87.7975 32.6323   1
   0   0  -4 145.334 29.7591   7
   0   0  -4 83.6732 33.3586   6
   0   0  -4 133.392 33.0073   5
   0   0   4 121.111 27.6472   4
   0   0  -5 8363.49 163.438   6
   0   0   5 8241.03 153.223   1
   0   0  -5 8109.34 148.144   5
   0   0   5 8470.26 140.360   4
   0   0  -5 8425.23 155.176   1
   0   0  -5 8063.25 138.944   7
   0   0   5 8413.45 161.032   6
   0   0  -5 8644.15 106.993   2
   0   0  -6 1007.36 45.8418   2
   0   0  -6 1141.45 69.7234   1
   0   0   6 1088.50 61.6008   4
   0   0   6 1004.87 70.2820   6
   0   0   7 4207.13 138.224   6
   0   0   7 4163.18 119.945   4
   0   0  -7 4159.19 90.0581   2
   0   0  -7 4207.55 135.392   1
   0   0  -8 24551.1 337.483   1
   0   0   8 24043.0 304.196   4
   0   0   8 23886.0 341.742   6
   0   0  -8 23962.0 216.012   2
   0   0   9 42229.5 432.938   4
   0   0   9 42068.5 479.583   6
   0   0  -9 40618.3 466.120   1
   0   0  -9 39760.3 293.205   2
   0   0 -10 1201.73 100.861   1
   0   0  10 1081.51 84.9255   4
   0   0  10 1098.72 96.7145   6
   0   0 -11 433.293 77.9841   1
   0   0  11 381.600 78.1116   6
   0   0  11 400.574 72.5254   4
   0   0  12 510.083 89.1303   6
   0   0 -12 584.780 92.7345   1
   0   0  12 493.958 76.7969   4
   0   0  13 1186.43 112.464   4
   0   0 -13 1173.22 122.888   1
   0   0  13 1024.37 118.644   6
   0  -1  13 0.15360 76.4489   6
   0  -1  13-44.3721 67.9589   4
   0   1 -13-85.2534 80.9092   1
   0  -1  12 1149.64 115.274   6
   0   1 -12 1316.59 124.056   1
   0  -1  12 1144.12 108.820   4
   0  -1  11-67.6227 63.5841   6
   0   1 -11-7.15433 55.7045   1
   0  -1  11-19.2726 60.8131   4
   0  -1  10 2676.58 143.495   6
   0   1 -10 2409.57 135.360   1
   0  -1  10 2393.22 122.397   4
   0  -1   9 9955.44 244.760   6
   0   1  -9 9820.69 236.245   1
   0  -1   9 9793.49 218.042   4
   0  -1   8 416.286 63.2546   6
   0  -1   8 316.219 53.2698   4
   0   1  -8 340.144 41.5499   2
   0   1  -8 367.488 58.2282   1
   0  -1   7 4560.75 145.675   6
   0  -1   7 4743.00 133.529   4
   0   1  -7 4532.11 140.675   1
   0   1  -7 4537.18 99.8357   2
   0  -1   6 5597.96 135.058   4
   0  -1   6 5596.61 147.881   6
   0   1  -6 5492.73 143.421   1
   0   1  -6 5304.80 104.284   2
   0   1  -5 1208.69 64.8147   7
   0   1  -5 1262.33 73.5517   6
   0   1  -5 1375.41 71.3808   1
   0   1  -5 1316.86 52.9962   2
   0  -1   5 1357.50 67.7042   8
   0  -1   5 1422.24 73.8810   6
   0  -1   5 1386.33 65.4447   4
   0  -1   5 1439.36 54.4691   2
   0  -1   5 1422.77 72.3710   1
   0   1  -5 1223.26 67.4336   5
   0  -1   4 18733.9 214.257   1
   0  -1   4 18689.6 165.863   2
   0  -1   4 18580.9 205.080   8
   0   1  -4 17895.8 202.958   5
   0  -1   4 18853.6 225.512   6
   0   1  -4 18329.4 195.744   7
   0   1  -4 18516.6 226.001   6
   0   1  -4 18370.6 216.812   1
   0  -1   4 18758.6 198.062   4
   0   1  -4 18781.7 162.182   2
   0  -1   3 74816.1 393.660   6
   0  -1   3 76196.9 347.341   4
   0  -1   3 75147.8 375.584   1
   0  -1   3 76390.5 352.717   7
   0   1  -3 76653.1 399.136   6
   0   1  -3 73977.5 288.691   2
   0  -1   3 76991.8 352.232   5
   0  -1   3 73253.8 352.373   8
   0   1  -3 70790.0 365.758   1
   0   1  -3 76774.2 349.493   7
   0  -1   3 78051.0 316.213   2
   0  -1   2 3825.07 68.2782   8
   0   1  -2 3905.94 74.9343   1
   0  -1   2 4270.67 71.8502   5
   0   1  -2 4077.56 70.1691   7
   0  -1   2 3997.40 77.0744   1
   0  -1   2 3843.93 63.4670   2
   0   1  -2 3840.02 62.2487   2
   0  -1   2 3979.82 79.1921   6
   0  -1   2 4098.46 72.2587   7
   0   1  -2 4085.08 82.8084   6
   0   1  -1 243268. 497.626   6
   0  -1   1 250921. 411.482   2
   0   1  -1 242437. 402.509   8
   0  -1   1 232875. 420.888   7
   0  -1   1 241163. 399.783   8
   0   1  -1 250501. 482.534   1
   0   1  -1 235990. 422.393   7
   0  -1   1 240470. 491.061   6
   0  -1   0 16026.4 107.051   6
   0  -1   0 11575.1 82.5310   3
   0   1   0 18473.0 91.8848   7
   0   1   0 20317.1 98.1153   2
   0  -1   0 17166.4 108.449  11
   0  -1  -1 6270.32 70.0059   1
   0  -1  -1 21319.8 126.785   6
   0  -1  -1 21413.2 128.014  11
   0   1   1 23829.9 132.709   1
   0   1   1 7446.27 75.9214  11
   0   1   1 6818.07 71.7504   6
   0  -1  -1 24148.0 118.388   3
   0   1   1 23060.7 98.9051   2
   0   1   2 218.393 23.0075   3
   0  -1  -2 188.815 19.1984   4
   0  -1  -2 209.195 15.7167   2
   0   1   2 194.104 19.5284   4
   0   1   2 156.216 23.6330   6
   0  -1  -2 150.991 24.1350   6
   0  -1  -2 173.805 23.2246   1
   0   1   2 198.556 25.3610   1
   0   1   2 194.104 16.3774   2
   0  -1  -2 190.105 23.8456   3
   0   1   3 14655.0 131.361   4
   0  -1  -3 15248.5 163.993   6
   0  -1  -3 14135.3 103.090   2
   0  -1  -3 14716.2 125.792   4
   0   1   3 15396.2 165.721   6
   0   1   3 15488.7 148.264   3
   0   1   3 15332.2 158.954   1
   0   1   4 6068.57 100.602   4
   0   1   4 5929.05 116.041   1
   0  -1  -4 5826.67 94.1462   4
   0   1   4 6088.63 120.988   6
   0  -1  -4 6300.13 123.086   6
   0  -1  -4 5972.70 117.117   1
   0   1   5 901.701 63.0392   6
   0  -1  -5 1038.59 65.7853   6
   0   1   5 993.226 52.4786   4
   0   1   5 1004.38 60.6644   1
   0  -1  -5 1028.82 62.0117   1
   0  -1  -5 995.202 49.9694   4
   0  -1  -6 14033.2 135.280   2
   0  -1  -6 13712.1 225.416   6
   0   1   6 13388.8 184.787   4
   0  -1  -6 13756.6 191.615   7
   0   1   6 13917.9 217.730   1
   0  -1  -6 13374.4 175.050   4
   0  -1  -6 14160.0 221.062   1
   0   1   7 4039.93 115.612   4
   0  -1  -7 4178.65 134.358   1
   0   1   7 4228.65 136.988   6
   0  -1  -7 4135.50 80.4210   2
   0   1   8 5405.28 142.158   4
   0   1   8 5500.69 164.940   6
   0  -1  -8 5490.07 96.6894   2
   0  -1  -8 5692.50 165.500   1
   0   1   9 4221.70 137.684   4
   0   1   9 4172.00 155.796   6
   0  -1  -9 3894.76 88.3808   2
   0  -1  -9 4276.24 155.393   1
   0  -1 -10 406.881 67.5239   1
   0   1  10 431.282 61.1762   4
   0   1  10 287.205 68.1600   6
   0   1  11 83.2598 59.8095   3
   0  -1 -11 121.378 64.7042   1
   0   1  11 50.7302 51.9739   4
   0   1  11 55.3623 61.6597   6
   0   1  12 6102.10 231.644   6
   0   1  12 6237.14 216.882   3
   0   1  12 6256.87 203.533   4
   0  -1 -12 6601.89 234.909   1
   0   1  13 137.350 77.8910   6
   0  -1 -13 150.010 85.3762   1
   0   1  13 234.676 75.7324   4
   0   1  13 132.717 73.5906   3
   0  -2  12 2499.92 154.228   4
   0  -2  12 2137.89 149.196   6
   0   2 -12 2338.07 156.411   1
   0  -2  11 484.332 92.3389   6
   0   2 -11 512.827 92.2619   1
   0  -2  11 691.240 88.7298   4
   0   2 -10 15.8307 54.8067   1
   0  -2  10-40.4098 54.0439   4
   0  -2  10 10.9665 56.0747   6
   0   2  -9 723.460 76.6018   1
   0  -2   9 686.171 81.1759   6
   0  -2   9 598.967 71.2387   4
   0  -2   8 2162.24 106.742   4
   0  -2   8 2150.82 116.879   6
   0   2  -8 2172.88 115.171   1
   0   2  -7 218.508 49.1494   1
   0  -2   7 268.242 53.1166   6
   0   2  -7 207.789 39.9430   2
   0  -2   7 169.104 43.2001   4
   0   2  -6 2797.12 112.330   1
   0  -2   6 2858.87 115.895   6
   0   2  -6 2802.40 83.8066   2
   0  -2   6 2853.95 103.318   4
   0  -2   5-4.22151 27.9710   2
   0  -2   5 117.077 40.7219   6
   0  -2   5 17.5374 31.0155   8
   0  -2   5 28.4014 31.3267   7
   0   2  -5 39.7373 34.0788   1
   0   2  -5 33.4656 30.2128   2
   0  -2   5 16.0589 33.8646   4
   0   2  -5 19.4766 39.6672   6
   0  -2   5-17.8603 35.1657   1
   0  -2   4 42824.6 321.913   7
   0  -2   4 42408.6 358.217   6
   0   2  -4 42515.7 321.020   7
   0  -2   4 43551.7 293.782   2
   0  -2   4 41459.0 314.800   5
   0  -2   4 41651.3 344.062   1
   0  -2   4 41993.8 317.156   4
   0   2  -4 42502.5 274.692   2
   0   2  -4 42111.7 346.751   1
   0   2  -4 42098.1 366.416   6
   0  -2   4 42227.8 317.979   8
   0   2  -3 32740.4 255.848   7
   0  -2   3 33148.1 230.840   2
   0  -2   3 31929.6 283.305   6
   0  -2   3 32400.7 251.172   5
   0  -2   3 32391.0 274.691   1
   0  -2   3 31997.1 243.968   8
   0   2  -3 32885.3 223.951   2
   0   2  -3 32263.8 290.104   6
   0   2  -3 32148.4 275.644   1
   0  -2   2 120071. 404.634   8
   0   2  -2 119032. 429.520   7
   0   2  -2 119373. 497.135   6
   0   2  -2 119141. 477.739   1
   0  -2   2 116787. 486.295   6
   0  -2   2 117519. 408.139   2
   0  -2   2 121542. 423.524   7
   0   2  -2 120647. 400.349   2
   0   2  -2 116743. 401.775   8
   0   2  -1 3859.67 70.4846   7
   0  -2   1 3806.16 82.2702   6
   0  -2   1 3925.61 69.3457   7
   0  -2   1 3762.97 62.6329   8
   0  -2   1 3677.67 71.0418   2
   0   2  -1 3822.05 60.4869   8
   0   2  -1 4009.29 85.4231   6
   0   2  -1 3880.09 68.3269   2
   0   2   0 9145.82 95.0340   7
   0   2   0 9214.06 116.152  11
   0   2   0 9035.46 78.6212   8
   0  -2   0 9081.80 113.744  11
   0   2   0 9170.81 95.5570   2
   0  -2   0 8985.40 104.665   3
   0  -2   0 8974.64 79.8570   8
   0  -2   0 9150.45 90.7306   7
   0  -2   0 9194.36 115.333   6
   0  -2  -1 350.017 30.5972   1
   0  -2  -1 396.448 31.0855   6
   0  -2  -1 383.341 30.1945  11
   0   2   1 385.559 24.9359   2
   0  -2  -1 395.394 29.9759   3
   0   2   1 270.527 28.5268   1
   0   2   1 333.206 29.4573   6
   0  -2  -1 357.453 27.2110   9
   0  -2  -1 420.021 32.1943  10
   0  -2  -1 343.964 24.3673   2
   0   2   1 322.399 28.4007  11
   0   2   1 371.343 26.7729   3
   0  -2  -2 217.767 31.1196  11
   0  -2  -2 130.795 25.9280   1
   0  -2  -2 215.890 24.7762   4
   0   2   2 198.043 29.9789   1
   0   2   2 203.995 30.5474  11
   0  -2  -2 200.180 19.9814   2
   0  -2  -2 222.543 26.3733   3
   0   2   2 196.019 29.8164   6
   0   2   2 235.492 25.5280   3
   0  -2  -2 179.164 28.6699   6
   0   2   2 232.460 22.9803   2
   0  -2  -3 59.7996 26.3946   6
   0  -2  -3 79.0888 25.0608   3
   0   2   3 90.1281 29.7864  11
   0  -2  -3 78.3594 28.8357   1
   0   2   3 83.8675 20.5566   2
   0   2   3 62.0047 22.9420   4
   0   2   3 86.1326 28.8913   1
   0  -2  -3 85.5603 16.9289   2
   0   2   3 75.7417 24.3601   3
   0   2   3 65.6338 29.7397   6
   0  -2  -3 51.8464 20.5409   4
   0   2   4 86.6830 30.0223   1
   0   2   4 37.6332 31.1176   6
   0  -2  -4 68.9086 17.9250   2
   0  -2  -4 59.9016 23.3265   4
   0   2   4 57.4762 24.6114   4
   0   2   4 55.3100 28.5034   3
   0  -2  -4 67.3130 30.7769   6
   0  -2  -4 38.1364 28.0931   1
   0   2   5 138582. 620.848   1
   0  -2  -5 140197. 489.708   4
   0   2   5 141075. 637.381   6
   0  -2  -5 137088. 400.679   2
   0  -2  -5 138607. 638.389   6
   0   2   5 140705. 541.051   4
   0  -2  -5 138246. 624.638   1
   0   2   5 140018. 572.537   3
   0  -2  -6 577.881 44.0197   4
   0  -2  -6 569.304 33.3972   2
   0  -2  -6 584.124 60.1647   6
   0   2   6 568.269 54.7755   1
   0   2   6 524.554 46.9934   4
   0   2   6 587.028 50.6232   3
   0   2   6 611.924 57.3540   6
   0  -2  -6 592.074 55.8229   1
   0   2   7 4127.88 114.893   4
   0   2   7 4420.81 138.317   6
   0  -2  -7 4421.67 135.588   1
   0  -2  -7 4274.86 106.020   4
   0  -2  -7 4301.55 83.7689   2
   0   2   7 4351.38 121.957   3
   0  -2  -8 19523.8 181.325   2
   0   2   8 19216.6 271.275   3
   0   2   8 20246.6 306.799   6
   0  -2  -8 19446.7 299.986   1
   0   2   8 19235.9 260.159   4
   0  -2  -8 20083.2 175.128   2
   0  -2  -9 10030.2 132.091   2
   0   2   9 10943.7 212.541   4
   0   2   9 11074.4 243.903   6
   0  -2  -9 10805.1 139.594   2
   0  -2  -9 10710.7 240.721   1
   0   2   9 10247.4 212.956   3
   0  -2 -10 3079.54 78.2013   2
   0   2  10 3132.93 133.417   3
   0   2  10 3203.47 147.557   6
   0   2  10 3099.23 124.977   4
   0  -2 -10 3479.22 151.344   1
   0   2  11 2684.20 143.104   6
   0   2  11 3212.23 143.871   3
   0  -2 -11 3211.73 156.850   1
   0   2  11 3092.97 137.041   4
   0   2  12 49.3750 59.4383   4
   0  -2 -12 158.030 74.2136   1
   0   2  12 121.620 66.1778   3
   0   2  12 11.4688 66.0729   6
   0  -2 -13 418.672 85.6515   1
   0   2  13 432.028 82.6617   3
   0   2  13 583.477 101.722   6
   0   2  13 609.543 91.4123   4
   0  -3  12 373.026 88.8266   4
   0   3 -12 263.992 82.0814   1
   0  -3  12 290.701 90.5449   6
   0  -3  11 136.865 65.0215   6
   0  -3  11 37.0515 59.5570   4
   0   3 -11 42.6600 66.9872   1
   0  -3  10 301.698 69.2059   4
   0  -3  10 124.704 64.1111   6
   0   3 -10 331.213 75.1854   1
   0  -3   9 763.300 83.5816   4
   0   3  -9 584.444 80.5507   1
   0  -3   9 667.922 86.4639   6
   0  -3   8 2184.39 112.072   4
   0   3  -8 2064.46 116.286   1
   0  -3   8 2164.56 121.248   6
   0   3  -7 182.252 52.1488   1
   0  -3   7 134.603 51.3386   6
   0  -3   7 74.4682 42.1228   2
   0  -3   7 69.1845 41.5953   4
   0  -3   6 121.309 37.8310   2
   0  -3   6 29.6852 40.3071   6
   0  -3   6 34.2088 35.3866   7
   0  -3   6 79.5985 42.3064   4
   0   3  -6 82.8518 39.3874   1
   0  -3   5 1995.72 85.2498   5
   0  -3   5 2153.52 82.0950   2
   0  -3   5 2279.64 91.6056   4
   0  -3   5 1976.41 98.0515   6
   0  -3   5 2138.61 89.0725   7
   0   3  -5 2158.91 78.3961   2
   0   3  -5 2005.48 94.8804   1
   0  -3   4 30115.4 282.153   8
   0  -3   4 30152.1 327.034   6
   0   3  -4 29599.9 315.951   1
   0   3  -4 29609.5 332.719   6
   0   3  -4 30388.4 260.232   2
   0  -3   4 30215.2 271.899   2
   0   3  -4 29479.6 294.056   7
   0  -3   4 30168.2 286.758   5
   0  -3   3 7985.16 138.011   7
   0  -3   3 8167.69 134.589   8
   0  -3   3 8058.38 162.296   6
   0   3  -3 7950.08 162.058   6
   0  -3   3 8531.79 138.738   2
   0   3  -3 8208.49 133.111   2
   0   3  -3 8207.62 144.332   7
   0   3  -3 8218.82 158.122   1
   0  -3   2 602.659 49.7223   2
   0  -3   2 806.235 45.3144   8
   0   3  -2 852.069 58.9711   6
   0   3  -2 780.387 40.2923   8
   0  -3   2 812.471 57.0251   6
   0   3  -2 776.907 48.3376   7
   0   3  -2 745.999 46.4207   2
   0  -3   2 747.882 46.4438   7
   0   3  -2 865.272 56.1148   1
   0   3  -1 5490.61 99.3946   7
   0  -3   1 5638.41 118.804   6
   0  -3   1 5856.91 121.556  11
   0  -3   1 5803.30 93.0350   8
   0  -3   1 5567.07 95.9799   7
   0   3  -1 5540.01 120.289   6
   0   3  -1 5289.89 96.2332   2
   0   3  -1 5205.18 80.9951   8
   0  -3   1 5248.08 99.3910   2
   0  -3   0 1061.66 54.4760  11
   0  -3   0 1170.27 58.0084   6
   0  -3   0 1066.05 50.8873   3
   0   3   0 1135.12 57.3684  11
   0   3   0 1136.82 38.5314   8
   0  -3   0 1010.05 46.5355   2
   0  -3   0 1095.78 56.6718   6
   0   3   0 1144.53 46.9060   2
   0   3   0 1104.74 46.2305   7
   0  -3   0 1035.94 37.6256   8
   0  -3   0 1090.67 43.4517   7
   0  -3  -1 3509.65 79.4131   3
   0   3   1 3590.82 91.7816   6
   0  -3  -1 3347.35 69.1322   7
   0   3   1 3329.44 61.7277   8
   0   3   1 3330.37 76.9469   3
   0   3   1 3639.87 90.5868  11
   0  -3  -1 3451.22 88.6508   6
   0  -3  -1 3556.34 72.2179   9
   0   3   1 3589.85 87.5080   1
   0  -3  -1 3403.74 70.4049   2
   0  -3  -1 3443.71 85.2313  11
   0   3   1 3509.82 71.8748   2
   0  -3  -2 335.757 35.9737  11
   0  -3  -2 321.679 35.1695   3
   0   3   2 275.020 27.7495   2
   0   3   2 284.317 37.7005  11
   0   3   2 274.689 35.8547   1
   0   3   2 386.948 41.5263  10
   0  -3  -2 375.201 40.4717   1
   0   3   2 327.715 38.6716   6
   0  -3  -2 305.680 27.1442   2
   0   3   2 335.485 33.9578   3
   0  -3  -2 270.571 35.2202   6
   0  -3  -3 5452.40 119.163  11
   0  -3  -3 5808.09 104.963   3
   0  -3  -3 5293.03 114.609   6
   0   3   3 5570.80 92.0339   2
   0  -3  -3 5550.61 94.9295   4
   0   3   3 5635.46 115.449   1
   0   3   3 5420.78 99.4869   3
   0  -3  -3 5267.59 81.9808   2
   0   3   3 5641.25 117.740  11
   0  -3  -3 5693.18 117.295   1
   0   3   3 5698.54 118.397   6
   0  -3  -4 10488.2 169.695   1
   0   3   4 10555.9 147.949   3
   0   3   4 10863.8 171.835   6
   0   3   4 11319.6 133.709   2
   0  -3  -4 10616.2 115.667   2
   0   3   4 10858.1 175.391  11
   0  -3  -4 10688.3 150.993   3
   0  -3  -4 10560.7 170.229   6
   0   3   4 10880.3 169.986   1
   0   3   4 10829.4 146.850   4
   0  -3  -4 10732.4 130.911   4
   0   3   5 107274. 501.817   3
   0   3   5 105830. 486.467   4
   0   3   5 109362. 581.945   1
   0  -3  -5 107008. 587.487   6
   0  -3  -5 107101. 436.825   4
   0   3   5 107105. 593.376  11
   0  -3  -5 103570. 358.140   2
   0  -3  -5 106839. 517.810   3
   0   3   5 108458. 581.054   6
   0  -3  -5 105863. 571.684   1
   0   3   5 107678. 413.734   2
   0  -3  -6 9166.31 139.167   4
   0  -3  -6 9190.61 111.753   2
   0   3   6 9090.61 156.161   4
   0   3   6 9230.19 161.973   3
   0   3   6 9622.94 189.529   6
   0  -3  -6 9511.90 186.714   1
   0  -3  -7 145.433 33.5401   4
   0  -3  -7 131.042 23.6877   2
   0  -3  -7 188.360 44.8670   1
   0   3   7 101.605 34.8353   4
   0   3   7 122.305 37.5027   3
   0   3   7 132.392 43.8916   6
   0   3   8 497.161 55.5126   3
   0  -3  -8 550.065 51.7784   4
   0  -3  -8 510.690 33.8925   2
   0   3   8 447.085 53.8148   4
   0   3   8 321.491 57.4806   6
   0  -3  -8 440.700 60.7652   1
   0   3   9 1541.08 91.8325   3
   0  -3  -9 1544.09 52.6446   2
   0   3   9 1425.76 95.4724   6
   0  -3  -9 1443.22 54.6073   2
   0  -3  -9 1358.11 91.9103   1
   0   3   9 1693.05 90.8671   4
   0   3  10 6070.81 177.624   3
   0  -3 -10 5967.82 192.343   1
   0   3  10 6145.76 195.941   6
   0  -3 -10 5871.01 96.3724   2
   0   3  10 6396.58 176.667   4
   0   3  11 103.802 50.3835   4
   0   3  11 135.829 55.5898   3
   0   3  11 114.719 62.7802   6
   0  -3 -11-30.7625 57.1666   1
   0   3  12 134.968 63.3182   3
   0   3  12 51.2117 59.3127   4
   0   3  12 11.3090 61.5868   6
   0  -3 -12 0.79762 62.5249   1
   0   3  13 235.906 71.7217   3
   0   3  13 136.076 68.4865   4
   0  -3 -13 313.048 80.4919   1
   0   3  13 226.586 77.0412   6
   0   3  14 690.041 109.403   6
   0  -3 -14 719.094 111.112   1
   0  -4  11-10.5996 69.1850   6
   0  -4  11 0.64636 66.2925   4
   0   4 -11 163.098 81.6116   1
   0  -4  10 217.550 75.3952   6
   0  -4  10 34.2592 63.2630   4
   0   4 -10 82.4988 65.5839   1
   0  -4   9 287.455 76.5153   6
   0   4  -9 221.226 73.4789   1
   0  -4   9 274.679 63.0355   4
   0  -4   8 1560.96 93.8747   2
   0  -4   8 1607.91 105.436   4
   0   4  -8 1406.50 105.092   1
   0  -4   8 1333.32 108.089   6
   0   4  -7 328.168 59.7283   1
   0  -4   7 377.091 61.7991   4
   0  -4   7 354.533 65.2249   6
   0  -4   7 239.652 54.1139   2
   0  -4   6 45.2853 37.4998   7
   0  -4   6 82.1331 47.4371   6
   0  -4   6 22.0453 38.0380   2
   0  -4   6 41.5087 43.9043   4
   0  -4   6 48.6055 40.0824   5
   0   4  -6 13.4317 43.3498   1
   0  -4   5 519.796 59.5194   6
   0  -4   5 436.242 50.6322   5
   0  -4   5 493.443 54.0762   7
   0  -4   5 550.295 53.1243   2
   0  -4   5 404.207 53.3785   4
   0   4  -5 522.923 60.2772   1
   0  -4   4 53.9594 32.1248   8
   0  -4   4 63.7091 35.5640   2
   0  -4   4 30.0747 31.9057   7
   0   4  -4 68.9270 39.8156   1
   0  -4   4 24.7756 42.0785   6
   0  -4   4 40.9127 30.8166   5
   0   4  -3 87.6437 36.0960   2
   0   4  -3 16.9259 33.3638   7
   0   4  -3 58.9936 36.3526   1
   0  -4   3 98.9575 39.8136   2
   0  -4   3 92.2623 35.0982   7
   0  -4   3 21.1355 35.0974   6
   0  -4   3 23.1953 29.6789   8
   0   4  -2 618.991 40.5797   8
   0   4  -2 564.598 48.9950   7
   0   4  -2 543.829 55.8744   6
   0  -4   2 529.109 44.6342   7
   0  -4   2 609.949 57.9529   6
   0  -4   2 546.807 42.8867   8
   0   4  -2 655.137 52.4165   2
   0  -4   2 501.449 48.5296   2
   0  -4   1 25576.1 282.874   6
   0  -4   1 25915.0 210.081   8
   0   4  -1 26074.0 243.835   7
   0  -4   1 25654.1 282.890  11
   0   4  -1 25777.1 195.742   8
   0  -4   1 26236.5 245.804   2
   0  -4   1 26114.1 283.821   6
   0  -4   1 25684.5 267.275   3
   0   4  -1 26056.3 235.797   2
   0  -4   1 25887.4 229.874   7
   0  -4   0 6498.54 143.621   6
   0   4   0 6172.46 114.794   7
   0  -4   0 6193.29 118.563   2
   0   4   0 6357.86 92.2630   8
   0   4   0 6471.53 101.803   9
   0  -4   0 6634.76 142.030  11
   0  -4   0 6401.21 142.431   6
   0   4   0 6236.85 142.073  11
   0  -4   0 6775.76 103.012   8
   0  -4   0 6550.05 127.618   3
   0  -4   0 6202.83 106.500   7
   0   4   0 6338.14 114.106   2
   0   4   1 6479.60 113.732   2
   0   4   1 6605.99 96.2393   8
   0   4   1 6477.68 138.749  11
   0   4   1 6840.50 128.296   3
   0   4   1 6730.16 142.838   6
   0  -4  -1 6630.28 139.825   6
   0  -4  -1 6735.55 123.504   3
   0  -4  -1 6856.04 114.813   2
   0  -4  -1 6556.73 108.070   7
   0   4   1 5991.48 130.042   1
   0  -4  -1 6796.61 137.046  11
   0  -4  -2 29275.2 276.157  11
   0  -4  -2 29338.6 278.874   6
   0  -4  -2 29717.8 289.870   1
   0  -4  -2 29589.4 254.516   3
   0   4   2 29203.1 276.863   1
   0   4   2 29291.5 283.405  11
   0  -4  -2 29182.0 245.107   9
   0   4   2 29176.6 289.607   6
   0  -4  -2 28756.7 227.072   2
   0   4   2 28848.6 248.242   3
   0   4   2 29623.1 236.213   2
   0  -4  -3 425.167 37.2838   2
   0  -4  -3 430.201 42.5857   4
   0   4   3 403.390 45.7797   1
   0   4   3 399.359 41.1682   3
   0   4   3 376.922 37.7018   2
   0   4   3 398.099 49.3375   6
   0  -4  -3 331.560 38.7954   3
   0  -4  -3 320.031 44.3206  11
   0  -4  -3 350.915 45.5627   1
   0  -4  -3 332.175 45.3564   6
   0   4   3 470.234 50.0662  11
   0   4   3 465.401 50.8236  10
   0  -4  -4 41.5747 28.4099   4
   0   4   4 15.3063 33.6995   1
   0   4   4 4.73419 29.0818   3
   0  -4  -4 25.6847 30.9978   3
   0   4   4 45.5219 32.7981   6
   0  -4  -4 37.6682 27.0452   2
   0   4   4 33.8384 26.1449   2
   0  -4  -4 55.4268 37.2778   6
   0  -4  -4 14.8678 35.5999   1
   0   4   4 58.8033 39.4394  11
   0   4   5 487.403 54.9069  11
   0   4   5 481.658 41.9868   2
   0   4   5 496.425 45.4802   3
   0   4   5 508.637 44.8360   4
   0  -4  -5 532.314 48.8456   3
   0  -4  -5 482.610 39.1078   4
   0  -4  -5 594.856 56.9510   1
   0   4   5 458.007 52.6110   6
   0  -4  -5 435.081 33.6316   2
   0   4   6 4255.07 134.929  11
   0   4   6 4499.79 118.265   4
   0  -4  -6 4403.90 85.3431   2
   0  -4  -6 4344.35 121.614   3
   0  -4  -6 4439.19 100.719   4
   0  -4  -6 4466.80 135.417   1
   0   4   6 4224.95 115.331   3
   0   4   6 4552.80 101.090   2
   0   4   6 4421.65 134.854   6
   0  -4  -7 468.101 43.3221   4
   0  -4  -7 490.712 61.7359   1
   0   4   7 522.231 51.5188   3
   0  -4  -7 512.264 35.5160   2
   0   4   7 445.176 62.4143  11
   0   4   7 539.495 63.2019   6
   0   4   7 527.448 50.1804   4
   0   4   8 3059.68 111.668   3
   0  -4  -8 3073.74 96.4859   4
   0   4   8 3252.94 114.184   4
   0   4   8 3331.68 138.289  11
   0  -4  -8 3066.24 73.0136   2
   0  -4  -8 3047.11 127.828   1
   0   4   8 3275.45 133.289   6
   0   4   9 2802.25 113.486   4
   0  -4  -9 2766.39 69.4362   2
   0  -4  -9 2612.54 125.513   1
   0   4   9 2463.86 129.115  11
   0   4   9 2741.66 115.991   3
   0   4   9 2755.87 133.727   6
   0   4  10 935.090 78.1871   4
   0  -4 -10 856.513 86.6452   1
   0   4  10 760.126 86.0513   6
   0  -4 -10 855.219 41.6855   2
   0   4  10 875.087 79.8748   3
   0  -4 -11 459.380 81.0326   1
   0   4  11 502.730 84.3432   6
   0   4  11 451.581 68.5607   3
   0   4  11 321.937 61.7146   4
   0  -4 -12 94.9478 71.9176   1
   0   4  12 122.406 72.5674   6
   0   4  12 72.4429 56.9033   3
   0   4  12-8.28239 58.4313   4
   0  -4 -13 157.124 69.3681   1
   0   4  13 145.510 77.4814   6
   0   4  13 232.528 70.0289   3
   0   4  14 221.198 91.8700   6
   0   4  14 277.329 98.2597  11
   0   5 -11-13.1706 74.8564   1
   0  -5  11 59.1355 78.0879   6
   0  -5  10 116.460 76.0356   6
   0  -5  10-36.5971 65.4292   4
   0   5 -10-37.1710 73.6165   1
   0  -5   9 221.963 59.0931   2
   0   5  -9 301.788 76.9185   1
   0  -5   9 201.048 68.8325   4
   0  -5   9 263.269 79.7041   6
   0  -5   8 4002.35 160.269   4
   0  -5   8 3691.29 170.251   6
   0  -5   8 3718.50 142.894   2
   0   5  -8 3769.58 169.526   1
   0  -5   7 2488.70 115.145   2
   0  -5   7 2526.17 126.044   4
   0  -5   7 2639.56 139.441   6
   0   5  -7 2544.38 134.369   1
   0   5  -6 96.0485 51.5038   1
   0  -5   6 93.2586 50.9171   2
   0  -5   6 159.145 51.0894   4
   0  -5   6 66.3840 53.0922   6
   0  -5   6 98.4413 45.1158   7
   0  -5   6 133.440 42.3874   5
   0   5  -5-14.2907 43.2286   1
   0  -5   5 72.8746 44.2335   2
   0  -5   5-33.9288 39.8282   5
   0  -5   5 31.6533 47.1497   6
   0  -5   5 3.42779 40.5228   7
   0  -5   4 5389.48 138.901   7
   0  -5   4 5294.66 162.306   6
   0  -5   4 5270.42 139.326   8
   0   5  -4 5465.17 161.006   1
   0  -5   4 5375.52 140.739   2
   0   5  -3 72.9914 38.8868   1
   0  -5   3 38.8198 31.6057   7
   0  -5   3 60.8973 42.8777   6
   0  -5   3 73.9980 32.1911   8
   0  -5   3 57.0856 38.2591   2
   0   5  -2 263.224 32.1488   8
   0  -5   2 361.221 40.2741   7
   0   5  -2 307.406 44.7296   7
   0  -5   2 267.523 50.3496   6
   0  -5   2 283.816 37.9142   8
   0  -5   2 271.796 46.0711   2
   0   5  -1 5282.68 98.4179   8
   0  -5   1 5372.30 108.638   8
   0   5  -1 5422.91 129.457   7
   0  -5   1 5601.78 149.638   6
   0  -5   1 5172.41 115.957   7
   0  -5   1 5260.44 129.781   2
   0  -5   0 18594.1 263.325   6
   0  -5   0 17863.1 203.100   7
   0  -5   0 17870.1 257.091  11
   0   5   0 17758.4 219.138   2
   0   5   0 18249.8 185.277   9
   0   5   0 18277.8 171.965   8
   0   5   0 18260.6 219.797   7
   0  -5   0 17717.7 235.338   3
   0   5   0 18157.8 254.959   1
   0  -5   0 17805.9 260.406   6
   0  -5   0 18701.3 184.305   8
   0  -5   0 18023.1 219.479   2
   0   5   1 85696.3 553.274  11
   0   5   1 85642.6 529.178   1
   0  -5  -1 85767.4 458.993   2
   0  -5  -1 85645.6 486.500   3
   0  -5  -1 85860.8 548.321   6
   0   5   1 86068.3 375.051   8
   0  -5  -1 85513.1 529.574  11
   0  -5  -1 84559.0 417.496   7
   0   5   1 86244.0 505.114   3
   0   5   1 86583.0 555.921   6
   0   5   1 85373.5 454.658   2
   0   5   2 24889.2 299.556  11
   0  -5  -2 25084.1 237.681   2
   0   5   2 25349.0 249.802   2
   0  -5  -2 25794.9 272.499   3
   0  -5  -2 24647.9 288.515   6
   0  -5  -2 24217.4 289.275  10
   0  -5  -2 25065.1 244.450   9
   0   5   2 25227.4 304.357   6
   0   5   2 25011.5 284.849   1
   0  -5  -2 25101.7 286.434  11
   0   5   2 24523.9 213.740   8
   0  -5  -2 24330.6 227.314   7
   0   5   2 24884.3 262.538   3
   0   5   3 2718.60 105.689   6
   0  -5  -3 3549.98 104.555   9
   0  -5  -3 3600.85 117.608   6
   0   5   3 2787.69 104.898  11
   0  -5  -3 3453.84 89.7031   2
   0   5   3 3391.87 113.168   1
   0  -5  -3 3273.76 115.184   1
   0   5   3 3439.27 99.0594   3
   0   5   3 3594.53 94.1917   2
   0  -5  -3 3383.05 101.547   3
   0  -5  -3 3418.50 114.144  11
   0  -5  -4 5426.57 108.764   2
   0   5   4 5472.62 141.734  10
   0   5   4 5450.97 119.013   2
   0   5   4 5337.94 143.277  11
   0  -5  -4 5214.88 144.835   1
   0  -5  -4 5467.52 122.024   4
   0  -5  -4 5508.91 130.577   3
   0   5   4 5308.81 122.303   3
   0   5   4 5326.77 144.639   6
   0  -5  -5 434.451 39.4006   2
   0   5   5 540.510 55.5199  11
   0   5   5 500.837 50.5322   3
   0   5   5 492.752 47.1193   2
   0  -5  -5 469.482 51.8432   3
   0   5   5 463.935 56.2369   6
   0  -5  -5 413.021 41.4820   4
   0  -5  -5 444.041 53.1126   1
   0   5   5 500.323 55.8946  10
   0   5   6 700.785 55.7137   3
   0   5   6 728.508 55.0894   2
   0  -5  -6 658.909 62.2330   1
   0   5   6 709.478 65.7564  11
   0  -5  -6 667.540 61.7246   3
   0   5   6 747.849 68.5268   6
   0  -5  -6 788.637 53.2369   4
   0  -5  -6 717.146 44.7212   2
   0   5   7 49.6122 36.6668   4
   0  -5  -7-34.7362 25.2274   2
   0   5   7-3.88905 33.7564   3
   0  -5  -7-2.66888 46.0854   1
   0   5   7-27.0564 41.8019   6
   0   5   7-9.09339 43.1848  11
   0  -5  -7-20.8547 28.5409   4
   0   5   7 20.3227 33.2842   2
   0   5   8 161.435 49.3248   4
   0  -5  -8 64.3987 45.1020   1
   0   5   8 80.6322 45.2137   6
   0   5   8 119.753 40.5956   3
   0   5   8 102.504 51.0452  11
   0  -5  -8 165.220 29.1908   2
   0  -5  -8 190.232 40.6436   4
   0  -5  -9 4316.44 91.6094   2
   0  -5  -9 4270.20 163.254   1
   0   5   9 4091.18 160.043   6
   0   5   9 4079.41 162.699  11
   0   5   9 4371.62 140.233   3
   0   5   9 4304.76 142.680   4
   0  -5 -10 486.441 37.4606   2
   0   5  10 388.110 62.5775   3
   0   5  10 561.317 69.3745   4
   0   5  10 512.578 82.2779  11
   0   5  10 464.452 76.0878   6
   0  -5 -10 591.252 81.0382   1
   0   5  11 1964.73 112.363   3
   0  -5 -11 2071.85 135.158   1
   0   5  11 2047.61 114.098   4
   0   5  11 1799.05 130.350  11
   0   5  11 1753.81 128.285   6
   0   5  12 452.480 86.6160   6
   0   5  12 353.836 73.1624   3
   0  -5 -12 563.961 95.5976   1
   0   5  13 932.977 100.492   3
   0  -5 -13 1112.62 124.140   1
   0   5  13 1040.35 117.355   6
   0   5  13 996.668 118.559  11
   0  -6  10 801.307 106.196   4
   0  -6  10 887.272 114.509   6
   0   6 -10 726.099 111.488   1
   0  -6   9 153.323 70.2119   4
   0  -6   9 91.0165 63.8971   2
   0  -6   9 5.54207 70.1476   6
   0   6  -9 95.6561 76.5943   1
   0  -6   8 31.8803 52.0321   2
   0   6  -8 141.916 61.0683   1
   0  -6   8 44.1192 59.0269   4
   0  -6   8 124.208 67.8937   6
   0   6  -7 1804.31 122.805   1
   0  -6   7 1739.37 110.688   7
   0  -6   7 1776.17 113.854   4
   0  -6   7 2019.54 134.030   6
   0  -6   7 1754.79 108.322   2
   0  -6   6 1023.73 92.3957   2
   0  -6   6 1305.14 87.1506   5
   0  -6   6 999.720 82.9793   7
   0  -6   6 1160.80 101.736   6
   0  -6   6 1387.47 100.716   4
   0   6  -6 1210.72 98.8509   1
   0  -6   5 10971.7 223.786   2
   0  -6   5 10060.1 214.062   7
   0  -6   5 10754.3 257.318   6
   0   6  -5 10681.0 250.803   1
   0  -6   5 10362.3 215.513   5
   0  -6   4 2753.32 110.625   7
   0  -6   4 2400.41 109.604   2
   0   6  -4 2518.94 123.002   1
   0  -6   4 2591.47 127.775   6
   0  -6   3 18639.0 255.277   7
   0   6  -3 18152.4 299.613   1
   0  -6   3 18918.2 311.786   6
   0  -6   3 18847.5 248.911   8
   0  -6   2 21666.6 324.474   6
   0  -6   2 22096.7 262.901   7
   0  -6   2 22114.7 251.872   8
   0  -6   2 21963.4 284.323   2
   0   6  -2 21915.9 230.028   8
   0  -6   1 759.421 69.9192   6
   0  -6   1 802.955 56.1417   7
   0  -6   1 819.843 66.1040   2
   0  -6   1 801.386 51.7021   8
   0   6  -1 693.971 43.6286   8
   0   6   0 1051.95 66.8568   7
   0  -6   0 1190.09 71.0505   2
   0  -6   0 1121.12 54.7195   8
   0  -6   0 1149.13 60.2702   7
   0   6   0 1156.62 57.1878   9
   0   6   0 1192.67 50.9346   8
   0  -6   0 1080.42 77.4238   6
   0  -6  -1 15.7771 40.6766   6
   0  -6  -1 27.6845 37.4240   2
   0   6   1-9.76868 23.5545   8
   0   6   1 4.55213 39.4126  11
   0  -6  -1-13.6465 27.7032   7
   0   6   2 12311.2 234.540   6
   0  -6  -2 11566.0 171.588   7
   0  -6  -2 11991.0 186.995   2
   0   6   2 12220.4 160.491   8
   0  -6  -2 11602.9 226.260  10
   0   6   2 12141.9 230.221  11
   0   6   2 11943.2 204.688   3
   0  -6  -3 3352.21 99.9818   2
   0  -6  -3 3313.99 110.401   3
   0   6   3 3478.96 127.425  11
   0  -6  -3 3417.15 130.295   1
   0   6   3 3360.09 93.5236   8
   0  -6  -3 3336.90 107.355   9
   0   6   3 3536.08 110.967   3
   0   6   3 3452.87 131.516   6
   0  -6  -3 3460.72 98.0903   7
   0   6   4 297.008 52.5372   6
   0  -6  -4 337.031 42.5277   2
   0   6   4 251.589 49.9606  11
   0  -6  -4 260.933 44.7575   3
   0   6   4 308.016 41.6444   3
   0  -6  -4 291.941 50.5560   9
   0  -6  -4 314.054 47.6008   4
   0  -6  -4 249.111 49.6398   1
   0  -6  -5 2511.61 91.9466   4
   0   6   5 2548.52 112.287  10
   0   6   5 2358.58 90.7619   2
   0  -6  -5 2472.87 82.2354   2
   0   6   5 2598.60 115.472   6
   0   6   5 2540.22 96.0358   3
   0   6   5 2475.46 109.945  11
   0   6   6 4750.57 149.705  10
   0  -6  -6 4901.40 122.762   4
   0   6   6 4651.24 155.484   6
   0   6   6 4913.53 129.680   2
   0   6   6 4836.12 155.456  11
   0  -6  -6 5057.63 161.396   1
   0  -6  -6 4987.40 111.389   2
   0   6   6 5089.00 137.258   3
   0   6   7 21833.3 273.325   2
   0   6   7 21682.3 284.829   3
   0  -6  -7 21315.4 247.961   4
   0  -6  -7 21650.0 228.898   2
   0  -6  -7 22066.1 344.378   1
   0   6   7 21732.0 338.627   6
   0  -6  -8 1861.42 111.829   1
   0  -6  -8 1538.51 75.7745   4
   0   6   8 1585.65 83.9308   2
   0   6   8 1637.27 106.428   6
   0  -6  -8 1861.23 70.3154   2
   0   6   8 1756.98 109.536  11
   0   6   8 1928.48 96.0414   3
   0   6   9 1439.00 108.959  11
   0  -6  -9 1753.08 118.966   1
   0   6   9 1598.18 112.317   6
   0  -6  -9 1650.75 66.5732   2
   0   6   9 1640.26 92.8964   3
   0  -6 -10 869.469 50.8646   2
   0   6  10 608.402 83.5694   6
   0   6  10 776.079 95.7671  11
   0   6  10 862.994 78.2201   3
   0  -6 -10 917.873 101.509   1
   0   6  10 893.095 78.9543   4
   0   6  11 687.555 75.0523   3
   0   6  11 644.867 92.5550  11
   0   6  11 611.872 92.5419   6
   0  -6 -12 836.590 104.556   1
   0   6  12 873.708 105.893  11
   0   6  12 987.402 92.5321   3
   0   6  12 831.277 105.466   6
   0   6  13 114.720 81.8842   6
   0  -6 -13 236.410 85.5037   1
   0   6  13 95.7703 74.7728  11
   0  -7   9 2061.59 146.906   4
   0  -7   9 2211.59 159.681   6
   0   7  -9 2489.63 169.132   1
   0   7  -8 281.050 80.5626   1
   0  -7   8 322.276 79.3223   4
   0  -7   8 246.821 69.6074   2
   0   7  -7 57.1288 69.1814   1
   0  -7   7 54.1176 61.6789   4
   0  -7   7 51.3015 51.2273   5
   0  -7   7 126.522 61.3037   7
   0  -7   7-105.216 63.9025   6
   0  -7   7 39.2653 65.3167   2
   0  -7   6 90.1607 68.4439   6
   0  -7   6 29.4979 48.8900   7
   0  -7   6 35.5777 57.1081   4
   0  -7   6 66.4180 53.5166   5
   0   7  -6 73.1486 60.7558   1
   0  -7   6 101.177 59.4395   2
   0  -7   5 134.022 66.5955   6
   0  -7   5 192.407 57.9813   2
   0   7  -5 241.174 67.0201   1
   0  -7   5 294.511 58.7226   7
   0  -7   5 242.521 56.1892   5
   0  -7   4 129.031 49.4087   7
   0   7  -4 152.249 54.9723   1
   0  -7   4 67.0843 53.4174   2
   0  -7   4 60.7184 54.5937   6
   0  -7   3 23194.2 335.406   2
   0  -7   3 24190.0 309.595   7
   0   7  -3 23982.4 369.590   1
   0  -7   3 23804.1 375.534   6
   0  -7   2 8421.55 198.797   2
   0  -7   2 8509.86 178.043   7
   0  -7   2 8381.64 167.919   8
   0   7  -2 8463.97 151.415   8
   0  -7   2 8004.09 215.519   6
   0  -7   1 15989.2 232.541   7
   0   7  -1 16700.9 216.640   9
   0  -7   1 16047.2 295.777   6
   0  -7   1 16658.8 263.654   2
   0  -7   1 16551.2 220.472   8
   0   7  -1 16195.1 193.430   8
   0  -7   0 5211.80 151.810   2
   0   7   0 5451.84 120.070   9
   0  -7   0 5602.64 134.072   7
   0  -7   0 5068.85 169.126   6
   0   7   0 5446.86 109.453   8
   0   7   1-5.18832 24.8371   8
   0  -7  -1-45.5301 42.5013   2
   0  -7  -1-40.2077 50.3664   6
   0   7   1-18.1194 54.3669  11
   0  -7  -1 12.0190 29.7470   7
   0   7   2 1225.07 91.9581   6
   0   7   2 1240.05 88.6775  11
   0  -7  -2 1248.53 65.7084   7
   0   7   2 1159.64 57.1587   8
   0  -7  -2 1248.83 74.3283   2
   0   7   3 179.143 34.0661   8
   0  -7  -3 222.967 36.2559   7
   0   7   3 249.727 56.0997  11
   0   7   3 138.874 52.9164   6
   0   7   3 234.120 49.2279   3
   0  -7  -3 144.163 44.4728   2
   0   7   4 15934.9 247.958   3
   0   7   4 16299.5 290.653  11
   0  -7  -4 15845.5 221.794   7
   0  -7  -4 15480.1 246.404   9
   0  -7  -4 15169.5 243.280   4
   0  -7  -4 15543.5 291.054   1
   0  -7  -4 16069.4 224.835   2
   0   7   4 15702.7 218.320   8
   0   7   4 15880.6 293.871   6
   0   7   5 921.306 84.8690   6
   0  -7  -5 956.923 70.0875   4
   0  -7  -5 1092.92 82.0397   9
   0   7   5 1021.59 70.6760   3
   0  -7  -5 1140.32 66.7022   2
   0  -7  -5 1090.96 86.4123   1
   0   7   5 1106.29 84.9319  11
   0   7   6 39887.7 476.251   6
   0  -7  -6 40528.4 369.968   4
   0  -7  -6 41092.4 348.494   2
   0  -7  -6 40837.8 479.198   1
   0   7   6 40408.5 465.613  11
   0   7   6 41150.0 394.342   3
   0  -7  -6 41255.1 448.532   9
   0  -7  -7 1277.97 69.1929   2
   0  -7  -7 1321.09 103.594   1
   0   7   7 1195.76 93.9444  10
   0   7   7 1303.99 82.2206   3
   0   7   7 1167.91 94.9702  11
   0   7   7 1237.62 98.0090   6
   0  -7  -7 1291.96 75.9145   4
   0   7   8 350.388 66.7654  10
   0   7   8 381.364 67.7100   6
   0  -7  -8 477.346 49.1205   2
   0  -7  -8 411.644 71.0699   1
   0   7   8 231.537 62.0189  11
   0   7   8 554.882 66.0314   3
   0   7   9 13946.2 306.197  11
   0  -7  -9 14016.2 196.182   2
   0  -7  -9 13450.4 304.687   1
   0   7   9 13403.9 300.240   6
   0   7   9 13536.0 254.138   3
   0  -7 -10 286.588 79.3746   1
   0   7  10 300.514 70.2670  11
   0  -7 -10 344.478 43.9926   2
   0   7  10 359.110 62.6628   3
   0   7  10 310.886 68.4913   6
   0  -7 -11 167.336 74.1246   1
   0   7  11 94.5826 68.7323  11
   0   7  11-11.6182 63.8009   6
   0   7  11 140.414 65.2153   3
   0  -7 -12-10.9061 73.6234   1
   0   7  12-44.6231 67.7597  11
   0   7  12-28.4540 58.3701   3
   0   7  12 16.8613 70.3077   6
   0   7  13 122.368 81.8806   6
   0   7  13 151.093 80.8061  11
   0  -7 -13 66.8162 82.3462   1
   0  -8   8 46.4269 64.0000   2
   0   8  -8 27.1828 78.5492   1
   0  -8   8 100.845 85.1640   6
   0  -8   7 543.297 89.3696   4
   0  -8   7 405.489 71.7369   5
   0   8  -7 637.853 102.352   1
   0  -8   7 402.385 80.6948   2
   0  -8   7 666.093 103.782   6
   0  -8   6-70.7857 63.0473   2
   0  -8   6-0.13694 67.3681   6
   0  -8   6-0.74166 54.4015   7
   0  -8   6 99.5510 65.4547   4
   0   8  -6-2.54774 65.4992   1
   0  -8   6-3.44464 53.8216   5
   0   8  -5 16.7923 62.0636   1
   0  -8   5 20.3829 47.1086   5
   0  -8   5-19.7799 50.8326   7
   0  -8   5 8.47344 65.9402   6
   0  -8   5-6.87241 55.9947   2
   0  -8   5-63.0936 61.8219   4
   0   8  -4 36.7883 60.0975   1
   0  -8   4-30.1646 45.5115   7
   0  -8   4 133.978 60.1978   2
   0  -8   4 149.102 62.9944   6
   0  -8   3 2848.04 138.097   2
   0  -8   3 3052.38 152.785   6
   0  -8   3 2855.51 120.576   7
   0   8  -3 2945.55 148.267   1
   0   8  -2 1908.46 80.3222   8
   0  -8   2 1817.21 92.7931   7
   0  -8   2 1947.78 123.487   6
   0  -8   2 2016.90 113.085   2
   0   8  -1-16.1740 31.1825   8
   0   8  -1-7.98357 39.1600   9
   0  -8   1-41.1137 38.7163   7
   0  -8   1 26.1939 56.8797   6
   0  -8   1-54.6787 56.6589   2
   0  -8   1 41.9388 42.4493   8
   0   8   0 671.477 47.8886   8
   0  -8   0 543.856 70.3446   2
   0  -8   0 607.691 58.3227   7
   0  -8   0 723.231 82.3958   6
   0  -8  -1 639.783 70.0521   2
   0  -8  -1 678.316 58.8959   7
   0   8   1 586.316 45.2909   8
   0  -8  -1 660.693 80.9456   6
   0   8   2 14.4297 54.2881  11
   0  -8  -2 20.1538 53.6234   6
   0  -8  -2-85.8389 49.8520   2
   0   8   2 5.08907 30.7516   8
   0  -8  -2-8.75630 32.2119   7
   0   8   3 1144.85 97.1993   6
   0   8   3 1072.08 63.4228   8
   0   8   3 1205.17 86.5887   3
   0   8   3 956.380 89.3421  11
   0  -8  -3 1075.56 68.0770   7
   0  -8  -3 1027.52 79.9553   2
   0  -8  -4 97.3346 48.8038   2
   0  -8  -4 81.8317 38.9807   7
   0   8   4 134.035 53.0808   3
   0   8   4 165.779 41.4406   8
   0   8   4 151.213 62.5960  11
   0   8   4 108.776 57.8676   6
   0   8   5 9951.92 250.163  11
   0   8   5 11679.7 208.795   8
   0  -8  -5 11568.3 275.259   1
   0  -8  -5 11037.6 227.675   4
   0  -8  -5 11860.6 207.493   7
   0   8   5 11761.8 229.853   3
   0  -8  -5 12362.8 244.300   9
   0   8   5 9186.92 247.022   6
   0  -8  -5 11867.5 209.875   2
   0   8   6 12808.0 293.301   6
   0  -8  -6 12750.3 288.609   1
   0  -8  -6 12696.5 264.040   9
   0   8   6 12560.4 238.652   3
   0   8   6 12862.3 285.915  11
   0  -8  -6 12596.7 216.715   2
   0  -8  -7 4981.08 179.555   9
   0  -8  -7 4994.57 188.890   1
   0   8   7 5176.07 155.763   3
   0  -8  -7 5256.54 138.820   2
   0   8   7 4595.35 178.182  11
   0   8   7 4990.24 193.264   6
   0  -8  -8 89.0403 61.6365   9
   0   8   8 78.6629 60.0659  11
   0   8   8 164.863 58.8343   3
   0   8   8 171.179 67.0879  10
   0  -8  -8 43.3849 41.8229   2
   0   8   8-56.5638 61.8942   6
   0  -8  -8 135.561 61.5616   1
   0   8   9 345.937 72.8588  10
   0   8   9 327.432 62.6327   3
   0   8   9 274.164 70.4455  11
   0   8   9 394.655 82.5905   6
   0  -8  -9 424.487 81.8422   1
   0  -8  -9 350.105 51.5857   2
   0  -8 -10 513.238 86.3669   1
   0   8  10 341.936 81.3555  11
   0   8  10 513.368 74.2660   3
   0   8  10 516.618 85.7829   6
   0   8  10 629.712 94.8006  10
   0   8  11 50.6026 68.6778  10
   0  -8 -11 47.2681 70.7952   1
   0   8  11 51.1302 69.0805  11
   0   8  11 74.5013 62.9817   3
   0   8  11 119.862 73.2326   6
   0   8  12 2413.37 164.768   6
   0  -8 -12 2240.10 162.694   1
   0   8  12 2065.73 156.720  11
   0   9  -6 4783.37 217.673   1
   0  -9   6 4886.38 185.543   7
   0  -9   6 4256.57 174.155   5
   0  -9   6 4788.45 223.748   6
   0  -9   6 4892.60 200.177   4
   0  -9   5 1058.58 119.138   6
   0  -9   5 1228.19 97.7624   5
   0  -9   5 892.449 104.530   2
   0   9  -5 1317.15 124.537   1
   0  -9   5 1116.96 105.635   4
   0  -9   5 1177.87 100.569   7
   0  -9   4 2239.11 149.242   6
   0   9  -4 2191.28 143.694   1
   0  -9   4 1907.37 136.693   2
   0  -9   4 2316.02 126.207   7
   0  -9   3-45.6368 63.3113   2
   0  -9   3 73.4477 68.3484   6
   0  -9   3 77.8505 51.8682   7
   0   9  -3-60.2885 69.5124   1
   0  -9   2 356.970 71.4697   2
   0  -9   2 135.086 73.0358   6
   0  -9   2 222.680 56.2857   7
   0  -9   1 2179.14 104.336   7
   0  -9   1 2264.75 123.640   2
   0   9  -1 2107.49 81.8927   8
   0  -9   1 2296.31 141.999   6
   0  -9   0 3346.21 122.044   7
   0  -9   0 3645.54 146.597   2
   0   9   0 3389.99 95.3811   8
   0  -9  -1 150.091 66.7580   6
   0  -9  -1 76.4153 54.2113   2
   0  -9  -1 147.178 49.4176   7
   0   9   1 126.537 33.4758   8
   0  -9  -2 13611.8 225.772   7
   0  -9  -2 13865.1 258.871   2
   0   9   2 13364.0 313.270  11
   0  -9  -2 13620.8 313.726   6
   0   9   2 14220.4 196.410   8
   0  -9  -3 9242.13 186.120   7
   0   9   3 8783.90 251.577   6
   0  -9  -3 9260.80 213.201   2
   0   9   3 9204.43 256.607  11
   0   9   3 9033.92 163.975   8
   0   9   4 940.652 101.867   6
   0  -9  -4 1006.40 80.3808   2
   0   9   4 972.614 101.274  11
   0   9   4 980.840 87.5416   3
   0   9   4 808.112 63.8096   8
   0  -9  -4 956.735 68.5557   7
   0   9   5 1284.45 109.353   6
   0   9   5 1463.69 115.506  11
   0  -9  -5 1575.36 87.3214   7
   0   9   5 1284.22 80.1003   8
   0  -9  -5 1200.87 87.7471   2
   0   9   5 1367.40 94.7090   3
   0   9   6 41.8200 48.7568   3
   0   9   6-67.8495 64.1749  11
   0  -9  -6 162.833 49.6810   7
   0  -9  -6 130.292 52.3536   2
   0  -9  -6 50.6344 58.1139   9
   0  -9  -6 229.305 72.6944   1
   0   9   6 44.9574 67.9528   6
   0   9   6 59.3755 46.3951   8
   0   9   7 1451.15 117.215  11
   0   9   7 1456.50 97.5453   3
   0  -9  -7 1551.93 91.9303   2
   0   9   7 1582.42 124.861   6
   0  -9  -7 1348.66 115.323   1
   0  -9  -7 1292.22 106.014   9
   0   9   8 964.277 109.258   6
   0  -9  -8 1051.72 112.562   1
   0   9   8 904.617 101.674  11
   0  -9  -8 783.815 98.1431   9
   0   9   8 1015.88 87.6927   3
   0  -9  -8 1100.07 78.9401   2
   0   9   9 322.493 63.0046   3
   0   9   9 148.166 74.4847  11
   0  -9  -9 359.255 84.4028   1
   0  -9  -9 228.862 51.9687   2
   0   9   9 217.248 76.7426   6
   0  -9  -9 318.676 82.6636   9
   0   9  10 136.585 71.6691  11
   0   9  10 58.4953 72.1938   6
   0   9  10 264.834 82.1848  10
   0  -9 -10 150.987 80.4925   1
   0   9  10 179.614 61.9002   3
   0  -9 -10 243.346 86.5881   9
   0   9  11 4948.22 224.968  11
   0   9  11 4879.23 225.483   6
   0  -9 -11 5187.23 236.678   1
   0  -9 -11 4541.83 220.343   9
   0 -10   5 142.779 69.9351   7
   0  10  -5 292.552 92.5953   1
   0 -10   5 219.401 90.1433   6
   0 -10   5 233.522 81.3037   2
   0 -10   5 182.169 77.8578   4
   0 -10   5 141.087 67.6344   5
   0  10  -4 696.495 105.356   1
   0 -10   4 543.100 94.9550   2
   0 -10   4 324.003 78.2528   4
   0 -10   4 497.718 77.6700   7
   0 -10   4 505.627 99.7826   6
   0 -10   3 168.429 84.7149   6
   0 -10   3 123.965 77.2012   2
   0 -10   3 194.007 60.4454   7
   0  10  -3 202.570 77.3539   1
   0 -10   2-11.9996 45.2485   7
   0 -10   2 90.4071 79.0094   6
   0 -10   2 70.7700 66.3258   2
   0 -10   1 369.814 89.3355   6
   0 -10   1 174.829 69.0436   2
   0 -10   1 285.941 61.3687   7
   0 -10   0 111.122 67.1314   2
   0 -10   0 51.7701 46.6393   7
   0 -10  -1 8.55296 66.6929   6
   0 -10  -1-29.4299 44.5191   7
   0 -10  -1 54.0346 58.9337   2
   0 -10  -2 456.517 76.4256   2
   0 -10  -2 402.545 55.5678   7
   0  10   3 228.152 82.5303  11
   0 -10  -3 474.347 75.5895   2
   0 -10  -3 338.513 88.1161   6
   0 -10  -3 398.159 57.0081   7
   0  10   4 377.482 82.0736   6
   0  10   4 409.201 87.5832  11
   0 -10  -4 434.142 73.3442   2
   0  10   5 1069.20 94.7558   3
   0  10   5 961.327 107.387  11
   0 -10  -5 927.873 73.2735   7
   0 -10  -5 1024.04 88.1381   2
   0  10   5 967.560 72.7118   8
   0  10   5 1095.00 119.068   6
   0  10   6 872.407 111.481   6
   0 -10  -6 722.625 75.2357   2
   0  10   6 704.520 101.144  11
   0  10   6 664.532 69.8339   8
   0 -10  -6 838.717 74.1811   7
   0  10   6 740.979 86.8183   3
   0  10   7-48.8866 53.0183   8
   0 -10  -7-57.6714 65.9766   9
   0 -10  -7 41.2161 71.6691   1
   0 -10  -7 8.21206 55.3151   2
   0 -10  -7 77.5958 50.9392   7
   0  10   7 24.6193 70.3639  11
   0  10   7 70.5087 68.5336   6
   0  10   7 100.095 57.0621   3
   0  10   8 186.504 65.3748   3
   0  10   8 119.178 62.2761   8
   0  10   8 135.914 81.5963  11
   0  10   8 141.302 77.0714   6
   0 -10  -8 108.349 70.9583   9
   0 -10  -8 15.0086 49.6934   2
   0 -10  -8 51.9322 82.9132   1
   0 -10  -9 970.201 117.300   9
   0  10   9 1255.31 129.355  11
   0 -10  -9 1195.40 124.647   1
   0  10   9 1168.33 99.6991   3
   0  10   9 1119.55 128.104   6
   0 -10  -9 1168.13 90.4237   2
   0  10  10 91.7658 61.2970   3
   0 -10 -10 4.32783 82.1456   1
   0  10  10 180.096 88.0787   6
   0  10  10 67.1979 78.4700  11
   0 -10 -10-56.5079 89.6730   9
   0 -11   3 70.2523 62.8295   7
   0  11  -3-51.7649 83.1348   1
   0 -11   3 59.4744 83.3696   6
   0 -11   3-52.5605 77.9953   2
   0 -11   2 50.9542 57.9849   7
   0 -11   2 146.731 77.2991   2
   0 -11   2 36.5476 81.3198   6
   0  11  -2 121.274 77.5360   1
   0 -11   1 379.291 92.5636   2
   0 -11   1 386.822 71.7990   7
   0 -11   1 305.804 84.5760   6
   0 -11   0 503.501 73.3764   7
   0 -11   0 612.463 94.8640   2
   0 -11  -1 83.7874 67.1942   2
   0 -11  -1 20.8484 49.5989   7
   0 -11  -1 111.345 78.9060   6
   0 -11  -2 50.2407 67.1110   2
   0 -11  -2 5.54049 46.8597   7
   0 -11  -2 37.0725 75.2639   6
   0 -11  -3-26.6354 76.8413   6
   0 -11  -3 78.2818 50.6766   7
   0 -11  -3 4.65895 68.2895   2
   0 -11  -4 94.2660 81.1761   6
   0  11   4 266.567 92.7452  11
   0  11   5 107.919 86.2432   6
   0 -11  -5-141.853 67.7197   2
   0  11   5-70.5426 80.5457  11
   0 -11  -6 1246.41 103.901   2
   0  11   6 1044.67 124.191   6
   0  11   6 1115.44 126.444  11
   0  11   7 29.5536 75.1438  11
   0 -11  -7 55.9856 61.9971   2
   0  11   7 214.732 72.5837   3
   0  11   7 145.281 86.8691   6
   0  11   8 3265.82 161.337   3
   0  11   8 3647.81 201.145   6
   0 -11  -8 2959.44 141.343   2
   0  11   8 3324.19 196.070  11
   0 -11  -9 136.435 90.9067   1
   0  11   9 59.7875 88.1638   6
   0  11   9 65.1405 68.8027   3
   0  11   9-87.5283 92.1140  11
   0 -12   0 2464.07 181.518   6
   0 -12  -1 384.247 106.231   6
   0 -12  -1 507.049 113.300   2
   0 -12  -2 211.499 91.0397   6
   0 -12  -2 163.254 79.1436   2
   0 -12  -3 145.280 74.9003   2
   0 -12  -3 313.725 102.974   6
   0 -12  -4 158.688 95.7088   6
   0 -12  -4 215.537 80.4977   2
   0 -12  -5 325.983 82.1155   2
   0  12   5 310.822 100.688  11
   0 -12  -5 444.478 108.066   6
   0  12   6 518.822 114.013  11
   0 -12  -6 507.203 90.0957   2
   0  12   6 388.635 106.738   6
   0 -12  -7 457.370 84.3831   2
  -1  11   8 199.917 82.8009   3
  -1  11   7 84.7279 86.4389   6
   1 -11  -7 162.785 82.0186   2
  -1  11   7 113.996 71.9591   3
  -1  11   7 73.7897 84.4656  11
  -1  11   6 152.475 79.0561   3
  -1  11   6 101.644 84.5830   6
  -1  11   6 157.152 84.4758  11
   1 -11  -6 156.191 73.8722   2
   1 -11  -5 105.674 95.2259   6
   1 -11  -5 136.760 70.9486   2
  -1  11   5 103.205 90.2984  11
   1 -11  -4 793.836 121.371   6
   1 -11  -4 849.640 98.5142   2
   1 -11  -3 550.003 86.9068   2
   1 -11  -3 704.756 115.224   6
   1 -11  -2 126.977 83.6043   6
   1 -11  -2 169.834 75.4245   2
   1 -11  -1 84.5826 86.4907   6
   1 -11  -1 107.523 74.3773   2
   1 -11   0 1222.88 139.979   6
   1 -11   0 1201.91 120.596   2
   1 -11   1 221.428 94.3586   6
   1 -11   1 107.657 84.1736   2
   1 -11   1-8.77363 66.3136   4
  -1  10  10 113.946 66.7045   3
   1 -10 -10 63.9526 95.5254   9
  -1  10   9 50.4312 84.9899  11
   1 -10  -9 62.7648 86.2839   1
   1 -10  -9-82.8914 89.4157   9
  -1  10   9-9.44615 81.2662   6
  -1  10   9-101.468 70.6769   3
  -1  10   9-1.89706 66.5457   8
  -1  10   8-25.9298 61.7615   8
   1 -10  -8 16.2045 57.7976   2
  -1  10   8 183.483 73.4319   3
   1 -10  -8 110.245 86.0706   9
  -1  10   8 51.0629 74.0103  11
  -1  10   8 74.0728 78.2229   6
  -1  10   7 128.205 61.3639   8
  -1  10   7 124.238 76.7126  11
  -1  10   7 153.237 81.8775   6
   1 -10  -7 279.011 67.1220   2
  -1  10   7 190.521 72.0761   3
  -1  10   6 142.176 56.9731   8
  -1  10   6 264.001 82.3439   6
  -1  10   6 281.726 71.8240   3
  -1  10   6 204.710 82.1284  11
   1 -10  -6 351.284 72.9697   2
  -1  10   5 21.9889 70.9849  11
  -1  10   5-12.7936 73.9801   6
  -1  10   5 26.1379 49.9348   8
  -1  10   5 82.9225 66.0476   3
   1 -10  -5 5.59018 57.5348   2
   1 -10  -4 1710.40 116.044   2
  -1  10   4 1843.18 125.995   3
  -1  10   4 1688.22 99.9127   8
  -1  10   4 1765.84 144.573  11
   1 -10  -4 1918.98 152.284   6
   1 -10  -3 1555.71 135.466   6
  -1  10   3 1726.00 100.015   8
   1 -10  -3 1825.48 118.266   2
   1 -10  -2 444.682 85.4769   2
   1 -10  -2 440.622 94.1767   6
   1 -10  -2 477.066 54.8145   7
   1 -10  -1 21.6574 37.8044   7
   1 -10  -1 131.717 72.1708   6
   1 -10  -1 124.139 70.1253   2
   1 -10   0 132.886 47.3434   7
   1 -10   0 106.822 81.7509   6
   1 -10   0 76.4651 65.4909   2
   1 -10   1 86.7582 50.0387   7
   1 -10   1-10.3304 67.0991   2
  -1  10  -2 637.334 101.776   1
   1 -10   2 612.692 95.4594   2
   1 -10   2 696.376 109.352   6
   1 -10   2 587.791 81.6172   4
   1 -10   2 520.093 72.0411   7
  -1  10  -3 501.777 104.453   1
   1 -10   3 450.116 85.4918   4
   1 -10   3 369.100 69.6070   7
   1 -10   3 167.928 85.8872   2
   1 -10   3 443.288 106.655   6
   1 -10   4 89.5797 60.8752   7
   1 -10   4 209.729 86.1709   2
   1 -10   4 75.5404 90.2404   6
  -1  10  -4 71.5113 84.1471   1
  -1   9  11 572.945 102.770  11
   1  -9 -11 241.783 98.8185   9
   1  -9 -11 540.651 109.012   1
  -1   9  11 294.987 80.0317   3
  -1   9  11 479.518 101.651   6
   1  -9 -10 394.705 96.8650   9
  -1   9  10 294.320 89.4028   6
  -1   9  10 394.057 80.5360   3
   1  -9 -10 567.749 100.936   1
  -1   9  10 400.751 91.8204  11
   1  -9  -9 383.140 98.4520   9
  -1   9   9 285.422 67.1900   3
   1  -9  -9 496.067 92.0883   1
  -1   9   9 367.482 83.9960  11
  -1   9   9 412.253 89.5085   6
  -1   9   8 229.934 74.3680  11
   1  -9  -8 221.879 77.0566   1
  -1   9   8 169.803 79.9083   6
  -1   9   8 137.562 58.9288   3
  -1   9   8 148.503 67.9152   8
   1  -9  -8 207.197 58.9152   2
   1  -9  -8 227.935 82.8512   9
   1  -9  -7 161.112 75.4040   1
  -1   9   7 47.6689 66.5235  11
  -1   9   7 71.4517 56.2484   3
   1  -9  -7 115.074 53.4268   2
  -1   9   7 112.410 72.4852   6
   1  -9  -7 141.778 79.2340   9
  -1   9   7 95.3789 58.1967   8
   1  -9  -6 1254.07 87.0238   2
  -1   9   6 1234.77 116.310   6
  -1   9   6 1257.38 117.282  11
  -1   9   6 1166.88 98.0321   3
  -1   9   6 1274.39 97.7463   8
  -1   9   5 3206.17 146.893   3
  -1   9   5 3358.69 171.042  11
  -1   9   5 3193.80 170.051   6
   1  -9  -5 2999.31 133.201   2
  -1   9   5 3307.25 133.100   8
   1  -9  -5 3213.73 100.058   7
   1  -9  -4 1988.14 80.8168   7
  -1   9   4 1768.56 131.638   6
  -1   9   4 2205.83 126.752   3
  -1   9   4 1818.47 98.7153   8
   1  -9  -4 1783.30 108.903   2
  -1   9   4 1750.19 128.563  11
   1  -9  -3 2640.66 93.0926   7
   1  -9  -3 2650.01 124.625   2
  -1   9   3 2294.16 147.341  11
   1  -9  -3 2901.10 163.636   6
  -1   9   3 2571.28 109.876   8
  -1   9   3 2584.39 137.130   3
   1  -9  -2 144.746 68.0047   6
  -1   9   2-16.1562 41.7951   8
   1  -9  -2 16.9041 33.5020   7
   1  -9  -2 29.4436 58.8119   2
   1  -9  -1 2974.96 105.354   7
   1  -9  -1 2903.95 160.852   6
  -1   9   1 2694.39 106.713   8
   1  -9   0 1772.24 87.8708   7
   1  -9   0 1896.23 138.595   6
   1  -9   0 1672.51 117.183   2
  -1   9   0 1871.68 90.5685   8
   1  -9   1 169.370 67.3968   2
  -1   9  -1 79.2989 40.2594   8
   1  -9   1 121.575 48.9730   7
   1  -9   1 285.877 84.5913   6
   1  -9   2 50.0471 64.7889   2
  -1   9  -2 192.713 49.6548   8
   1  -9   2 141.887 76.7587   6
   1  -9   2 245.945 50.7648   7
   1  -9   2 265.194 66.4608   4
   1  -9   3 116.448 73.7354   6
  -1   9  -3 44.6479 68.0886   1
  -1   9  -3 221.563 54.9719   8
   1  -9   3 43.9438 47.3628   7
   1  -9   3 270.892 78.6008   2
   1  -9   3 84.0490 58.5260   4
   1  -9   4 142.769 73.2280   2
  -1   9  -4-19.8697 75.0687   1
   1  -9   4 184.540 70.8340   4
   1  -9   4 4.60735 73.4425   6
   1  -9   4 86.5634 52.6305   5
   1  -9   4 71.0039 53.9466   7
   1  -9   5 3836.85 205.142   6
   1  -9   5 4274.15 193.361   2
  -1   9  -5 3758.38 200.895   1
   1  -9   5 4196.77 181.786   4
   1  -9   6 18.4722 70.6604   4
   1  -9   6 21.2088 71.8443   2
   1  -8 -12 284.922 95.0026   1
   1  -8 -12 316.563 106.638   9
  -1   8  12 355.248 87.4634   3
  -1   8  12 222.888 87.1787  11
  -1   8  12 257.084 87.2752   6
  -1   8  11 226.904 80.5536   6
   1  -8 -11 227.087 96.5731   9
  -1   8  11 386.495 89.9013  11
  -1   8  11 203.753 73.1567   3
   1  -8 -11 333.153 89.1685   1
   1  -8 -10 95.8213 79.4307   9
  -1   8  10-64.3891 68.2015  11
  -1   8  10 160.011 67.6599   3
   1  -8 -10-34.8543 68.1118   1
  -1   8  10 29.2378 65.9586   6
   1  -8  -9 201.926 48.6116   2
   1  -8  -9 58.8370 72.1414   9
  -1   8   9 194.333 70.6941  11
  -1   8   9 212.100 66.8178   3
  -1   8   9 138.567 70.8685   6
   1  -8  -9 159.797 74.3527   1
   1  -8  -8 203.052 72.4347   1
  -1   8   8 242.806 73.5606   6
   1  -8  -8 238.882 78.4286   9
  -1   8   8 80.8338 57.8403  11
  -1   8   8 201.851 57.7681   3
   1  -8  -8 235.050 50.5207   2
   1  -8  -7 43.6473 44.9852   2
   1  -8  -7-36.7708 60.8241   1
   1  -8  -7 15.0700 64.5948   9
  -1   8   7 90.4086 62.4971   6
  -1   8   7-0.48376 51.3910   3
  -1   8   7-15.8947 57.9954  11
  -1   8   6 910.073 95.7008  11
   1  -8  -6 924.330 95.6700   1
   1  -8  -6 1068.83 79.5357   2
   1  -8  -6 1213.04 104.796   9
  -1   8   6 964.850 85.4717   8
  -1   8   6 964.471 84.4600   3
  -1   8   6 1176.88 105.472   6
   1  -8  -6 1006.78 62.2551   7
  -1   8   5 2404.03 139.032   6
  -1   8   5 2062.21 105.705   8
  -1   8   5 2247.07 117.866   3
  -1   8   5 2290.40 134.420  11
   1  -8  -5 2124.45 101.525   2
   1  -8  -5 2286.74 82.6136   7
   1  -8  -4 26205.7 331.890   2
   1  -8  -4 27271.3 261.159   7
  -1   8   4 27056.0 430.361   6
  -1   8   4 26749.7 374.214   3
  -1   8   4 26327.3 334.954   8
  -1   8   4 26324.2 416.168  11
  -1   8   3 281.163 71.7187   6
   1  -8  -3 238.716 60.8482   2
  -1   8   3 200.828 46.5514   8
   1  -8  -3 318.592 40.4362   7
  -1   8   3 272.869 59.8863   3
  -1   8   3 288.912 66.7689  11
  -1   8   2 214.183 47.6214   8
   1  -8  -2 132.112 50.4181   2
  -1   8   2 303.612 64.2501   3
   1  -8  -2 160.453 67.8949   6
   1  -8  -2 251.739 39.3666   7
   1  -8  -1 116.291 55.9270   2
  -1   8   1 116.484 41.2500   8
   1  -8  -1 183.913 39.0687   7
   1  -8  -1 202.219 66.4275   6
   1  -8   0 300.112 71.3150   6
  -1   8   0 272.033 47.5826   8
   1  -8   0 238.918 63.1009   2
   1  -8   0 239.735 42.7889   7
   1  -8   1 286.147 65.6182   2
  -1   8  -1 225.784 43.7492   8
   1  -8   1 235.044 46.5471   7
   1  -8   1 412.471 81.4396   6
   1  -8   2 3164.29 116.706   7
   1  -8   2 3122.18 162.529   6
  -1   8  -2 3382.18 116.759   8
  -1   8  -3 112.672 43.8090   8
  -1   8  -3 8.64676 57.6010   1
   1  -8   3 26.2149 62.1465   6
   1  -8   3-37.9928 60.6655   2
   1  -8   3 89.7087 45.8611   7
   1  -8   3 50.6541 51.0768   4
   1  -8   4 1751.72 103.407   7
   1  -8   4 1767.86 134.568   6
   1  -8   4 1699.32 96.1670   5
   1  -8   4 1734.67 127.197   2
  -1   8  -4 1517.07 124.027   1
   1  -8   4 1509.02 107.140   4
  -1   8  -5 1155.46 111.761   1
   1  -8   5 1375.99 111.703   4
   1  -8   5 1254.82 90.5845   5
   1  -8   5 1314.47 126.611   6
   1  -8   5 905.255 109.651   2
   1  -8   6 773.424 110.367   6
   1  -8   6 543.384 82.8804   4
  -1   8  -6 617.661 98.6482   1
   1  -8   6 447.616 83.9908   2
   1  -8   7 193.866 77.8611   2
  -1   8  -7 146.028 87.2192   1
   1  -8   7 516.899 92.9122   4
   1  -8   7 566.948 110.580   6
  -1   7  12 179.625 80.3804  11
   1  -7 -12 187.156 81.1849   1
  -1   7  12 406.595 90.1652   6
  -1   7  12 316.839 76.9200   3
   1  -7 -11-17.1235 65.6133   1
  -1   7  11 33.9707 66.6185   6
  -1   7  11-17.3466 56.9999   3
  -1   7  11 99.3862 68.2042  11
  -1   7  10 310.105 76.0721   6
  -1   7  10 374.606 70.0972  10
  -1   7  10 482.512 81.6737  11
   1  -7 -10 316.250 88.7387   9
   1  -7 -10 436.276 82.6828   1
  -1   7  10 302.659 67.8626   3
   1  -7  -9 15.8685 67.2512   9
   1  -7  -9 220.899 67.6769   1
  -1   7   9 153.111 57.5443  10
  -1   7   9 144.355 58.3706   3
  -1   7   9 83.3814 64.5278   6
   1  -7  -9 179.314 41.5899   2
  -1   7   9 109.424 64.7940  11
   1  -7  -8 52.9644 54.3757   1
  -1   7   8-101.407 54.4541   3
  -1   7   8-43.0003 53.5481   6
  -1   7   8 29.9553 52.8056  11
   1  -7  -8-14.8398 68.6415   9
   1  -7  -8 49.8407 38.0404   2
   1  -7  -7 42657.5 523.711   9
   1  -7  -7 42209.6 511.351   1
   1  -7  -7 43630.9 361.423   2
  -1   7   7 41636.7 496.395  11
  -1   7   7 42605.6 457.769   3
  -1   7   7 42241.8 516.441   6
   1  -7  -6 15832.9 309.244   9
  -1   7   6 15658.4 273.022   3
  -1   7   6 15172.3 309.195   6
   1  -7  -6 15196.5 190.522   4
  -1   7   6 15348.8 299.690  11
   1  -7  -6 15819.5 226.505   2
   1  -7  -6 15165.9 303.995   1
   1  -7  -5 2199.80 124.711   1
  -1   7   5 2083.81 119.299  11
  -1   7   5 2274.18 107.928   3
   1  -7  -5 2054.70 119.212   9
  -1   7   5 2095.22 104.062   8
   1  -7  -5 2261.82 80.8359   7
  -1   7   5 2109.24 120.293   6
   1  -7  -5 2069.24 90.9181   2
   1  -7  -5 2188.00 86.5030   4
   1  -7  -4 745.702 48.6690   7
   1  -7  -4 806.771 66.3357   2
  -1   7   4 864.342 84.7435  11
  -1   7   4 816.436 82.8013   6
  -1   7   4 716.668 67.7025   8
  -1   7   4 801.860 73.0878   3
   1  -7  -3 1201.52 77.4180   2
  -1   7   3 1266.54 85.7260   3
  -1   7   3 1262.29 77.2030   8
   1  -7  -3 1261.01 59.0637   7
  -1   7   3 1494.79 104.723   6
  -1   7   3 1334.26 97.4553  11
   1  -7  -2 390.642 58.7520   2
  -1   7   2 315.181 57.5126   3
   1  -7  -2 329.389 36.2186   7
  -1   7   2 290.994 59.4534  11
   1  -7  -2 330.933 66.6524   6
  -1   7   2 295.138 45.2914   8
  -1   7   1 693.452 58.2543   8
  -1   7   1 556.890 62.5882   9
   1  -7  -1 722.062 81.2312   6
   1  -7  -1 694.396 74.5521   2
   1  -7  -1 698.864 49.9799   7
   1  -7   0 2074.74 80.8330   7
   1  -7   0 2025.14 93.9008   8
   1  -7   0 2107.02 121.397   6
  -1   7   0 1850.64 90.9186   7
  -1   7   0 2248.09 91.3841   8
   1  -7   0 2112.34 104.783   2
  -1   7   0 1864.95 98.5742   9
   1  -7   1 9768.71 215.272   2
  -1   7  -1 10163.7 184.449   8
   1  -7   1 9761.32 245.224   6
   1  -7   1 10111.1 175.692   7
   1  -7   2 38844.8 437.395   2
   1  -7   2 38455.5 491.992   6
  -1   7  -2 39626.6 367.546   8
   1  -7   2 39315.6 366.881   7
   1  -7   3 3912.14 169.181   6
  -1   7  -3 3930.01 163.485   1
   1  -7   3 4058.99 141.002   4
  -1   7  -3 4094.85 131.310   8
   1  -7   3 4210.40 158.359   2
   1  -7   3 3821.00 126.509   7
   1  -7   4 380.804 54.9948   7
  -1   7  -4 412.251 74.9966   1
   1  -7   4 483.522 81.3834   6
   1  -7   4 529.285 75.8089   2
  -1   7  -4 496.311 60.6213   8
   1  -7   4 417.605 54.9451   5
   1  -7   4 479.390 70.0620   4
   1  -7   5 1835.75 132.087   6
  -1   7  -5 1628.08 122.736   1
   1  -7   5 1920.35 122.688   2
   1  -7   5 1773.61 105.572   7
   1  -7   5 1748.73 94.8612   5
   1  -7   5 1748.85 112.813   4
   1  -7   6-8.84765 64.7668   6
   1  -7   6-70.1989 61.2200   2
   1  -7   6-3.59733 57.9830   4
  -1   7  -6-10.6368 62.7679   1
  -1   7  -7 38.5619 73.0509   1
   1  -7   7 95.2900 64.5568   2
   1  -7   7 13.9307 66.2942   4
   1  -7   7 56.7843 74.2887   6
   1  -7   8 1055.35 125.119   6
   1  -7   8 962.067 110.211   2
   1  -7   8 1217.58 114.655   4
  -1   7  -8 1166.16 130.368   1
  -1   6  13 319.496 84.9110   3
   1  -6 -13 527.584 103.343   1
  -1   6  13 397.803 95.5244  11
  -1   6  13 479.103 99.2372   6
   1  -6 -12 58.5692 70.5867   1
  -1   6  12 49.2856 63.7297   3
  -1   6  12-33.3977 68.5609   6
  -1   6  12-34.4974 68.9121  11
  -1   6  11 616.478 87.1438  11
  -1   6  11 543.179 80.1798   3
   1  -6 -11 530.140 85.0428   1
  -1   6  11 477.304 82.0960   6
  -1   6  10 1171.38 94.1331   3
  -1   6  10 1141.51 104.955   6
  -1   6  10 1295.61 113.243  11
   1  -6 -10 1460.69 116.260   1
   1  -6  -9 85.5285 57.3758   1
  -1   6   9-20.7025 56.4567  11
   1  -6  -9 6.79239 30.8467   2
  -1   6   9 5.56482 50.1556   3
  -1   6   9 98.5148 59.1932   6
  -1   6   8 18646.4 305.316   3
   1  -6  -8 19154.0 206.418   2
  -1   6   8 18507.3 331.869   6
   1  -6  -8 18268.2 329.214   1
  -1   6   8 17966.6 324.211  11
  -1   6   8 18758.1 295.136  10
   1  -6  -7 1618.15 56.6504   4
   1  -6  -7 1637.44 70.0992   2
   1  -6  -7 1667.66 113.329   9
  -1   6   7 1807.31 106.558  11
  -1   6   7 1758.88 98.9005   3
  -1   6   7 1580.81 79.3361   2
   1  -6  -7 1562.27 102.131   1
  -1   6   7 1462.94 87.9642  10
  -1   6   7 1604.72 103.642   6
  -1   6   6 1663.19 78.7775   2
  -1   6   6 1954.19 101.033   3
   1  -6  -6 1782.91 60.9305   4
   1  -6  -6 1771.92 105.351   1
  -1   6   6 1569.08 101.202   6
   1  -6  -6 1982.20 114.615   9
  -1   6   6 1660.21 99.4835  11
   1  -6  -6 1774.82 73.5083   2
   1  -6  -5 5406.22 110.654   4
  -1   6   5 5323.40 164.142  11
  -1   6   5 5137.16 123.262   2
  -1   6   5 5347.16 151.911   3
   1  -6  -5 5035.43 163.738   1
   1  -6  -5 5356.49 168.594   9
  -1   6   5 5235.17 168.888   6
   1  -6  -5 5541.07 124.111   2
  -1   6   4 74.1712 46.9947   6
   1  -6  -4-0.16539 35.1148   2
   1  -6  -4 45.8718 46.0563   1
   1  -6  -4 26.5725 24.2314   7
  -1   6   4 50.3344 37.4189   3
  -1   6   4 88.8477 43.1082  11
   1  -6  -4 49.7597 34.0762   4
  -1   6   4 43.9558 35.4095   8
   1  -6  -4 60.3157 48.4315   9
  -1   6   3 2372.55 113.616   6
  -1   6   3 2203.84 94.3977   8
  -1   6   3 2213.15 98.9937   3
  -1   6   3 2198.09 110.567  11
   1  -6  -3 2246.62 67.7020   7
   1  -6  -3 2196.44 88.2583   2
   1  -6  -2 2884.36 119.002  10
  -1   6   2 3351.82 121.686   3
  -1   6   2 3167.17 129.130   6
  -1   6   2 3147.36 129.328  11
   1  -6  -2 3056.61 104.900   2
   1  -6  -2 3115.80 78.9836   7
  -1   6   2 3257.45 106.261   8
  -1   6   1 1251.07 88.7215  11
   1  -6  -1 1316.34 79.0573   2
   1  -6  -1 1418.47 93.9985   6
  -1   6   1 1442.27 86.2861   3
   1  -6  -1 1260.34 54.3825   7
  -1   6   1 1330.98 69.1538   8
  -1   6   1 1374.33 81.4811   9
  -1   6   0 2052.73 82.6593   8
  -1   6   0 1983.72 95.3918   9
  -1   6   0 2015.58 80.6764   7
   1  -6   0 2002.71 87.8992   8
   1  -6   0 2121.99 95.4958   2
   1  -6   0 2069.42 72.5836   7
  -1   6  -1 21338.4 254.454   8
   1  -6   1 20870.9 274.358   8
   1  -6   1 21571.4 289.303   2
   1  -6   1 21175.7 333.063   6
   1  -6   1 21196.1 234.004   7
  -1   6  -1 20815.3 261.144   7
   1  -6   2 4598.01 120.370   7
   1  -6   2 4825.62 146.587   2
  -1   6  -2 4727.04 126.015   8
   1  -6   2 4634.20 164.258   6
  -1   6  -3 318.815 57.0580   1
   1  -6   3 215.357 59.6328   6
   1  -6   3 175.993 49.6192   4
   1  -6   3 80.6754 51.5478   2
   1  -6   3 195.695 43.0247   7
  -1   6  -3 150.530 39.8487   8
   1  -6   4 11477.9 201.730   5
   1  -6   4 11148.5 210.954   7
   1  -6   4 11055.0 226.196   4
  -1   6  -4 11354.3 263.096   1
   1  -6   4 11321.4 237.155   2
  -1   6  -4 11660.3 214.824   8
   1  -6   4 10891.8 265.205   6
   1  -6   5 7516.23 209.923   2
   1  -6   5 8548.43 211.669   4
  -1   6  -5 7724.79 228.016   1
   1  -6   5 8198.47 238.067   6
   1  -6   5 8173.19 180.983   5
   1  -6   6 604.489 78.3929   2
   1  -6   6 672.896 94.3245   6
   1  -6   6 775.530 82.5891   4
  -1   6  -6 686.873 85.8973   1
   1  -6   7 519.068 91.8979   6
  -1   6  -7 455.615 82.2083   1
   1  -6   7 528.833 75.8439   2
   1  -6   7 503.935 82.0599   4
   1  -6   8 47.8832 70.3294   6
  -1   6  -8 150.711 81.6540   1
   1  -6   8 36.6453 55.7713   2
   1  -6   8-39.0691 64.2882   4
  -1   6  -9-12.6518 72.7628   1
   1  -6   9 134.927 73.1641   4
   1  -6   9 66.7199 78.0203   6
   1  -5 -13 33.1371 74.2275   1
  -1   5  13 59.4799 71.3423  11
  -1   5  13 54.4206 70.9981   3
  -1   5  13 96.4408 72.5617   6
  -1   5  12 535.242 87.1907  11
  -1   5  12 651.333 86.3429   3
   1  -5 -12 496.990 88.9817   1
  -1   5  12 703.292 94.4474   6
   1  -5 -11 38.0446 59.5047   1
  -1   5  11 72.9534 63.0048  11
  -1   5  11 151.731 67.6148   6
  -1   5  11 69.8349 60.3789   3
  -1   5  10 3663.35 125.940   4
  -1   5  10 3198.13 154.711  11
  -1   5  10 3475.38 146.492   3
   1  -5 -10 3495.25 159.360   1
  -1   5  10 3931.53 166.800   6
  -1   5   9 173.799 57.6450   6
  -1   5   9 194.027 60.0540  11
  -1   5   9 148.051 52.6829   3
   1  -5  -9 122.227 25.7506   2
   1  -5  -9 145.572 57.5071   1
  -1   5   9 138.562 40.0558   4
   1  -5  -8 1660.44 57.0558   2
  -1   5   8 1625.48 105.077  11
   1  -5  -8 1587.57 105.002   1
  -1   5   8 1584.35 94.4787   3
  -1   5   8 1503.07 101.789   6
   1  -5  -8 1382.03 54.5076   4
  -1   5   7 15.8219 31.3167   2
   1  -5  -7 10.4050 27.0360   2
  -1   5   7 25.6604 45.7537  11
   1  -5  -7-24.7261 22.3168   4
  -1   5   7 10.7867 38.2460   3
   1  -5  -7 34.7060 47.0254   1
  -1   5   7 24.0361 42.8912   6
  -1   5   6 5741.44 119.485   2
   1  -5  -6 5760.62 108.169   2
  -1   5   6 5634.76 160.175  11
  -1   5   6 5713.67 154.005   3
   1  -5  -6 5959.10 92.4266   4
  -1   5   6 5511.65 139.204  10
  -1   5   6 5458.67 161.211   6
   1  -5  -6 5715.45 163.411   1
  -1   5   5 226.666 46.5689   6
   1  -5  -5 142.330 47.1479   1
   1  -5  -5 162.294 25.2137   4
   1  -5  -5 142.469 30.8038   2
  -1   5   5 183.171 32.0361   2
   1  -5  -5 173.847 50.6600   9
  -1   5   5 200.395 45.5040  11
  -1   5   5 184.753 43.0838   3
  -1   5   4 1082.45 72.6529  11
  -1   5   4 1167.87 72.9495   3
   1  -5  -4 919.310 75.6344   9
  -1   5   4 1023.07 75.1066   6
  -1   5   4 1053.24 56.1142   2
   1  -5  -4 1157.55 53.6618   4
   1  -5  -4 1066.08 55.4329   2
   1  -5  -4 1100.18 77.8339   1
   1  -5  -3 2705.36 84.6484   2
   1  -5  -3 2901.42 68.5701   7
  -1   5   3 2783.58 96.5962   8
  -1   5   3 2904.70 103.673   3
   1  -5  -3 3045.83 115.948   1
  -1   5   3 3044.36 116.014  11
  -1   5   3 2994.35 88.1161   2
  -1   5   3 3007.31 117.225   6
   1  -5  -3 2799.67 110.730   9
  -1   5   2 30230.5 292.376   8
   1  -5  -2 29246.2 312.665  10
   1  -5  -2 28912.2 206.514   7
  -1   5   2 28870.6 268.444   2
  -1   5   2 30218.8 356.212   6
  -1   5   2 29699.5 317.623   3
   1  -5  -2 28793.0 279.085   2
  -1   5   2 29254.2 344.239  11
   1  -5  -1 4210.84 84.2959   7
   1  -5  -1 4066.19 135.839   6
  -1   5   1 3977.90 106.152   8
  -1   5   1 4020.89 122.489   3
  -1   5   1 3967.49 117.640   9
   1  -5  -1 3908.00 111.937   2
  -1   5   0 1139.29 72.9683   3
   1  -5   0 1197.08 81.5560   6
  -1   5   0 1153.22 70.1425   9
  -1   5   0 1269.10 65.2738   8
   1  -5   0 1130.30 70.4389   2
   1  -5   0 1186.55 51.1231   7
  -1   5   0 1184.02 57.3639   7
   1  -5   0 1183.74 64.3349   8
  -1   5  -1 2603.52 86.7600   8
   1  -5   1 2389.18 76.2461   7
   1  -5   1 2485.44 111.387   6
  -1   5  -1 2537.04 85.5271   7
   1  -5   1 2431.84 91.2938   8
   1  -5   1 2673.89 98.4501   2
  -1   5  -2 5024.25 125.100   7
   1  -5   2 4893.41 143.676   2
   1  -5   2 4802.30 129.838   8
   1  -5   2 5176.07 116.682   7
   1  -5   2 5208.73 161.212   6
  -1   5  -2 5061.90 122.867   8
   1  -5   3 2691.31 123.455   6
   1  -5   3 2661.79 100.748   4
   1  -5   3 2629.38 94.0292   7
   1  -5   3 2804.38 110.146   2
  -1   5  -3 2657.91 119.224   1
  -1   5  -3 2654.96 97.0395   8
   1  -5   4 915.925 75.0228   2
   1  -5   4 937.318 61.2715   5
  -1   5  -4 1093.84 71.5928   8
   1  -5   4 1041.53 70.4710   7
   1  -5   4 1018.72 89.7715   6
  -1   5  -4 1216.52 90.0139   1
   1  -5   4 1095.00 78.0122   4
   1  -5   5 2130.94 107.307   4
   1  -5   5 2477.52 128.166   6
   1  -5   5 2335.84 94.0841   5
   1  -5   5 2223.83 114.755   2
  -1   5  -5 2303.65 122.674   1
   1  -5   6 69.9460 57.4545   6
   1  -5   6 31.5858 46.9262   2
  -1   5  -6-6.93887 50.3756   1
   1  -5   6-8.22222 47.7576   4
   1  -5   7 12294.7 270.614   4
   1  -5   7 12370.9 301.769   6
  -1   5  -7 12073.5 289.963   1
   1  -5   8 317.649 70.0159   2
  -1   5  -8 370.087 78.5061   1
   1  -5   8 436.844 79.6735   6
   1  -5   8 352.365 72.5727   4
  -1   5  -9 50.0152 67.5189   1
   1  -5   9-49.0473 71.0244   6
   1  -5   9-46.2178 66.5972   4
  -1   5 -10 611.009 107.225   1
   1  -5  10 484.453 90.3653   4
   1  -5  10 462.717 98.1106   6
   1  -4 -13 4.26558 72.2440   1
  -1   4  13 73.1961 77.3078   6
  -1   4  13 110.782 69.8246   3
  -1   4  13-54.8555 71.7918  11
  -1   4  12 28.2556 61.8407   3
  -1   4  12 35.2658 67.8507  11
   1  -4 -12 32.3538 69.4628   1
  -1   4  12 78.5389 67.7317   6
   1  -4 -11 3884.90 172.816   1
  -1   4  11 3902.38 138.885   4
  -1   4  11 3839.30 173.810  11
  -1   4  11 3964.04 172.226   6
  -1   4  11 3718.47 157.747   3
  -1   4  10 90.6432 43.7389   4
   1  -4 -10 25.7038 57.0045   1
  -1   4  10 32.8959 53.7209  11
  -1   4  10 80.9248 55.8652   3
  -1   4  10 165.413 58.7493   6
  -1   4   9 184.674 44.5777   4
   1  -4  -9 125.464 53.5499   1
  -1   4   9 173.393 57.5289  11
   1  -4  -9 87.2364 13.8834   2
  -1   4   9 15.8139 48.2254   6
  -1   4   9 111.458 47.2401   3
  -1   4   8 76.3735 35.8377   4
  -1   4   8 20.3945 45.3504  11
  -1   4   8 91.7365 46.1304   3
   1  -4  -8 46.1660 18.0759   2
  -1   4   8 72.4146 46.0285   6
   1  -4  -8-13.5876 43.9443   1
   1  -4  -7 10426.0 127.614   4
  -1   4   7 10549.5 160.582   4
  -1   4   7 10123.2 205.027   3
   1  -4  -7 10193.7 112.924   2
  -1   4   7 10421.0 131.987   2
  -1   4   7 10474.4 216.691   6
  -1   4   7 10005.3 213.823  11
   1  -4  -7 9963.60 213.393   1
   1  -4  -6 892.407 40.0545   2
  -1   4   6 926.085 71.2737   6
  -1   4   6 1005.28 48.3487   2
   1  -4  -6 941.258 38.3802   4
  -1   4   6 855.607 66.5375   3
   1  -4  -6 926.926 70.7900   1
  -1   4   6 875.503 68.6122  11
  -1   4   5 10046.4 183.549   3
   1  -4  -5 10411.0 126.518   2
   1  -4  -5 10021.6 196.342   1
  -1   4   5 10252.8 192.738  11
  -1   4   5 10279.1 194.018   6
   1  -4  -5 10298.6 196.098   3
  -1   4   5 10695.4 138.144   2
   1  -4  -5 10484.8 107.047   4
  -1   4   4 302.303 44.4498   3
   1  -4  -4 329.019 49.9191   6
   1  -4  -4 358.728 51.4934  11
  -1   4   4 362.172 49.9059   1
   1  -4  -4 287.421 55.4397   9
   1  -4  -4 243.208 23.8119   4
  -1   4   4 338.808 47.0302   6
  -1   4   4 333.810 45.0941  11
  -1   4   4 285.484 31.4477   2
   1  -4  -4 346.821 35.4782   2
  -1   4   4 399.318 44.8582  10
   1  -4  -4 298.645 47.2356   1
   1  -4  -4 287.535 46.8523   3
  -1   4   3 11015.7 190.392  11
   1  -4  -3 11299.2 190.898   3
   1  -4  -3 11488.3 194.170  11
   1  -4  -3 11467.1 196.525   1
   1  -4  -3 11649.0 196.943   6
   1  -4  -3 11012.1 198.248   9
  -1   4   3 12135.2 194.039   3
  -1   4   3 11194.4 145.167   2
  -1   4   3 11247.8 198.344   6
  -1   4   3 11460.8 191.994   1
   1  -4  -3 10902.6 145.091   2
  -1   4   2 22563.9 273.132  11
   1  -4  -2 22073.5 215.405   2
  -1   4   2 22050.8 256.490   1
  -1   4   2 22530.5 274.968   6
   1  -4  -2 21706.0 155.001   7
   1  -4  -2 21738.6 253.086  11
   1  -4  -2 21907.7 261.832   9
   1  -4  -2 22157.6 255.323   3
  -1   4   2 22205.5 208.826   2
   1  -4  -2 21583.1 256.663   6
   1  -4  -2 21541.1 227.861  10
  -1   4   2 21982.5 234.408   8
  -1   4   2 22284.0 249.599   3
  -1   4   1 4282.65 112.616   9
   1  -4  -1 4135.98 117.201  11
  -1   4   1 4650.76 122.623   1
  -1   4   1 4455.53 107.089   8
   1  -4  -1 4824.24 122.820   3
   1  -4  -1 4184.85 122.430   6
   1  -4  -1 4292.99 73.5361   7
  -1   4   1 4337.66 116.038   3
   1  -4  -1 4314.69 105.845   2
  -1   4   1 4198.90 123.430   6
  -1   4   1 4643.60 128.648  11
  -1   4   1 4351.99 99.7105   2
  -1   4   0 22279.7 231.705   2
   1  -4   0 22599.2 281.441   6
  -1   4   0 22497.0 199.290   7
   1  -4   0 23159.8 239.364   8
   1  -4   0 22710.0 257.858   3
   1  -4   0 22056.5 178.893   7
   1  -4   0 22628.1 279.172  11
  -1   4   0 22711.0 264.241   3
   1  -4   0 22665.5 242.378   2
  -1   4   0 22814.0 231.274   8
   1  -4   0 22064.0 277.434   6
  -1   4  -1 1180.69 56.2859   7
   1  -4   1 1139.85 50.7434   7
   1  -4   1 1077.17 64.7853   2
  -1   4  -1 1185.21 65.5313   2
   1  -4   1 1096.87 71.3396  11
  -1   4  -1 1213.54 61.2702   8
   1  -4   1 1124.32 61.5448   8
   1  -4   1 1127.59 74.3830   6
   1  -4   1 1139.41 68.4662   3
   1  -4   1 1044.03 74.1537   6
  -1   4  -2 4732.05 111.088   7
   1  -4   2 5021.49 145.376   6
   1  -4   2 4739.25 120.879   8
  -1   4  -2 4911.10 114.008   8
   1  -4   2 4696.04 123.812   2
   1  -4   2 4592.41 106.014   7
  -1   4  -3 123.758 40.2944   1
   1  -4   3 174.039 34.6449   7
   1  -4   3 174.611 42.3048   4
  -1   4  -3 165.378 35.7878   8
   1  -4   3 198.816 33.5508   5
  -1   4  -3 200.207 38.0420   7
   1  -4   3 184.619 42.5725   8
   1  -4   3 118.955 43.7170   6
   1  -4   3 202.370 44.0542   2
   1  -4   4 983.045 80.6962   6
   1  -4   4 1047.57 60.2737   5
  -1   4  -4 1056.04 66.2612   8
   1  -4   4 1023.71 71.0350   4
   1  -4   4 965.018 72.9904   2
  -1   4  -4 970.715 73.8197   1
   1  -4   4 936.244 61.3370   7
   1  -4   5 1395.68 97.7306   6
   1  -4   5 1280.69 82.4661   4
  -1   4  -5 1459.69 96.2525   1
   1  -4   6 2039.09 118.307   6
   1  -4   6 2062.98 102.950   2
   1  -4   6 2224.28 109.355   4
  -1   4  -6 2215.74 119.357   1
  -1   4  -7 883.747 84.7928   1
   1  -4   7 1071.32 86.7037   4
   1  -4   7 1030.24 97.7349   6
   1  -4   7 871.582 77.4768   2
  -1   4  -8 223.284 68.3528   1
   1  -4   8 191.508 63.5220   4
   1  -4   8 303.801 75.9798   6
   1  -4   9 547.860 90.0870   6
   1  -4   9 561.092 80.8465   4
  -1   4  -9 527.140 90.1937   1
  -1   4 -10 534.616 97.1119   1
   1  -4  10 538.487 95.5342   6
   1  -4  10 297.586 79.9782   4
  -1   4 -11-19.8014 81.3798   1
   1  -4  11-40.9819 74.6349   4
   1  -4  11 10.7641 79.1273   6
  -1   3  13-60.6519 71.0466   6
  -1   3  13 24.5341 65.2325   3
   1  -3 -13 71.1176 73.3658   1
  -1   3  12 125.472 57.2076   4
  -1   3  12 96.2591 63.0439   3
   1  -3 -12-8.13589 60.8417   1
  -1   3  12-9.47332 61.1592   6
  -1   3  11 2621.43 118.124   4
   1  -3 -11 2297.10 133.958   1
  -1   3  11 2502.16 132.706   3
  -1   3  11 2436.46 138.792   6
   1  -3 -10 30.5420 48.7059   1
  -1   3  10 6.26060 62.4054   3
  -1   3  10-28.6526 42.8562   4
  -1   3  10-69.4572 55.3370   6
  -1   3   9 3444.06 112.241   4
   1  -3  -9 3387.42 138.385   1
  -1   3   9 3232.29 133.067   3
  -1   3   9 3563.75 144.819   6
  -1   3   9 3302.43 140.467  11
  -1   3   8 3639.87 105.534   4
  -1   3   8 3566.20 139.870  11
  -1   3   8 3500.33 134.275   6
   1  -3  -8 3408.92 131.065   1
  -1   3   8 3623.96 131.826   3
  -1   3   7 1891.24 97.3320  11
  -1   3   7 1840.15 94.4330   6
   1  -3  -7 1778.47 36.3779   2
  -1   3   7 2001.55 72.2324   4
   1  -3  -7 1911.37 74.3115   7
  -1   3   7 2012.84 96.1279   3
   1  -3  -6 2042.19 54.6449   4
  -1   3   6 2041.82 64.8603   4
   1  -3  -6 1944.33 42.3808   2
  -1   3   6 1839.76 89.7064  11
  -1   3   6 1964.89 49.2424   2
   1  -3  -6 2059.42 91.9797   1
  -1   3   6 1902.07 88.1049   6
  -1   3   6 2232.32 94.8581   3
  -1   3   5 326.575 47.1454   1
   1  -3  -5 286.261 23.9409   2
  -1   3   5 250.103 28.2019   4
   1  -3  -5 284.505 44.5556   6
   1  -3  -5 228.090 41.3018   1
  -1   3   5 223.650 41.8310   3
  -1   3   5 339.089 46.7387  11
  -1   3   5 305.214 28.4107   2
  -1   3   5 184.334 40.8324   6
   1  -3  -5 252.752 44.0733   3
   1  -3  -5 267.192 21.9800   4
   1  -3  -4 24989.4 271.877   3
  -1   3   4 24408.3 264.482  11
  -1   3   4 24592.5 263.757   6
  -1   3   4 25001.0 173.693   2
  -1   3   4 24990.2 264.850   3
   1  -3  -4 24444.1 169.246   2
   1  -3  -4 25220.7 134.371   4
   1  -3  -4 25692.1 273.563   6
   1  -3  -4 25028.9 269.692   1
  -1   3   4 24699.6 266.611   1
   1  -3  -3 21932.3 264.304   9
  -1   3   3 23049.6 173.224   2
   1  -3  -3 23160.7 137.297   4
  -1   3   3 23634.7 244.572   1
  -1   3   3 22972.6 243.993   6
   1  -3  -3 22945.4 248.001   3
   1  -3  -3 24395.3 247.292   6
   1  -3  -3 23818.5 248.738  11
  -1   3   3 23613.4 243.294  11
   1  -3  -3 23338.8 176.193   2
  -1   3   3 23257.6 242.831   3
   1  -3  -3 22950.7 249.534   1
   1  -3  -2 1586.38 54.3189   2
   1  -3  -2 1582.01 75.1259   9
   1  -3  -2 1480.22 66.3401   6
  -1   3   2 1644.78 68.7243   1
   1  -3  -2 1531.96 69.6546   1
   1  -3  -2 1807.80 72.4003   3
  -1   3   2 1581.20 68.0155  11
  -1   3   2 1856.20 75.0813   3
  -1   3   2 1561.60 51.4002   2
   1  -3  -2 1655.22 57.2471  10
   1  -3  -2 1509.27 36.7052   7
  -1   3   2 1608.63 65.4634   8
  -1   3   2 1480.62 66.9771   6
   1  -3  -2 1589.50 67.3700  11
  -1   3   1 10409.7 154.284   3
  -1   3   1 10401.7 164.406  11
   1  -3  -1 10318.8 137.217   2
  -1   3   1 10448.7 131.851   2
  -1   3   1 10669.8 160.139   1
   1  -3  -1 10480.4 158.623  11
   1  -3  -1 10321.3 162.927   6
  -1   3   1 10218.3 157.641   9
   1  -3  -1 10361.2 88.8122   7
  -1   3   1 11159.8 152.585   8
   1  -3  -1 10347.3 158.832   3
  -1   3   1 10335.1 164.759   6
   1  -3   0 963.941 35.4495   7
  -1   3   0 994.078 51.4236   8
  -1   3   0 996.068 39.1946   7
   1  -3   0 986.794 58.0404   6
   1  -3   0 998.808 53.9531   8
  -1   3   0 1032.40 50.3435   2
   1  -3   0 970.851 52.3355   2
   1  -3   0 1077.05 62.4119   6
   1  -3   0 958.684 54.5302   3
   1  -3   0 979.158 57.9734  11
  -1   3   0 895.528 55.7565   3
   1  -3   1 1475.52 74.5473  11
   1  -3   1 1624.83 52.0287   7
  -1   3  -1 1821.43 67.6690   8
  -1   3  -1 1749.13 56.3078   7
   1  -3   1 1794.80 68.3971   8
  -1   3  -1 1640.78 78.8656   6
   1  -3   1 1524.31 69.2087   3
  -1   3  -1 1675.94 68.3474   2
   1  -3   1 1635.13 76.7441   6
   1  -3   1 1706.52 71.2241   2
  -1   3  -2 3506.97 109.474   1
   1  -3   2 3651.27 93.6766   4
   1  -3   2 3593.53 104.288   3
  -1   3  -2 3577.30 114.963   6
   1  -3   2 3368.31 103.432   2
  -1   3  -2 3852.32 89.5066   7
   1  -3   2 3663.98 86.0326   7
   1  -3   2 3463.88 98.9913   8
  -1   3  -2 3581.17 94.6907   8
  -1   3  -2 3520.81 98.0982   2
   1  -3   3 947.623 66.4450   3
  -1   3  -3 912.347 66.4816   1
   1  -3   3 915.743 52.4601   7
  -1   3  -3 825.053 67.3767   6
  -1   3  -3 801.147 54.2610   8
  -1   3  -3 907.827 59.2542   2
   1  -3   3 865.489 60.8263   8
   1  -3   3 917.253 63.1196   2
  -1   3  -3 980.381 56.1192   7
   1  -3   3 893.867 47.2811   5
   1  -3   3 875.446 56.0481   4
   1  -3   3 949.151 73.4532   6
  -1   3  -4 1427.74 73.2775   8
   1  -3   4 1673.43 80.2646   8
   1  -3   4 1665.70 90.0421   6
   1  -3   4 1445.22 76.5156   2
   1  -3   4 1507.31 74.4957   4
  -1   3  -4 1357.93 79.7440   1
   1  -3   5 5325.96 160.230   6
   1  -3   5 5413.08 145.305   4
  -1   3  -5 5712.94 159.698   1
   1  -3   5 5550.24 139.146   2
   1  -3   6 1596.43 98.9843   6
  -1   3  -6 1667.36 98.0400   1
   1  -3   6 1705.10 94.3757   4
   1  -3   6 1740.58 86.0659   2
  -1   3  -7-66.7111 53.9000   1
   1  -3   7-23.4730 51.0713   6
   1  -3   7 28.8784 47.7057   4
  -1   3  -8 84.7490 51.1847   1
   1  -3   8 127.896 57.3727   6
   1  -3   8 179.536 58.0779   4
   1  -3   9 1027.00 102.732   6
  -1   3  -9 1078.63 104.615   1
   1  -3   9 1216.52 99.3853   4
   1  -3  10 758.610 93.6456   4
   1  -3  10 726.081 99.4285   6
  -1   3 -10 997.868 108.484   1
  -1   3 -11 1226.55 125.609   1
   1  -3  11 1530.61 127.609   4
   1  -3  11 1315.17 127.497   6
   1  -3  12 179.853 88.1200   4
   1  -3  12-40.5405 86.2593   6
  -1   2  13 209.833 78.5967   6
   1  -2 -13 420.850 89.6210   1
  -1   2  13 287.108 88.8236   3
  -1   2  12 346.700 76.5480   6
  -1   2  12 389.014 84.1864   3
  -1   2  12 360.570 67.3832   4
   1  -2 -12 474.374 82.5308   1
   1  -2 -11-23.4806 51.6806   1
  -1   2  11 95.1869 64.8234   3
  -1   2  11-60.8293 47.9956   4
  -1   2  11-17.5640 57.3693   6
  -1   2  10 6337.45 196.480   3
   1  -2 -10 6220.12 191.518   1
  -1   2  10 6073.28 191.494   6
  -1   2  10 5942.84 158.046   4
   1  -2  -9 11163.8 236.394   1
  -1   2   9 11468.1 243.757   6
  -1   2   9 11515.7 246.438   3
  -1   2   9 11508.2 202.441   4
  -1   2   8 282.040 53.4383   6
  -1   2   8 271.954 52.7336   3
  -1   2   8 367.880 45.0638   4
   1  -2  -8 211.954 49.3621   1
  -1   2   7 2099.22 74.7344   4
  -1   2   7 2130.65 97.5826   6
   1  -2  -7 2266.32 84.3143   7
   1  -2  -7 1997.72 93.3476   1
  -1   2   7 2128.79 99.6807   3
  -1   2   6 34268.3 253.873   4
   1  -2  -6 35166.2 276.105   7
   1  -2  -6 34060.6 337.264   1
   1  -2  -6 33978.0 343.592   6
  -1   2   6 34106.5 333.923   1
  -1   2   6 34250.1 339.489   6
  -1   2   6 34558.0 347.578   3
  -1   2   5 185.078 26.4198   4
  -1   2   5 190.977 40.1284   1
  -1   2   5 198.912 40.3732  11
   1  -2  -5 180.751 40.3920   1
   1  -2  -5 104.365 37.1578   6
   1  -2  -5 148.506 12.4652   2
   1  -2  -5 143.679 28.2311   7
  -1   2   5 152.361 41.3298   3
  -1   2   5 204.142 38.8063   6
  -1   2   4 965.310 55.7503   1
  -1   2   4 875.042 55.0149  11
  -1   2   4 911.918 34.4821   4
   1  -2  -4 906.572 26.8511   2
   1  -2  -4 976.494 28.9501   4
   1  -2  -4 813.290 52.1667   1
   1  -2  -4 833.797 57.8302   3
  -1   2   4 900.250 28.6749   2
  -1   2   4 892.713 56.9783   3
   1  -2  -4 940.417 55.7723   6
  -1   2   4 875.602 53.8602   6
  -1   2   3 5514.44 65.9972   2
   1  -2  -3 5568.81 115.514   3
   1  -2  -3 5549.10 111.573  11
   1  -2  -3 5726.56 112.479   6
  -1   2   3 5463.87 113.167   3
   1  -2  -3 5619.92 110.299   1
  -1   2   3 5791.45 110.748   6
  -1   2   3 5492.08 107.788  11
  -1   2   3 5519.52 109.108   1
   1  -2  -3 5538.33 67.7212   2
   1  -2  -2 9659.25 99.7489   2
   1  -2  -2 9625.13 155.475   9
  -1   2   2 9769.50 132.871   1
  -1   2   2 9379.36 134.837   3
  -1   2   2 9602.09 94.8999   2
   1  -2  -2 9453.69 133.034   1
   1  -2  -2 9739.23 134.654   6
   1  -2  -2 9728.23 134.405  11
   1  -2  -2 9439.88 137.580   3
  -1   2   2 9625.63 131.679  11
  -1   2   2 9773.63 136.304   6
   1  -2  -1 1725.30 60.4286   6
  -1   2   1 1652.10 57.4588   1
  -1   2   1 1686.00 60.8766  11
   1  -2  -1 1602.46 59.0724   3
   1  -2  -1 1609.69 56.9025  11
  -1   2   1 1645.40 58.7908   8
   1  -2  -1 1672.32 49.6904   2
  -1   2   1 1661.40 48.1873   2
  -1   2   1 1836.17 65.2588   3
  -1   2   1 1665.51 60.5506   6
  -1   2   1 1674.22 65.9050   9
  -1   2   0 8021.25 121.146   3
  -1   2   0 8142.45 117.919   8
   1  -2   0 8102.17 127.398   6
   1  -2   0 8370.22 128.105  11
   1  -2   0 8126.32 122.276   3
   1  -2   0 8240.52 111.760   2
   1  -2   0 8241.83 120.756   8
   1  -2   0 8033.27 89.1082   4
  -1   2   0 8088.74 108.031   2
  -1   2   0 8031.34 77.6719   7
   1  -2   0 7949.66 72.9301   7
   1  -2   0 7972.69 126.427   6
   1  -2   1 218.302 36.9340   6
  -1   2  -1 229.431 23.5261   7
   1  -2   1 147.513 25.6693   4
   1  -2   1 181.362 32.4991   2
   1  -2   1 168.408 30.0415   8
   1  -2   1 165.590 31.4743   3
   1  -2   1 157.716 20.3212   7
  -1   2  -1 186.409 31.2480   2
  -1   2  -1 177.371 35.8618   6
  -1   2  -1 160.671 30.7061   8
  -1   2  -1 178.252 30.5222   3
  -1   2  -2 20829.1 202.548   8
   1  -2   2 21044.3 159.907   5
  -1   2  -2 21493.8 203.737   2
   1  -2   2 20856.0 196.930   4
  -1   2  -2 21181.6 180.328   7
  -1   2  -2 21069.6 236.985   6
   1  -2   2 20683.4 214.421   3
   1  -2   2 20966.0 211.534   8
   1  -2   2 21178.2 237.824   6
   1  -2   2 20575.1 181.319   7
  -1   2  -2 21019.5 229.149   1
   1  -2   2 21431.1 216.092   2
  -1   2  -3 1670.05 80.5817   6
   1  -2   3 1552.63 66.1251   2
  -1   2  -3 1534.18 60.8443   7
   1  -2   3 1605.17 68.3561   4
   1  -2   3 1636.87 70.7834   8
  -1   2  -3 1678.30 68.0042   8
   1  -2   3 1628.46 77.2639   6
  -1   2  -3 1527.11 66.4343   2
  -1   2  -3 1616.45 76.0525   1
  -1   2  -4 66883.8 407.459   7
  -1   2  -4 68455.1 433.225   8
  -1   2  -4 66620.7 407.287   2
   1  -2   4 66929.5 491.943   6
   1  -2   4 68270.5 417.896   2
  -1   2  -4 65459.0 492.427   6
   1  -2   4 68514.0 476.527   1
   1  -2   4 67935.9 435.922   4
   1  -2   4 69099.2 457.504   8
   1  -2   5 3633.62 105.807   2
  -1   2  -5 3315.04 118.856   1
   1  -2   5 3239.61 120.501   6
  -1   2  -5 3316.41 101.086   2
   1  -2   5 3570.09 112.543   4
   1  -2   6 1987.65 103.953   6
   1  -2   6 2009.14 94.5613   4
  -1   2  -6 2115.09 101.721   1
  -1   2  -7-6.01179 44.7721   1
   1  -2   7 75.9238 53.2614   6
   1  -2   7 102.753 48.5575   4
   1  -2   8 23.0477 47.0100   4
   1  -2   8-82.8465 53.4496   6
   1  -2   9 329.438 68.1887   4
  -1   2  -9 416.435 67.9983   1
   1  -2   9 186.064 63.2145   6
   1  -2  10 1332.45 109.981   4
  -1   2 -10 1411.71 116.701   1
   1  -2  10 1243.34 112.804   6
  -1   2 -11 4764.35 202.832   1
   1  -2  11 4954.84 211.713   6
   1  -2  11 4776.36 199.395   4
  -1   2 -12 135.584 81.3681   1
   1  -2  12 262.826 82.4936   6
   1  -2  12 205.650 78.5772   4
  -1   1  13 941.495 101.493   4
   1  -1 -13 828.353 107.668   1
  -1   1  13 858.494 108.861   3
  -1   1  13 1002.86 115.420   6
  -1   1  12 560.572 84.8906   3
  -1   1  12 748.629 96.5322   6
   1  -1 -12 563.471 89.8171   1
  -1   1  12 571.885 75.8809   4
  -1   1  11 99.8363 50.5268   4
   1  -1 -11 181.532 62.7999   1
  -1   1  11 177.044 61.3613   6
  -1   1  11 65.0382 61.5484   3
  -1   1  10 82.2319 56.9591   3
  -1   1  10 56.2325 42.4006   4
   1  -1 -10 59.3186 48.4971   1
  -1   1  10 57.6831 52.5445   6
  -1   1   9 9140.81 219.144   6
   1  -1  -9 9492.46 224.361   1
  -1   1   9 9273.79 224.261   3
  -1   1   9 9336.65 184.242   4
   1  -1  -8 343.571 54.0889   1
  -1   1   8 269.479 51.4009   6
  -1   1   8 250.486 41.8471   4
  -1   1   8 364.338 57.1651   3
   1  -1  -7 295.375 45.1133   1
  -1   1   7 356.327 52.4018   3
  -1   1   7 357.802 40.1472   4
  -1   1   7 379.563 49.7630   6
   1  -1  -6 3882.93 115.795   1
  -1   1   6 3834.64 113.657   1
  -1   1   6 3805.51 91.7071   4
  -1   1   6 3747.96 120.232   3
   1  -1  -6 3923.14 120.623   6
  -1   1   6 3964.66 116.102   6
   1  -1  -6 3898.64 99.8540   7
  -1   1   5 18524.4 170.376   4
  -1   1   5 18904.9 225.773   6
   1  -1  -5 18459.4 219.710   5
   1  -1  -5 18540.8 232.332   6
  -1   1   5 18656.1 235.556   3
   1  -1  -5 19365.7 192.198   7
   1  -1  -5 18769.1 224.661   1
  -1   1   5 18816.9 221.587   1
  -1   1   4 1113.18 54.0829   1
   1  -1  -4 1031.80 42.6918   7
  -1   1   4 1004.20 36.2130   4
   1  -1  -4 1018.39 55.2115   6
   1  -1  -4 931.438 49.9389   1
  -1   1   4 978.550 52.7626   6
  -1   1   4 1013.96 58.7781   3
   1  -1  -3 9694.72 146.384   3
  -1   1   3 9439.30 141.032   3
   1  -1  -3 9268.33 128.560   6
  -1   1   3 9497.38 125.738   1
   1  -1  -3 9688.31 96.7846   7
   1  -1  -3 9188.07 124.443   1
  -1   1   3 9489.69 76.6631   4
  -1   1   3 9761.25 128.797   6
  -1   1   2 85016.2 372.424   3
   1  -1  -2 87854.5 414.889   9
  -1   1   2 87766.1 323.751   1
   1  -1  -2 87079.6 207.060   7
  -1   1   2 89286.8 203.367   2
   1  -1  -2 86983.7 379.391   3
   1  -1  -2 88529.3 217.397   2
  -1   1   2 83349.7 326.422   6
  -1   1   2 87684.2 331.147  11
   1  -1  -2 84591.8 326.572   6
   1  -1  -2 85098.1 327.941   1
   1  -1  -2 85167.0 335.510  11
  -1   1   1 1078.30 39.2648  11
  -1   1   1 1028.84 44.1249   3
   1  -1  -1 963.414 36.1473  11
  -1   1   1 1117.79 40.8551   6
   1  -1  -1 1133.69 34.1955   2
   1  -1  -1 1055.30 38.5404   6
   1  -1  -1 1032.43 43.5276   3
   1  -1  -1 1061.08 39.1785   1
  -1   1   1 1059.01 32.5808   2
  -1   1   1 1071.12 39.2791   1
  -1   1   1 848.526 50.0973   9
   1  -1  -1 1098.34 52.3741   9
  -1   1   0 3604.59 68.8804   3
   1  -1   0 3500.15 69.1392  11
  -1   1   0 3511.93 71.8071   8
   1  -1   0 3625.70 64.2340   2
  -1   1   0 3740.11 63.7135   2
   1  -1   0 3657.68 72.4277   8
  -1   1   0 3552.48 70.7457   6
   1  -1   0 3567.93 68.7990   6
  -1   1   0 3705.74 50.0694   4
   1  -1   0 3480.03 50.4220   4
   1  -1   0 3792.91 71.4568   3
  -1   1   0 3630.81 38.1172   7
  -1   1  -1 23.1263 20.0896   4
  -1   1  -1 22.6178 15.8727   7
   1  -1   1-1.32118 24.7431   8
   1  -1   1 4.34184 19.6456   4
   1  -1   1 20.8559 25.4615   6
  -1   1  -1 6.53959 23.5926   8
   1  -1   1 6.79268 23.3262   2
  -1   1  -1-32.7619 26.2445   2
  -1   1  -1 25.4409 23.3000   1
  -1   1  -1 26.5220 25.7984   6
   1  -1   1 2.03451 20.5741   3
  -1   1  -1-15.0674 21.2574   3
  -1   1  -2 1855.20 45.6250   5
  -1   1  -2 1907.72 60.5024   8
  -1   1  -2 1959.58 53.4971   7
   1  -1   2 1925.99 59.4712   4
  -1   1  -2 1898.44 58.7793   2
   1  -1   2 1833.89 66.7029   6
  -1   1  -2 1835.24 63.8103   1
   1  -1   2 1950.95 60.2011   3
  -1   1  -2 1926.11 57.7858   4
   1  -1   2 1940.75 64.7354   1
   1  -1   2 1893.27 61.0837   2
  -1   1  -2 1906.61 68.2765   6
   1  -1   2 1812.98 61.8926   8
  -1   1  -3 64716.8 389.047   1
  -1   1  -3 64098.3 342.789   4
   1  -1   3 62478.7 384.493   1
  -1   1  -3 62651.4 362.305   8
  -1   1  -3 62147.2 330.413   7
   1  -1   3 63629.8 343.887   2
  -1   1  -3 62940.1 342.315   2
   1  -1   3 64959.0 371.782   8
   1  -1   3 63179.0 399.922   6
  -1   1  -3 63911.1 405.783   6
   1  -1   3 62731.4 359.338   4
  -1   1  -3 63327.2 310.051   5
  -1   1  -4 222.808 38.7769   2
   1  -1   4 226.758 40.4462   4
  -1   1  -4 206.648 41.0871   1
   1  -1   4 153.235 36.8830   8
  -1   1  -4 189.380 35.6112   7
  -1   1  -4 174.474 38.5176   8
  -1   1  -4 255.873 37.2544   5
   1  -1   4 214.760 42.1123   1
  -1   1  -4 196.328 45.6158   6
   1  -1   4 179.948 45.6171   6
  -1   1  -5 1714.63 75.1729   7
  -1   1  -5 1679.80 73.0360   5
   1  -1   5 1572.29 76.6955   8
   1  -1   5 1715.23 86.9711   6
  -1   1  -5 1544.97 80.3052   1
  -1   1  -5 1554.85 87.4122   6
  -1   1  -5 1646.69 68.8037   2
   1  -1   5 1476.04 80.7351   1
   1  -1   5 1737.73 79.7185   4
  -1   1  -6 1317.94 81.6280   1
   1  -1   6 1468.80 79.0905   4
  -1   1  -6 1376.89 65.3403   2
   1  -1   6 1386.50 87.4718   6
  -1   1  -7 115.214 40.2503   1
   1  -1   7 163.411 49.4336   6
   1  -1   7 135.353 45.5010   4
  -1   1  -8 2382.42 118.708   1
   1  -1   8 2636.42 118.423   4
   1  -1   8 2493.03 124.297   6
   1  -1   9 8881.52 222.580   4
  -1   1  -9 8544.17 228.661   1
   1  -1   9 8826.04 236.186   6
   1  -1  10 328.664 65.4767   4
  -1   1 -10 318.122 73.3950   1
   1  -1  10 297.940 72.8437   6
   1  -1  11 118.603 71.6034   6
  -1   1 -11 134.547 70.1871   1
   1  -1  11 164.658 67.8326   4
   1  -1  12 1986.35 138.747   4
  -1   1 -12 1735.96 138.861   1
   1  -1  12 1743.62 141.788   6
   1  -1  13 7.77525 73.4691   4
   1   0 -13 372.807 93.1352   1
  -1   0  13 412.630 91.1695   3
  -1   0  13 382.338 83.4838   4
  -1   0  13 289.378 78.5534   6
  -1   0  12 1.45049 58.5195   4
   1   0 -12 62.1536 65.9547   1
  -1   0  12 30.5726 71.0341   3
  -1   0  12 140.224 70.0065   6
   1   0 -11 1443.11 111.543   1
  -1   0  11 1292.84 108.788   6
  -1   0  11 1529.37 101.170   4
  -1   0  10 2749.77 119.070   4
   1   0 -10 2521.62 129.298   1
  -1   0  10 2618.55 132.720   6
   1   0  -9 17181.6 297.293   1
  -1   0   9 16526.0 295.342   6
  -1   0   9 16588.9 253.368   4
  -1   0   8 8720.18 171.476   4
   1   0  -8 8557.49 199.216   1
   1   0  -8 8133.73 88.8521   2
  -1   0   8 8863.95 205.797   6
  -1   0   7 74.0616 30.1685   4
   1   0  -7 96.9471 41.8115   1
   1   0  -7 33.7047 13.7781   2
  -1   0   7 133.201 43.1335   6
  -1   0   6 2954.36 101.149   1
   1   0  -6 2869.13 44.3706   2
  -1   0   6 2954.15 87.6011   4
  -1   0   6 3177.67 106.474   6
   1   0  -6 2989.35 102.298   1
   1   0  -6 2877.39 105.561   6
   1   0  -6 2963.80 91.5832   7
   1   0  -5 261.416 14.7630   2
   1   0  -5 352.818 45.7149   6
   1   0  -5 291.528 43.9352   5
   1   0  -5 342.656 43.9070   1
  -1   0   5 346.259 36.1884   4
  -1   0   5 393.035 46.5785   6
  -1   0   5 325.883 42.0947   1
   1   0  -5 280.621 36.4292   7
   1   0  -4 24031.0 228.316   5
  -1   0   4 24124.8 202.096   7
   1   0  -4 24829.2 229.423   6
  -1   0   4 23862.1 181.788   4
  -1   0   4 24190.9 221.343   1
  -1   0   4 24574.2 227.832   6
   1   0  -4 24247.8 204.223   7
   1   0  -4 24540.6 221.341   1
   1   0  -3 14.7885 22.0575   1
  -1   0   3 18.5435 22.8063   1
   1   0  -3-10.1412 23.3192   6
   1   0  -3-7.24677 20.5641   7
   1   0  -3 3.18361 22.9701   5
  -1   0   3 17.9582 22.7755   6
  -1   0   3 16.6198 19.4248   7
   1   0  -2 101441. 336.388   5
   1   0  -2 99224.8 303.880   1
  -1   0   2 103062. 335.773   5
  -1   0   2 101329. 308.902   6
  -1   0   2 102995. 285.799   7
   1   0  -2 97754.0 286.923   7
  -1   0   2 101179. 302.058   1
   1   0  -2 99372.4 304.691   6
   1   0  -1 24602.2 161.837   3
   1   0  -1 23745.0 107.793   6
   1   0  -1 25032.8 181.504   9
  -1   0   1 24162.5 108.776   6
  -1   0   1 24516.6 109.900  11
  -1   0   1 25489.3 175.154   9
   1   0  -1 24414.0 108.587   1
   1   0  -1 23974.4 115.849   7
  -1   0   1 24332.0 107.967   1
  -1   0   1 25011.5 164.795   3
  -1   0   1 24481.4 111.172   7
  -1   0   0 4085.22 46.7680   6
   1   0   0 3964.99 56.0008   4
   1   0   0 4111.20 66.0913   8
   1   0   0 4070.96 56.2630   3
  -1   0   0 4082.99 57.4965   3
  -1   0   0 3966.83 54.2067   4
   1   0   0 4240.90 48.0738   6
  -1   0   0 4263.13 65.6101   8
   1   0   1 1086.68 38.6765   4
  -1   0  -1 1011.42 36.8697   4
  -1   0  -1 1009.59 37.3294   8
   1   0   1 970.370 28.2371   3
  -1   0  -1 1042.94 38.0255   6
  -1   0  -1 1013.29 29.5217   3
  -1   0  -1 1087.98 34.5025   1
   1   0   1 1025.32 39.8172   8
   1   0   1 1021.33 36.4629   6
   1   0   1 974.586 33.4667   1
  -1   0  -2 147922. 452.025   1
  -1   0  -2 151812. 445.798   4
  -1   0  -2 153014. 487.193   6
   1   0   2 145087. 466.880   6
   1   0   2 157139. 466.836   1
  -1   0  -2 154461. 457.279   8
  -1   0  -3 11810.7 142.674   4
  -1   0  -3 12340.2 137.204   2
  -1   0  -3 12100.3 150.417   8
   1   0   3 11948.8 150.398   8
   1   0   3 12049.3 152.217   4
   1   0   3 12194.7 162.487   6
  -1   0  -3 12127.9 164.299   6
  -1   0  -3 12166.6 155.607   1
  -1   0  -4 175.302 32.4208   4
   1   0   4 194.192 36.5940   1
  -1   0  -4 209.696 37.8048   1
   1   0   4 223.558 37.7650   4
   1   0   4 154.074 36.1634   6
  -1   0  -4 157.369 30.8706   2
   1   0   4 229.004 37.6793   8
  -1   0  -4 136.557 38.2757   6
  -1   0  -5 1135.35 61.5004   4
  -1   0  -5 1040.52 69.7256   6
   1   0   5 1120.23 65.3734   4
  -1   0  -5 1124.89 60.6231   7
   1   0   5 902.282 60.7630   8
  -1   0  -5 1103.46 55.6964   2
   1   0   5 921.422 65.9612   6
  -1   0  -5 1029.40 65.4380   1
   1   0   5 1006.64 63.5548   1
  -1   0  -6 6280.47 130.786   2
  -1   0  -6 6389.14 157.586   1
   1   0   6 6543.38 164.047   6
   1   0   6 6493.13 151.027   4
   1   0   7 536.388 57.6719   4
  -1   0  -7 496.308 58.1703   1
  -1   0  -7 470.407 48.5511   2
   1   0   8 9116.82 220.676   6
  -1   0  -8 8782.62 210.301   1
   1   0   8 8891.23 200.258   4
  -1   0  -8 9225.33 164.087   2
   1   0   9 22379.6 366.871   6
   1   0   9 22266.8 336.035   4
  -1   0  -9 22968.8 362.853   1
   1   0  10 802.268 83.1887   4
  -1   0 -10 835.880 89.1824   1
   1   0  10 852.780 90.7011   6
  -1   0 -11 2452.94 146.739   1
   1   0  11 2402.81 148.160   6
   1   0  11 2571.24 139.412   4
   1   0  12-43.9572 66.4400   6
   1   0  12-54.4140 63.7445   4
  -1   0 -12 49.0267 71.8638   1
  -1   0 -13 270.016 89.7496   1
   1   0  13 146.168 82.9031   4
   1   0  13 41.8352 75.1480   6
   1   1 -13 35.4127 73.0504   1
  -1  -1  13-54.6756 77.8836   6
  -1  -1  13 10.8209 71.0219   4
   1   1 -12 163.604 72.5472   1
  -1  -1  12 240.557 69.3592   4
  -1  -1  12 95.8809 61.6059   6
   1   1 -11 206.421 69.2876   1
  -1  -1  11 325.857 63.1591   4
  -1  -1  11 215.304 76.0000   6
  -1  -1  10 6756.61 207.712   6
   1   1 -10 7365.69 212.417   1
  -1  -1  10 7290.17 191.530   4
  -1  -1   9 8545.36 215.997   6
   1   1  -9 8286.75 212.224   1
   1   1  -9 8096.10 119.309   2
  -1  -1   8 687.790 61.8244   4
   1   1  -8 666.091 39.6249   2
   1   1  -8 738.053 69.7382   1
  -1  -1   8 597.982 66.7400   6
   1   1  -7 1053.98 72.2007   1
  -1  -1   7 996.188 64.8087   4
  -1  -1   7 975.897 70.8995   6
   1   1  -7 1167.27 43.1942   2
   1   1  -6 14.6484 18.4506   2
   1   1  -6 24.5241 36.5481   6
  -1  -1   6 9.69633 32.8597   1
   1   1  -6 43.3967 31.9807   1
  -1  -1   6 21.2969 18.1629   2
  -1  -1   6 8.07500 29.6318   4
  -1  -1   6-11.2576 33.9425   6
  -1  -1   5 1216.68 40.9813   2
  -1  -1   5 1187.39 60.5914   7
  -1  -1   5 1215.77 58.8490   4
  -1  -1   5 1197.93 63.8923   6
   1   1  -5 1093.60 61.9115   1
   1   1  -5 1181.48 38.0510   2
  -1  -1   5 1194.70 63.5858   1
   1   1  -5 1159.57 61.8221   7
   1   1  -5 1174.42 67.9316   6
  -1  -1   4 7092.06 130.711   5
  -1  -1   4 7617.66 125.632   7
   1   1  -4 7156.81 129.469   6
   1   1  -4 7106.23 78.5716   2
   1   1  -4 7064.43 123.052   1
   1   1  -4 6897.30 123.466   7
  -1  -1   4 6879.22 125.699   6
  -1  -1   4 7229.19 124.232   1
  -1  -1   4 7218.48 81.9145   2
   1   1  -3 13410.1 99.5120   2
  -1  -1   3 12725.1 145.655   6
  -1  -1   3 13532.3 160.288   5
  -1  -1   3 13435.6 143.854   1
   1   1  -3 13203.4 144.428   1
   1   1  -3 13153.3 150.243   6
  -1  -1   3 13916.4 100.336   2
  -1  -1   3 13036.2 143.862   7
   1   1  -3 13490.8 151.268   7
  -1  -1   2 11529.8 85.4759   2
  -1  -1   2 11588.0 113.394   6
   1   1  -2 11554.1 123.638   7
   1   1  -2 11320.2 111.071   6
   1   1  -2 11503.3 90.2239   2
  -1  -1   2 11785.2 121.666   7
   1   1  -2 11481.9 107.910   1
  -1  -1   2 11516.8 106.693   1
  -1  -1   1 18484.9 114.047   2
   1   1  -1 18535.6 139.097   7
  -1  -1   1 18529.4 134.440   7
   1   1  -1 18775.2 99.4774   6
   1   1  -1 18417.1 93.7520   1
  -1  -1   1 19025.3 95.6496   1
  -1  -1   1 18882.6 98.2355   6
   1   1  -1 18426.0 132.417   9
   1   1  -1 18721.7 121.259   2
  -1  -1   0 18928.9 110.756   8
   1   1   0 19479.9 110.827   8
   1   1   0 19762.2 140.276  10
  -1  -1   0 19440.2 133.701   2
  -1  -1  -1 15591.7 136.204   4
   1   1   1 15045.7 141.072   4
  -1  -1  -1 15764.9 109.940   6
   1   1   1 15899.8 108.943   6
   1   1   1 15955.1 106.529   1
  -1  -1  -1 15080.0 106.364   8
  -1  -1  -1 15718.3 106.496   1
   1   1   1 16276.0 114.024   8
  -1  -1  -2 36667.5 226.039   4
   1   1   2 35552.7 206.534   1
  -1  -1  -2 35309.0 198.534   8
   1   1   2 35705.0 217.132   6
  -1  -1  -2 35834.1 216.901   6
   1   1   2 35500.3 200.500   8
  -1  -1  -2 35116.0 209.526   1
   1   1   2 35775.6 233.586   4
   1   1   3 54784.7 319.003   4
   1   1   3 54278.8 312.642   1
   1   1   3 55523.5 299.476   8
  -1  -1  -3 55572.7 325.559   6
   1   1   3 55752.0 327.549   6
  -1  -1  -3 54253.2 312.425   1
  -1  -1  -3 56067.4 305.239   4
   1   1   4 974.544 56.1620   1
  -1  -1  -4 967.951 54.7824   1
   1   1   4 918.317 52.9897   4
  -1  -1  -4 944.826 50.3601   4
  -1  -1  -4 983.613 56.9347   6
   1   1   4 941.295 56.7922   6
   1   1   4 923.457 51.4551   8
   1   1   5 655.735 54.7154   1
  -1  -1  -5 641.610 51.1167   4
   1   1   5 541.411 52.2618   6
  -1  -1  -5 643.962 53.4876   1
   1   1   5 660.934 52.6889   8
  -1  -1  -5 738.805 60.1793   6
   1   1   5 616.137 52.1672   4
  -1  -1  -6 561.746 51.9699   4
  -1  -1  -6 580.444 56.6770   1
   1   1   6 634.809 59.8658   6
  -1  -1  -6 568.362 43.1512   2
   1   1   6 508.467 51.3560   4
  -1  -1  -7 6977.92 130.616   2
   1   1   7 7233.83 166.155   4
  -1  -1  -7 7240.17 176.601   1
   1   1   7 7251.99 182.017   6
   1   1   8 11582.6 221.654   4
  -1  -1  -8 11379.5 174.745   2
   1   1   8 11946.3 245.802   6
  -1  -1  -8 12028.6 239.735   1
   1   1   9 10428.5 226.017   4
   1   1   9 10871.8 252.740   6
  -1  -1  -9 10310.5 241.078   1
  -1  -1 -10 492.731 76.5808   1
   1   1  10 442.398 79.2701   6
   1   1  10 564.477 75.8403   4
   1   1  11 261.256 69.9366   4
   1   1  11 255.584 74.0261   6
  -1  -1 -11 242.382 74.3112   1
  -1  -1 -12 1213.29 116.897   1
   1   1  12 1148.15 110.210   4
   1   1  12 882.984 109.577   6
   1   1  13 1591.03 132.508   4
  -1  -1 -13 1665.09 140.708   1
   1   1  13 1784.83 149.257   6
   1   1  13 1497.61 123.108   3
   1   2 -12-34.6852 71.6702   1
  -1  -2  12-19.6142 59.1404   4
  -1  -2  12-9.48853 68.3364   6
   1   2 -11 4374.77 187.468   1
  -1  -2  11 4238.04 181.292   6
  -1  -2  11 4577.20 175.134   4
  -1  -2  10 6407.62 205.879   6
   1   2 -10 6245.79 203.129   1
  -1  -2  10 6514.90 191.384   4
  -1  -2   9 765.929 73.3029   4
  -1  -2   9 740.219 79.6357   6
   1   2  -9 848.059 81.8760   1
   1   2  -8 81.7478 43.7185   1
   1   2  -8 116.479 34.2373   2
  -1  -2   8 118.955 44.6287   4
  -1  -2   8 45.2296 44.3034   6
  -1  -2   7 158.065 32.8711   2
  -1  -2   7 249.698 45.0482   4
   1   2  -7 117.608 29.5858   2
   1   2  -7 211.598 43.8281   1
  -1  -2   7 135.822 40.4013   6
  -1  -2   6 775.717 57.4689   7
  -1  -2   6 853.862 64.5941   6
   1   2  -6 713.056 59.1423   1
  -1  -2   6 711.627 44.8260   2
   1   2  -6 674.013 40.0974   2
  -1  -2   6 645.929 53.9652   4
   1   2  -5 2185.65 61.0582   2
  -1  -2   5 2055.82 86.6498   5
  -1  -2   5 2406.63 86.0922   7
  -1  -2   5 2217.55 90.6234   6
   1   2  -5 2181.69 92.0833   6
  -1  -2   5 2166.13 85.6154   1
  -1  -2   5 2055.86 64.9230   2
   1   2  -5 2097.17 85.7170   1
  -1  -2   4 97998.3 497.560   6
   1   2  -4 104397. 511.056   7
  -1  -2   4 101444. 381.126   2
  -1  -2   4 104838. 497.663   7
   1   2  -4 100291. 489.841   1
   1   2  -4 103034. 524.311   6
  -1  -2   4 103530. 499.532   1
   1   2  -4 103589. 374.286   2
  -1  -2   4 102950. 525.015   5
   1   2  -3 11478.0 157.741   6
   1   2  -3 11456.9 148.431   1
  -1  -2   3 11342.9 148.158   1
  -1  -2   3 11641.3 154.110   6
  -1  -2   3 11537.6 119.673   2
  -1  -2   3 10982.3 149.123   7
   1   2  -3 11358.5 118.842   2
  -1  -2   2 18554.0 169.265   6
   1   2  -2 19107.4 149.285   2
   1   2  -2 18942.0 174.409   6
  -1  -2   2 18515.0 178.145   7
   1   2  -2 18225.9 181.235   7
  -1  -2   2 18564.7 142.265   2
   1   2  -2 18339.0 163.711   1
  -1  -2   1 5663.13 92.9705   7
  -1  -2   1 5805.47 82.7953   6
  -1  -2   1 5797.77 79.3740   2
   1   2  -1 5543.94 93.8971   7
   1   2  -1 5920.70 81.4927   2
   1   2  -1 5841.05 83.9399   6
  -1  -2   0 3336.55 80.1488  10
  -1  -2   0 2874.02 65.5136   7
   1   2   0 3195.60 56.8272  11
  -1  -2   0 3150.73 62.6837   2
  -1  -2   0 3155.66 56.8203   6
   1   2   0 3190.45 57.9151   6
   1   2   0 3054.70 54.4299   1
  -1  -2   0 3152.13 54.8850  11
  -1  -2  -1 31878.0 225.618   4
   1   2   1 30190.1 176.261   1
  -1  -2  -1 30178.8 179.079   6
   1   2   1 30748.0 178.234  11
  -1  -2  -1 30993.8 179.102   1
   1   2   1 30577.5 178.044   6
  -1  -2  -1 30949.6 182.945  11
   1   2   1 31265.2 202.910   2
   1   2   1 30981.4 120.653   8
  -1  -2  -1 31900.1 205.923   2
  -1  -2  -1 30857.9 115.883   8
  -1  -2  -2 2828.88 68.7576   2
   1   2   2 3097.08 55.5384   8
   1   2   2 2969.64 68.1367   6
   1   2   2 3125.21 80.2645   4
  -1  -2  -2 2836.42 66.7925   1
  -1  -2  -2 2954.98 68.6907   6
   1   2   2 2952.85 67.3349   1
   1   2   2 2952.91 69.7423   2
  -1  -2  -2 3100.79 76.8271   4
   1   2   3 27.1482 14.2820   3
   1   2   3 50.9029 27.0573   1
  -1  -2  -3 11.6004 28.2821   6
   1   2   3 50.8675 22.4696   8
   1   2   3 11.1254 27.1552   6
  -1  -2  -3 4.60905 26.6020   1
   1   2   3 62.8555 32.9841   4
  -1  -2  -3 24.2646 26.6536   2
  -1  -2  -3 39.2920 29.0982   4
  -1  -2  -4 38542.8 310.245   6
   1   2   4 37617.7 273.311   8
  -1  -2  -4 36748.7 259.626   2
   1   2   4 38766.7 299.796   1
   1   2   4 33588.7 296.102   6
   1   2   4 38318.1 210.023   3
   1   2   4 38000.9 301.998   4
  -1  -2  -4 38246.3 281.445   4
  -1  -2  -4 34288.5 292.224   1
  -1  -2  -5 3337.54 94.7492   4
   1   2   5 3518.12 99.1816   8
   1   2   5 3563.28 82.0258   3
  -1  -2  -5 3189.17 104.813   6
   1   2   5 3536.58 107.372   4
   1   2   5 3546.50 111.165   6
  -1  -2  -5 3485.46 108.157   1
   1   2   5 3553.15 104.521   1
   1   2   6 18376.4 245.194   4
   1   2   6 17594.4 237.251   8
  -1  -2  -6 18634.3 259.201   1
  -1  -2  -6 18149.6 225.070   4
   1   2   6 18160.6 260.735   6
  -1  -2  -7 199.344 47.8461   1
   1   2   7 320.968 47.2133   4
   1   2   7 234.594 48.0446   6
  -1  -2  -8 3702.43 100.265   2
   1   2   8 3832.14 131.267   4
   1   2   8 3872.86 143.463   6
  -1  -2  -8 3866.47 138.941   1
  -1  -2  -9 902.859 82.6476   1
  -1  -2  -9 931.078 58.6752   2
  -1  -2  -9 891.790 61.9144   2
   1   2   9 913.585 84.7558   6
   1   2   9 987.648 81.3505   4
   1   2  10 2357.72 120.942   4
  -1  -2 -10 2339.34 129.825   1
   1   2  10 2486.93 116.650   3
   1   2  10 2373.05 132.425   6
  -1  -2 -10 2296.24 97.2612   2
  -1  -2 -11 452.024 55.7254   2
   1   2  11 524.838 77.1668   4
   1   2  11 675.807 90.7379   6
  -1  -2 -11 542.655 83.9102   1
   1   2  11 607.790 74.0994   3
   1   2  12 440.085 84.4059   4
  -1  -2 -12 346.824 84.3552   1
   1   2  12 337.906 67.4853   3
   1   2  12 261.386 80.2676   6
   1   2  13 1884.01 139.907   4
  -1  -2 -13 1997.00 152.810   1
   1   2  13 2069.60 149.849   6
   1   2  13 2090.65 127.550   3
   1   3 -12 1037.62 123.445   1
  -1  -3  12 989.931 107.030   4
  -1  -3  12 1084.88 118.072   6
  -1  -3  11 122.502 58.9308   4
   1   3 -11 40.1514 65.5376   1
  -1  -3  11 44.3887 69.5176   6
   1   3 -10 155.757 63.3416   1
  -1  -3  10 176.772 68.0906   6
  -1  -3  10 266.524 64.1516   4
  -1  -3   9 385.753 69.3755   4
  -1  -3   9 351.260 70.5221   6
   1   3  -9 361.265 65.6559   1
   1   3  -8 90.8388 48.6448   1
  -1  -3   8 51.9131 36.2321   2
  -1  -3   8 2.08125 45.8089   4
  -1  -3   8 17.5144 52.5650   6
  -1  -3   7 783.257 60.2519   2
   1   3  -7 869.091 55.0608   2
   1   3  -7 880.142 75.2419   1
  -1  -3   7 860.252 69.9325   7
  -1  -3   7 826.627 73.6870   6
  -1  -3   7 979.025 73.0452   4
   1   3  -6 3686.96 97.2789   2
   1   3  -6 3958.46 129.501   1
  -1  -3   6 4258.89 128.874   7
  -1  -3   6 4038.76 104.865   2
  -1  -3   6 3688.02 124.197   5
  -1  -3   6 3853.20 130.434   6
   1   3  -5 7351.35 160.790   1
  -1  -3   5 7212.85 163.120   6
  -1  -3   5 7196.23 158.584   1
  -1  -3   5 7334.19 147.765   8
  -1  -3   5 7501.58 157.936   7
  -1  -3   5 7511.17 129.816   2
   1   3  -5 7296.99 171.598   6
   1   3  -5 7577.68 126.089   2
  -1  -3   5 7431.19 162.227   5
  -1  -3   4 1520.56 71.8296   7
  -1  -3   4 1473.84 64.6166   8
  -1  -3   4 1421.78 63.7732   2
   1   3  -4 1395.28 73.8452   7
   1   3  -4 1610.72 61.0988   2
  -1  -3   4 1638.27 77.1694   6
   1   3  -4 1674.81 80.3403   6
   1   3  -4 1568.14 72.4811   1
  -1  -3   3 1790.46 65.6901   2
  -1  -3   3 1797.89 61.5584   8
   1   3  -3 1866.31 78.0343   6
   1   3  -3 1598.52 67.6536   1
   1   3  -3 2041.98 78.6464   7
   1   3  -3 1889.23 63.0062   2
  -1  -3   3 1872.08 73.3736   7
  -1  -3   3 1785.06 73.0248   6
  -1  -3   2 4970.71 106.235   7
   1   3  -2 5541.34 97.7409   2
  -1  -3   2 5020.38 81.9979   8
  -1  -3   2 5280.38 109.327   6
   1   3  -2 5070.94 103.797   1
   1   3  -2 4998.70 110.525   7
  -1  -3   2 5141.17 94.4518   2
   1   3  -2 5412.62 112.839   6
  -1  -3   1 12645.2 96.3824   8
   1   3  -1 12700.4 162.555   7
  -1  -3   1 12399.9 140.106   2
  -1  -3   1 13020.3 161.642   7
  -1  -3   1 12486.3 151.157   6
   1   3  -1 12535.6 141.424   2
  -1  -3   1 12778.9 155.858  11
  -1  -3   0 3771.65 78.6845   2
  -1  -3   0 3999.52 82.5319  11
   1   3   0 3800.32 82.4817   1
   1   3   0 3728.40 81.4574  11
  -1  -3   0 3749.50 85.8401   7
   1   3   0 4170.75 83.8300   2
  -1  -3   0 3957.68 84.0328   6
   1   3   0 3817.57 82.4209   6
  -1  -3  -1 10444.9 129.567   6
   1   3   1 10627.6 131.407   1
  -1  -3  -1 10398.0 129.264  11
   1   3   1 10607.3 130.317  11
   1   3   1 10312.3 133.561   6
  -1  -3  -1 10524.9 109.998   3
  -1  -3  -1 10644.3 131.987   1
   1   3   1 10914.2 134.670   2
  -1  -3  -1 10205.7 124.702   2
   1   3   2 6834.36 111.689   1
   1   3   2 6631.26 113.081  11
  -1  -3  -2 6746.17 106.912   2
   1   3   2 6729.79 80.2561   3
  -1  -3  -2 6733.72 115.577  11
   1   3   2 6860.64 114.156   6
  -1  -3  -2 6883.23 113.956   6
  -1  -3  -2 7099.37 130.558   4
  -1  -3  -2 6840.09 114.106   1
   1   3   2 7002.62 114.451   2
  -1  -3  -2 6970.43 84.6071   3
   1   3   3 11881.3 159.840   1
  -1  -3  -3 11771.6 109.951   3
  -1  -3  -3 11300.4 160.862   4
  -1  -3  -3 11661.1 160.256   6
   1   3   3 12100.5 110.567   3
   1   3   3 11320.8 165.216  11
   1   3   3 12333.5 157.689   2
  -1  -3  -3 12199.8 146.857   2
   1   3   3 11945.7 163.887   6
   1   3   3 11814.1 173.503   4
  -1  -3  -3 11766.6 161.276   1
  -1  -3  -4 8684.53 149.247   4
   1   3   4 8632.84 151.237   4
  -1  -3  -4 8291.90 149.973   1
   1   3   4 8423.67 154.221   6
   1   3   4 8554.51 150.488   1
  -1  -3  -4 8298.43 152.153   6
   1   3   4 8243.56 102.039   3
  -1  -3  -4 8301.83 129.974   2
   1   3   5 22186.2 258.779   4
   1   3   5 21588.2 188.968   3
  -1  -3  -5 22721.8 273.185   6
  -1  -3  -5 22519.1 261.981   1
   1   3   5 22213.4 266.079   6
   1   3   5 22618.2 264.864   1
  -1  -3  -5 22946.6 219.604   2
  -1  -3  -5 22139.0 237.468   4
   1   3   6 130.701 37.5408   4
  -1  -3  -6 47.4965 33.9579   4
  -1  -3  -6 131.168 40.3512   1
  -1  -3  -6 91.0251 31.2454   2
   1   3   6 138.007 27.6680   3
   1   3   6 143.046 43.8418   6
  -1  -3  -7 11487.4 221.237   1
   1   3   7 11117.4 207.973   4
   1   3   7 11666.3 226.772   6
  -1  -3  -7 10744.0 184.805   4
   1   3   7 10811.5 167.851   3
  -1  -3  -7 11476.6 169.591   2
  -1  -3  -8 22108.0 245.086   2
   1   3   8 22301.8 264.111   3
  -1  -3  -8 22148.4 327.805   1
   1   3   8 22411.6 308.286   4
   1   3   8 21998.4 327.881   6
   1   3   9 4129.29 145.893   4
  -1  -3  -9 4051.41 154.832   1
  -1  -3  -9 4070.85 113.560   2
   1   3   9 4062.02 154.615   6
   1   3   9 4020.59 126.892   3
   1   3  10 1010.69 93.5427   6
   1   3  10 1059.77 89.0472   4
   1   3  10 919.389 78.3731   3
  -1  -3 -10 1044.26 93.1469   1
  -1  -3 -10 897.358 64.1935   2
  -1  -3 -11 3138.81 156.240   1
   1   3  11 3068.64 127.523   3
   1   3  11 2906.91 141.892   4
   1   3  11 2859.33 151.817   6
  -1  -3 -11 2901.14 102.064   2
   1   3  12-103.547 72.4125   4
  -1  -3 -12 1.08236 65.7468   1
   1   3  12 16.7358 52.8373   3
   1   3  12-53.2112 64.5489   6
   1   3  13 590.854 90.4910   4
   1   3  13 597.040 99.7864   6
  -1  -3 -13 802.304 108.223   1
   1   4 -11 200.451 75.3724   1
  -1  -4  11 239.070 74.8670   4
  -1  -4  11 297.576 83.2162   6
  -1  -4  10 477.422 78.2494   4
   1   4 -10 437.043 80.9528   1
  -1  -4  10 391.663 80.1206   6
  -1  -4   9 82.8314 54.2479   4
  -1  -4   9-5.80934 42.2233   2
   1   4  -9-2.93855 56.7050   1
  -1  -4   9 78.5182 55.5581   6
  -1  -4   8 9.76639 49.6564   6
   1   4  -8-38.6873 54.4391   1
  -1  -4   8 11.9943 49.8740   4
  -1  -4   8 145.299 43.9539   2
  -1  -4   8 100.429 48.2127   7
  -1  -4   7 29.3419 47.4225   4
  -1  -4   7 34.1585 41.5818   2
  -1  -4   7-35.0282 45.3770   5
  -1  -4   7 60.3465 44.3735   7
   1   4  -7 56.9755 43.8312   1
  -1  -4   7 124.089 51.3758   6
  -1  -4   6 2788.17 114.904   5
   1   4  -6 2756.98 117.011   1
  -1  -4   6 3043.84 115.258   7
  -1  -4   6 2900.29 122.438   6
  -1  -4   6 2938.42 97.5992   2
  -1  -4   5 1201.60 77.7914   5
  -1  -4   5 1030.83 64.0129   2
   1   4  -5 991.178 59.9025   2
  -1  -4   5 990.267 61.7896   8
  -1  -4   5 1145.40 77.0798   6
   1   4  -5 1194.78 76.1970   1
  -1  -4   5 1176.13 72.8057   7
  -1  -4   4 1351.32 63.4920   8
  -1  -4   4 1465.24 73.2461   7
   1   4  -4 1282.28 77.8384   6
  -1  -4   4 1337.50 76.1589   6
   1   4  -4 1208.20 61.5715   2
   1   4  -4 1508.81 78.3778   1
  -1  -4   4 1562.29 69.1392   2
  -1  -4   3 321.394 40.6686   2
   1   4  -3 346.694 47.3133   7
   1   4  -3 344.618 49.1681   6
  -1  -4   3 385.974 45.8597   7
  -1  -4   3 332.514 46.4152   6
   1   4  -3 323.302 44.3619   1
   1   4  -3 420.532 41.9707   2
  -1  -4   3 317.638 34.1132   8
  -1  -4   2 2099.33 85.7643  11
  -1  -4   2 2051.65 75.1938   2
  -1  -4   2 2111.43 82.8869   6
   1   4  -2 2170.89 75.9247   2
   1   4  -2 2178.49 87.1618   6
  -1  -4   2 1984.71 57.2065   8
  -1  -4   2 2126.82 80.6145   7
   1   4  -2 2066.21 83.1045   7
  -1  -4   1 518.581 45.6991   2
  -1  -4   1 550.942 26.9955   8
   1   4  -1 489.911 47.4941   7
   1   4  -1 558.067 44.9678   2
  -1  -4   1 482.596 41.8517   7
  -1  -4   1 580.866 48.5240   6
  -1  -4   1 547.083 49.9621  11
  -1  -4   1 600.728 53.6053   6
   1   4   0 37146.7 293.377   1
  -1  -4   0 37741.6 293.295  11
  -1  -4   0 36399.8 287.591   7
   1   4   0 37638.8 302.027  11
  -1  -4   0 37569.4 299.878   6
  -1  -4   0 39364.9 273.869   2
   1   4   0 38644.6 277.634   2
  -1  -4  -1 6746.24 145.085  10
  -1  -4  -1 5986.64 108.655   2
   1   4   1 6399.58 120.059   1
  -1  -4  -1 6482.88 119.413  11
  -1  -4  -1 6478.70 68.1251   9
  -1  -4  -1 6370.63 120.990   7
  -1  -4  -1 6458.11 107.039   3
   1   4   1 6361.62 125.198  11
   1   4   1 6636.58 128.927   6
  -1  -4  -1 6653.60 123.136   6
   1   4   1 6672.32 121.200   2
  -1  -4  -2 5229.78 102.182   2
  -1  -4  -2 5478.59 116.679  11
  -1  -4  -2 5314.73 91.6124   3
   1   4   2 5148.37 92.6894   3
   1   4   2 5414.84 116.061   1
  -1  -4  -2 5100.46 114.444   1
  -1  -4  -2 5430.60 115.433   6
   1   4   2 5723.33 138.663  10
   1   4   2 5040.22 112.495  11
   1   4   2 5587.85 114.442   2
   1   4   2 5343.11 117.900   6
  -1  -4  -3 6059.15 134.423   4
   1   4   3 5911.98 94.9226   3
  -1  -4  -3 6036.32 132.186  11
   1   4   3 6059.09 125.402   2
   1   4   3 6056.31 128.201   6
   1   4   3 6116.92 129.898  11
   1   4   3 6151.17 127.315   1
  -1  -4  -3 6100.25 131.481   6
  -1  -4  -3 5968.45 129.741   1
  -1  -4  -3 6102.61 97.4502   3
  -1  -4  -3 5933.26 109.339   2
  -1  -4  -4 6182.94 101.924   3
   1   4   4 5973.39 138.247  11
   1   4   4 5982.67 135.838   6
   1   4   4 6017.26 134.631   1
   1   4   4 6175.05 99.7226   3
  -1  -4  -4 6451.11 135.109   4
  -1  -4  -4 6115.01 114.473   2
  -1  -4  -4 5960.27 137.556   6
  -1  -4  -4 6260.24 140.695   1
  -1  -4  -5 10630.1 152.332   2
   1   4   5 10066.7 193.211  11
   1   4   5 10643.2 194.869   1
  -1  -4  -5 10559.4 141.597   3
   1   4   5 10823.9 195.838   4
  -1  -4  -5 10659.0 192.636   1
  -1  -4  -5 10907.8 181.800   4
  -1  -4  -5 10384.2 198.046   6
   1   4   5 10261.8 191.767   6
   1   4   5 10457.8 135.755   3
   1   4   5 10534.8 164.862   2
  -1  -4  -6 470.729 50.0191   4
   1   4   6 506.140 41.4600   3
   1   4   6 594.071 62.1027  11
  -1  -4  -6 612.409 59.3432   1
   1   4   6 552.447 53.9945   4
   1   4   6 471.091 56.6301   6
  -1  -4  -6 483.073 42.0944   2
   1   4   7 1978.27 97.0820   4
   1   4   7 2001.71 75.9642   3
  -1  -4  -7 2136.47 101.865   1
  -1  -4  -7 1936.19 84.5928   4
  -1  -4  -7 2174.79 76.7025   2
   1   4   8 1137.24 84.2562   4
  -1  -4  -8 1218.04 87.0763   1
   1   4   8 1027.86 63.7517   3
   1   4   8 1144.67 89.1115   6
  -1  -4  -8 1234.60 61.7148   2
   1   4   9 232.416 43.8511   3
   1   4   9 262.114 58.3111   4
  -1  -4  -9 173.594 37.6347   2
  -1  -4  -9 183.624 53.7538   1
   1   4   9 271.962 61.7485   6
   1   4  10 461.280 58.2273   3
   1   4  10 425.739 71.3059   4
  -1  -4 -10 471.928 48.8278   2
   1   4  10 404.207 72.1632   6
  -1  -4 -10 368.526 63.2773   1
  -1  -4 -11 1282.65 107.554   1
   1   4  11 1190.30 106.262   6
   1   4  11 1275.18 101.113   4
   1   4  11 1128.47 82.6294   3
  -1  -4 -11 1003.06 61.9044   2
   1   4  12 47.8407 60.0783   4
   1   4  12 31.6415 51.4981   3
   1   4  12 128.371 73.5241   6
  -1  -4 -12 49.5420 66.8164   1
   1   4  13 719.085 96.8419   4
  -1  -4 -13 685.378 102.237   1
   1   4  13 674.449 106.895   6
  -1  -5  11 134.603 69.3611   4
   1   5 -11 160.575 79.7268   1
  -1  -5  11 43.8110 71.2888   6
   1   5 -10 665.110 98.0349   1
  -1  -5  10 866.416 101.738   6
  -1  -5  10 965.329 99.4119   4
  -1  -5   9 330.545 63.5438   2
  -1  -5   9 238.145 66.7447   4
   1   5  -9 244.141 76.3270   1
  -1  -5   9 336.648 78.1695   6
   1   5  -8 269.167 66.8177   1
  -1  -5   8 262.671 65.6575   4
  -1  -5   8 342.242 65.5211   7
  -1  -5   8 117.410 51.1878   2
  -1  -5   8 235.490 62.2952   6
   1   5  -7 7647.99 211.123   1
  -1  -5   7 7591.79 214.160   6
  -1  -5   7 7967.96 202.658   7
  -1  -5   7 7841.67 202.227   5
  -1  -5   7 7674.98 200.462   4
  -1  -5   6 2679.65 110.216   2
  -1  -5   6 2931.28 123.432   5
  -1  -5   6 3015.23 123.437   7
  -1  -5   6 2746.33 124.803   6
   1   5  -6 2479.83 118.394   1
   1   5  -5 5240.89 157.472   1
  -1  -5   5 4999.85 139.253   2
  -1  -5   5 5274.54 160.600   6
  -1  -5   5 5472.95 150.923   7
   1   5  -4 67.8757 38.5730   1
  -1  -5   4 41.1300 34.3621   7
  -1  -5   4 66.6279 28.7440   8
  -1  -5   4 138.969 45.2256   2
  -1  -5   4 41.4185 38.8961   6
  -1  -5   3 169.691 40.5054   2
   1   5  -3 48.9287 35.1183   1
  -1  -5   3 106.466 29.3100   8
  -1  -5   3 129.016 37.9649   7
  -1  -5   3 103.197 37.0279   6
  -1  -5   2 1813.80 78.6210   2
  -1  -5   2 1928.98 60.6112   8
  -1  -5   2 1890.28 86.3168   6
  -1  -5   2 1757.78 78.3589   7
  -1  -5   2 1793.11 89.0059   6
  -1  -5   2 1764.76 87.7670  11
   1   5  -1 20048.3 232.015   2
  -1  -5   1 19714.3 223.611   2
   1   5  -1 19961.7 250.558   7
  -1  -5   1 19576.3 252.909   6
  -1  -5   1 19972.4 257.789  11
  -1  -5   1 19692.6 234.095   7
  -1  -5   1 19574.2 257.484   6
  -1  -5   1 20485.6 156.937   8
   1   5   0 186.970 43.6222  11
  -1  -5   0 253.033 44.2090  11
  -1  -5   0 221.105 40.5646   7
  -1  -5   0 167.337 41.3593   6
  -1  -5   0 265.204 18.0265   8
   1   5   0 227.474 39.5922   2
  -1  -5   0 267.151 44.4967   6
  -1  -5   0 250.075 42.5252   3
  -1  -5   0 274.202 42.5958   2
   1   5   0 211.035 40.8681   1
   1   5   1 38013.8 341.590  11
  -1  -5  -1 38371.8 300.501   2
   1   5   1 39353.4 347.022   6
  -1  -5  -1 37482.5 295.089   3
  -1  -5  -1 37518.5 315.202   7
   1   5   1 36372.2 137.198   8
  -1  -5  -1 38556.2 334.564   6
  -1  -5  -1 38090.9 327.186  11
  -1  -5  -1 38552.0 383.311  10
   1   5   1 38727.9 310.961   2
   1   5   1 37937.7 332.590   1
  -1  -5  -2 27328.8 295.335   1
  -1  -5  -2 27857.6 252.454   2
   1   5   2 27052.8 288.567  11
   1   5   2 27646.5 161.349   8
  -1  -5  -2 27565.5 199.426   9
  -1  -5  -2 27346.7 239.749   3
  -1  -5  -2 27908.9 287.623  11
   1   5   2 28058.6 299.390   6
   1   5   2 27709.1 284.590   1
  -1  -5  -2 28280.5 289.139   6
   1   5   2 28434.6 275.903   2
  -1  -5  -3 5955.76 119.707   2
   1   5   3 5933.30 141.999   6
  -1  -5  -3 5952.61 142.764   1
   1   5   3 5890.42 139.379  11
   1   5   3 6084.09 156.673  10
  -1  -5  -3 6009.88 141.151   6
   1   5   3 5802.23 112.631   3
   1   5   3 6228.21 140.918   1
  -1  -5  -3 5924.83 145.887   4
   1   5   3 6137.35 135.117   2
  -1  -5  -3 6056.53 143.848  11
  -1  -5  -3 6272.21 116.721   3
   1   5   4 2494.60 98.6461   6
   1   5   4 2627.81 100.445   1
   1   5   4 2666.37 75.7699   3
  -1  -5  -4 2622.02 82.0004   2
   1   5   4 2591.10 94.4778   2
   1   5   4 2780.37 111.174  10
  -1  -5  -4 2868.45 82.7107   3
   1   5   4 2590.75 99.7082  11
  -1  -5  -4 2646.05 100.506   6
  -1  -5  -4 2684.67 98.1260   4
  -1  -5  -4 2568.40 100.246   1
  -1  -5  -5 1938.07 91.7108   1
  -1  -5  -5 1780.06 80.7233   4
   1   5   5 1646.55 62.4132   3
  -1  -5  -5 1778.59 70.1690   3
   1   5   5 1809.52 78.6198   2
   1   5   5 1858.98 90.0065   6
   1   5   5 1705.45 87.9983  11
  -1  -5  -5 1648.01 66.3047   2
  -1  -5  -6 2344.92 91.4510   4
   1   5   6 2451.44 108.375  11
  -1  -5  -6 2364.07 83.2882   3
   1   5   6 2345.20 100.449   4
   1   5   6 2538.84 79.0408   3
  -1  -5  -6 2583.30 108.122   1
   1   5   6 2523.84 107.336   6
   1   5   6 2564.74 93.3136   2
  -1  -5  -6 2355.20 77.8196   2
  -1  -5  -7 83.3631 40.1316   4
   1   5   7 85.0315 31.4506   3
  -1  -5  -7 62.2370 28.5934   2
   1   5   7 105.243 46.2063   4
   1   5   7 77.6830 46.0390  11
  -1  -5  -7 56.6809 42.3862   1
   1   5   7 109.201 44.9824   6
  -1  -5  -8 76.5062 32.0756   2
   1   5   8-8.49452 46.0550   6
  -1  -5  -8 21.9535 42.9920   1
   1   5   8 91.4713 49.8341  11
   1   5   8 8.30201 33.0647   3
   1   5   8-0.23559 47.5868   4
   1   5   9-13.4270 52.9448  11
   1   5   9 4.37533 36.6473   3
   1   5   9 78.1722 53.3019   4
  -1  -5  -9-14.0212 30.4685   2
  -1  -5  -9 56.8507 56.0619   1
   1   5   9 121.988 53.7576   6
   1   5  10 6643.25 223.095  11
   1   5  10 6921.82 200.749   4
   1   5  10 6702.61 163.657   3
   1   5  10 6561.59 216.242   6
  -1  -5 -10 6791.06 214.296   1
  -1  -5 -10 6495.48 136.632   2
   1   5  11 218.536 57.9949   3
   1   5  11 298.744 71.9609   4
   1   5  11 95.0261 68.0713  11
  -1  -5 -11 211.014 70.7585   1
  -1  -5 -11 180.476 38.7941   2
   1   5  11 207.380 76.4618   6
   1   5  12 21.5051 67.3982   4
   1   5  12 58.0315 70.3262  11
   1   5  12 93.1134 53.6828   3
  -1  -5 -12 106.582 64.3291   1
   1   5  12 237.956 79.2730   6
   1   5  13 137.728 82.9329   4
   1   5  13 219.987 85.3381  11
  -1  -5 -13 170.499 78.7020   1
   1   5  13 220.110 79.4536   6
   1   6 -10 7.82007 71.0714   1
  -1  -6  10 13.7671 71.1763   4
  -1  -6  10 113.424 74.1104   6
  -1  -6   9 411.654 74.4306   2
  -1  -6   9 506.469 84.9655   4
  -1  -6   9 449.292 88.3332   6
   1   6  -9 461.837 83.6840   1
   1   6  -8 4404.01 181.265   1
  -1  -6   8 4759.68 178.907   5
  -1  -6   8 4911.80 163.172   2
  -1  -6   8 4872.65 182.226   7
  -1  -6   8 4179.23 180.250   6
  -1  -6   8 4599.01 176.039   4
   1   6  -7 34.1823 55.4263   1
  -1  -6   7 81.0010 55.6170   7
  -1  -6   7 109.561 51.2501   5
  -1  -6   7-6.24393 49.5390   2
  -1  -6   7-41.2492 55.6771   6
  -1  -6   6 149.620 54.0716   5
  -1  -6   6 27.4647 45.0870   7
  -1  -6   6 49.0985 48.9328   2
  -1  -6   6 46.0368 50.3954   6
   1   6  -6-51.2341 49.1186   1
  -1  -6   5 6592.37 164.955   2
  -1  -6   5 6406.67 173.664   7
  -1  -6   5 6636.83 191.504   6
   1   6  -5 6250.04 183.074   1
  -1  -6   4 8702.58 166.816   8
  -1  -6   4 8410.30 207.365   6
  -1  -6   4 9087.07 193.318   7
   1   6  -4 8944.19 208.880   1
  -1  -6   4 8683.93 186.381   2
  -1  -6   3 1158.36 73.0249   7
   1   6  -3 1081.63 78.4803   1
  -1  -6   3 1221.50 84.7326   6
  -1  -6   3 1125.10 76.1626   2
  -1  -6   3 1195.47 63.3007   8
  -1  -6   2 1112.73 70.9128   2
  -1  -6   2 1096.02 52.0125   8
  -1  -6   2 1119.66 79.0291   6
  -1  -6   2 1043.15 66.3259   7
   1   6  -1 302.852 22.1585   9
  -1  -6   1 453.006 47.7197   7
  -1  -6   1 398.657 49.9770   2
  -1  -6   1 397.746 31.3512   8
  -1  -6   1 326.899 51.1648   6
   1   6   0 284.879 18.9748   8
  -1  -6   0 240.383 43.2186   2
  -1  -6   0 269.391 43.1273   7
  -1  -6   0 279.587 45.9085   6
  -1  -6  -1 11222.4 186.522   3
   1   6   1 11900.5 91.2314   8
   1   6   1 11649.2 214.819  11
  -1  -6  -1 12098.9 186.099   2
  -1  -6  -1 11375.5 188.048   7
   1   6   1 12174.7 218.228   6
   1   6   2 79.2927 43.6233   6
  -1  -6  -2 66.7903 34.7702   7
  -1  -6  -2 70.4047 25.4761   9
   1   6   2 79.8991 16.8733   8
   1   6   2 68.8797 39.2126  11
  -1  -6  -2 80.3344 31.0416   3
  -1  -6  -2 68.4632 32.9070   2
  -1  -6  -3 2810.61 110.797   1
   1   6   3 2612.74 105.555  11
  -1  -6  -3 2624.82 81.0699   9
  -1  -6  -3 2530.05 87.6710   3
   1   6   3 2715.14 90.7055   3
   1   6   3 2760.95 110.662   6
  -1  -6  -3 2680.84 90.8913   2
  -1  -6  -4 1510.93 85.0219   1
  -1  -6  -4 1753.94 91.6174   4
   1   6   4 1887.19 104.985  10
   1   6   4 1713.67 87.8758  11
  -1  -6  -4 1718.33 72.7640   2
   1   6   4 1760.88 70.4708   3
   1   6   4 1660.18 88.5441   6
  -1  -6  -4 1751.79 75.1207   3
   1   6   5 16109.3 264.814   6
  -1  -6  -5 16711.3 252.091   4
   1   6   5 16680.8 282.009  10
   1   6   5 17129.2 208.479   3
  -1  -6  -5 17409.2 220.811   3
   1   6   5 16542.7 265.534  11
  -1  -6  -5 16495.7 211.018   2
  -1  -6  -5 16909.1 271.205   1
  -1  -6  -6 3247.03 116.130   4
   1   6   6 3276.56 95.1458   3
   1   6   6 3333.00 131.108  11
   1   6   6 3194.85 128.041   6
  -1  -6  -6 3301.84 98.6211   2
  -1  -6  -6 3336.12 130.219   1
  -1  -6  -6 3348.71 104.565   3
  -1  -6  -7 2120.02 80.8897   2
  -1  -6  -7 2084.45 111.014   1
  -1  -6  -7 1861.34 85.0752   3
   1   6   7 2186.89 88.6029   3
   1   6   7 2047.02 111.324  11
   1   6   7 2010.87 110.780   6
  -1  -6  -8 294.330 40.5838   2
   1   6   8 336.214 44.6265   3
   1   6   8 392.348 66.4491   6
   1   6   8 293.667 62.5646  11
  -1  -6  -8 309.685 58.7265   1
   1   6   8 320.375 60.5619   4
  -1  -6  -9 2245.65 84.4710   2
  -1  -6  -9 2226.18 127.834   1
   1   6   9 2130.01 125.734   6
   1   6   9 2036.67 128.393  11
   1   6   9 2158.79 117.983   4
   1   6   9 2225.32 95.2891   3
  -1  -6 -10 828.319 57.8833   2
  -1  -6 -10 618.384 82.3707   1
   1   6  10 733.353 64.8838   3
   1   6  10 935.275 91.8771   4
   1   6  10 661.702 86.3706  11
   1   6  10 554.919 85.0190   6
   1   6  11 857.855 96.6982   4
  -1  -6 -11 783.843 95.3315   1
   1   6  11 853.801 99.5819  11
   1   6  11 667.344 67.1646   3
   1   6  11 769.342 96.0173   6
   1   6  12 27.9908 70.8455  11
  -1  -6 -12 148.446 76.9307   1
   1   6  12 72.8527 76.1288   6
  -1  -6 -13 2571.81 170.228   1
   1   6  13 2754.96 175.268   6
   1   6  13 2461.49 171.679  11
  -1  -7   9 253.559 82.7783   6
   1   7  -9 188.314 80.8405   1
  -1  -7   9 310.989 83.7215   4
  -1  -7   9 184.842 73.4538   2
  -1  -7   8 1309.67 121.897   6
  -1  -7   8 1233.24 111.852   4
   1   7  -8 1285.07 117.323   1
  -1  -7   8 1205.32 105.418   5
  -1  -7   8 1326.34 110.334   7
  -1  -7   7 1061.45 99.5954   4
  -1  -7   7 949.621 91.9331   7
  -1  -7   7 1141.98 97.8879   5
  -1  -7   7 968.386 100.653   6
  -1  -7   7 756.582 91.2622   2
   1   7  -7 1092.92 102.935   1
  -1  -7   6 2430.23 124.031   5
  -1  -7   6 2628.71 126.143   2
  -1  -7   6 2804.09 145.607   6
  -1  -7   6 2911.17 135.318   7
   1   7  -6 2683.21 138.047   1
   1   7  -5 4577.30 170.780   1
  -1  -7   5 4803.25 157.444   2
  -1  -7   5 4526.31 157.566   7
  -1  -7   5 4691.55 174.729   6
  -1  -7   4 424.372 68.0313   6
  -1  -7   4 219.111 55.8854   7
   1   7  -4 429.637 67.0949   1
  -1  -7   4 422.893 64.8903   2
  -1  -7   3 5944.48 181.050   6
  -1  -7   3 6299.94 138.127   8
  -1  -7   3 5916.34 161.055   7
  -1  -7   3 5869.86 165.533   2
   1   7  -3 6055.88 178.866   1
  -1  -7   2 47592.4 487.241   6
  -1  -7   2 48301.4 433.525   2
  -1  -7   2 48480.7 332.575   8
  -1  -7   1 36.8480 37.2647   7
   1   7  -1 44.1357 14.7967   9
  -1  -7   1 41.6862 26.4723   8
  -1  -7   1-4.18464 42.7632   2
  -1  -7   1 91.0644 48.0485   6
  -1  -7   0 3681.86 121.295   2
  -1  -7   0 3467.12 132.182   6
  -1  -7   0 3468.36 113.904   7
   1   7   1 4949.57 64.8303   8
  -1  -7  -1 5020.65 134.663   2
  -1  -7  -1 5633.25 169.484   6
  -1  -7  -1 5397.89 139.363   7
   1   7   1 5427.49 164.476  11
  -1  -7  -2 721.883 59.8344   7
   1   7   2 562.705 63.7671   6
   1   7   2 490.286 62.0026  11
   1   7   2 611.748 29.1642   8
  -1  -7  -2 588.847 53.5808   2
  -1  -7  -3 968.146 68.0210   7
  -1  -7  -3 1082.37 57.4129   9
  -1  -7  -3 1071.35 65.6233   2
  -1  -7  -3 983.540 78.6342   1
   1   7   3 1017.91 45.6380   8
  -1  -7  -3 900.768 62.7357   3
   1   7   3 888.346 74.4402  11
   1   7   3 961.051 78.7981   6
  -1  -7  -4 178.738 49.8461   1
  -1  -7  -4 261.397 41.5641   9
   1   7   4 239.650 54.2904   6
  -1  -7  -4 177.270 40.5413   2
  -1  -7  -4 205.408 44.0083   3
   1   7   4 314.828 55.2140  11
   1   7   4 236.865 41.8039   3
   1   7   5 89.2981 48.4591   6
  -1  -7  -5 183.867 53.2063   1
  -1  -7  -5 165.765 39.3976   2
   1   7   5 167.470 47.8822  11
  -1  -7  -5 197.660 43.7321   3
   1   7   5 207.077 40.3498   3
   1   7   5 100.407 55.0068  10
  -1  -7  -6 18998.0 259.092   3
  -1  -7  -6 19145.9 242.979   2
   1   7   6 19153.2 324.970  10
   1   7   6 19913.9 248.310   3
   1   7   6 19487.0 315.009  11
   1   7   6 19761.2 320.631   6
  -1  -7  -6 19532.6 318.444   1
   1   7   7 45099.1 493.517  11
  -1  -7  -7 46051.8 374.795   2
   1   7   7 45462.4 377.203   3
   1   7   7 45181.7 498.028   6
  -1  -7  -7 47050.2 512.292   1
   1   7   7 45548.7 520.409  10
   1   7   8 856.966 63.7563   3
  -1  -7  -8 925.571 64.3620   2
  -1  -7  -8 961.118 94.1120   1
   1   7   8 1066.10 92.3600   6
   1   7   8 887.423 88.2745  11
   1   7   9 866.000 92.6824  11
  -1  -7  -9 1103.48 97.9239   1
   1   7   9 1035.50 73.9124   3
  -1  -7  -9 968.272 65.0323   2
   1   7   9 814.687 91.3218   6
   1   7  10 582.386 85.8374  11
   1   7  10 409.020 57.9718   3
   1   7  10 448.535 81.1038   6
  -1  -7 -10 454.601 50.1088   2
  -1  -7 -10 530.936 88.6217   1
  -1  -7 -11 102.282 77.3075   1
   1   7  11 83.6376 72.0819  11
   1   7  11 80.0094 45.0501   3
   1   7  11 5.60669 63.9545   6
  -1  -7 -12 84.1734 79.5475   1
   1   7  12 43.2903 72.7803  11
   1   7  12 49.6398 73.0470   6
   1   7  13 140.676 83.8676  11
  -1  -7 -13 166.880 87.0591   1
   1   7  13 79.5561 78.9972   6
  -1  -8   8 17.4860 62.3961   7
   1   8  -8 106.993 84.7357   1
  -1  -8   8-57.8101 71.6362   4
  -1  -8   8 9.69299 69.2533   2
  -1  -8   8 94.4120 67.1253   5
  -1  -8   8-85.8730 73.1450   6
  -1  -8   7 267.282 76.9387   4
  -1  -8   7 303.432 72.4746   5
  -1  -8   7 276.254 70.9671   2
  -1  -8   7 208.847 66.6760   7
  -1  -8   7 247.326 80.4104   6
   1   8  -7 443.764 85.3987   1
   1   8  -6 107.122 59.6970   1
  -1  -8   6 175.752 60.2275   7
  -1  -8   6 173.970 60.0610   5
  -1  -8   6 98.9745 58.6079   2
  -1  -8   6 83.0723 65.5790   6
  -1  -8   5 1364.02 100.788   2
  -1  -8   5 1328.51 95.6063   7
  -1  -8   5 1353.86 110.603   6
   1   8  -5 1461.70 114.808   1
   1   8  -4 206.733 66.5134   1
  -1  -8   4 73.4567 59.0508   6
  -1  -8   4 75.3035 52.4657   7
  -1  -8   4 241.429 66.6720   2
  -1  -8   3 17537.1 328.953   6
  -1  -8   3 18019.5 290.703   7
  -1  -8   3 17710.4 295.974   2
   1   8  -3 17747.3 326.697   1
  -1  -8   2 8113.81 191.318   7
  -1  -8   2 8103.94 220.695   6
  -1  -8   2 7892.25 196.373   2
  -1  -8   1 817.038 82.4940   6
  -1  -8   1 765.176 79.6988   2
  -1  -8   1 773.132 65.4444   7
  -1  -8   1 849.938 47.9507   8
  -1  -8   0-20.8935 37.5991   7
  -1  -8   0 64.8593 53.7525   2
  -1  -8   0 30.2356 52.3194   6
  -1  -8  -1 1134.71 80.4044   2
  -1  -8  -1 1080.73 90.4672   6
  -1  -8  -1 1012.83 72.2846   7
   1   8   1 930.147 32.0685   8
   1   8   1 956.918 91.5816  11
  -1  -8  -2 312.415 48.8907   7
   1   8   2 230.181 57.7151   6
   1   8   2 218.962 52.5570  11
  -1  -8  -2 387.503 55.9427   2
   1   8   2 323.899 23.7017   8
   1   8   3 64.6688 54.2984   6
  -1  -8  -3-1.64512 42.0522   2
   1   8   3-41.8622 49.8449  11
  -1  -8  -3 26.5462 39.4104   7
   1   8   3 70.2692 22.8984   8
   1   8   4 20784.8 211.669   8
  -1  -8  -4 21422.2 262.375   9
  -1  -8  -4 19917.6 336.953   1
  -1  -8  -4 20618.0 274.754   2
  -1  -8  -4 20485.5 290.757   7
   1   8   4 20653.9 345.282   6
   1   8   4 20472.6 337.501  11
   1   8   5 11796.6 258.867  11
  -1  -8  -5 12081.3 210.791   2
  -1  -8  -5 12530.9 224.618   9
  -1  -8  -5 11998.9 262.698   1
   1   8   5 12024.2 268.445   6
   1   8   5 12047.8 216.732   3
   1   8   6 15404.7 240.208   3
   1   8   6 15025.6 295.317  11
  -1  -8  -6 15645.1 304.176   1
   1   8   6 15054.7 301.943   6
  -1  -8  -6 15441.3 236.313   2
  -1  -8  -7-46.6547 42.7439   2
  -1  -8  -7 56.8953 56.0168   1
   1   8   7-92.6798 69.4891  10
   1   8   7 34.4909 40.4354   3
   1   8   7 100.798 59.4151  11
   1   8   7-12.7490 51.4122   6
  -1  -8  -8-23.1106 37.5697   2
   1   8   8-44.4193 38.1421   3
   1   8   8-12.2208 58.9428   6
  -1  -8  -8 96.1826 58.4381   1
   1   8   8 79.8202 56.3532  11
   1   8   8 88.4453 64.3307  10
  -1  -8  -9 853.420 96.9948   1
   1   8   9 687.696 90.2358  11
  -1  -8  -9 727.706 62.5987   2
   1   8   9 654.572 88.9913   6
   1   8   9 877.884 106.269  10
   1   8   9 702.937 64.1796   3
  -1  -8 -10 145.170 73.6454   1
   1   8  10-36.9293 69.5812   6
   1   8  10 161.282 51.7981   3
  -1  -8 -10 184.754 46.5610   2
   1   8  10 163.348 71.0555  11
   1   8  11 250.582 81.3071  11
  -1  -8 -11 243.825 81.8809   1
   1   8  11 200.869 76.8962   6
  -1  -8 -12 224.792 89.2845   1
   1   8  12 456.660 98.4525   6
   1   8  12 255.734 84.8571  11
  -1  -9   7 823.582 100.360   5
  -1  -9   7 876.426 99.0962   7
  -1  -9   7 872.217 104.521   2
  -1  -9   7 856.863 107.173   4
  -1  -9   7 998.382 118.106   6
   1   9  -7 972.416 116.877   1
  -1  -9   6 288.006 79.6403   2
  -1  -9   6 495.752 84.8070   7
  -1  -9   6 333.381 76.1054   5
   1   9  -6 260.201 81.3274   1
  -1  -9   6 257.567 86.0351   6
  -1  -9   5 2991.32 167.135   6
  -1  -9   5 3309.21 152.617   7
   1   9  -5 3170.48 167.991   1
   1   9  -4 370.378 80.1342   1
  -1  -9   4 420.571 79.3466   2
  -1  -9   4 326.929 67.1490   7
  -1  -9   4 420.717 83.5552   6
  -1  -9   3 575.498 76.8226   7
  -1  -9   3 652.434 87.5020   6
   1   9  -3 606.277 84.2222   1
  -1  -9   3 618.837 85.7545   2
  -1  -9   2 399.160 63.5022   7
  -1  -9   2 431.084 73.7197   2
  -1  -9   2 459.548 78.8760   6
  -1  -9   1 472.690 62.8186   7
  -1  -9   1 613.971 83.6761   6
  -1  -9   1 636.731 80.5529   2
  -1  -9   0 886.176 85.7758   2
  -1  -9   0 855.173 76.0370   7
  -1  -9   0 939.168 90.9389   6
  -1  -9  -1 2014.73 109.552   2
  -1  -9  -1 1749.13 118.709   6
  -1  -9  -1 2060.18 100.830   7
   1   9   1 1693.91 42.6443   8
   1   9   2 290.354 21.8504   8
   1   9   2 345.790 69.2768  11
  -1  -9  -2 351.560 59.7494   7
  -1  -9  -2 366.936 62.4949   2
  -1  -9  -2 341.810 69.4653   6
   1   9   3 14986.5 154.216   8
  -1  -9  -3 14875.6 252.832   2
   1   9   3 14860.6 310.360  11
   1   9   3 15165.7 314.410   6
  -1  -9  -3 15465.5 263.899   7
   1   9   4 68.9869 58.8009   6
  -1  -9  -4-43.5291 45.2536   7
   1   9   4-0.05350 52.9928  11
   1   9   4 34.0878 27.1929   8
  -1  -9  -4-26.2636 47.8568   2
  -1  -9  -5 8853.07 246.618   1
   1   9   5 8517.96 154.798   8
   1   9   5 8287.65 239.242  11
  -1  -9  -5 8250.40 189.975   2
  -1  -9  -5 8916.43 194.713   9
   1   9   5 8601.16 246.780   6
  -1  -9  -5 8465.29 201.310   7
   1   9   6 24.7482 59.4937   6
   1   9   6 20.5648 42.0677   3
   1   9   6 103.204 64.5102  11
  -1  -9  -6 46.2236 44.6029   2
  -1  -9  -6-45.0197 57.8073   1
  -1  -9  -6 92.1934 57.8461   9
  -1  -9  -7 1261.70 107.824   1
  -1  -9  -7 1312.05 82.5183   2
  -1  -9  -7 1337.64 99.1703   9
   1   9   7 1459.50 89.1945   3
   1   9   7 1421.01 116.255   6
   1   9   7 1233.13 106.581  11
  -1  -9  -8 49.4500 47.8482   2
   1   9   8 54.9860 68.9630  10
  -1  -9  -8 85.8359 63.7247   1
   1   9   8 63.0404 61.5316  11
   1   9   8-11.0605 64.9890   6
   1   9   8 85.9549 47.2293   3
   1   9   9 75.2772 63.4729  11
   1   9   9 2.75780 69.6980  10
  -1  -9  -9-112.035 50.6477   2
  -1  -9  -9 24.4106 66.5157   1
   1   9   9 7.82621 46.3686   3
   1   9   9 8.92612 64.5122   6
   1   9  10 1091.61 112.675  11
  -1  -9 -10 1002.25 73.8022   2
   1   9  10 1146.85 120.328   6
   1   9  10 1134.37 122.284  10
  -1  -9 -10 1153.03 117.040   1
   1   9  11 791.480 110.294  10
   1   9  11 721.414 106.703  11
   1   9  11 742.272 111.209   6
  -1  -9 -11 875.654 110.706   1
   1   9  12 2185.84 166.972  10
  -1 -10   5 341.968 83.5543   2
   1  10  -5 93.8081 77.1884   1
  -1 -10   5 112.476 64.9620   7
  -1 -10   5 254.480 91.3475   6
   1  10  -4-48.9322 70.2632   1
  -1 -10   4 109.111 66.5518   7
  -1 -10   4 147.866 71.9222   2
  -1 -10   4 183.362 79.4521   6
  -1 -10   3 484.028 89.9554   6
   1  10  -3 442.112 86.4474   1
  -1 -10   3 480.168 84.3371   2
  -1 -10   3 530.117 76.8131   7
  -1 -10   2 75.3165 71.6569   6
  -1 -10   2 38.6287 49.9358   7
  -1 -10   2-17.0732 66.4405   2
  -1 -10   1 921.919 103.306   6
  -1 -10   1 809.007 96.5877   2
  -1 -10   1 836.060 79.7730   7
  -1 -10   0 781.343 78.2593   7
  -1 -10   0 786.498 87.9296   2
  -1 -10  -1 239.118 67.9559   2
  -1 -10  -1 180.605 52.0063   7
  -1 -10  -1 234.709 73.9045   6
  -1 -10  -2 56.3370 51.1119   7
  -1 -10  -2 7.91147 55.8824   2
   1  10   2 145.302 69.5726  11
  -1 -10  -2-32.8268 63.8643   6
  -1 -10  -3 4089.75 150.542   2
  -1 -10  -3 3861.54 139.844   7
   1  10   3 3781.12 178.284  11
   1  10   4 36.3065 66.6970  11
  -1 -10  -4 37.9790 50.2295   7
  -1 -10  -4 37.6792 51.8053   2
   1  10   4-22.6821 62.1462   6
  -1 -10  -5 945.976 84.6412   2
  -1 -10  -5 943.492 80.8097   7
   1  10   5 1126.90 112.517   6
   1  10   5 851.379 98.9599  11
   1  10   6 168.022 74.3968   6
   1  10   6-5.47158 62.6106  11
  -1 -10  -6 2.15651 52.6560   7
  -1 -10  -6-5.90659 53.7502   9
  -1 -10  -6 35.2251 48.8259   2
  -1 -10  -6 40.5581 63.9209   1
   1  10   7-26.1320 65.5590  11
  -1 -10  -7 22.8943 48.2011   2
  -1 -10  -7 149.074 74.2698   1
  -1 -10  -7-4.55298 58.6657   9
   1  10   7-27.4188 66.5568   6
   1  10   7 41.8888 53.2795   3
  -1 -10  -8 424.022 78.7720   9
  -1 -10  -8 390.356 61.4142   2
  -1 -10  -8 608.793 92.5438   1
   1  10   8 495.350 93.0466  11
   1  10   8 435.129 65.7070   3
   1  10   9-30.4745 78.2541  11
  -1 -10  -9 127.868 50.5198   2
   1  10   9 154.114 82.2160   6
  -1 -10  -9 270.311 76.0832   1
   1  10   9 180.901 56.1980   3
  -1 -10  -9 158.880 71.6853   9
   1  10  10 168.281 90.9618   6
   1  10  10 198.558 85.0728  11
  -1 -10 -10 36.1141 79.1668   9
  -1 -10 -10 142.110 80.2978   1
  -1 -10 -10 161.000 58.3390   2
  -1 -10 -11 2198.51 171.390   1
   1  10  11 2104.41 161.917  10
   1  10  11 2487.54 181.395   6
  -1 -11   4 325.126 79.6777   7
  -1 -11   4 452.455 96.7877   2
   1  11  -4 364.523 92.8150   1
  -1 -11   4 185.792 88.9464   6
  -1 -11   3 1169.88 103.189   7
  -1 -11   3 918.065 119.283   6
   1  11  -3 836.164 108.680   1
  -1 -11   2 477.308 78.7024   7
  -1 -11   2 349.630 85.8274   2
  -1 -11   2 486.388 98.8542   6
  -1 -11   1 7.84690 53.5490   7
  -1 -11   1-24.3955 66.8646   2
  -1 -11   1 123.713 80.6226   6
  -1 -11   0 8.48163 52.2286   7
  -1 -11   0-45.2198 67.5752   2
  -1 -11   0-55.0856 71.7489   6
  -1 -11  -1 104.464 56.4154   7
  -1 -11  -1 51.5855 64.1640   2
  -1 -11  -2 404.246 71.5526   7
  -1 -11  -2 560.182 90.1777   2
  -1 -11  -2 671.391 99.2330   6
  -1 -11  -3 731.911 89.6719   2
   1  11   3 671.189 100.325  11
  -1 -11  -3 630.878 96.1886   6
  -1 -11  -3 858.658 79.7177   7
   1  11   4 139.637 73.0856   6
  -1 -11  -4-8.17069 51.2372   7
  -1 -11  -4 56.8990 60.8078   2
   1  11   4-6.23569 70.1174  11
   1  11   5 210.394 80.6082   6
  -1 -11  -5 197.851 58.7899   7
   1  11   5 230.281 87.8300  11
   1  11   6 552.269 104.654  11
  -1 -11  -6 509.683 74.9318   2
   1  11   6 474.229 99.5779   6
  -1 -11  -6 676.583 78.6594   7
   1  11   7 53.6940 82.7482   6
  -1 -11  -7 106.553 60.9132   2
   1  11   7 108.523 83.5216  11
  -1 -11  -7 25.5083 61.9651   7
  -1 -11  -8 134.169 67.8842   2
  -1 -11  -8 105.651 65.6967   7
   1  11   8-0.08022 79.7937   6
   1  11   8 63.7291 80.0866  11
  -1 -11  -8-1.49574 77.9060   1
   1  11   9 76.3894 89.3589   6
   1  11   9 54.9864 86.6870  11
  -1 -11  -9-0.87988 59.3336   2
  -1 -11  -9 126.498 90.5336   1
  -1 -12   1 2960.51 151.139   7
  -1 -12   1 3364.51 175.861   2
  -1 -12   1 3100.59 192.142   6
  -1 -12   0 245.571 69.7194   7
  -1 -12   0 260.813 89.2968   2
  -1 -12   0 316.011 95.2691   6
  -1 -12  -1 580.673 107.360   6
  -1 -12  -1 330.074 70.5448   7
  -1 -12  -1 485.739 92.8078   2
  -1 -12  -2 1510.09 122.309   2
  -1 -12  -2 1107.46 97.5597   7
  -1 -12  -2 1192.69 133.556   6
  -1 -12  -3 1417.54 135.631   6
  -1 -12  -3 1541.80 118.260   7
  -1 -12  -3 1462.82 118.806   2
   1  12   4 474.281 102.493  11
  -1 -12  -4 494.204 87.2515   2
  -1 -12  -4 393.118 101.394   6
  -1 -12  -4 347.877 70.8562   7
   1  12   5 90.5767 88.8627   6
   1  12   5 95.7464 91.2635  11
  -1 -12  -5-18.4272 57.6746   7
  -1 -12  -5-4.74900 66.4234   2
   1  12   6 64.7726 84.9516  11
   1  12   6 138.196 96.9926   6
  -1 -12  -6 2.87733 64.7810   2
   1  12   7 748.780 124.498   6
   1  12   7 776.035 119.739  11
  -1 -12  -7 742.195 92.2086   2
  -1 -12  -8 113.605 72.1251   2
  -2  11   5 104.757 80.0094   3
   2 -11  -5 22.6917 68.0611   2
   2 -11  -5 116.179 99.1828   6
   2 -11  -4 322.663 93.3454   2
   2 -11  -4 312.116 102.718   6
   2 -11  -3 6.00823 88.8523   6
   2 -11  -3 38.9413 74.4922   2
   2 -11  -2 18.0805 93.7818   6
   2 -11  -2 80.8158 79.0929   2
   2 -11  -1 1685.00 142.478   2
  -2  10   8 254.091 95.2336   6
  -2  10   8 235.621 81.1793   8
  -2  10   8 321.428 87.6966   3
  -2  10   8 334.277 97.6182  11
  -2  10   7 511.046 91.6200   3
  -2  10   7 461.363 84.7022   8
  -2  10   7 745.237 114.883  11
  -2  10   7 708.505 113.974   6
   2 -10  -7 417.108 75.1941   2
  -2  10   6-59.7126 75.7410   6
  -2  10   6 145.500 69.6188   8
  -2  10   6-9.96222 74.5964  11
  -2  10   6 39.6153 65.8337   3
   2 -10  -6 110.406 66.7042   2
   2 -10  -5 52.3489 66.4420   2
  -2  10   5 26.7450 61.3532   8
   2 -10  -5 92.5206 90.9821   6
  -2  10   5-17.0837 81.0091  11
  -2  10   5 60.9502 69.6048   3
  -2  10   4 107.749 73.2129   3
   2 -10  -4 111.284 84.6893   6
  -2  10   4 50.8392 58.4412   8
   2 -10  -4 74.7235 59.4816   2
  -2  10   3 52.5136 55.0717   8
   2 -10  -3-11.5769 81.0808   6
   2 -10  -3-27.1867 67.5240   2
  -2  10   2 25.1346 53.6125   8
   2 -10  -2 28.6547 66.2589   2
   2 -10  -2 164.813 88.9143   6
   2 -10  -1 571.209 97.7178   2
   2 -10  -1 656.991 115.012   6
   2 -10  -1 503.755 69.1221   4
   2 -10   0-2.01239 53.7409   4
   2 -10   0-71.0645 69.4854   2
   2 -10   0 23.6776 81.2566   6
   2 -10   1 185.391 64.2309   4
   2 -10   1 145.557 82.3171   2
   2 -10   1 277.550 100.379   6
   2 -10   2 83.6761 63.1423   4
   2 -10   2-9.53174 74.7373   2
   2 -10   2 8.99669 87.6002   6
  -2  10  -2-6.30274 75.3957   1
  -2   9  10 41.2945 82.4746   6
   2  -9 -10 106.869 91.2010   1
  -2   9  10 109.020 85.7306  11
  -2   9  10 188.397 75.7689   3
   2  -9 -10 237.798 114.639   9
  -2   9   9 230.828 88.4497   6
  -2   9   9 249.755 87.7228  11
   2  -9  -9 305.641 99.5010   9
   2  -9  -9 241.864 92.4005   1
  -2   9   9 386.558 84.0936   3
  -2   9   9 244.970 79.4644   8
  -2   9   8 170.621 84.0447   6
  -2   9   8 84.4287 69.2446   8
  -2   9   8 37.8994 71.7416   3
   2  -9  -8 81.6465 92.7790   9
  -2   9   8 102.085 70.3519  11
  -2   9   7 127.379 69.5984   6
  -2   9   7 27.3810 70.4619  11
   2  -9  -7 38.7020 57.3564   2
  -2   9   7 23.8830 66.0009   3
  -2   9   7-62.2023 64.4062   8
  -2   9   6 321.652 87.1306   6
  -2   9   6 137.846 63.6856   3
  -2   9   6 274.167 80.4635  11
  -2   9   6 408.390 78.9381   8
   2  -9  -6 271.807 61.8135   2
  -2   9   5 256.185 71.8897   3
  -2   9   5 284.003 67.1545   8
   2  -9  -5 168.433 61.6870   2
  -2   9   5 115.124 71.4188  11
  -2   9   4 665.955 81.0530   8
  -2   9   4 510.317 93.4582  11
  -2   9   4 628.320 87.7527   3
   2  -9  -4 617.211 96.3871   6
   2  -9  -4 553.723 76.0777   2
   2  -9  -3 3647.59 109.751   4
   2  -9  -3 3844.56 192.631   6
  -2   9   3 3914.02 174.598   3
   2  -9  -3 3365.44 151.271   2
  -2   9   3 3873.47 150.705   8
   2  -9  -2 2024.39 124.836   2
  -2   9   2 2289.80 121.783   8
   2  -9  -2 2153.63 148.537   6
   2  -9  -2 2337.59 97.3030   4
   2  -9  -1 22.1461 61.2506   2
  -2   9   1 55.7398 51.6092   8
   2  -9  -1 0.83253 44.4973   4
   2  -9  -1-13.0519 67.4598   6
  -2   9   0 1589.00 99.2196   8
   2  -9   0 1609.35 133.049   6
   2  -9   0 1781.16 98.3464   4
   2  -9   0 1587.55 122.961   2
   2  -9   1 232.730 59.1706   4
  -2   9  -1 320.451 63.4394   8
   2  -9   1 316.957 81.1191   2
   2  -9   1 242.384 84.0635   6
  -2   9  -2 4.86208 69.4153   1
   2  -9   2-46.0307 57.5372   4
  -2   9  -2-4.61789 47.7894   8
   2  -9   2-54.8056 75.2906   2
   2  -9   2-28.1123 77.8060   6
   2  -9   3 352.465 77.3800   4
  -2   9  -3 142.939 55.2461   8
  -2   9  -3 338.548 95.0788   1
   2  -9   3 384.122 82.6461   2
   2  -9   3 210.030 87.9948   6
   2  -9   4 1447.78 119.383   4
   2  -9   4 1094.19 124.250   2
   2  -9   4 1244.56 138.648   6
  -2   9  -4 1079.66 127.750   1
  -2   9  -4 1150.79 100.506   8
   2  -9   5 96.4245 76.5863   4
  -2   8  11 122.868 84.6805   6
   2  -8 -11 101.781 101.547   9
   2  -8 -11-62.7121 81.4107   1
  -2   8  11 136.375 83.3688  11
  -2   8  11-72.1070 78.6438   3
  -2   8  10 179.972 80.2651   6
   2  -8 -10 100.164 76.3019   1
  -2   8  10 119.450 80.4619  11
   2  -8 -10 61.3366 89.6094   9
  -2   8  10 201.699 74.4583   3
  -2   8   9 184.836 80.2541   6
  -2   8   9 322.964 71.6518   3
  -2   8   9 326.229 80.3264  11
   2  -8  -9 468.925 105.278   9
   2  -8  -9 453.465 91.2652   1
   2  -8  -8 1540.42 137.633   9
  -2   8   8 1819.74 135.593  11
   2  -8  -8 1490.27 87.0105   2
  -2   8   8 1376.20 122.143   8
   2  -8  -8 1598.81 130.386   1
  -2   8   8 1522.61 129.821   6
  -2   8   8 1605.90 118.058   3
   2  -8  -7 314.936 83.2066   9
  -2   8   7 308.898 69.6512   8
   2  -8  -7 217.170 51.9486   2
  -2   8   7 501.498 92.6853   6
  -2   8   7 333.839 71.4559   3
  -2   8   7 405.266 81.3505  11
   2  -8  -6 7399.87 181.177   2
  -2   8   6 7465.81 240.268  11
  -2   8   6 7610.00 218.430   3
  -2   8   6 7445.49 219.465   8
  -2   8   6 7761.34 246.655   6
  -2   8   5 94.7206 66.7180   6
  -2   8   5 114.201 69.8477  11
  -2   8   5 51.7472 58.1360   8
   2  -8  -5 145.855 53.2594   2
  -2   8   5 49.7782 57.1902   3
   2  -8  -4 3495.88 135.705   2
   2  -8  -4 3792.62 92.1139   4
  -2   8   4 3938.27 161.058   3
  -2   8   4 3557.35 145.557   8
  -2   8   4 3896.45 176.761   6
  -2   8   4 3893.52 176.531  11
   2  -8  -3 3373.58 96.2789   4
   2  -8  -3 3135.77 136.568   2
  -2   8   3 3063.53 134.401   8
   2  -8  -3 3212.15 73.8200   7
  -2   8   3 3240.11 163.611  11
   2  -8  -3 3306.39 167.058   6
  -2   8   3 3269.91 150.445   3
  -2   8   2 167.629 55.5677   8
   2  -8  -2 76.9596 38.5566   4
   2  -8  -2 44.2089 26.6162   7
   2  -8  -2 80.7399 59.9781   2
  -2   8   2 164.070 61.9142   3
   2  -8  -2 10.5323 62.0711   6
  -2   8   1 2424.19 115.612   8
   2  -8  -1 2297.70 94.4076   4
   2  -8  -1 2183.71 76.2775   7
   2  -8  -1 2175.33 124.140   2
   2  -8  -1 2144.91 140.962   6
  -2   8   0 1785.01 100.185   8
   2  -8   0 1606.32 73.5062   7
   2  -8   0 1705.06 126.134   6
   2  -8   0 1851.41 116.182   2
   2  -8   0 1787.43 91.8799   4
   2  -8   1-20.9419 47.5569   4
  -2   8  -1 62.0296 44.6224   8
   2  -8   1 119.061 38.5070   7
   2  -8   1 30.0596 65.6110   6
  -2   8  -2 125.955 67.8568   1
  -2   8  -2 52.1085 48.0874   8
   2  -8   2-57.7591 54.5189   4
   2  -8   2-140.929 67.3918   2
   2  -8   2 169.924 72.5918   6
  -2   8  -3 561.233 71.1826   8
   2  -8   3 596.362 99.2458   6
   2  -8   3 486.762 71.2007   4
  -2   8  -3 552.301 93.9285   1
   2  -8   3 513.318 87.0391   2
   2  -8   4 515.447 78.4929   4
   2  -8   4 704.047 96.1923   2
   2  -8   4 542.444 100.260   6
  -2   8  -4 627.948 77.2960   8
  -2   8  -4 614.516 95.1928   1
   2  -8   5 3656.72 176.019   2
   2  -8   5 4259.16 180.457   4
  -2   8  -5 4075.08 166.582   8
   2  -8   5 3575.07 196.858   6
  -2   8  -5 3727.41 199.225   1
   2  -8   6 250.523 90.7844   2
   2  -8   6 323.862 80.6864   4
  -2   8  -6 236.555 91.5311   1
   2  -8   6 326.457 94.1212   6
  -2   7  12-25.5160 68.1560  11
   2  -7 -12 10.7227 78.1778   1
  -2   7  12-4.87883 76.4749   3
   2  -7 -12 5.72343 103.012   9
  -2   7  12 66.1445 73.2277   6
  -2   7  11 651.059 98.7362  11
   2  -7 -11 704.140 124.104   9
  -2   7  11 778.336 102.056   3
   2  -7 -11 677.951 100.500   1
  -2   7  11 678.527 100.555   6
   2  -7 -10 600.953 92.1769   1
  -2   7  10 527.963 87.2140  11
   2  -7 -10 671.474 112.783   9
  -2   7  10 549.053 87.4231   3
  -2   7  10 587.748 95.8171   6
   2  -7  -9 1627.15 124.797   1
   2  -7  -9 1483.88 140.910   9
  -2   7   9 1381.81 112.801   3
  -2   7   9 1273.43 107.459  11
  -2   7   9 1305.93 114.011   6
  -2   7   8 3004.10 150.976  11
   2  -7  -8 3096.94 157.866   1
  -2   7   8 3113.43 150.087   3
   2  -7  -8 2796.05 101.133   2
   2  -7  -8 2964.75 169.900   9
  -2   7   8 3387.49 164.148   6
  -2   7   7 2861.03 144.431  11
  -2   7   7 2971.77 141.082   3
  -2   7   7 2768.53 148.191   6
   2  -7  -7 2709.63 101.594   2
   2  -7  -7 2663.46 150.228   1
   2  -7  -7 2764.11 158.331   9
  -2   7   6 12803.8 289.373  11
   2  -7  -6 12918.6 306.820   9
  -2   7   6 12425.3 266.696   3
   2  -7  -6 11807.8 132.501   7
   2  -7  -6 12841.6 292.689   1
  -2   7   6 12469.7 270.299   8
  -2   7   6 13476.7 300.189   6
   2  -7  -6 12540.5 211.551   2
   2  -7  -5 2653.13 107.493   2
   2  -7  -5 2591.76 55.4297   4
  -2   7   5 2670.54 138.150  11
  -2   7   5 2546.53 123.822   8
   2  -7  -5 2707.02 56.6153   7
  -2   7   5 2873.43 130.478   3
  -2   7   5 2829.11 143.072   6
   2  -7  -4 6901.16 86.4212   7
  -2   7   4 7325.32 202.101   3
   2  -7  -4 7031.88 170.090   2
  -2   7   4 7152.71 218.527   6
  -2   7   4 7209.15 196.102   8
  -2   7   4 7145.70 216.109  11
   2  -7  -3 296.624 61.4820  10
  -2   7   3 357.586 59.6136   8
   2  -7  -3 317.871 25.1357   7
   2  -7  -3 388.873 39.0679   4
  -2   7   3 373.835 64.1190   3
   2  -7  -3 289.251 53.6963   2
  -2   7   3 377.019 70.0386  11
   2  -7  -2 2597.79 84.8152   4
   2  -7  -2 2491.13 114.718   2
   2  -7  -2 2213.39 131.725   6
   2  -7  -2 2541.77 65.6870   7
  -2   7   2 2426.24 122.525   3
  -2   7   2 2392.43 111.381   8
   2  -7  -1-28.6805 25.4979   7
   2  -7  -1 6.78581 33.8960   4
  -2   7   1 34.9608 46.6273   8
   2  -7  -1-24.1426 47.0750   2
  -2   7   1-24.1683 54.5685   3
   2  -7  -1 94.1305 59.7714   6
   2  -7   0 93.7806 39.5070   4
   2  -7   0 100.659 49.2550   2
  -2   7   0 224.439 49.7986   8
   2  -7   0 175.664 34.2370   7
   2  -7   0 200.232 70.5159   6
   2  -7   1 7631.47 172.758   4
  -2   7  -1 7451.43 183.863   8
   2  -7   1 7424.90 207.990   2
   2  -7   1 7651.76 151.383   7
   2  -7   1 7047.02 223.674   6
   2  -7   2 7612.14 144.526   5
   2  -7   2 8039.80 217.890   2
   2  -7   2 7553.01 238.693   6
   2  -7   2 7348.57 182.989   4
  -2   7  -2 7554.94 186.439   8
   2  -7   3 2114.38 85.6564   5
  -2   7  -3 2127.29 106.600   8
   2  -7   3 2255.71 141.707   6
  -2   7  -3 1810.01 125.674   1
   2  -7   3 1752.34 129.104   2
   2  -7   3 2084.95 111.201   4
   2  -7   4 751.191 89.1849   2
  -2   7  -4 777.606 96.6007   1
  -2   7  -4 724.842 73.4934   8
   2  -7   4 493.442 91.9426   6
   2  -7   4 694.039 80.8797   4
  -2   7  -5 60.5197 48.7992   8
  -2   7  -5 83.7407 68.4207   1
   2  -7   5 87.2942 59.7464   4
   2  -7   5 259.566 72.0201   2
   2  -7   5 135.806 71.2297   6
   2  -7   6 768.420 95.0730   2
   2  -7   6 688.433 104.769   6
  -2   7  -6 895.948 110.402   1
   2  -7   7 36.3276 77.6442   6
   2  -7   7 23.4093 65.4831   4
  -2   7  -7 189.431 86.1806   1
   2  -7   7-113.983 73.4946   2
  -2   6  12 118.534 65.1946  11
  -2   6  12 65.2721 72.8776   6
   2  -6 -12-61.2882 98.7996   9
  -2   6  12 15.6803 63.4714   3
   2  -6 -12 81.3523 83.0108   1
  -2   6  11-13.3971 65.3437  11
   2  -6 -11 71.6543 67.9873   1
   2  -6 -11 125.849 86.2401   9
  -2   6  11-57.3015 64.7788   3
  -2   6  11-41.7248 61.4730   6
   2  -6 -10 8280.78 280.408   9
  -2   6  10 7976.82 238.281  11
  -2   6  10 8081.96 242.538   6
  -2   6  10 8072.33 235.367   3
   2  -6 -10 8003.36 245.166   1
  -2   6   9 70.3727 56.3879   6
   2  -6  -9 157.048 79.9531   9
   2  -6  -9 113.791 55.1971   1
  -2   6   9 84.3665 58.7279  11
  -2   6   9 98.4044 64.6676   3
   2  -6  -8 3733.92 161.060   1
  -2   6   8 3239.78 150.400  11
   2  -6  -8 3207.27 93.7551   2
   2  -6  -8 3233.00 172.220   9
  -2   6   8 3549.93 150.913   3
  -2   6   8 2918.13 148.384   6
   2  -6  -7 28321.1 407.201   1
   2  -6  -7 27630.8 269.625   2
   2  -6  -7 27476.3 448.794   9
  -2   6   7 28748.7 396.505   3
  -2   6   7 27219.3 404.315   6
  -2   6   7 28485.4 398.983  11
  -2   6   6 64.8577 56.5128   6
   2  -6  -6 26.5728 47.5606   1
   2  -6  -6 132.151 68.0435   9
  -2   6   6 41.1587 49.7389  11
   2  -6  -6 22.9917 35.6477   2
  -2   6   6 37.6376 47.8531   3
  -2   6   5 1989.98 111.703   8
   2  -6  -5 2142.28 126.236   9
   2  -6  -5 1924.90 83.9690   2
  -2   6   5 2127.12 119.672   6
   2  -6  -5 2121.33 118.430   1
   2  -6  -5 1907.87 48.4576   7
  -2   6   5 1944.14 106.435   3
  -2   6   5 2046.16 113.786  11
  -2   6   4 306.987 61.5436   6
  -2   6   4 256.224 57.1658  11
   2  -6  -4 191.120 32.1127   4
   2  -6  -4 205.401 16.7807   7
   2  -6  -4 212.551 22.8255   4
   2  -6  -4 157.205 40.5794   2
  -2   6   4 194.219 50.4498   3
  -2   6   4 332.150 59.6102   8
  -2   6   3 38.6933 44.9639   6
  -2   6   3 153.421 47.6988   3
   2  -6  -3 104.190 26.2242   4
  -2   6   3 117.140 50.3237  11
   2  -6  -3 114.064 16.1241   7
  -2   6   3 109.604 48.7485   8
   2  -6  -3 100.713 41.2078   2
  -2   6   2 1055.91 81.6194   3
   2  -6  -2 1009.11 71.3216   2
  -2   6   2 1123.47 88.6510  11
   2  -6  -2 1138.18 54.2658   4
   2  -6  -2 1126.66 39.0754   7
   2  -6  -2 1016.42 87.0838   6
  -2   6   2 1036.19 76.9658   8
   2  -6  -1 2679.34 128.302   6
  -2   6   1 2637.00 110.840   8
   2  -6  -1 2553.65 110.021   2
   2  -6  -1 2559.81 65.9162   7
   2  -6  -1 2647.88 85.0561   4
  -2   6   1 2641.14 120.633   3
  -2   6   0 8110.29 185.224   8
   2  -6   0 7735.97 191.075   2
   2  -6   0 8302.22 129.613   7
   2  -6   0 7843.72 152.191   4
  -2   6   0 7900.85 145.459   7
   2  -6   0 8140.96 217.833   6
  -2   6   0 8129.60 207.652   3
   2  -6   1 6520.84 149.910   4
  -2   6  -1 6524.29 166.097   8
  -2   6  -1 6680.41 148.416   7
   2  -6   1 6661.36 129.569   7
   2  -6   1 6606.69 179.157   2
   2  -6   1 6934.39 205.854   6
   2  -6   2 31225.2 344.870   4
  -2   6  -2 31539.1 361.768   8
   2  -6   2 31030.3 440.576   6
   2  -6   2 32147.6 267.594   5
   2  -6   3 1530.32 89.5440   4
  -2   6  -3 1629.46 91.4073   8
   2  -6   3 1609.52 70.0202   5
   2  -6   3 1719.98 119.082   6
  -2   6  -3 1704.49 113.711   1
   2  -6   3 1433.06 98.8492   2
   2  -6   4 124.854 52.8344   4
  -2   6  -4 139.769 47.0031   8
   2  -6   4 25.8303 51.9604   2
  -2   6  -4 80.4132 61.2676   1
   2  -6   4 64.8470 66.7012   6
   2  -6   5 3131.12 140.661   4
   2  -6   5 2638.51 137.930   2
  -2   6  -5 3054.12 132.174   8
  -2   6  -5 2821.62 153.311   1
   2  -6   5 2540.18 147.706   6
   2  -6   6 320.799 73.8621   2
   2  -6   6 325.765 68.7108   4
  -2   6  -6 242.084 70.7839   1
   2  -6   6 315.866 83.0546   6
   2  -6   7 1380.89 115.836   2
  -2   6  -7 1208.26 121.800   1
   2  -6   7 1445.50 133.037   6
   2  -6   7 1151.52 110.854   4
  -2   6  -8 1885.57 149.700   1
   2  -6   8 2058.03 144.738   4
   2  -6   8 2068.94 159.638   6
  -2   5  13 865.616 107.800   3
  -2   5  13 1313.91 129.959  11
  -2   5  13 1038.93 123.699   6
   2  -5 -13 1192.99 127.482   1
   2  -5 -12 121.581 69.5449   1
  -2   5  12 112.182 74.8359   3
  -2   5  12 49.7771 65.1805  11
  -2   5  12 42.8421 65.0148   6
  -2   5  11-72.9626 64.0165  11
  -2   5  11 35.8218 62.7973   3
  -2   5  11-105.175 73.8076   6
   2  -5 -10 1328.97 129.984   9
  -2   5  10 1078.28 98.4787  11
  -2   5  10 1273.58 108.052   3
  -2   5  10 1122.19 101.709   6
   2  -5 -10 1333.94 110.604   1
  -2   5   9 289.475 63.6311   3
   2  -5  -9 430.786 87.8073   9
  -2   5   9 307.131 68.0828   6
   2  -5  -9 524.220 77.2233   1
  -2   5   9 284.782 64.6806  11
  -2   5   8 7940.68 209.919  11
   2  -5  -8 7714.34 114.395   2
   2  -5  -8 7603.59 239.973   9
   2  -5  -8 8087.08 215.495   1
   2  -5  -8 7408.55 135.489   7
  -2   5   8 7315.44 204.769   3
  -2   5   8 7911.78 211.648   6
  -2   5   8 7658.82 165.822  10
  -2   5   7 1395.76 73.7439  10
  -2   5   7 1453.80 96.0518   3
   2  -5  -7 1629.40 60.5486   7
   2  -5  -7 1464.18 61.4730   2
  -2   5   7 1345.55 90.9949   6
  -2   5   7 1264.21 58.5211   2
   2  -5  -7 1509.30 119.055   9
  -2   5   7 1454.71 94.3987  11
   2  -5  -7 1361.68 95.8359   1
   2  -5  -6 1855.16 105.038   1
   2  -5  -6 1967.18 54.2221   7
  -2   5   6 1850.49 102.408   3
  -2   5   6 2002.39 106.580  11
  -2   5   6 1728.34 100.045   6
  -2   5   6 1827.65 69.1437   2
   2  -5  -6 1839.99 69.4373   2
  -2   5   5 1866.15 98.8744  11
   2  -5  -5 1851.98 100.168   1
   2  -5  -5 1717.52 71.8138   2
   2  -5  -5 1704.61 109.939   9
   2  -5  -5 1718.74 41.5780   7
  -2   5   5 1834.07 99.0988   3
  -2   5   5 1793.92 99.3396   6
  -2   5   5 1799.58 69.9112   2
  -2   5   4 331.801 52.9285   8
   2  -5  -4 286.848 21.9173   4
   2  -5  -4 373.042 17.8919   4
  -2   5   4 344.017 54.0290  11
   2  -5  -4 307.834 17.6692   7
  -2   5   4 367.285 40.8326   2
   2  -5  -4 453.142 61.4868   1
   2  -5  -4 406.138 64.3730   9
  -2   5   4 446.330 63.0662   6
   2  -5  -4 397.476 43.9851   2
  -2   5   4 446.476 61.2883   3
  -2   5   3 4405.29 139.561   8
   2  -5  -3 4365.44 116.024   2
   2  -5  -3 4277.16 70.1151   4
  -2   5   3 4130.65 134.999   3
  -2   5   3 4299.08 146.096   6
  -2   5   3 4278.38 143.337  11
   2  -5  -2 1016.52 63.7309   2
  -2   5   2 1109.49 80.9170  11
  -2   5   2 890.662 69.6752   8
   2  -5  -2 944.086 43.1545   4
  -2   5   2 966.035 71.2976   3
   2  -5  -2 943.164 29.3670   7
   2  -5  -1 23465.7 285.049   2
   2  -5  -1 23477.3 216.650   4
  -2   5   1 23205.1 295.726   8
   2  -5  -1 23606.2 332.182   6
  -2   5   1 24247.9 316.935   3
   2  -5  -1 23230.1 165.379   7
   2  -5   0 2549.55 82.1318   4
   2  -5   0 2562.06 117.639   6
  -2   5   0 2743.42 79.6603   7
   2  -5   0 2690.23 68.6638   7
  -2   5   0 2671.01 115.026   3
  -2   5   0 2724.44 105.750   8
   2  -5   0 2357.42 102.356   2
   2  -5   1 3669.71 106.045   4
  -2   5  -1 3541.81 98.1686   7
  -2   5  -1 3905.56 126.434   8
   2  -5   1 3417.51 138.218   6
   2  -5   1 3696.71 127.727   2
   2  -5   2 10133.3 136.615   5
   2  -5   2 9776.54 183.005   4
  -2   5  -2 10404.3 200.377   8
   2  -5   2 9182.96 204.384   2
  -2   5  -2 9567.83 169.392   7
   2  -5   2 10062.8 237.139   6
  -2   5  -3 422.709 53.1404   8
   2  -5   3 507.076 65.6468   2
   2  -5   3 404.089 37.7403   5
   2  -5   3 437.113 70.2037   6
   2  -5   3 459.732 57.0140   4
  -2   5  -3 381.789 63.5634   1
   2  -5   4 14476.9 302.206   6
   2  -5   4 14368.9 253.405   4
   2  -5   4 14811.0 268.607   2
  -2   5  -4 15119.4 256.379   8
  -2   5  -4 14886.9 296.811   1
   2  -5   5 771.693 85.6298   6
  -2   5  -5 789.790 74.1651   8
   2  -5   5 821.819 78.5631   4
  -2   5  -5 781.095 85.4003   1
   2  -5   5 607.633 75.2727   2
   2  -5   6 538.852 74.2313   4
  -2   5  -6 506.837 69.0459   8
   2  -5   6 491.628 71.6381   2
   2  -5   6 494.695 84.8569   6
  -2   5  -6 491.776 78.6319   1
   2  -5   7 904.351 108.847   6
   2  -5   7 811.561 87.8954   4
  -2   5  -7 807.591 96.1239   1
   2  -5   8 293.593 75.7601   4
  -2   5  -8 365.673 88.4804   1
   2  -5   8 372.142 85.0131   6
   2  -5   9 73.8996 81.6876   4
  -2   5  -9 59.3847 78.7851   1
   2  -5   9 222.267 85.0497   6
  -2   4  13 778.139 109.780   3
  -2   4  13 768.744 110.645  11
   2  -4 -13 768.590 108.235   1
  -2   4  13 633.143 98.7402   6
   2  -4 -12 806.879 100.995   1
  -2   4  12 954.813 108.719   3
  -2   4  12 990.989 104.082  11
  -2   4  11 480.244 82.1431   3
  -2   4  11 417.199 79.5146  11
   2  -4 -11 393.535 80.4376   1
  -2   4  11 254.934 67.4082   6
  -2   4  10 2883.39 139.787  11
  -2   4  10 2812.01 141.212   3
   2  -4 -10 3059.76 146.877   1
  -2   4  10 2920.65 141.412   6
  -2   4   9 1032.47 90.3252  11
  -2   4   9 1111.17 98.5296   3
  -2   4   9 1216.25 94.5228   6
   2  -4  -9 1268.87 101.952   1
  -2   4   8 809.030 78.6054  11
   2  -4  -8 866.124 55.8837   7
  -2   4   8 980.709 86.7077   3
  -2   4   8 788.584 77.6423   6
   2  -4  -8 928.412 80.2241   1
   2  -4  -7 776.449 36.3578   2
   2  -4  -7 1023.28 97.3220   9
  -2   4   7 831.612 40.5514   2
  -2   4   7 847.374 71.2656  11
   2  -4  -7 832.706 47.2899   7
  -2   4   7 751.269 72.9362   3
  -2   4   7 958.682 74.7839   6
   2  -4  -7 867.865 75.2252   1
  -2   4   6 2188.37 73.6902  10
   2  -4  -6 2084.52 121.019   9
  -2   4   6 2005.44 103.493   3
   2  -4  -6 2196.38 60.6130   7
   2  -4  -6 2142.83 63.6467   2
  -2   4   6 1929.62 95.0954  11
  -2   4   6 1964.15 99.4566   6
   2  -4  -6 2169.38 102.764   1
  -2   4   6 2157.61 63.2783   2
  -2   4   5 6277.78 107.452   2
   2  -4  -5 6624.71 115.089   2
  -2   4   5 6433.26 160.281  11
   2  -4  -5 7189.67 86.2779   7
  -2   4   5 6691.65 168.408   3
   2  -4  -5 6523.17 192.759   9
  -2   4   5 6055.21 161.522   6
   2  -4  -5 6661.64 166.072   1
  -2   4   4 1484.29 85.6687   3
   2  -4  -4 1537.07 62.7734   2
   2  -4  -4 1575.65 100.185   9
  -2   4   4 1639.66 86.1590  11
   2  -4  -4 1461.67 29.0102   7
   2  -4  -4 1454.40 81.9890   1
  -2   4   4 1544.49 59.3044   2
  -2   4   4 1465.55 84.2588   6
   2  -4  -3 8544.51 143.924   2
  -2   4   3 9009.91 188.004   3
  -2   4   3 8058.61 178.216   8
   2  -4  -3 8084.50 73.6007   4
  -2   4   3 8068.23 132.799   2
   2  -4  -3 7750.09 195.991   9
  -2   4   3 8694.10 187.360   6
  -2   4   3 8904.48 186.408  11
   2  -4  -2 42415.9 217.585   4
   2  -4  -2 41398.2 330.047   2
  -2   4   2 40388.6 384.715   8
  -2   4   2 41431.2 411.843   9
  -2   4   2 41985.4 393.513  11
  -2   4   2 42061.3 313.079   2
  -2   4   2 41367.0 380.225   3
   2  -4  -2 41249.8 385.333   6
   2  -4  -2 40284.8 372.596  11
  -2   4   2 42197.2 397.017   6
  -2   4   2 41232.4 377.550   1
  -2   4   1 4622.95 133.934   1
   2  -4  -1 4988.82 138.816  11
   2  -4  -1 5033.55 91.0476   4
  -2   4   1 5106.70 139.063   8
   2  -4  -1 5031.91 145.014   6
  -2   4   1 5163.97 139.172   3
   2  -4  -1 4963.70 141.796   6
  -2   4   1 4870.05 117.059   2
  -2   4   1 4802.62 142.254   9
   2  -4  -1 5167.96 129.041   2
   2  -4   0 14499.6 243.718   6
  -2   4   0 14901.5 151.526   7
  -2   4   0 15138.2 234.108   3
   2  -4   0 14111.8 222.091   8
   2  -4   0 14587.4 219.225   2
  -2   4   0 14943.2 224.360   8
   2  -4   0 14465.6 171.959   4
   2  -4   1 7813.27 172.032   8
  -2   4  -1 8423.90 129.717   7
   2  -4   1 8387.86 144.752   4
   2  -4   1 8173.87 187.461   6
  -2   4  -1 8346.90 168.872   8
  -2   4  -1 8335.33 180.545   3
   2  -4   1 8395.80 173.872   2
   2  -4   2 37.1954 29.4451   4
   2  -4   2 14.9368 18.4163   5
  -2   4  -2-19.1967 41.3985   1
  -2   4  -2-0.83310 33.1281   8
  -2   4  -2 6.27213 28.0033   7
   2  -4   2-29.0429 38.1508   2
   2  -4   2 24.4553 39.6083   6
  -2   4  -3-8.60604 34.9662   8
  -2   4  -3-28.0845 42.4382   1
   2  -4   3 20.8294 34.1213   4
   2  -4   3 5.32994 38.9782   2
   2  -4   3-40.2599 49.2945   6
  -2   4  -4 1519.27 84.4870   8
   2  -4   4 1445.29 87.4044   2
   2  -4   4 1444.07 98.4359   6
   2  -4   4 1232.41 81.5334   4
  -2   4  -4 1431.93 96.4401   1
  -2   4  -5 684.261 68.0831   8
   2  -4   5 788.555 72.0813   4
   2  -4   5 709.135 70.1172   2
   2  -4   5 777.149 83.7436   6
  -2   4  -5 788.741 77.8893   1
   2  -4   6 1316.16 93.7246   2
   2  -4   6 1112.70 99.7170   6
   2  -4   6 1126.40 87.7745   4
  -2   4  -6 1238.56 91.1832   8
  -2   4  -6 1305.46 100.787   1
  -2   4  -7 2719.73 143.075   1
   2  -4   7 2529.62 147.598   6
   2  -4   7 2864.82 139.824   4
   2  -4   8 80.4433 63.8323   4
  -2   4  -8 84.2297 63.1375   1
   2  -4   8 141.981 73.0070   6
   2  -4   9 132.014 63.0535   4
  -2   4  -9 94.0825 74.9416   1
   2  -4   9 130.555 74.1786   6
   2  -4  10-47.5393 73.1750   4
  -2   4 -10-71.2480 73.1023   1
   2  -4  10-42.2907 72.3969   6
  -2   3  13-45.7160 76.1889   3
   2  -3 -13-31.3401 74.8181   1
  -2   3  13 90.0213 67.3812  11
  -2   3  13 63.7268 65.5679   6
  -2   3  12 168.074 69.3651  11
   2  -3 -12 185.553 71.6879   1
  -2   3  12 209.874 71.6733   3
  -2   3  12 158.581 68.5623   6
  -2   3  11 73.2112 61.6517  11
   2  -3 -11 212.593 66.0312   1
  -2   3  11 199.142 64.3444   3
  -2   3  11 125.260 65.4763   6
  -2   3  10 93.2437 55.2907  11
   2  -3 -10 45.2693 51.4648   1
  -2   3  10 64.1390 37.8527   4
  -2   3  10 6.90767 58.6252   3
  -2   3  10 91.2597 52.4656   6
  -2   3   9 38.2904 34.6000   4
  -2   3   9 38.5823 53.5669   3
   2  -3  -9 32.5977 45.0797   1
  -2   3   9-37.6172 50.8738  11
  -2   3   9 3.18636 44.6588   6
  -2   3   8 393.897 65.5718   3
  -2   3   8 427.067 55.0578   6
   2  -3  -8 360.559 59.0761   1
  -2   3   8 302.013 35.4269   4
  -2   3   8 425.648 59.4310  11
  -2   3   7 1080.67 82.0593   3
  -2   3   7 1296.15 80.3383  11
  -2   3   7 1309.74 81.8360   6
   2  -3  -7 1076.30 55.4461   7
  -2   3   7 1055.85 44.0757   4
   2  -3  -7 1186.95 79.2136   1
   2  -3  -6 4318.64 160.672   9
  -2   3   6 4425.98 132.401  11
  -2   3   6 4410.41 141.694   3
  -2   3   6 4448.43 133.385   6
   2  -3  -6 4674.87 136.773   1
   2  -3  -6 4490.99 88.8718   7
  -2   3   6 4142.18 65.4764   2
   2  -3  -6 4153.34 64.0770   2
  -2   3   5 12852.0 123.955   2
  -2   3   5 12823.8 206.543  11
  -2   3   5 12750.1 209.579   6
   2  -3  -5 12577.7 129.227   2
   2  -3  -5 12900.5 256.271   9
   2  -3  -5 13131.7 124.452   7
  -2   3   5 12380.0 222.650   3
  -2   3   5 12641.1 203.660   1
   2  -3  -5 12604.6 207.287   1
   2  -3  -5 12762.4 209.326   6
   2  -3  -4 509.497 51.0834   1
  -2   3   4 436.571 31.6407   2
   2  -3  -4 505.714 36.1205   2
   2  -3  -4 436.700 49.0019   6
  -2   3   4 460.580 47.3059  11
   2  -3  -4 501.854 52.1703  11
  -2   3   4 579.240 57.5312   3
   2  -3  -4 503.054 21.7306   7
   2  -3  -4 493.012 63.6015   9
  -2   3   4 494.230 48.9903   1
  -2   3   4 464.410 49.4458   6
  -2   3   3 6355.27 149.321   3
  -2   3   3 6212.11 139.481  11
   2  -3  -3 5893.10 165.777   9
   2  -3  -3 6085.87 153.114   3
   2  -3  -3 6016.67 110.013   2
   2  -3  -3 6169.37 141.729   1
   2  -3  -3 6537.15 141.705   6
  -2   3   3 6275.91 136.929   1
  -2   3   3 6087.10 143.050   6
   2  -3  -3 6435.94 140.060  11
  -2   3   3 6247.02 104.183   2
   2  -3  -2 1223.81 48.1077  10
  -2   3   2 1321.46 69.4033  11
  -2   3   2 1250.69 80.3379   9
   2  -3  -2 1255.22 34.1748   4
  -2   3   2 1304.62 59.7088   2
   2  -3  -2 1211.26 59.2273   2
   2  -3  -2 1260.48 73.9077   3
  -2   3   2 1293.46 73.0761   3
   2  -3  -2 1166.26 63.5707  11
   2  -3  -2 1207.33 67.1538   6
  -2   3   2 1416.72 72.6111   6
  -2   3   2 1219.46 73.4948   8
  -2   3   2 1263.07 66.0089   1
   2  -3  -1 3.12584 34.0276   6
  -2   3   1-1.49324 36.0944   8
  -2   3   1 20.2672 10.5475   7
   2  -3  -1 65.2520 35.6200  11
  -2   3   1 60.6116 46.8825   9
  -2   3   1 30.5048 33.9453   2
   2  -3  -1 77.8449 39.4763   6
   2  -3  -1 47.2609 37.1863   2
   2  -3  -1 33.1657 39.4444   3
  -2   3   1-18.3367 35.9405   3
  -2   3   1-30.0095 34.9489  11
   2  -3  -1-2.23950 19.0512   4
  -2   3   1 0.45215 34.1955   1
   2  -3   0 4380.81 120.259   8
  -2   3   0 4227.12 106.571   2
  -2   3   0 4039.69 115.706   8
   2  -3   0 3947.96 108.889   2
  -2   3   0 4270.44 68.2430   7
   2  -3   0 4238.49 87.2549   4
   2  -3   0 4249.75 119.536  11
   2  -3   0 4213.57 118.539   3
   2  -3   0 4141.37 120.087   6
  -2   3   0 4250.51 116.321   3
   2  -3   0 4182.75 120.487   6
   2  -3   1 14.3644 27.4714   4
   2  -3   1 2.95218 39.2729  11
  -2   3  -1 22.5383 34.4651   8
  -2   3  -1-1.80388 21.8430   7
   2  -3   1 6.81117 38.0074   8
  -2   3  -1-14.2672 37.9301   2
   2  -3   1-5.47357 31.9006   2
   2  -3   1 2.74885 11.7006   5
   2  -3   1 4.94193 36.7044   3
  -2   3  -1-15.3697 34.1587   3
  -2   3  -1 8.69540 39.5928   6
   2  -3   1 39.5770 37.7692   6
   2  -3   2 324.951 40.8990   4
   2  -3   2 300.195 46.7649   8
  -2   3  -2 278.544 33.1847   7
   2  -3   2 256.492 46.2728   3
  -2   3  -2 294.869 45.7056   1
   2  -3   2 331.596 45.5345   2
  -2   3  -2 251.679 42.0367   8
   2  -3   2 250.932 46.7907   6
   2  -3   3 2773.61 97.2860   4
  -2   3  -3 2916.46 103.189   8
  -2   3  -3 2865.66 88.0240   7
   2  -3   3 2702.21 115.721   6
  -2   3  -3 2922.35 114.444   1
   2  -3   4 1579.10 82.0866   4
   2  -3   4 1425.03 84.2306   2
   2  -3   4 1391.42 91.1522   6
  -2   3  -4 1368.76 77.4698   8
  -2   3  -4 1504.74 88.5446   1
   2  -3   5 116.525 44.4299   4
  -2   3  -5 243.023 56.8538   1
  -2   3  -5 114.266 42.7406   8
   2  -3   5 67.2546 39.7676   2
   2  -3   5 145.702 54.1019   6
  -2   3  -6 105.944 45.1148   8
   2  -3   6 56.4523 48.3760   4
  -2   3  -6 29.1654 43.9150   1
   2  -3   6 40.3605 48.4210   6
   2  -3   7 3287.18 140.193   4
  -2   3  -7 3319.78 150.473   1
   2  -3   8 1520.75 111.033   4
   2  -3   8 1668.73 123.446   6
  -2   3  -8 1713.22 118.924   1
   2  -3   9 74.2747 59.3056   4
  -2   3  -9-2.22884 60.2577   1
   2  -3   9 54.3424 69.3933   6
   2  -3  10 136.190 70.7843   4
  -2   3 -10 63.9652 71.9927   1
   2  -3  10-40.9079 76.1371   6
   2  -3  11 153.609 84.0256   4
   2  -3  11 15.6926 77.0800   6
  -2   3 -11 31.5393 76.0813   1
   2  -2 -13-48.4218 67.5294   1
  -2   2  13 82.3529 78.1412   3
  -2   2  13-46.9319 71.8224  11
  -2   2  13-47.7162 65.6042   6
  -2   2  12 152.780 73.4868   3
   2  -2 -12 114.407 65.0957   1
  -2   2  12 173.866 74.0681   6
  -2   2  11 6970.48 227.905   3
   2  -2 -11 7494.60 221.718   1
  -2   2  11 7279.60 226.630   6
  -2   2  11 7225.29 174.711   4
  -2   2  10 994.898 95.1593   3
   2  -2 -10 974.091 84.0779   1
  -2   2  10 1100.75 91.4080   6
  -2   2  10 1079.77 69.3111   4
  -2   2   9 6772.10 141.921   4
  -2   2   9 6652.99 201.076   3
  -2   2   9 6653.28 193.215  11
   2  -2  -9 7307.99 193.481   1
  -2   2   9 6701.65 191.552   6
  -2   2   8 6628.29 176.473  11
  -2   2   8 6703.60 125.878   4
  -2   2   8 6813.50 190.742   3
   2  -2  -8 6894.23 177.947   1
  -2   2   8 6943.40 176.778   6
  -2   2   7 306.492 32.2865   4
  -2   2   7 431.207 58.7930   3
   2  -2  -7 306.416 39.7650   7
  -2   2   7 264.249 47.3246  11
   2  -2  -7 330.487 51.0617   1
  -2   2   7 318.337 49.7336   6
  -2   2   6 22756.2 308.193   3
  -2   2   6 22862.6 168.939   4
  -2   2   6 24262.7 290.247   1
   2  -2  -6 22914.1 278.697   1
  -2   2   6 22348.6 269.928   6
   2  -2  -6 23750.7 292.970   6
   2  -2  -6 23890.4 217.957   7
  -2   2   6 22571.6 276.376  11
  -2   2   5 20672.1 244.749  11
   2  -2  -5 19972.7 173.609   7
   2  -2  -5 20408.9 308.019   9
  -2   2   5 17262.1 116.960   4
  -2   2   5 21054.7 251.335   1
  -2   2   5 20033.0 272.577   3
   2  -2  -5 19433.4 226.969   5
   2  -2  -5 19904.6 245.797   1
   2  -2  -5 19885.5 250.901   6
  -2   2   5 20426.2 246.092   6
  -2   2   5 16860.1 99.6852   2
   2  -2  -4 6261.19 129.874   1
  -2   2   4 6409.07 128.846  11
   2  -2  -4 6553.02 82.5815   7
   2  -2  -4 6333.78 153.773   3
  -2   2   4 6353.70 76.3058   2
   2  -2  -4 6793.50 173.900   9
  -2   2   4 6772.10 131.441   1
   2  -2  -4 6333.68 116.390   5
   2  -2  -4 6294.43 132.866   6
  -2   2   4 6144.94 130.102   6
  -2   2   4 6290.25 147.685   3
   2  -2  -3 804.925 51.2512   1
   2  -2  -3 802.017 39.0450   5
  -2   2   3 767.113 38.6765   2
   2  -2  -3 664.447 36.0954   2
  -2   2   3 753.633 50.4516  11
   2  -2  -3 676.398 68.6391   9
   2  -2  -3 746.751 52.5728  11
   2  -2  -3 633.882 20.7006   7
   2  -2  -3 729.089 62.3470   3
  -2   2   3 855.876 51.0744   1
   2  -2  -3 652.202 48.8201   6
  -2   2   3 703.315 51.7105   6
  -2   2   3 795.243 63.3138   3
   2  -2  -2 1415.02 60.6008   6
  -2   2   2 1517.99 54.3848   2
   2  -2  -2 1309.01 51.4222   2
  -2   2   2 1377.49 61.4363  11
   2  -2  -2 1047.19 27.5454   4
   2  -2  -2 1503.58 60.8259  11
  -2   2   2 1419.75 81.4648   9
   2  -2  -2 1163.11 69.0118   3
  -2   2   2 1323.80 72.7625   8
  -2   2   2 1461.24 69.9784   3
   2  -2  -2 1432.85 85.2113   9
  -2   2   2 1559.05 65.9192   6
  -2   2   2 1481.45 62.4838   1
  -2   2   1 2826.05 85.8489  11
   2  -2  -1 2846.02 82.9843  11
   2  -2  -1 2667.53 54.4664   4
  -2   2   1 2651.51 93.7581   8
   2  -2  -1 2955.70 89.3250   6
  -2   2   1 2798.59 89.3185   3
   2  -2  -1 2884.11 92.6365   3
   2  -2  -1 2658.58 75.1964   2
   2  -2  -1 2626.54 35.7957   5
   2  -2  -1 2915.56 86.0984   6
  -2   2   1 2734.58 102.083   9
  -2   2   1 2699.24 73.9409   2
  -2   2   1 2668.51 81.7502   1
   2  -2   0-8.14989 32.3326   6
  -2   2   0-10.1121 34.4347   8
   2  -2   0 50.7175 23.6747   4
   2  -2   0 51.8557 33.2822   6
   2  -2   0 39.6424 32.0988  11
   2  -2   0 57.2045 37.6081   8
  -2   2   0 34.5840 14.0343   7
  -2   2   0 27.9841 30.8314   2
   2  -2   0 19.4003 32.9897   3
   2  -2   0 38.9086 29.8702   2
  -2   2   0 6.98170 30.6380   3
   2  -2   1 850.037 46.8925   4
   2  -2   1 861.482 59.9769   8
  -2   2  -1 788.517 53.1016   2
   2  -2   1 833.260 57.9166   2
  -2   2  -1 966.766 38.0968   7
  -2   2  -1 832.400 58.8804   6
   2  -2   1 845.508 57.0255   3
  -2   2  -1 972.946 63.1456   8
  -2   2  -1 880.162 53.8593   3
   2  -2   1 991.224 61.2073   6
  -2   2  -2 932.441 45.6627   7
  -2   2  -2 839.646 58.9737   2
   2  -2   2 950.064 54.3853   4
   2  -2   2 863.481 61.0003   8
   2  -2   2 840.758 59.5709   2
  -2   2  -2 815.630 62.3760   6
   2  -2   2 926.434 58.4100   3
   2  -2   2 842.625 60.6131   6
  -2   2  -2 909.097 60.8270   1
  -2   2  -2 837.736 58.5426   8
  -2   2  -3 38521.9 290.262   7
   2  -2   3 36892.8 322.250   4
  -2   2  -3 36758.2 322.253   2
  -2   2  -3 37208.6 332.535   8
   2  -2   3 37998.6 364.166   8
   2  -2   3 37504.6 327.301   3
   2  -2   3 37195.0 367.016   6
   2  -2   3 37137.6 340.346   2
  -2   2  -3 36424.9 369.025   6
  -2   2  -3 37365.4 355.822   1
   2  -2   4 3093.32 107.466   4
   2  -2   4 3122.61 120.379   6
  -2   2  -4 3085.88 94.6396   7
  -2   2  -4 2947.89 105.119   8
   2  -2   4 3105.58 106.633   3
  -2   2  -4 3040.07 113.798   1
   2  -2   5 36.2180 37.2702   4
  -2   2  -5 37.0451 38.2094   1
  -2   2  -5 20.1975 34.1634   8
   2  -2   5 109.092 44.3083   6
  -2   2  -6 570.760 62.8111   1
  -2   2  -6 611.212 64.1534   8
   2  -2   6 663.958 71.9011   6
   2  -2   6 450.876 60.2237   4
  -2   2  -7 707.841 78.6809   1
   2  -2   7 559.943 67.8775   4
   2  -2   7 758.122 84.1225   6
   2  -2   8 149.148 59.8164   4
  -2   2  -8 127.809 57.6385   1
   2  -2   8 158.794 59.0382   6
  -2   2  -9 707.978 88.7628   1
   2  -2   9 799.925 90.8464   4
   2  -2   9 840.537 97.2161   6
   2  -2  10 209.506 68.8444   4
   2  -2  10 228.041 81.6185   6
  -2   2 -10 135.785 69.0097   1
   2  -2  11 82.3800 76.2792   4
   2  -2  11 115.828 74.4069   6
  -2   2 -11-12.3112 74.2794   1
   2  -2  12 3376.02 189.964   4
  -2   1  13 139.055 81.0623   3
   2  -1 -13 112.054 79.8032   1
  -2   1  13 169.502 69.9897   6
  -2   1  12 30.3710 51.4884   4
   2  -1 -12 109.950 66.8759   1
  -2   1  12 208.211 79.8310   3
  -2   1  12-21.2090 59.4760   6
  -2   1  11 399.896 81.0419   3
  -2   1  11 472.309 73.3107   6
   2  -1 -11 313.078 64.7444   1
  -2   1  11 404.499 58.5247   4
  -2   1  10 3639.55 121.785   4
  -2   1  10 3612.99 146.110   6
  -2   1  10 3868.80 167.319   3
   2  -1 -10 3935.99 152.888   1
   2  -1  -9 6966.13 186.741   1
  -2   1   9 7401.98 155.967   4
  -2   1   9 7078.47 208.048   3
  -2   1   9 6931.30 186.802   6
  -2   1   8 3518.25 99.0083   4
  -2   1   8 3491.20 141.559   3
   2  -1  -8 3579.40 124.687   1
  -2   1   8 3537.27 128.489   6
  -2   1   7 743.632 45.5032   4
   2  -1  -7 756.256 55.7121   7
  -2   1   7 836.403 76.4120   3
   2  -1  -7 712.682 61.5372   1
  -2   1   7 679.106 60.1714   6
  -2   1   6 64577.0 316.910   4
  -2   1   6 64090.7 439.919   1
   2  -1  -6 65889.7 448.447   1
   2  -1  -6 64587.4 456.742   6
  -2   1   6 64289.2 446.091   6
   2  -1  -6 64847.7 385.334   7
  -2   1   6 63592.1 513.511   3
   2  -1  -5 232.342 41.6977   5
  -2   1   5 237.476 23.6015   4
  -2   1   5 181.386 34.4887   1
  -2   1   5 223.899 37.2497  11
   2  -1  -5 219.180 30.3190   7
  -2   1   5 240.309 46.8348   3
   2  -1  -5 173.512 33.4550   1
   2  -1  -5 212.972 37.1658   6
  -2   1   5 198.037 33.7354   6
   2  -1  -4 2424.44 77.7187   5
  -2   1   4 2574.65 78.3047  11
  -2   1   4 2540.46 43.9817   4
   2  -1  -4 2499.69 62.7942   7
  -2   1   4 2505.79 80.0057   1
   2  -1  -4 2336.81 105.745   9
   2  -1  -4 2394.13 77.7239   1
   2  -1  -4 2532.42 78.9834   6
  -2   1   4 2240.75 32.8118   2
  -2   1   4 2448.51 74.2155   6
  -2   1   4 2232.60 90.4469   3
   2  -1  -3 2907.53 71.9034   5
   2  -1  -3 2812.21 53.8336   7
  -2   1   3 2797.30 49.8490   2
  -2   1   3 2733.24 72.3401  11
   2  -1  -3 2620.81 90.8958   3
  -2   1   3 2357.96 86.2301   3
  -2   1   3 2803.16 49.2760   7
   2  -1  -3 2637.35 73.7687   6
  -2   1   3 2693.29 71.2850   1
  -2   1   3 2665.59 73.1782   6
   2  -1  -3 2731.03 72.6170   1
  -2   1   2 58.8630 25.0610   6
  -2   1   2 11.1732 21.9614  11
  -2   1   2 55.6584 40.4757   9
   2  -1  -2 19.7528 40.1915   9
   2  -1  -2 20.4046 20.3773   1
  -2   1   2 50.5015 22.2476   1
  -2   1   2 44.6665 9.87709   7
   2  -1  -2 54.4805 33.9741   3
  -2   1   2 99.6591 35.5968   3
  -2   1   2 56.3186 20.5842   2
  -2   1   2 30.0530 10.7053   4
   2  -1  -2 30.5428 21.5291  11
   2  -1  -2 67.1699 25.6409   6
   2  -1  -1 619.292 35.6768  11
  -2   1   1 587.438 35.3339   1
  -2   1   1 657.934 40.1214  11
  -2   1   1 656.607 26.3500   4
  -2   1   1 651.738 37.8960   2
  -2   1   1 688.957 50.6527   8
   2  -1  -1 609.381 46.5590   3
  -2   1   1 580.718 43.6594   3
   2  -1  -1 631.689 37.0748   6
   2  -1  -1 552.401 29.8046   4
  -2   1   1 582.118 54.3359   9
   2  -1   0 1392.73 64.2612   8
  -2   1   0 1150.04 59.3737   8
  -2   1   0 1291.61 52.2484   2
  -2   1   0 1280.55 42.1068   4
   2  -1   0 1297.41 56.9541   3
  -2   1   0 1338.32 58.2288   3
   2  -1   0 1226.91 52.8372   6
   2  -1   0 1270.74 52.3786  11
   2  -1   0 1232.57 45.6822   4
  -2   1  -1 49156.7 274.514   4
   2  -1   1 48616.0 289.993   4
  -2   1  -1 49045.8 339.351   8
  -2   1  -1 49429.7 309.386   2
   2  -1   1 49305.1 307.540   3
   2  -1   1 48285.4 341.838   8
  -2   1  -1 48379.2 317.444   6
   2  -1   1 48351.8 317.373   6
  -2   1  -1 47922.5 295.728   3
  -2   1  -1 47556.8 304.032   1
  -2   1  -2 21968.0 208.323   4
  -2   1  -2 21357.4 137.452   5
  -2   1  -2 21274.4 230.450   8
  -2   1  -2 22413.6 224.795   2
  -2   1  -2 21701.9 225.979   1
  -2   1  -2 21621.0 236.313   6
   2  -1   2 21169.8 215.713   4
   2  -1   2 21460.6 235.137   6
   2  -1   2 21068.6 238.808   8
   2  -1   2 21508.9 205.615   3
  -2   1  -2 20980.9 206.639   3
  -2   1  -3 81544.2 436.252   4
   2  -1   3 83504.0 498.284   8
  -2   1  -3 80966.4 466.534   8
  -2   1  -3 82187.5 341.521   5
   2  -1   3 82244.0 500.987   6
   2  -1   3 80126.4 463.010   4
   2  -1   3 81685.2 479.506   1
  -2   1  -3 81988.0 507.501   6
   2  -1   3 81238.5 426.387   3
  -2   1  -3 82387.8 461.201   2
  -2   1  -3 82081.4 479.478   1
   2  -1   4 2536.55 94.6008   4
  -2   1  -4 2534.21 75.2102   5
   2  -1   4 2711.65 106.605   8
  -2   1  -4 2645.12 92.9125   2
  -2   1  -4 2513.95 91.9096   4
  -2   1  -4 2490.80 82.2063   7
  -2   1  -4 2684.66 106.978   6
   2  -1   4 2671.29 86.8937   3
   2  -1   4 2506.24 100.262   6
  -2   1  -4 2413.00 91.8955   8
   2  -1   4 2398.35 96.6284   1
  -2   1  -4 2570.20 97.3316   1
  -2   1  -5 772.132 63.6671   1
  -2   1  -5 693.845 51.8632   5
  -2   1  -5 809.361 61.5107   8
   2  -1   5 718.557 55.1147   3
   2  -1   5 723.689 62.0907   4
   2  -1   5 764.016 68.5594   6
   2  -1   6 11.7937 41.1278   4
  -2   1  -6-9.64018 39.1808   1
  -2   1  -6 83.1544 39.1638   8
   2  -1   6 58.4490 42.8191   6
   2  -1   7 4544.23 161.651   6
   2  -1   7 4550.55 152.055   4
  -2   1  -7 4457.90 156.872   1
   2  -1   8 52.0577 53.2425   4
  -2   1  -8 88.7913 50.8062   1
   2  -1   8 103.218 53.4310   6
   2  -1   9 123.914 55.4784   4
   2  -1   9 151.510 63.9164   6
  -2   1  -9 285.033 65.9032   1
  -2   1 -10 418.208 78.4963   1
   2  -1  10 416.494 83.2787   4
   2  -1  10 406.541 84.2559   6
   2  -1  11 1276.00 119.296   4
  -2   1 -11 1371.71 122.196   1
   2  -1  11 1301.34 123.466   6
   2  -1  12 81.6516 72.9577   4
  -2   1 -12-38.3512 79.8820   1
   2  -1  12 37.9237 73.4654   6
  -2   0  13 3792.03 197.304   3
   2   0 -13 4321.69 195.625   1
  -2   0  13 3921.68 187.350   6
  -2   0  12 97.4947 56.1384   4
   2   0 -12 153.812 62.8621   1
  -2   0  12 58.1102 75.9060   3
  -2   0  12-11.4155 61.4474   6
   2   0 -11-11.8867 54.1187   1
  -2   0  11 32.9646 65.8687   3
  -2   0  11-70.8092 50.0208   4
  -2   0  11-10.5900 51.5268   6
  -2   0  10 89.0693 44.5298   4
   2   0 -10 120.221 53.5292   1
  -2   0  10 107.540 62.2489   3
  -2   0  10 98.2387 52.8926   6
  -2   0   9 17852.1 249.895   4
  -2   0   9 18690.6 342.106   3
   2   0  -9 18578.1 302.987   1
  -2   0   9 17559.3 293.634   6
   2   0  -8 752.153 65.3757   1
  -2   0   8 778.456 80.5129   3
  -2   0   8 810.668 56.9594   4
  -2   0   8 693.038 66.6937   6
  -2   0   7 55.9725 27.4106   4
  -2   0   7 32.1199 46.8649   3
   2   0  -7-9.08862 32.8512   1
  -2   0   7 22.6876 37.5235   6
  -2   0   6 32.9548 25.4587   4
   2   0  -6-0.17240 28.7644   1
   2   0  -6-3.19148 30.9984   7
  -2   0   6-32.5412 47.7892   3
  -2   0   6 73.8425 33.4665   1
   2   0  -6 31.0310 33.5817   6
  -2   0   6 20.8368 30.2350   6
   2   0  -5 761.395 48.4592   7
  -2   0   5 690.580 64.9775   3
   2   0  -5 592.992 45.8887   1
  -2   0   5 735.090 45.2998   7
  -2   0   5 618.110 47.1666   6
  -2   0   5 618.243 48.7074   1
   2   0  -5 712.029 49.6344   6
  -2   0   4 1735.63 57.4242   7
   2   0  -4 1758.21 60.7309   7
  -2   0   4 1707.67 61.6252   1
   2   0  -4 1618.36 58.1260   1
  -2   0   4 1536.92 77.8225   3
   2   0  -4 1668.28 64.8223   6
  -2   0   4 1655.36 61.7051   6
  -2   0   3 62.4059 22.5204  11
  -2   0   3 35.8930 21.4155   1
  -2   0   3 45.4453 16.7917   2
  -2   0   3 31.3968 24.9029   5
   2   0  -3 48.8286 22.4698   7
  -2   0   3 1.35872 33.7370   3
   2   0  -3 70.4169 40.4703   9
   2   0  -3 42.2236 20.1029   1
   2   0  -3 45.9660 22.9134   6
  -2   0   3 44.7924 19.8187   6
  -2   0   3 36.7135 17.8500   7
  -2   0   2 41557.2 234.253   5
   2   0  -2 41842.5 337.429   9
  -2   0   2 42838.9 202.471   7
  -2   0   2 41617.1 306.484   3
  -2   0   2 41982.8 196.853   1
   2   0  -2 42288.4 216.723   7
   2   0  -2 41477.9 197.091   6
  -2   0   2 41219.4 322.144   9
  -2   0   2 42525.4 197.499  11
  -2   0   2 39772.7 178.108  10
  -2   0   2 42085.2 199.313   6
   2   0  -2 40855.2 201.192   1
   2   0  -2 43855.3 319.456   3
   2   0  -1 90927.5 262.459  10
  -2   0   1 94533.6 266.389   1
  -2   0   1 93992.4 434.686   8
   2   0  -1 93571.4 261.657  11
  -2   0   1 94251.5 275.674  11
  -2   0   1 90326.9 286.785   7
   2   0  -1 91003.7 411.567   3
  -2   0   1 92176.8 405.278   3
  -2   0   1 95881.5 467.808   9
   2   0  -1 92144.1 266.178   6
  -2   0   1 92742.5 276.123   6
  -2   0   1 92416.9 334.659   4
  -2   0   0 999999. 1386.69   8
   2   0   1 1154.59 46.5602   6
   2   0   1 1122.66 44.5196   3
  -2   0  -1 1034.62 41.6439   3
  -2   0  -1 978.752 45.1918   6
  -2   0  -1 1065.99 47.1779   4
  -2   0  -1 1037.84 53.2742   8
   2   0   1 830.310 51.7283   8
   2   0   1 1125.93 51.3726   4
  -2   0  -1 1002.64 42.4398   1
  -2   0  -2 4618.92 102.084   8
   2   0   2 4476.03 101.116   4
  -2   0  -2 4385.12 95.7183   4
   2   0   2 4562.92 106.378   8
   2   0   2 4477.21 80.5899   3
  -2   0  -2 4514.46 99.2024   6
   2   0   2 4225.34 95.6169   6
  -2   0  -2 4409.50 79.8454   3
   2   0   2 4348.36 93.8250   1
  -2   0  -2 4283.42 90.2250   1
  -2   0  -3 6515.82 125.334   1
   2   0   3 6632.62 134.448   4
  -2   0  -3 6672.46 127.243   4
   2   0   3 7245.92 142.966   8
  -2   0  -3 6596.25 128.088   8
  -2   0  -3 6879.36 127.246   2
  -2   0  -3 6824.12 136.460   6
   2   0   3 6543.84 130.518   6
   2   0   3 6858.13 106.784   3
   2   0   3 6449.38 127.515   1
  -2   0  -4 7912.79 150.755   8
  -2   0  -4 7845.02 143.511   2
  -2   0  -4 7232.55 149.566   1
  -2   0  -4 7699.19 160.192   6
   2   0   4 8042.37 127.802   3
   2   0   4 7801.87 160.292   6
   2   0   4 7809.26 158.415   8
   2   0   4 7494.06 151.009   1
  -2   0  -4 7723.11 148.110   4
   2   0   4 7672.45 153.623   4
  -2   0  -5 12313.3 202.108   8
  -2   0  -5 12221.7 185.672   2
  -2   0  -5 12336.4 211.386   1
   2   0   5 11761.8 212.242   6
   2   0   5 11636.4 203.875   4
   2   0   6 2186.37 98.7620   4
  -2   0  -6 2162.82 97.7292   1
   2   0   6 2127.86 102.534   6
  -2   0  -7 926.293 72.6562   1
   2   0   7 905.580 75.5010   4
   2   0   7 883.833 77.6088   6
   2   0   8 27814.7 376.570   4
  -2   0  -8 28271.8 385.504   1
   2   0   8 27950.7 396.689   6
   2   0   9 12298.8 269.863   4
  -2   0  -9 12820.3 281.044   1
   2   0  10 1001.66 97.3010   4
   2   0  10 748.986 94.7914   6
  -2   0 -10 776.901 92.0126   1
   2   0  11 1231.62 113.526   4
   2   0  11 1421.00 119.804   6
  -2   0 -11 1477.28 121.684   1
   2   0  12 83.5061 79.9686   4
  -2   0 -12 158.387 78.2318   1
   2   0  12-36.0090 72.1443   6
   2   0  13 146.671 83.5213   4
   2   1 -13 327.467 88.2512   1
  -2  -1  13 180.313 72.9353   4
  -2  -1  13 274.118 104.143   3
  -2  -1  13 207.553 81.7909   6
  -2  -1  12 850.631 88.8635   4
  -2  -1  12 1177.71 125.531   3
   2   1 -12 1115.36 110.514   1
  -2  -1  12 850.762 101.361   6
  -2  -1  11 516.071 68.3229   4
  -2  -1  11 554.032 79.8670   6
   2   1 -11 579.197 82.1585   1
  -2  -1  10 20051.2 301.063   4
   2   1 -10 20108.6 340.022   1
  -2  -1  10 19430.1 334.898   6
  -2  -1   9 12961.2 226.320   4
   2   1  -9 12938.7 255.854   1
  -2  -1   9 12502.0 249.958   6
  -2  -1   8 4586.78 145.589   6
   2   1  -8 4617.80 146.396   1
  -2  -1   8 4328.53 124.596   4
   2   1  -7 42.0424 35.9327   1
  -2  -1   7 12.1025 30.5648   4
  -2  -1   7-16.1221 31.4295   7
   2   1  -7 50.4192 14.8733   2
  -2  -1   7 76.8090 37.8677   6
  -2  -1   6 8252.14 83.8550   2
  -2  -1   6 9067.15 163.031   7
   2   1  -6 8938.54 175.031   6
  -2  -1   6 8782.32 166.083   6
   2   1  -6 8872.92 167.247   1
   2   1  -6 8491.16 91.0401   2
  -2  -1   6 8644.75 162.148   1
  -2  -1   5 202.470 35.3522   1
  -2  -1   5 231.356 19.0658   2
   2   1  -5 197.380 36.1085   7
   2   1  -5 260.396 40.7713   6
  -2  -1   5 213.409 38.6589   5
   2   1  -5 213.219 20.9699   2
  -2  -1   5 160.765 32.3055   6
   2   1  -5 239.036 32.4995   1
  -2  -1   5 205.410 35.5380   7
  -2  -1   4 12715.7 152.709   1
  -2  -1   4 12653.5 95.9014   2
  -2  -1   4 12590.4 183.223   5
   2   1  -4 13012.7 163.583   6
   2   1  -4 12951.7 171.978   7
  -2  -1   4 12816.2 161.916   7
   2   1  -4 12891.5 154.689   1
  -2  -1   4 12534.6 155.640   6
   2   1  -4 12415.6 115.463   2
  -2  -1   3 1462.75 45.5813   1
   2   1  -3 1437.62 57.7836   7
   2   1  -3 1403.46 46.1843   1
  -2  -1   3 1492.26 54.9398   7
   2   1  -3 1426.41 46.9613   6
  -2  -1   3 1500.57 48.4764   6
  -2  -1   3 1452.45 38.5280   2
  -2  -1   2 35964.2 153.490   1
   2   1  -2 35196.7 290.820   9
   2   1  -2 35318.1 239.397   7
   2   1  -2 35080.3 156.636   1
  -2  -1   2 35006.8 225.651   7
   2   1  -2 36230.7 160.746   6
  -2  -1   2 35587.0 156.610   6
  -2  -1   2 35189.5 203.089   2
   2   1   0 3306.32 68.1174   3
  -2  -1   0 3208.20 78.3078   4
   2   1   0 3019.26 80.2438   4
  -2  -1   0 2952.30 63.7125   3
  -2  -1   0 2957.32 72.0017   8
   2   1   0 3127.38 74.5698   8
  -2  -1  -1 93022.2 417.104   4
  -2  -1  -1 93576.1 390.375   8
   2   1   1 91184.0 392.113   8
  -2  -1  -1 92795.0 293.122   1
   2   1   1 94270.8 294.933   3
   2   1   1 96838.4 446.658   4
  -2  -1  -1 95645.3 287.910   3
  -2  -1  -1 94855.6 315.061   6
   2   1   1 91220.4 303.709   6
   2   1   1 96417.4 298.940   1
  -2  -1  -2 67.4860 29.9098   4
   2   1   2 118.594 36.0637   4
   2   1   2 45.4141 27.4469   8
  -2  -1  -2 76.8061 26.8529   8
   2   1   2 72.5949 24.1324   1
   2   1   2 75.4622 16.9821   3
  -2  -1  -2 53.3051 15.7696   3
  -2  -1  -2 69.2125 23.4912   1
  -2  -1  -2 58.7702 25.4919   6
   2   1   2 103.134 27.6310   6
   2   1   3 5550.20 109.781   1
  -2  -1  -3 5348.99 105.806   1
  -2  -1  -3 5415.18 116.416   4
   2   1   3 5573.36 117.231   8
  -2  -1  -3 5243.93 108.455   8
   2   1   3 5523.93 73.7532   3
  -2  -1  -3 5518.08 116.592   6
   2   1   3 5684.48 114.179   6
  -2  -1  -4 121.644 35.4726   8
  -2  -1  -4 126.093 38.9651   4
   2   1   4 119.151 37.4433   8
   2   1   4 81.9334 39.3082   4
   2   1   4 75.0305 34.9317   1
  -2  -1  -4 88.8176 40.7727   6
   2   1   4 86.3076 34.1338   6
  -2  -1  -4 49.0785 30.2352   1
   2   1   5 264.905 46.7199   4
   2   1   5 242.677 42.2990   8
  -2  -1  -5 213.631 40.0044   8
  -2  -1  -5 279.710 44.2455   4
   2   1   5 262.767 41.6631   1
  -2  -1  -5 256.780 50.0481   6
   2   1   5 362.877 48.7918   6
  -2  -1  -5 288.992 43.2830   1
   2   1   6 1135.91 76.8773   4
  -2  -1  -6 1240.72 73.6006   1
   2   1   6 1279.40 78.9993   6
   2   1   7 10307.5 217.890   4
   2   1   7 10447.7 222.628   6
  -2  -1  -7 10617.3 215.944   1
   2   1   8 38220.2 439.484   4
  -2  -1  -8 38733.0 441.866   1
   2   1   8 38178.4 452.647   6
  -2  -1  -9 220.931 57.4291   1
   2   1   9 248.586 58.3377   4
  -2  -1 -10 9.14043 58.8901   1
   2   1  10 63.7178 60.8494   4
   2   1  10 72.6581 61.1693   6
   2   1  11 901.731 99.0457   4
   2   1  11 1031.28 108.303   6
  -2  -1 -11 803.437 102.849   1
   2   1  12 5117.75 211.625   4
  -2  -1 -12 4427.71 203.928   1
   2   1  12 4760.93 216.805   6
  -2  -1 -13 378.889 97.5667   1
   2   1  13 276.358 89.9227   4
   2   1  13 362.452 90.5931   6
  -2  -2  12 148.948 62.1938   4
   2   2 -12 159.681 76.5979   1
  -2  -2  12 175.249 71.3670   6
  -2  -2  11 9.37939 50.5838   4
   2   2 -11-8.57500 56.1799   1
  -2  -2  11 95.3961 61.8264   6
  -2  -2  10 2486.83 119.965   4
   2   2 -10 2504.43 134.035   1
  -2  -2  10 2629.50 135.761   6
  -2  -2   9 515.120 63.0797   4
   2   2  -9 585.846 68.4601   1
  -2  -2   9 507.787 68.2961   6
   2   2  -8 5158.29 157.186   1
  -2  -2   8 5039.87 142.678   4
  -2  -2   8 4875.02 147.504   7
  -2  -2   8 4693.15 152.701   6
   2   2  -8 4825.97 97.2874   2
  -2  -2   7 745.923 41.3860   2
   2   2  -7 609.276 56.7963   1
  -2  -2   7 636.883 58.9171   7
  -2  -2   7 648.145 63.4299   6
   2   2  -7 624.587 40.1527   2
   2   2  -6 218.031 39.9419   1
  -2  -2   6 167.920 41.6341   5
  -2  -2   6 234.474 41.0183   7
  -2  -2   6 176.620 25.0691   2
   2   2  -6 140.815 41.0259   6
  -2  -2   6 204.032 41.1993   1
  -2  -2   6 207.144 39.4902   6
   2   2  -6 200.055 27.3782   2
  -2  -2   5 3696.64 115.255   5
  -2  -2   5 3526.75 70.6183   2
  -2  -2   5 3445.45 102.004   7
   2   2  -5 3479.72 97.0882   1
   2   2  -5 3409.53 102.835   6
  -2  -2   5 3313.23 97.6095   6
  -2  -2   5 3649.49 99.5294   1
   2   2  -5 3165.21 71.9906   2
  -2  -2   4 44092.3 358.776   5
  -2  -2   4 43769.8 227.036   2
   2   2  -4 43497.0 295.321   1
   2   2  -4 43258.7 344.316   7
  -2  -2   4 44216.5 329.505   7
   2   2  -4 43641.3 311.503   6
  -2  -2   4 43392.9 300.483   6
  -2  -2   4 43728.2 297.699   1
   2   2  -4 45050.3 260.956   2
  -2  -2   3 222.394 24.6525   2
   2   2  -3 227.616 27.6432   1
   2   2  -3 232.161 39.0912   7
  -2  -2   3 256.489 36.7942   7
  -2  -2   3 265.593 29.2182   6
  -2  -2   3 228.167 27.6276   1
   2   2  -3 194.251 28.2198   6
   2   2  -3 254.361 31.0077   2
   2   2  -2 7274.45 82.8729   1
  -2  -2   2 7085.69 117.869   7
   2   2  -2 7140.94 122.525   9
   2   2  -2 7333.93 127.665   7
   2   2  -2 7764.88 91.8124   6
  -2  -2   2 7440.98 87.3328   6
   2   2  -2 7143.57 110.008   2
  -2  -2   2 7196.73 98.9260   2
  -2  -2   1 20130.0 178.406   9
  -2  -2   1 20659.1 108.207  11
   2   2  -1 20580.2 198.055   7
  -2  -2   1 19536.4 192.364   7
  -2  -2   1 20664.0 107.701   6
  -2  -2   1 20053.0 108.771   6
   2   2  -1 20590.4 104.852   1
   2   2  -1 20244.4 191.106   2
  -2  -2   1 21382.7 187.846   2
  -2  -2   1 21532.0 214.155  10
   2   2   0 6341.01 119.440  10
  -2  -2   0 6139.87 60.0428   1
  -2  -2   0 6268.52 90.4323   8
   2   2   0 6128.60 57.2167   1
   2   2   0 6093.55 58.2789  11
  -2  -2   0 6268.37 58.8481   6
   2   2   0 6052.85 60.2422   6
   2   2   0 6376.94 109.768   2
  -2  -2   0 6095.45 109.424   2
   2   2   1 1872.19 74.7948   4
  -2  -2  -1 1763.73 38.7855   3
  -2  -2  -1 1807.71 74.6301   4
   2   2   1 1884.25 44.0085   1
  -2  -2  -1 1802.96 51.1145   8
  -2  -2  -1 1788.31 43.8056   1
  -2  -2  -1 1841.60 45.5437   6
   2   2   1 1880.89 45.9012   6
  -2  -2  -1 1903.26 67.5852   2
   2   2   1 1776.19 53.7809   8
   2   2   2 8011.23 108.279   1
   2   2   2 7553.79 148.452   4
   2   2   2 8075.06 116.009   8
  -2  -2  -2 7960.63 108.015   8
  -2  -2  -2 7612.96 141.192   4
  -2  -2  -2 8242.03 112.525   1
  -2  -2  -2 8281.61 114.501   6
   2   2   2 7997.89 114.096   6
  -2  -2  -2 7617.00 136.017   2
   2   2   3 1597.63 61.3703   1
   2   2   3 1444.46 74.3727   4
   2   2   3 1541.89 61.3394   8
  -2  -2  -3 1506.30 61.0027   1
  -2  -2  -3 1475.90 62.3662   6
   2   2   3 1633.30 64.0367   6
  -2  -2  -3 1477.12 71.8470   4
  -2  -2  -3 1456.25 56.8910   8
  -2  -2  -4 447.007 49.2811   4
   2   2   4 436.555 52.9078   4
   2   2   4 541.512 46.9405   8
  -2  -2  -4 420.606 40.3080   8
   2   2   4 519.923 48.1783   1
  -2  -2  -4 503.206 48.9148   6
   2   2   4 448.278 45.7453   6
  -2  -2  -4 459.588 46.2374   1
   2   2   5 45705.0 381.503   1
  -2  -2  -5 45427.1 375.649   4
  -2  -2  -5 47344.1 385.711   1
   2   2   5 46513.6 365.915   8
   2   2   5 46626.6 410.360   4
   2   2   5 46429.3 392.742   6
  -2  -2  -5 45195.6 390.273   6
   2   2   6 12962.7 233.028   4
  -2  -2  -6 12591.1 218.414   1
   2   2   6 12671.5 225.370   6
  -2  -2  -7 209.388 48.6067   1
   2   2   7 205.851 52.2029   4
   2   2   7 187.093 49.1033   6
   2   2   8 21207.2 330.969   4
  -2  -2  -8 21283.1 329.805   1
   2   2   8 20978.0 337.221   6
  -2  -2  -9 3570.14 148.907   1
   2   2   9 3984.39 157.200   4
   2   2   9 3877.66 159.978   6
   2   2  10 725.876 88.3362   4
  -2  -2 -10 894.147 86.2870   1
   2   2  10 941.222 98.5034   6
   2   2  11 1777.25 128.353   4
   2   2  11 1523.21 119.761   6
  -2  -2 -11 1456.55 116.724   1
   2   2  12 88.5598 71.5971   4
  -2  -2 -12 56.4957 68.1230   1
   2   2  12 45.3705 56.9270   3
   2   2  12 116.133 69.0616   6
   2   2  13 307.678 89.4153   4
  -2  -2 -13 143.587 89.1340   1
   2   2  13 165.357 81.8690   6
  -2  -3  12-25.6104 68.1247   6
  -2  -3  12 45.1435 65.8596   4
   2   3 -12-104.992 81.2517   1
   2   3 -11 91.1073 64.3730   1
  -2  -3  11 110.334 65.2481   6
   2   3 -10 667.670 83.6730   1
  -2  -3  10 737.297 79.2922   4
  -2  -3  10 583.291 83.1293   6
   2   3  -9 57.0352 48.8614   1
  -2  -3   9-27.2675 49.3983   4
  -2  -3   9 2.99619 32.1769   2
  -2  -3   9 36.7129 47.4120   6
   2   3  -8 132.086 36.4158   2
  -2  -3   8 108.760 46.1981   4
  -2  -3   8 223.870 51.6349   7
  -2  -3   8 83.2554 32.7248   2
  -2  -3   8 99.6241 49.8010   6
   2   3  -8 89.3165 44.3349   1
  -2  -3   7 701.085 67.3050   5
   2   3  -7 792.401 66.7499   1
  -2  -3   7 718.420 66.3792   7
  -2  -3   7 929.668 71.3909   6
  -2  -3   7 753.289 52.1219   2
   2   3  -7 751.278 52.6219   2
   2   3  -6 323.337 49.3143   1
  -2  -3   6 301.366 38.1108   2
   2   3  -6 245.413 35.2026   2
  -2  -3   6 272.292 48.6071   5
  -2  -3   6 289.811 46.9623   7
  -2  -3   6 261.892 47.2670   6
   2   3  -5 11006.4 182.754   1
  -2  -3   5 10701.3 140.990   2
   2   3  -5 10314.4 188.026   6
  -2  -3   5 10611.0 185.320   7
  -2  -3   5 10823.6 184.581   6
  -2  -3   5 10630.3 177.399   1
   2   3  -5 10804.1 149.716   2
  -2  -3   4 28697.9 285.532   7
  -2  -3   4 28720.4 218.917   2
   2   3  -4 28736.2 277.499   6
   2   3  -4 29141.8 241.063   2
  -2  -3   3 10945.2 134.957   2
   2   3  -3 10582.2 178.154   7
  -2  -3   3 11031.7 171.456   7
   2   3  -3 11428.7 157.213   6
  -2  -3   3 11008.2 150.178   6
   2   3  -3 10831.6 149.456   2
   2   3  -3 10960.8 144.927   1
   2   3  -2 53.9435 28.0595   9
   2   3  -2 58.7223 22.5739   1
   2   3  -2 65.5418 31.3710   2
   2   3  -2 30.8059 36.4673   7
  -2  -3   2 39.2919 30.7927   7
  -2  -3   2 34.3520 25.6317   2
   2   3  -2 60.1441 25.1924   6
  -2  -3   2 110.555 26.9206   6
  -2  -3   1 730.738 35.9030  11
  -2  -3   1 657.891 34.3262   6
   2   3  -1 645.096 49.9453   7
  -2  -3   1 638.679 48.2194   7
  -2  -3   1 661.487 35.1326   6
   2   3  -1 669.121 47.2960   2
  -2  -3   1 589.599 40.1630   2
   2   3   0 810.439 35.3805  11
  -2  -3   0 862.129 58.4795  10
  -2  -3   0 855.008 51.3922   7
  -2  -3   0 794.392 33.9225  11
  -2  -3   0 849.966 31.0408   8
  -2  -3   0 874.398 36.9878   9
  -2  -3   0 783.466 33.5843   6
   2   3   0 787.604 35.7354   6
   2   3   0 795.976 34.3737   1
   2   3   0 778.668 53.6453   2
  -2  -3   0 727.059 45.9414   2
   2   3   1 961.206 34.3024   8
   2   3   1 857.922 60.4458  10
  -2  -3  -1 737.840 58.5417   4
  -2  -3  -1 840.667 29.0305   8
  -2  -3  -1 949.027 40.6289   6
   2   3   1 852.054 37.7932  11
   2   3   1 896.354 38.2312   1
   2   3   1 862.262 38.7267   6
   2   3   1 991.080 58.0733   2
  -2  -3  -1 879.377 38.8970   1
  -2  -3  -1 846.539 54.5247   2
  -2  -3  -2 466.369 51.3921   4
   2   3   2 514.604 37.2385   1
   2   3   2 462.926 31.0365   8
  -2  -3  -2 414.436 16.3076   3
  -2  -3  -2 483.643 36.0716   1
  -2  -3  -2 509.568 28.4535   8
  -2  -3  -2 499.039 35.9310   6
   2   3   2 481.341 45.4194   2
   2   3   2 502.104 36.4814   6
  -2  -3  -2 290.984 42.1683   2
   2   3   2 405.901 35.6774  11
   2   3   3 115.172 32.1565   1
  -2  -3  -3 62.1736 37.3988   2
   2   3   3 94.3429 24.8355   8
   2   3   3 98.0815 45.4746   4
  -2  -3  -3 86.4822 24.1344   8
  -2  -3  -3 143.724 39.5908   4
  -2  -3  -3 116.624 30.0054   1
  -2  -3  -3 90.7382 31.1245   6
   2   3   3 113.439 30.9456   6
  -2  -3  -4 135021. 654.061   4
   2   3   4 130126. 583.531   1
   2   3   4 132293. 532.023   8
  -2  -3  -4 133301. 587.367   1
  -2  -3  -4 130269. 597.954   6
   2   3   4 131636. 596.229   6
  -2  -3  -4 131968. 608.470   2
   2   3   4 131069. 678.502   4
  -2  -3  -5 31687.8 322.610   4
   2   3   5 32521.0 350.476   4
   2   3   5 31922.7 290.019   8
  -2  -3  -5 32842.8 323.332   1
   2   3   5 31726.1 162.940   3
  -2  -3  -5 31868.3 327.867   6
   2   3   5 32515.4 326.843   6
  -2  -3  -5 32029.7 304.914   2
   2   3   5 31748.2 317.833   1
  -2  -3  -6 188.921 37.8027   2
  -2  -3  -6 218.603 43.7090   1
   2   3   6 277.907 27.4984   3
   2   3   6 262.273 52.6269   4
   2   3   6 196.660 44.1159   6
   2   3   7 9707.33 211.678   4
  -2  -3  -7 9215.09 178.728   2
  -2  -3  -7 9660.59 209.432   1
   2   3   7 9489.74 214.479   6
   2   3   7 9287.30 134.897   3
   2   3   8 4868.46 162.527   4
  -2  -3  -8 5158.99 164.987   1
   2   3   8 4320.58 107.302   3
   2   3   8 4840.54 167.710   6
  -2  -3  -8 4399.25 133.017   2
  -2  -3  -9 8488.81 222.626   1
   2   3   9 8033.16 159.125   3
   2   3   9 8323.97 225.654   6
   2   3   9 8366.24 219.524   4
  -2  -3  -9 7833.34 178.811   2
   2   3  10 9321.55 244.114   4
  -2  -3 -10 9809.51 253.067   1
   2   3  10 9666.54 186.850   3
   2   3  10 10040.0 263.867   6
  -2  -3 -10 9299.79 204.211   2
   2   3  11 115.543 64.8025   4
  -2  -3 -11 129.060 68.8852   1
   2   3  11 149.268 50.8544   3
  -2  -3 -11 61.2819 49.1908   2
   2   3  11 189.103 72.6414   6
   2   3  12 1436.99 122.553   4
  -2  -3 -12 1322.73 122.679   1
   2   3  12 1035.35 112.712   6
   2   3  13 3004.87 171.770   4
  -2  -3 -13 3156.13 183.128   1
   2   3  13 3019.70 179.579   6
  -2  -4  11-55.8194 60.8725   4
   2   4 -11-9.41197 66.4998   1
   2   4 -10 381.207 76.6029   1
  -2  -4  10 234.567 62.5437   4
  -2  -4  10 330.289 73.1148   6
  -2  -4   9 1102.28 89.8966   4
   2   4  -9 1348.59 99.5123   1
  -2  -4   9 1234.22 75.6153   2
  -2  -4   9 1421.89 102.961   7
  -2  -4   9 1384.17 102.990   6
  -2  -4   8 364.605 64.6059   4
   2   4  -8 399.352 63.7265   1
  -2  -4   8 419.870 52.7109   2
  -2  -4   8 384.201 61.7756   6
  -2  -4   8 510.151 75.8647   5
  -2  -4   8 351.320 59.1811   7
  -2  -4   7 223.147 54.5208   5
  -2  -4   7 233.197 44.8686   2
  -2  -4   7 329.528 58.5232   6
   2   4  -7 251.421 51.1715   1
  -2  -4   7 245.795 52.5149   7
  -2  -4   6 600.889 67.3614   5
   2   4  -6 375.032 51.1502   1
  -2  -4   6 503.070 50.1352   2
  -2  -4   6 377.504 55.7443   6
  -2  -4   6 478.246 60.0297   7
   2   4  -6 373.499 46.9516   2
   2   4  -5 5257.79 137.689   1
  -2  -4   5 5424.60 144.088   7
  -2  -4   5 5526.85 120.016   2
  -2  -4   5 5564.27 144.023   6
   2   4  -5 5340.41 121.355   2
  -2  -4   4 3910.11 112.739   6
  -2  -4   4 3863.62 95.7053   2
  -2  -4   4 3900.91 117.624   7
   2   4  -4 3940.70 118.117   6
   2   4  -4 4142.44 112.266   1
   2   4  -4 4007.84 101.949   2
  -2  -4   3 218.333 34.4895   2
  -2  -4   3 271.278 41.4632   7
   2   4  -3 221.813 36.7899   2
   2   4  -3 335.848 43.6676   6
  -2  -4   3 327.291 39.4871   6
   2   4  -3 308.104 38.2177   1
  -2  -4   2 2406.30 79.5121  11
  -2  -4   2 2159.26 83.3984   7
  -2  -4   2 2266.79 75.2868   6
   2   4  -2 2229.47 71.7194   1
   2   4  -2 2288.97 59.4086   9
  -2  -4   2 2033.74 75.3320   2
   2   4  -2 2134.97 79.0216   2
  -2  -4   1 2668.31 81.4641   2
  -2  -4   1 2558.74 76.3665  11
   2   4  -1 2566.70 94.8557   7
  -2  -4   1 2549.32 75.1155   6
  -2  -4   1 2638.61 79.5081   6
   2   4  -1 2366.06 84.2886   2
   2   4   0 45.2047 26.7368   6
   2   4   0 31.0769 26.5517  11
   2   4   0 67.6618 24.2886   1
  -2  -4   0 83.2169 47.6381  10
  -2  -4   0-7.82511 38.6439   7
  -2  -4   0 54.8655 30.2944   2
   2   4   0 86.7238 39.7835   2
  -2  -4   0 96.3994 26.9796  11
  -2  -4   0 75.6502 26.3377   6
  -2  -4  -1 388.345 37.7495  11
   2   4   1 339.231 36.7110  11
  -2  -4  -1 300.494 34.0748   1
   2   4   1 396.802 35.1784   1
  -2  -4  -1 421.290 38.4456   6
   2   4   1 399.786 39.8575   6
   2   4   1 384.812 49.1885   2
  -2  -4  -1 376.191 43.4133   2
   2   4   2 3222.08 114.905  10
  -2  -4  -2 3245.74 114.711   4
   2   4   2 3333.43 58.1140   8
   2   4   2 3066.46 84.6874   1
  -2  -4  -2 3101.39 59.9458   3
  -2  -4  -2 3287.34 87.8974   6
   2   4   2 3169.61 83.5099   6
  -2  -4  -2 3210.44 85.7400   1
   2   4   2 3156.84 100.020   2
  -2  -4  -2 3272.94 96.6787   2
   2   4   2 3143.46 83.6022  11
   2   4   3 1015.70 59.6392  11
   2   4   3 1106.20 43.6874   8
   2   4   3 1080.94 57.4192   1
  -2  -4  -3 1114.60 32.2988   3
  -2  -4  -3 1171.15 58.9398   1
   2   4   3 1102.64 58.5026   6
  -2  -4  -3 1145.87 60.8951   6
   2   4   3 1013.30 63.3378   2
  -2  -4  -3 949.902 69.8902   4
  -2  -4  -3 1237.03 68.7264   2
   2   4   4 59966.0 427.752  11
   2   4   4 59406.5 335.660   8
   2   4   4 59435.2 478.373   4
   2   4   4 60086.4 413.174   1
  -2  -4  -4 57474.5 203.771   3
  -2  -4  -4 58316.6 415.526   6
  -2  -4  -4 58674.8 448.230   4
   2   4   4 60239.9 417.368   6
  -2  -4  -4 59704.5 412.152   2
  -2  -4  -4 60492.3 412.886   1
   2   4   5 4868.94 148.148   4
   2   4   5 4578.49 128.937   1
   2   4   5 4634.16 109.737   8
  -2  -4  -5 4793.76 131.082   1
   2   4   5 4533.40 61.0060   3
  -2  -4  -5 4781.86 138.282   4
  -2  -4  -5 4981.99 136.335   6
   2   4   5 4636.81 131.296   6
  -2  -4  -5 4653.65 122.279   2
   2   4   6 5256.35 155.873   4
   2   4   6 5036.14 128.114   8
  -2  -4  -6 5532.63 148.424   1
   2   4   6 5212.52 79.9214   3
   2   4   6 4930.31 143.859   6
  -2  -4  -6 5434.48 135.163   2
   2   4   7 626.233 69.8861   4
   2   4   7 542.393 35.3860   3
  -2  -4  -7 616.272 63.0016   1
   2   4   7 527.935 60.8472   6
  -2  -4  -7 544.275 54.8560   2
   2   4   8 368.928 61.7884   6
   2   4   8 354.840 36.9380   3
  -2  -4  -8 380.884 61.2431   1
   2   4   8 372.048 68.0788   4
  -2  -4  -8 354.542 51.0020   2
   2   4   9 48.3660 50.2718   4
  -2  -4  -9 11.1113 45.2425   1
   2   4   9 61.0510 35.6594   3
  -2  -4  -9-8.42686 42.4055   2
   2   4   9 90.3237 53.5632   6
   2   4  10 241.914 67.8596   4
  -2  -4 -10 152.175 49.1175   2
  -2  -4 -10 14.4503 51.1279   1
   2   4  10 126.721 39.4235   3
   2   4  10 187.993 62.6649   6
   2   4  11 408.083 82.1267   4
  -2  -4 -11 199.759 53.8882   2
  -2  -4 -11 158.642 63.9568   1
   2   4  11 272.497 52.0026   3
   2   4  11 332.308 79.7286   6
   2   4  12 148.814 74.5254   4
  -2  -4 -12 43.6445 66.9006   1
   2   4  12 62.4184 63.1372   6
  -2  -4 -13 629.223 101.587   1
   2   4  13 807.469 109.163   4
   2   4  13 820.683 111.396   6
   2   5 -11 205.108 82.3781   1
  -2  -5  11-16.6313 65.4010   4
  -2  -5  11 76.7419 70.2810   6
  -2  -5  10-40.8292 56.8989   4
  -2  -5  10 142.403 68.0742   6
   2   5 -10-1.97719 60.6666   1
  -2  -5   9 385.578 72.1167   4
  -2  -5   9 254.527 65.3273   7
  -2  -5   9 196.111 50.2216   2
   2   5  -9 284.618 68.6268   1
  -2  -5   9 369.286 69.9177   6
  -2  -5   8 2275.60 127.162   5
  -2  -5   8 2084.60 106.470   2
   2   5  -8 2131.60 121.183   1
  -2  -5   8 1939.74 115.502   7
  -2  -5   8 2130.22 120.670   6
  -2  -5   7 1401.08 100.609   5
  -2  -5   7 1265.76 78.2040   2
   2   5  -7 1349.40 92.0361   1
  -2  -5   7 1295.33 89.3850   7
  -2  -5   7 1318.76 96.4375   6
   2   5  -6 1123.79 79.5326   1
  -2  -5   6 1099.01 87.5332   5
  -2  -5   6 1215.75 72.3696   2
  -2  -5   6 1231.72 85.6641   7
  -2  -5   6 1079.07 81.9510   6
  -2  -5   5 38.9138 41.0809   7
   2   5  -5-36.3564 37.7169   1
  -2  -5   5 7.27541 37.7906   6
  -2  -5   5-63.5078 41.6630   2
  -2  -5   4 2953.57 89.6916   8
  -2  -5   4 3018.79 99.2297   2
  -2  -5   4 2964.88 108.556   6
   2   5  -4 2991.39 106.775   1
  -2  -5   3 3187.69 110.899  11
  -2  -5   3 3176.83 99.9477   2
   2   5  -3 3331.36 114.172   6
  -2  -5   3 3440.32 115.397   7
   2   5  -3 3474.21 107.524   1
  -2  -5   3 3403.10 83.3702   8
  -2  -5   3 3267.60 106.649   6
  -2  -5   2 13166.9 190.133   2
  -2  -5   2 14306.0 138.163   8
  -2  -5   2 14020.2 218.072   7
  -2  -5   2 13840.2 208.998  11
  -2  -5   2 13763.4 200.935   6
  -2  -5   2 15042.0 219.737   6
   2   5  -2 13618.0 122.291   9
   2   5  -2 14160.1 207.215   2
  -2  -5   1 4429.48 113.280  11
   2   5  -1 4433.95 114.114   1
  -2  -5   1 4126.24 56.0981   8
   2   5  -1 4150.03 126.769   7
  -2  -5   1 4391.56 112.702   6
  -2  -5   1 4413.01 115.537   6
  -2  -5   1 3999.18 117.164   7
  -2  -5   1 4405.59 111.302   2
   2   5  -1 4175.86 118.502   2
  -2  -5   0 26090.0 257.577   2
   2   5   0 25083.5 252.764   1
  -2  -5   0 25707.9 252.551  11
   2   5   0 24616.8 259.454  11
  -2  -5   0 25973.0 341.964  10
  -2  -5   0 25012.8 283.506   7
  -2  -5   0 23933.6 258.172   6
  -2  -5   0 25401.2 258.239   6
   2   5   0 26054.9 278.363   2
  -2  -5  -1 53833.8 372.210   2
   2   5   1 54077.0 386.505  11
  -2  -5  -1 52729.8 411.447   7
  -2  -5  -1 54332.3 367.788  11
  -2  -5  -1 53710.8 364.713   6
   2   5   1 53957.2 390.992   6
   2   5   1 52317.2 362.959   1
   2   5   2 3157.51 95.0169  11
  -2  -5  -2 3478.69 102.665  11
   2   5   2 3275.80 125.721  10
  -2  -5  -2 3512.27 101.071   1
  -2  -5  -2 3392.48 77.0430   3
   2   5   2 3575.96 100.277   1
  -2  -5  -2 3509.44 100.796   6
   2   5   2 3545.18 102.949   6
   2   5   2 3612.45 113.988   2
   2   5   2 3107.98 44.8287   8
  -2  -5  -2 3221.14 96.0226   2
   2   5   3 13432.9 241.849  10
  -2  -5  -3 13426.8 236.731   4
   2   5   3 13676.6 128.800   8
  -2  -5  -3 13640.3 202.322   6
   2   5   3 13478.2 197.251  11
   2   5   3 13777.1 199.951   1
   2   5   3 13580.9 198.203   6
   2   5   3 13725.8 215.996   2
  -2  -5  -3 13642.2 200.764   1
  -2  -5  -3 12797.7 189.093   2
  -2  -5  -4 3282.36 120.059   4
   2   5   4 3178.91 77.3695   8
   2   5   4 3122.89 105.246   1
  -2  -5  -4 3245.29 67.9192   3
  -2  -5  -4 3007.32 104.828   6
   2   5   4 3156.08 106.957   6
  -2  -5  -4 3330.76 107.556   1
   2   5   4 3220.22 109.857   2
   2   5   4 3061.38 106.232  11
  -2  -5  -4 3063.31 97.4529   2
   2   5   5 27.3434 25.5955   8
  -2  -5  -5 73.2220 39.3625   4
   2   5   5 79.9430 37.4187  11
   2   5   5 115.185 41.7803   2
   2   5   5 90.7415 49.6948   4
  -2  -5  -5 41.1063 30.6214   2
  -2  -5  -5 70.7586 19.8284   3
  -2  -5  -5 87.8571 36.3307   1
   2   5   5 43.3667 17.4361   3
   2   5   5 48.3269 35.8712   6
  -2  -5  -6 229.524 49.0092   1
   2   5   6 228.181 48.7044  11
   2   5   6 238.784 37.3175   8
   2   5   6 169.907 50.8442   4
   2   5   6 172.363 21.9893   3
  -2  -5  -6 216.789 44.4568   2
   2   5   6 247.906 52.0195   6
   2   5   7 3690.14 146.054   4
   2   5   7 3850.75 81.2908   3
   2   5   7 3625.96 141.257  11
  -2  -5  -7 3991.47 141.195   1
   2   5   7 3910.93 143.084   6
  -2  -5  -7 3985.70 124.155   2
   2   5   8 2456.47 125.914   4
   2   5   8 2448.45 73.3642   3
  -2  -5  -8 2395.13 118.798   1
   2   5   8 2407.96 121.505   6
  -2  -5  -8 2615.67 104.987   2
   2   5   9 4219.29 163.768   4
   2   5   9 4353.48 105.800   3
  -2  -5  -9 4135.47 161.438   1
   2   5   9 4207.04 166.642   6
  -2  -5  -9 4457.52 136.346   2
   2   5  10 576.494 83.1813   4
   2   5  10 454.721 76.4873   6
   2   5  10 643.230 55.0035   3
  -2  -5 -10 680.749 82.9162   1
  -2  -5 -10 640.749 67.9352   2
  -2  -5 -11-46.7513 46.3664   2
  -2  -5 -11 6.08163 55.4984   1
   2   5  11 72.1470 69.4270   4
   2   5  11 56.2955 63.6738   6
   2   5  12 860.662 99.8338   4
   2   5  12 988.067 112.578   6
  -2  -5 -12 732.455 100.173   1
   2   5  13 1140.50 124.149   4
   2   5  13 1305.00 131.376   6
  -2  -5 -13 1450.42 133.053   1
  -2  -6  10 112.896 65.1442   4
   2   6 -10 64.9776 75.2842   1
  -2  -6  10 45.5728 69.7669   6
   2   6  -9 1651.34 124.620   1
  -2  -6   9 1318.25 101.600   2
  -2  -6   9 1535.28 118.028   4
  -2  -6   9 1707.80 120.887   7
  -2  -6   9 1264.89 111.757   6
  -2  -6   8 660.160 72.3675   2
  -2  -6   8 633.278 78.7018   7
   2   6  -8 624.060 86.2674   1
  -2  -6   8 624.416 84.9887   5
  -2  -6   8 797.696 88.5394   6
   2   6  -7 497.072 71.3848   1
  -2  -6   7 520.975 75.5708   5
  -2  -6   7 370.417 71.4905   7
  -2  -6   7 490.889 72.9479   6
  -2  -6   7 459.002 57.4207   2
  -2  -6   6 1016.58 87.8153   5
  -2  -6   6 944.276 79.8196   7
  -2  -6   6 735.739 76.6910   2
  -2  -6   6 811.139 78.3052   6
   2   6  -6 969.216 81.2792   1
  -2  -6   5 7566.93 175.183   2
  -2  -6   5 8007.61 195.524   7
  -2  -6   5 7722.73 191.408   6
   2   6  -5 8123.38 193.975   1
  -2  -6   4 2443.27 95.2553   2
  -2  -6   4 2252.93 81.7444   8
  -2  -6   4 2638.11 111.184   7
  -2  -6   4 2326.93 107.653   6
   2   6  -4 2453.92 106.522   1
  -2  -6   3 6933.42 119.194   8
  -2  -6   3 7025.05 153.437   2
  -2  -6   3 6750.43 168.732   7
  -2  -6   3 6430.16 161.765   6
   2   6  -3 6557.58 159.969   1
  -2  -6   2 640.996 56.1618   2
  -2  -6   2 546.251 58.0173   7
  -2  -6   2 585.828 56.3369   6
  -2  -6   2 685.227 36.0488   8
   2   6  -2 457.628 21.2289   9
  -2  -6   1 5763.87 134.727   2
  -2  -6   1 5678.30 143.802  11
  -2  -6   1 5152.88 63.7438   8
  -2  -6   1 5718.02 148.580   7
  -2  -6   1 5559.26 142.361   6
   2   6  -1 5623.31 144.701   1
  -2  -6   1 5493.48 143.563   6
  -2  -6   0 31394.4 313.919  11
  -2  -6   0 32895.0 311.832   2
   2   6   0 31328.0 335.128  11
   2   6   0 31196.7 316.156   1
  -2  -6   0 32355.5 335.339   6
  -2  -6   0 32630.3 326.806   6
  -2  -6   0 30973.0 337.142   7
  -2  -6  -1 18037.4 256.050   7
  -2  -6  -1 19003.4 237.427   2
   2   6   1 18693.9 255.472  11
  -2  -6  -1 18362.7 240.666  11
  -2  -6  -1 18738.8 226.396   3
  -2  -6  -1 18973.1 245.198   6
   2   6   1 19458.4 263.550   6
   2   6   1 18804.3 243.262   1
  -2  -6  -2 1148.71 66.1690   2
  -2  -6  -2 1022.17 66.7838  11
  -2  -6  -2 1053.69 69.2544   7
  -2  -6  -2 1018.82 53.8845   3
   2   6   2 1050.41 66.7408   1
  -2  -6  -2 978.659 63.7588   6
   2   6   2 1119.09 69.5931   6
  -2  -6  -2 1002.85 67.7708   1
   2   6   2 1048.71 69.7388  11
  -2  -6  -3 414.872 44.6863   2
   2   6   3 414.040 49.3769  11
   2   6   3 391.230 22.8696   8
  -2  -6  -3 434.591 56.3699  11
  -2  -6  -3 347.364 47.6423   1
  -2  -6  -3 393.978 36.6417   3
   2   6   3 370.289 47.0841   1
  -2  -6  -3 367.290 51.5413   6
   2   6   3 473.385 53.0613   6
   2   6   3 460.135 67.7517  10
   2   6   4 254.818 44.8019  11
   2   6   4 268.824 58.1867  10
   2   6   4 225.237 26.1265   8
  -2  -6  -4 152.967 36.0178   2
  -2  -6  -4 209.834 31.5150   3
  -2  -6  -4 251.330 45.5482   1
   2   6   4 218.048 44.1307   6
   2   6   5 3650.73 127.332  11
   2   6   5 3685.37 91.8318   8
  -2  -6  -5 3729.82 86.9123   3
   2   6   5 3575.16 82.6121   3
   2   6   5 3572.60 126.187   6
  -2  -6  -5 3616.39 127.864   1
  -2  -6  -5 3718.21 113.002   2
   2   6   6 3251.60 127.416  11
   2   6   6 3029.43 74.7715   3
  -2  -6  -6 3289.08 83.4326   3
   2   6   6 3270.31 99.3754   8
  -2  -6  -6 3295.10 128.458   1
   2   6   6 3344.99 129.850   6
  -2  -6  -6 3153.69 107.625   2
   2   6   7 4115.79 152.366   4
   2   6   7 4159.35 151.463  11
   2   6   7 4326.13 90.0378   3
  -2  -6  -7 4429.34 154.459   1
   2   6   7 4180.72 149.081   6
  -2  -6  -7 4239.75 126.010   2
   2   6   8 582.976 77.9540  11
   2   6   8 438.000 75.4000   4
   2   6   8 592.601 74.3496   6
   2   6   8 525.130 42.2243   3
  -2  -6  -8 428.037 66.1598   1
  -2  -6  -8 564.343 57.0022   2
   2   6   9 408.444 74.8064  11
   2   6   9 322.079 70.7010   4
   2   6   9 319.622 38.3308   3
  -2  -6  -9 420.712 70.5248   1
  -2  -6  -9 377.704 52.9310   2
   2   6   9 515.048 72.4813   6
   2   6  10 2198.53 137.990   4
   2   6  10 1975.31 132.868  11
   2   6  10 2062.35 81.2586   3
  -2  -6 -10 2158.73 129.542   1
   2   6  10 2118.80 136.779   6
  -2  -6 -10 2039.28 96.1947   2
   2   6  11 132.743 65.7644   4
  -2  -6 -11-20.9372 41.1981   2
   2   6  11 22.6746 65.5995   6
  -2  -6 -11 82.8436 57.4964   1
   2   6  12 875.180 108.996   4
   2   6  12 644.078 100.702   6
   2   6  12 771.473 110.409  11
  -2  -6 -12 807.552 100.861   1
   2   6  13 223.044 89.2332  11
   2   6  13 228.481 89.3408   4
  -2  -6 -13 272.251 85.7404   1
   2   6  13 206.868 95.6216   6
   2   7  -9 891.447 108.479   1
  -2  -7   9 1087.39 112.404   4
  -2  -7   9 1185.58 117.171   7
  -2  -7   9 1318.70 120.818   6
  -2  -7   8 1010.29 104.283   5
  -2  -7   8 879.109 84.8242   2
   2   7  -8 903.411 98.0711   1
  -2  -7   8 1082.69 102.817   7
  -2  -7   8 1065.85 105.079   6
  -2  -7   7 71.4375 59.5985   5
  -2  -7   7 149.604 62.7609   7
   2   7  -7 108.757 60.8515   1
  -2  -7   7 142.027 52.1232   2
  -2  -7   7 14.1446 54.5419   6
  -2  -7   6 2050.39 120.071   5
  -2  -7   6 1633.79 107.022   7
  -2  -7   6 1421.77 100.469   2
  -2  -7   6 1848.34 113.573   6
   2   7  -6 1588.97 106.899   1
  -2  -7   5 1854.22 97.0358   2
  -2  -7   5 1982.09 109.684   7
  -2  -7   5 1926.36 109.494   6
   2   7  -5 1778.76 105.293   1
  -2  -7   4 5807.02 159.511   2
  -2  -7   4 5849.66 134.345   8
  -2  -7   4 5595.92 172.385   6
  -2  -7   4 6008.83 171.273   7
   2   7  -4 5824.39 172.216   1
  -2  -7   3 23371.0 301.982   2
  -2  -7   3 23429.7 325.144   7
  -2  -7   3 23436.7 228.856   8
  -2  -7   3 22644.4 323.507   6
  -2  -7   2 81.7752 42.5496   7
  -2  -7   2 187.141 27.2490   8
  -2  -7   2 104.714 43.3889   2
  -2  -7   2 138.359 45.4357   6
  -2  -7   1 3550.23 116.349   2
  -2  -7   1 3285.58 118.396   7
  -2  -7   1 3405.12 124.760   6
  -2  -7   0 2324.17 97.9166   2
  -2  -7   0 2583.33 109.353   6
  -2  -7   0 2299.58 100.093   7
   2   7   1 3675.33 128.799  11
  -2  -7  -1 3727.34 117.252   2
   2   7   1 3586.90 128.026   6
  -2  -7  -1 3776.65 128.436   7
   2   7   2 651.470 62.5089  11
  -2  -7  -2 472.088 55.8646   7
  -2  -7  -2 537.650 48.5019   3
  -2  -7  -2 649.468 56.6717   2
   2   7   2 449.276 55.6484   6
   2   7   3 10.3125 40.0699   6
  -2  -7  -3-30.6300 42.2397   1
   2   7   3 7.59652 37.8086  11
   2   7   3 9.22017 8.97053   8
  -2  -7  -3 7.84426 34.2430   2
   2   7   3 14.0653 9.82491   8
  -2  -7  -3-12.5729 30.7098   3
  -2  -7  -4 539.449 56.5832   2
   2   7   4 583.078 81.2956  10
   2   7   4 527.891 56.4111  11
   2   7   4 587.398 33.6073   8
  -2  -7  -4 570.587 62.0410   1
  -2  -7  -4 561.041 48.1524   3
   2   7   4 562.562 65.5412   6
  -2  -7  -5 1697.72 82.6506   2
   2   7   5 1582.47 108.383  10
   2   7   5 1544.26 90.9143  11
   2   7   5 1735.82 63.8000   8
  -2  -7  -5 1725.63 73.5913   3
   2   7   5 1430.49 88.1897   6
  -2  -7  -5 1517.91 90.8044   1
  -2  -7  -6 32056.5 332.720   2
   2   7   6 31511.8 393.217  11
   2   7   6 31808.1 444.063  10
   2   7   6 30800.5 290.428   8
  -2  -7  -6 32860.3 288.059   3
   2   7   6 31548.3 270.478   3
   2   7   6 31321.5 394.664   6
  -2  -7  -6 32003.8 400.306   1
   2   7   7 5368.17 112.690   3
   2   7   7 5836.60 186.288  11
  -2  -7  -7 6073.33 131.501   3
   2   7   7 5860.96 184.909   6
  -2  -7  -7 6350.65 191.527   1
  -2  -7  -7 5616.35 143.893   2
   2   7   8 2549.83 136.359  11
   2   7   8 2472.73 79.9541   3
  -2  -7  -8 2878.95 140.449   1
   2   7   8 2470.29 131.801   6
  -2  -7  -8 2604.85 101.646   2
   2   7   9 7442.96 225.872  11
   2   7   9 6937.69 133.100   3
  -2  -7  -9 7403.24 224.579   1
   2   7   9 7389.04 222.470   6
  -2  -7  -9 7327.63 167.378   2
   2   7  10 741.445 97.6700  11
   2   7  10 930.280 99.7673   4
  -2  -7 -10 781.940 90.7933   1
   2   7  10 758.428 92.9566   6
  -2  -7 -10 718.704 65.0751   2
   2   7  11 359.276 82.4953   4
   2   7  11 383.555 87.7122  11
  -2  -7 -11 395.938 86.6696   1
  -2  -7 -11 310.159 53.3210   2
   2   7  11 408.250 85.6062   6
   2   7  12 225.440 83.3981  11
   2   7  12 207.018 86.3428   4
  -2  -7 -12 170.766 76.9538   1
   2   7  12 402.974 91.2162   6
   2   7  13-38.2109 85.0702  11
  -2  -7 -13-46.1877 81.1621   1
   2   7  13 41.5677 85.3275   6
  -2  -8   8 180.428 76.7334   4
  -2  -8   8 89.0358 70.1961   5
  -2  -8   8 3.95243 64.8170   7
  -2  -8   8 46.1086 65.7889   2
  -2  -8   8 121.819 68.5940   6
   2   8  -8 15.7239 63.1801   1
  -2  -8   7 94.8152 61.8091   7
  -2  -8   7 75.2632 65.0811   5
   2   8  -7 122.783 64.4735   1
  -2  -8   7 178.767 61.3695   2
  -2  -8   7 109.981 60.6345   6
  -2  -8   6 689.436 85.4733   5
  -2  -8   6 466.590 72.5291   2
  -2  -8   6 560.411 78.8607   7
  -2  -8   6 636.819 86.2235   6
   2   8  -6 589.995 83.4562   1
  -2  -8   5 523.391 72.1947   7
  -2  -8   5 572.232 78.3293   6
  -2  -8   5 576.337 74.3135   2
   2   8  -5 634.145 81.0895   1
  -2  -8   4 11759.4 237.730   2
  -2  -8   4 10935.1 255.409   6
   2   8  -4 11118.0 253.876   1
  -2  -8   4 11441.0 247.426   7
  -2  -8   3 8739.35 203.682   2
  -2  -8   3 8688.62 210.079   7
  -2  -8   3 8908.93 223.366   6
   2   8  -3 8457.83 214.330   1
  -2  -8   2 8272.83 191.948   2
  -2  -8   2 7679.29 195.127   7
  -2  -8   2 7808.28 205.949   6
  -2  -8   1 2384.97 110.558   7
  -2  -8   1 2366.51 107.332   2
  -2  -8   1 2575.17 119.587   6
  -2  -8   0 58.0783 43.5394   7
  -2  -8   0 110.298 49.9670   2
  -2  -8   0 101.219 51.8798   6
   2   8   1 1132.82 90.1698  11
  -2  -8  -1 1095.60 79.8171   7
  -2  -8  -1 1260.28 91.8478   6
   2   8   2 1817.79 105.612  11
  -2  -8  -2 1916.55 100.234   7
  -2  -8  -2 1928.19 95.6146   2
   2   8   2 2084.64 111.285   6
  -2  -8  -3 17519.3 260.169   2
   2   8   3 17528.7 303.211  11
  -2  -8  -3 17698.0 178.558   9
   2   8   3 17288.1 303.594   6
  -2  -8  -3 17597.6 284.390   7
   2   8   4 271.279 25.8599   8
   2   8   4 268.370 23.1547   8
  -2  -8  -4 251.037 48.1440   2
  -2  -8  -4 290.733 47.8861   3
   2   8   4 321.732 64.1765   6
  -2  -8  -4 339.677 61.2412   1
   2   8   4 242.338 53.4873  11
  -2  -8  -5 48550.4 429.538   2
  -2  -8  -5 48437.9 505.940   1
   2   8   5 48022.7 496.878  11
   2   8   5 47975.5 302.053   8
  -2  -8  -5 47784.8 394.293   3
   2   8   5 47904.3 511.841   6
  -2  -8  -6 1240.19 78.6669   2
   2   8   6 1182.27 62.9986   8
   2   8   6 1057.21 101.778  10
  -2  -8  -6 1368.14 76.5632   3
   2   8   6 1138.96 91.5746  11
   2   8   6 1288.84 97.2391   6
  -2  -8  -6 1333.05 99.1769   1
  -2  -8  -7 1799.03 93.4791   2
   2   8   7 1713.62 109.980  11
   2   8   7 1588.47 121.957  10
   2   8   7 1837.93 77.8702   3
   2   8   7 1661.44 109.841   6
  -2  -8  -7 1635.17 107.630   1
  -2  -8  -8 7858.00 181.068   2
   2   8   8 7483.23 223.716  11
   2   8   8 7483.82 244.283  10
   2   8   8 7430.96 147.708   3
   2   8   8 7663.37 225.747   6
  -2  -8  -8 8107.05 233.627   1
  -2  -8  -9 867.679 70.2795   2
   2   8   9 805.608 95.9034  11
   2   8   9 779.957 56.4772   3
   2   8   9 790.880 96.0028   6
  -2  -8  -9 672.338 87.4843   1
   2   8  10 69.1490 69.9358  11
  -2  -8 -10 104.166 49.9300   2
  -2  -8 -10-0.44612 62.2583   1
   2   8  10 25.7082 64.7225   6
   2   8  11 352.450 79.7686  11
  -2  -8 -11 326.018 57.6101   2
   2   8  11 289.885 76.2574   6
  -2  -8 -11 339.892 85.1655   1
   2   8  12 296.632 96.9048  11
  -2  -8 -12 335.223 87.5664   1
   2   8  12 259.130 90.3108   6
  -2  -9   7 334.086 85.7316   5
  -2  -9   7 129.718 75.7315   7
   2   9  -7 260.831 83.8403   1
  -2  -9   7 205.450 74.2723   2
  -2  -9   7 154.894 74.0280   6
  -2  -9   6 1059.66 104.582   5
  -2  -9   6 841.535 96.7664   2
  -2  -9   6 1254.19 109.006   7
  -2  -9   6 1310.33 118.752   6
   2   9  -6 1063.27 110.038   1
  -2  -9   5 604.295 83.0572   7
  -2  -9   5 613.163 88.3291   6
  -2  -9   5 511.936 79.7627   2
   2   9  -5 683.347 87.8542   1
   2   9  -4 53.2793 63.6922   1
  -2  -9   4 98.4393 59.9276   7
  -2  -9   4 86.7075 63.7845   2
  -2  -9   4-101.677 68.9852   6
   2   9  -3 244.630 60.9498   1
  -2  -9   3 230.251 65.1742   2
  -2  -9   3 138.878 50.9828   7
  -2  -9   3 261.309 64.4772   6
  -2  -9   2 168.567 55.8062   7
  -2  -9   2 152.466 61.4145   2
  -2  -9   2 312.293 68.9692   6
  -2  -9   1 2531.98 120.523   2
  -2  -9   1 2305.91 115.418   7
  -2  -9   1 2526.81 131.818   6
  -2  -9   0 119.294 50.3435   7
  -2  -9   0 60.1971 49.4716   2
  -2  -9   0 49.4444 52.7588   6
  -2  -9  -1 341.173 59.3878   7
  -2  -9  -1 407.353 61.7837   2
  -2  -9  -1 284.410 63.2441   6
  -2  -9  -2 4927.22 152.491   2
   2   9   2 4869.85 175.501  11
  -2  -9  -2 4788.84 159.729   7
   2   9   2 4565.21 171.248   6
  -2  -9  -3 2549.48 112.476   2
   2   9   3 2337.16 127.258  11
  -2  -9  -3 2611.49 120.838   7
   2   9   3 2548.25 132.311   6
   2   9   4 1893.20 119.201   6
  -2  -9  -4 1708.80 104.704   7
   2   9   4 1964.43 121.698  11
  -2  -9  -4 1875.60 96.8064   2
  -2  -9  -4 1857.26 74.0675   9
   2   9   5 8629.93 231.001  11
   2   9   5 8319.85 127.815   8
  -2  -9  -5 8415.08 231.781   1
  -2  -9  -5 8721.53 173.663   9
  -2  -9  -5 7873.96 189.541   2
   2   9   5 8553.45 234.493   6
   2   9   6 5802.02 193.792  11
  -2  -9  -6 5569.93 158.640   2
  -2  -9  -6 6119.66 201.108   1
   2   9   6 5861.22 201.342   6
  -2  -9  -7 3049.79 149.937   1
  -2  -9  -7 2632.99 113.021   2
   2   9   7 2677.39 139.654  11
   2   9   7 2645.62 158.296  10
   2   9   7 2806.60 146.696   6
   2   9   8 101.639 61.5236  11
   2   9   8 75.3714 73.5132  10
  -2  -9  -8-45.5860 58.8252   1
  -2  -9  -8 112.653 47.7959   2
   2   9   8-5.36027 37.0160   3
   2   9   8 97.2986 67.5281   6
  -2  -9  -9 377.959 61.6318   2
   2   9   9 383.387 80.9802  11
   2   9   9 344.498 92.2277  10
   2   9   9 458.189 89.0198   6
  -2  -9  -9 375.764 81.3573   1
   2   9  10 221.925 84.7495  10
  -2  -9 -10 225.425 58.1716   2
  -2  -9 -10 162.022 71.6136   1
   2   9  10 189.033 73.5698  11
   2   9  10 212.615 76.7587   6
   2   9  11 5828.58 239.270  11
   2   9  11 5923.52 240.476   6
  -2  -9 -11 6322.59 248.749   1
   2   9  12 194.427 87.2313  11
  -2  -9 -12 466.370 102.316   1
   2   9  12 246.867 94.4963   6
  -2 -10   6 941.924 109.086   5
  -2 -10   6 459.654 96.1956   2
  -2 -10   6 877.034 104.446   7
  -2 -10   6 636.229 106.760   6
   2  10  -6 750.566 109.881   1
  -2 -10   5 1648.92 127.130   2
  -2 -10   5 1550.13 126.187   6
  -2 -10   5 2012.02 131.484   7
   2  10  -5 2002.13 145.340   1
   2  10  -4 229.771 72.6391   1
  -2 -10   4 251.580 74.5325   2
  -2 -10   4 286.889 71.6804   7
  -2 -10   4 207.888 74.5905   6
   2  10  -3 44.9355 61.2165   1
  -2 -10   3 63.7351 60.7624   7
  -2 -10   3 119.051 68.8561   2
  -2 -10   3-4.18637 61.9259   6
  -2 -10   2 647.788 86.2917   2
  -2 -10   2 714.837 81.7052   7
  -2 -10   2 701.333 91.6041   6
  -2 -10   1 1528.93 106.215   2
  -2 -10   1 1269.03 96.8368   7
  -2 -10   1 1464.17 119.416   6
  -2 -10   0 716.975 81.8362   2
  -2 -10   0 443.759 68.0405   7
  -2 -10   0 597.604 83.5980   6
  -2 -10  -1 8237.32 212.971   2
  -2 -10  -1 8044.90 210.964   7
  -2 -10  -1 8066.10 240.905   6
  -2 -10  -2 4402.45 156.611   2
   2  10   2 4050.98 175.270  11
  -2 -10  -2 4279.69 179.061   6
  -2 -10  -2 3814.11 147.948   7
  -2 -10  -3 3708.13 144.165   2
   2  10   3 3682.07 167.173  11
  -2 -10  -3 3545.98 143.767   7
   2  10   3 3562.30 164.617   6
   2  10   4 33.3959 58.5609   6
  -2 -10  -4 13.9315 52.3932   7
  -2 -10  -4 90.9813 54.1172   2
   2  10   4 10.9997 61.8039  11
  -2 -10  -5 602.364 68.9888   2
   2  10   5 610.890 87.9511  11
  -2 -10  -5 588.181 79.6093   7
   2  10   5 603.463 88.5359   6
   2  10   6 3.05478 61.3589   6
   2  10   6 69.9279 64.7819  11
  -2 -10  -6 51.5223 60.1830   1
  -2 -10  -6 28.3387 53.7569   7
  -2 -10  -6-55.6027 52.7219   2
   2  10   7 890.157 102.778  11
  -2 -10  -7 776.879 93.5361   1
  -2 -10  -7 646.507 75.0284   9
  -2 -10  -7 754.799 74.6231   2
   2  10   7 899.913 106.895   6
   2  10   8 415.968 86.3122   6
   2  10   8 506.033 88.4302  11
  -2 -10  -8 559.294 87.2840   1
  -2 -10  -8 376.366 65.9124   2
   2  10   9-13.0505 71.3703   6
   2  10   9-13.1300 82.5893  10
   2  10   9 20.3010 66.8108  11
  -2 -10  -9-53.6560 67.2934   1
  -2 -10  -9-21.0813 47.6882   2
  -2 -10 -10 2059.55 110.306   2
   2  10  10 2173.49 153.477  11
   2  10  10 1849.44 155.599  10
   2  10  10 2149.45 155.964   6
   2  10  11 192.055 87.0643  11
   2  10  11 30.3735 99.6785  10
   2  10  11 176.260 91.5308   6
  -2 -11   4 258.593 70.9672   7
   2  11  -4 264.800 90.7567   1
  -2 -11   4 195.865 83.7723   2
  -2 -11   4 312.924 97.0947   6
   2  11  -3-70.0983 68.3332   1
  -2 -11   3 62.9471 68.8855   2
  -2 -11   3-36.3865 72.3510   6
  -2 -11   2 39.4862 69.4746   2
  -2 -11   2-36.9282 59.9624   7
  -2 -11   2 17.6616 67.9615   6
  -2 -11   1 384.657 73.1239   7
  -2 -11   1 250.767 77.1063   2
  -2 -11   1 364.699 88.2576   6
  -2 -11   0 1033.91 104.427   2
  -2 -11   0 1166.35 96.8867   7
  -2 -11   0 1304.68 120.402   6
  -2 -11  -1 62.4079 54.4182   7
  -2 -11  -1 15.8791 62.5070   2
  -2 -11  -1 86.4379 68.6268   6
  -2 -11  -2 156.794 63.1778   7
  -2 -11  -2 73.1151 59.0154   2
  -2 -11  -2 142.604 73.2271   6
  -2 -11  -3 122.170 65.4649   2
  -2 -11  -3-36.9231 73.4535   6
  -2 -11  -3 71.6963 52.7195   7
   2  11   3 31.2688 71.9014  11
   2  11   4 418.317 88.9374   6
  -2 -11  -4 520.650 73.4519   2
  -2 -11  -4 539.254 75.9155   7
   2  11   4 517.196 94.8047  11
  -2 -11  -5 555.272 75.8410   2
   2  11   5 672.117 97.0158  11
  -2 -11  -5 746.600 82.9942   7
   2  11   5 637.092 94.9334   6
   2  11   6 526.480 96.3824   6
  -2 -11  -6 411.160 72.7922   2
   2  11   6 473.699 89.2431  11
  -2 -11  -6 479.613 75.3793   7
   2  11   7 184.480 83.6096   6
  -2 -11  -7 1.00439 71.4015   1
   2  11   7 59.4301 69.2611  11
  -2 -11  -7 55.7592 62.0105   7
  -2 -11  -7 73.3367 53.7166   2
   2  11   8 4285.21 202.371  11
  -2 -11  -8 3922.91 155.163   2
   2  11   8 4178.03 207.221   6
  -2 -11  -8 4187.07 204.376   1
   2  11   9 145.386 87.6963   6
   2  11   9 213.696 86.4775  11
  -2 -11  -9 92.5624 78.4588   1
  -2 -11  -9 217.177 64.0403   2
   2  11  10 714.220 115.910   6
   2  11  10 636.118 108.311  11
  -2 -11 -10 519.075 78.2108   2
  -2 -11 -10 633.689 110.505   1
   2  12  -2 579.916 103.264   1
  -2 -12   2 802.859 116.581   6
  -2 -12   2 538.146 91.4299   7
  -2 -12   2 592.784 103.161   2
  -2 -12   1 19.5853 63.4432   7
  -2 -12   1 128.917 79.2855   2
  -2 -12   1-82.8376 80.0075   6
  -2 -12   0 398.434 80.9579   7
  -2 -12   0 477.886 91.8270   2
  -2 -12   0 608.499 102.762   6
  -2 -12  -1 148.954 62.5350   7
  -2 -12  -1 324.447 80.7290   2
  -2 -12  -1 230.254 82.0830   6
  -2 -12  -2-19.4904 58.3213   7
  -2 -12  -2-13.7732 68.5435   2
  -2 -12  -2 24.8443 76.4072   6
  -2 -12  -3 740.171 96.0009   2
  -2 -12  -3 458.415 77.7972   7
  -2 -12  -3 663.005 107.866   6
   2  12   4 65.8537 74.5388  11
  -2 -12  -4 47.3749 59.7807   7
  -2 -12  -4 35.2901 62.5477   2
  -2 -12  -4 63.9780 83.7049   6
   2  12   5 1676.70 142.063  11
  -2 -12  -5 1405.61 113.021   2
  -2 -12  -5 1665.99 118.371   7
   2  12   5 1268.12 131.290   6
   2  12   6 86.4502 86.5375   6
   2  12   6 73.6344 81.0995  11
  -2 -12  -6-13.3936 62.6764   7
  -2 -12  -6 57.4298 66.6523   2
   2  12   7 1699.16 151.979  11
  -2 -12  -7 1823.86 119.430   2
  -2 -12  -7 1549.87 119.978   7
   2  12   7 1602.76 148.801   6
  -2 -12  -8 1712.86 117.618   2
  -2 -12  -8 2076.78 165.440   1
  -2 -12  -8 1970.23 136.111   7
   2  12   8 2175.62 168.263  11
   2  12   8 2313.86 175.956   6
  -2 -13  -2-28.8701 66.0265   7
  -2 -13  -2-94.2383 82.6902   6
  -2 -13  -3 498.301 91.0830   7
  -2 -13  -3 375.687 88.6188   2
  -2 -13  -3 533.477 117.076   6
   2  13   4-48.5119 89.4035  11
  -2 -13  -4 73.6247 64.9778   7
  -2 -13  -4-51.1240 72.9894   2
  -2 -13  -4 183.050 91.3788   6
   2  13   5 955.167 131.151  11
  -2 -13  -5 846.578 100.899   7
  -2 -13  -5 936.419 110.598   2
  -3  10   6 14.4360 85.1135  11
  -3  10   6-46.9605 76.0487   8
   3 -10  -6 10.9815 69.2093   2
  -3  10   6-1.38946 74.5206   3
   3 -10  -6 9.11102 93.4124   6
  -3  10   5 206.552 80.2835   8
   3 -10  -5 174.566 73.8517   2
  -3  10   5 170.578 85.0803   3
   3 -10  -5 166.618 98.4027   6
  -3  10   4-49.4148 68.4341   8
   3 -10  -4-12.4895 67.7835   2
  -3  10   4 95.9445 86.1332   3
   3 -10  -4-38.5272 90.2886   6
  -3  10   3 40.1410 68.8598   8
   3 -10  -3 33.0082 69.0595   2
  -3  10   3 63.4385 84.7985   3
   3 -10  -3 301.222 102.185   6
  -3  10   2 37.8238 64.6865   8
   3 -10  -2 53.4557 69.6140   2
   3 -10  -2-17.1678 88.1319   6
   3 -10  -1 389.535 93.8565   2
   3 -10  -1 326.281 106.663   6
   3 -10   0 38.4434 78.6987   2
  -3   9   8 69.3437 79.5898   6
  -3   9   8 206.629 86.9072   8
  -3   9   8 3.06078 74.4661  11
  -3   9   8-49.0979 73.3751   3
  -3   9   7 15.2582 75.5699   6
  -3   9   7 76.1231 77.9493   8
  -3   9   7 102.285 81.1455  11
  -3   9   7 123.231 74.2446   3
  -3   9   6 376.897 90.5206  11
   3  -9  -6 245.828 65.2460   2
  -3   9   6 331.648 85.1321   3
  -3   9   5 272.564 89.2718  11
  -3   9   5 146.113 70.8964   8
   3  -9  -5 169.121 74.3044   2
  -3   9   5 70.9161 71.5668   3
   3  -9  -5 247.686 89.3610   6
   3  -9  -4 1446.83 113.220   2
   3  -9  -4 1493.33 138.414   6
  -3   9   4 1278.46 113.005   8
  -3   9   4 1642.82 131.918   3
  -3   9   3 145.606 69.2826   8
   3  -9  -3 133.816 70.5815   2
  -3   9   3 89.6102 72.0616   3
   3  -9  -3 296.953 92.0815   6
  -3   9   2 15.6828 61.7042   8
   3  -9  -2-70.9844 69.2829   2
  -3   9   2 47.7108 68.6118   3
   3  -9  -2 3.43840 74.2600   6
  -3   9   1 1003.25 96.8103   8
   3  -9  -1 943.963 120.390   6
   3  -9   0 154.600 54.9832   4
  -3   9   0 209.185 64.9013   8
   3  -9   0 51.0470 71.2500   2
   3  -9   0 242.643 90.0294   6
   3  -9   1 277.006 69.4029   4
  -3   9  -1 226.076 68.9427   8
   3  -9   1 196.938 77.2025   2
   3  -9   1 283.786 99.9330   6
   3  -9   2 421.406 79.0618   4
  -3   9  -2 484.057 99.1318   1
  -3   9  -2 383.011 78.8401   8
   3  -9   2 350.778 86.6393   2
   3  -9   2 284.567 98.6547   6
   3  -9   3 12.0512 69.2166   4
  -3   9  -3 113.075 67.2750   8
  -3   8  10 263.974 91.8006   6
  -3   8  10 330.274 90.5337  11
   3  -8 -10 400.906 99.9437   1
  -3   8  10 638.311 110.022   8
  -3   8  10 420.843 97.5124   3
   3  -8 -10 466.223 125.234   9
  -3   8   9 82.7592 80.2821   6
  -3   8   9 52.8904 74.6368  11
   3  -8  -9-51.9330 99.8800   9
  -3   8   9 6.10605 73.7006   8
   3  -8  -9 29.4787 75.5449   1
  -3   8   9-43.7612 81.0579   3
  -3   8   8 85.9590 71.9694   6
  -3   8   8 35.1253 74.3478  11
  -3   8   8-146.861 79.2281   8
  -3   8   8 29.1352 63.3869   3
   3  -8  -7 748.021 75.1954   2
  -3   8   7 722.641 94.7696   8
  -3   8   7 693.915 99.4271  11
  -3   8   7 817.307 106.490   3
  -3   8   7 927.067 109.882   6
  -3   8   6 3701.71 181.850  11
  -3   8   6 3905.52 179.276   8
   3  -8  -6 3819.02 145.166   2
  -3   8   6 3623.79 168.795   3
  -3   8   6 3856.03 186.289   6
  -3   8   5 3226.14 171.167  11
   3  -8  -5 3241.48 142.451   2
  -3   8   5 3453.91 164.927   3
  -3   8   5 3043.43 152.789   8
  -3   8   4 10589.5 296.565  11
  -3   8   4 10759.5 266.281   8
   3  -8  -4 11166.7 308.613   6
  -3   8   4 11031.9 281.127   3
   3  -8  -4 11389.3 254.864   2
  -3   8   3 105.930 55.8756   8
   3  -8  -3 129.425 63.9981   2
  -3   8   3 195.475 69.0142   3
   3  -8  -3 62.6761 72.0723   6
  -3   8   2 1428.12 109.647   8
   3  -8  -2 1471.08 111.497   2
   3  -8  -2 1688.52 137.227   6
  -3   8   2 1459.61 118.038   3
   3  -8  -2 1464.26 77.2768   4
  -3   8   1 512.074 77.9446   8
   3  -8  -1 274.322 48.2080   4
   3  -8  -1 372.708 75.7761   2
  -3   8   1 395.337 84.0077   3
   3  -8  -1 444.053 86.7209   6
   3  -8   0 12.3841 44.9675   4
  -3   8   0 95.4781 53.5678   8
   3  -8   0 85.6212 62.9310   2
   3  -8   0 47.7953 67.2935   6
   3  -8   1 26.5419 47.0935   4
  -3   8  -1 89.8158 55.4190   8
   3  -8   1 107.793 68.4872   2
   3  -8   1 92.5715 76.9423   6
  -3   8  -2 47.2795 63.1837   1
   3  -8   2-36.8349 51.0442   4
  -3   8  -2 7.79028 52.5277   8
   3  -8   2 39.3287 67.1322   2
   3  -8   2-25.2577 70.5045   6
   3  -8   3 219.977 67.5268   4
  -3   8  -3 315.210 87.3518   1
  -3   8  -3 144.551 55.9384   8
   3  -8   3 275.328 90.0293   2
   3  -8   3 191.634 90.5560   6
   3  -8   4 4450.16 185.734   4
  -3   8  -4 4401.18 181.390   8
   3  -8   4 3963.60 198.099   2
   3  -8   4 4709.33 232.350   6
  -3   8  -4 4518.26 222.252   1
  -3   8  -5 151.400 83.4029   1
   3  -8   5 12.2912 72.6536   4
  -3   8  -5 120.591 68.5848   8
   3  -8   5-24.0118 74.1208   2
   3  -8   5-37.0104 92.9472   6
  -3   7  11 212.905 83.4474   6
   3  -7 -11 23.6058 100.747   9
  -3   7  11 67.5440 67.0485  11
  -3   7  11-46.5596 72.9187   3
   3  -7 -11-19.8862 80.9762   1
  -3   7  10 266.275 82.6512   6
   3  -7 -10 85.8575 93.7718   9
   3  -7 -10 182.496 79.4078   1
  -3   7  10 189.585 74.5589  11
  -3   7  10 326.473 85.3825   3
  -3   7   9 103.297 69.0113   6
   3  -7  -9 99.2382 87.2522   9
  -3   7   9 147.900 68.3338  11
  -3   7   9 63.8968 77.0472   3
   3  -7  -9 60.8897 75.0879   1
  -3   7   8 165.573 73.9631   6
  -3   7   8 224.015 74.1106  11
   3  -7  -8 340.237 100.699   9
  -3   7   8 220.641 76.8818   8
   3  -7  -8 158.117 68.5532   1
  -3   7   8 292.544 82.0132   3
   3  -7  -7 3266.83 186.872   9
   3  -7  -7 3393.86 120.576   2
  -3   7   7 3482.56 172.947  11
  -3   7   7 3689.29 168.352   3
  -3   7   7 3297.83 170.211   6
  -3   7   7 3189.71 164.437   8
  -3   7   6 5432.46 203.183  11
   3  -7  -6 5735.39 160.519   2
  -3   7   6 5204.85 196.910   8
  -3   7   6 5540.71 195.404   3
  -3   7   6 5441.52 201.291   6
   3  -7  -5 10085.4 217.441   2
  -3   7   5 9594.69 256.756   8
  -3   7   5 9930.24 253.406   3
  -3   7   5 10297.0 267.579   6
  -3   7   4 262.460 70.7448   8
  -3   7   4 256.291 67.9979  11
   3  -7  -4 238.555 61.4056   2
  -3   7   4 312.089 69.0670   3
   3  -7  -4 214.798 72.3994   6
   3  -7  -3 195.260 32.4980   4
  -3   7   3 169.391 58.3819   8
   3  -7  -3 228.888 56.8767   2
  -3   7   3 302.356 64.6902   3
   3  -7  -3 334.317 77.8207   6
   3  -7  -2 685.569 51.7233   4
   3  -7  -2 551.734 74.3018   2
   3  -7  -2 607.258 86.6957   6
  -3   7   2 757.878 87.5378   3
  -3   7   2 708.423 80.2647   8
  -3   7   1 503.542 73.9434   8
   3  -7  -1 390.169 68.3235   2
   3  -7  -1 557.648 88.4484   6
  -3   7   1 504.882 76.2096   3
   3  -7  -1 529.021 53.6774   4
   3  -7   0 40.3080 39.3021   4
  -3   7   0 131.670 54.1017   8
   3  -7   0-1.36201 55.5031   2
  -3   7   0-81.8716 62.9919   3
   3  -7   0 165.233 67.8184   6
   3  -7   1 6924.94 176.852   4
   3  -7   1 7176.51 211.987   2
   3  -7   1 7150.16 238.333   6
  -3   7  -1 7374.86 204.117   8
  -3   7  -2 3141.50 138.332   8
   3  -7   2 2845.20 145.752   2
   3  -7   2 2932.57 164.285   6
   3  -7   2 3042.97 128.151   4
  -3   7  -2 2700.34 151.494   1
   3  -7   3 84.4327 50.6995   4
   3  -7   3 112.506 61.9148   2
  -3   7  -3-25.3705 49.0953   8
   3  -7   3-56.6901 72.1704   6
  -3   7  -3-11.5626 62.4717   1
   3  -7   4 1404.62 106.314   4
   3  -7   4 1345.70 130.521   6
   3  -7   4 1134.18 111.866   2
  -3   7  -4 1463.36 103.508   8
  -3   7  -4 1164.96 116.592   1
  -3   7  -5 52.2341 73.7508   1
   3  -7   5 32.3251 66.9316   2
  -3   7  -5-22.8347 58.9518   8
   3  -7   5 88.2660 83.7201   6
   3  -7   5-4.06659 67.2520   4
   3  -7   6 476.970 87.5601   4
  -3   7  -6 607.465 87.4709   8
   3  -7   6 697.443 112.109   6
  -3   7  -6 569.822 105.849   1
  -3   6  11 125.815 68.5285   6
  -3   6  11 46.8300 63.1588  11
   3  -6 -11 219.450 81.5165   1
  -3   6  11 249.722 80.1157   3
  -3   6  10 413.644 83.9371   6
   3  -6 -10 567.884 89.6585   1
  -3   6  10 535.734 86.2893  11
   3  -6 -10 403.983 108.255   9
  -3   6  10 454.375 90.7755   3
  -3   6   9 154.821 63.4342   6
   3  -6  -9-51.7469 90.1953   9
  -3   6   9 112.102 63.1586  11
  -3   6   9 159.571 70.0218   3
   3  -6  -9 249.010 79.3927   1
  -3   6   8 32838.6 456.209  11
   3  -6  -8 32397.9 475.149   1
  -3   6   8 32448.8 473.357   3
   3  -6  -8 31353.7 531.653   9
  -3   6   8 31860.7 463.168   6
   3  -6  -7 3429.46 183.183   9
  -3   6   7 3187.64 165.339   8
  -3   6   7 3855.44 161.994  11
   3  -6  -7 3119.56 102.887   2
   3  -6  -7 3552.80 165.188   1
  -3   6   7 3248.91 153.413   3
  -3   6   7 3515.10 160.224   6
  -3   6   6 589.053 77.3610  11
  -3   6   6 434.052 76.2571   8
   3  -6  -6 488.035 91.2870   9
  -3   6   6 516.932 82.4149   3
  -3   6   6 573.293 79.1902   6
   3  -6  -6 511.011 54.2348   2
  -3   6   5 31.5825 53.2963   6
  -3   6   5-2.86338 50.0619   8
   3  -6  -5 52.6125 44.3969   2
  -3   6   5-24.0009 54.9051   3
  -3   6   5 78.0824 53.3122  11
  -3   6   4 182.075 59.7849   6
  -3   6   4 267.509 62.3570  11
   3  -6  -4 52.3430 13.1286   4
  -3   6   4 142.229 53.7776   8
   3  -6  -4 137.737 44.7579   2
  -3   6   4 274.568 65.3694   3
   3  -6  -3 173.972 28.1375   4
  -3   6   3 264.422 66.7366  11
  -3   6   3 60.5157 48.8179   8
   3  -6  -3 63.9092 42.0853   2
  -3   6   3 251.274 61.6855   3
   3  -6  -3 136.923 58.8394   6
   3  -6  -2 1138.57 57.2059   4
   3  -6  -2 1000.91 80.8772   2
  -3   6   2 1028.43 85.7802   8
   3  -6  -2 1180.57 99.5426   6
  -3   6   2 1065.31 90.4434   3
   3  -6  -1 3102.51 96.5295   4
  -3   6   1 3250.21 138.347   8
   3  -6  -1 3298.05 132.752   2
   3  -6  -1 3143.94 147.911   6
  -3   6   1 3259.69 141.895   3
   3  -6   0 3801.40 114.501   4
  -3   6   0 3860.97 150.021   8
   3  -6   0 3125.40 50.2443   5
   3  -6   0 3603.64 156.859   6
  -3   6   0 3972.31 156.735   3
   3  -6   0 3268.26 140.736   2
   3  -6   1 30611.0 342.217   4
   3  -6   1 30744.2 448.700   6
   3  -6   2 6692.83 173.880   4
  -3   6  -2 6392.73 187.114   8
   3  -6   2 6108.36 209.548   6
  -3   6  -2 6346.32 207.298   1
   3  -6   3 200.722 53.4083   4
  -3   6  -3 354.276 60.7612   8
  -3   6  -3 309.643 73.0015   1
   3  -6   3 140.113 61.0470   2
   3  -6   3 351.671 78.4030   6
   3  -6   4 5407.04 180.233   4
  -3   6  -4 5822.46 185.205   8
   3  -6   4 5001.01 194.568   2
   3  -6   4 5330.80 213.963   6
  -3   6  -4 5620.22 212.584   1
   3  -6   5 1307.97 104.926   4
  -3   6  -5 1526.48 108.511   8
   3  -6   5 1359.23 114.111   2
   3  -6   5 1283.35 122.030   6
  -3   6  -5 1395.30 123.843   1
   3  -6   6 194.462 67.6488   4
  -3   6  -6 37.2338 57.6849   8
   3  -6   6 204.631 86.8226   6
  -3   6  -6 69.8897 68.0248   1
   3  -6   7 560.096 94.0541   4
  -3   6  -7 471.542 98.3470   1
   3  -6   7 529.496 109.332   6
   3  -6   8 534.089 99.9001   4
   3  -5 -12 365.333 116.203   9
  -3   5  12 513.588 90.3004  11
  -3   5  12 641.809 110.866   3
  -3   5  12 617.577 97.7564   6
   3  -5 -12 418.635 88.9561   1
  -3   5  11 638.472 89.2778  11
  -3   5  11 653.120 97.7126   3
  -3   5  11 603.451 90.5344   6
   3  -5 -11 802.040 127.836   9
   3  -5 -11 653.593 91.9518   1
   3  -5 -10 453.142 107.855   9
  -3   5  10 431.823 75.0423  11
  -3   5  10 360.894 79.2491   3
   3  -5 -10 443.424 80.6495   1
  -3   5  10 414.479 78.0476   6
  -3   5   9 3631.81 157.456  11
  -3   5   9 3771.89 171.692   3
  -3   5   9 3860.40 163.311   6
   3  -5  -9 3847.67 204.389   9
   3  -5  -9 3830.56 163.634   1
  -3   5   8 5.96186 53.7976   6
  -3   5   8 45.0824 52.3068  11
   3  -5  -8-7.53254 49.7021   1
  -3   5   8 56.9516 58.0175   3
   3  -5  -8 129.926 83.0807   9
  -3   5   7 30.4021 51.4289   6
   3  -5  -7-21.5861 47.4946   1
  -3   5   7 6.97450 47.9236  11
   3  -5  -7 97.8779 74.4436   9
  -3   5   7 93.7461 59.5420   3
  -3   5   6 5860.85 123.601   2
   3  -5  -6 6209.19 131.794   2
   3  -5  -6 6302.98 224.452   9
   3  -5  -6 6359.63 192.498   1
  -3   5   6 6820.68 191.505  11
  -3   5   6 6263.29 192.453   3
  -3   5   6 6370.60 189.912   6
  -3   5   5 40.2168 55.2689   6
  -3   5   5 28.6592 47.4337  11
  -3   5   5 0.13975 50.5990   8
   3  -5  -5 12.5573 66.8446   9
   3  -5  -5 42.7251 32.4645   2
  -3   5   5 87.6458 54.7670   3
  -3   5   4 666.037 74.1649  11
   3  -5  -4 619.126 58.2886   2
  -3   5   4 803.148 78.4619   8
  -3   5   4 622.203 73.9002   3
  -3   5   4 694.278 76.7516   6
  -3   5   3 58.3673 45.0578  11
   3  -5  -3 4.09190 16.6100   4
  -3   5   3 13.4258 47.0425   8
   3  -5  -3 57.0188 39.5164   2
  -3   5   3 50.9141 46.8884   3
   3  -5  -2 288.864 32.9580   4
   3  -5  -2 394.602 65.9537   6
  -3   5   2 247.569 55.8817   8
   3  -5  -2 216.200 45.7445   2
  -3   5   2 244.059 52.3744   3
   3  -5  -1 617.288 47.8577   4
  -3   5   1 621.972 70.7917   8
   3  -5  -1 577.954 63.2447   2
   3  -5  -1 736.989 78.3179   6
  -3   5   1 618.301 66.6199   3
   3  -5   0 5306.51 127.832   4
  -3   5   0 5347.90 165.576   8
  -3   5   0 5082.90 99.4120   7
   3  -5   0 5452.68 175.992   6
  -3   5   0 5687.24 172.056   3
   3  -5   0 5046.54 154.835   2
   3  -5   1-1.53370 37.4573   4
  -3   5  -1 80.5851 48.9413   8
  -3   5  -1-31.5413 31.6392   7
   3  -5   1-25.7097 45.0248   2
  -3   5  -1-10.0811 46.0812   3
   3  -5   1-23.1239 52.2541   6
  -3   5  -2 2358.95 114.223   8
   3  -5   2 2231.25 113.065   2
   3  -5   2 2404.79 103.721   4
  -3   5  -2 2199.45 87.3240   7
   3  -5   2 2318.58 125.344   6
  -3   5  -2 2533.41 128.081   1
   3  -5   3 7605.37 187.546   4
  -3   5  -3 7472.55 196.236   8
   3  -5   3 7623.62 207.221   2
   3  -5   3 7382.27 223.165   6
  -3   5  -3 7373.04 215.874   1
   3  -5   4 4200.58 151.517   4
  -3   5  -4 4623.57 161.007   8
   3  -5   4 4688.37 169.713   2
   3  -5   4 4768.98 188.998   6
  -3   5  -4 4729.86 183.254   1
  -3   5  -5 50.7962 50.9104   8
   3  -5   5 70.3128 53.9197   4
  -3   5  -5 148.515 65.4770   1
   3  -5   5 234.192 75.0760   6
   3  -5   6-26.5896 60.4860   4
  -3   5  -6-48.9924 55.4969   8
  -3   5  -6 8.71447 59.6089   1
   3  -5   6-40.4865 65.4823   6
  -3   5  -7 1307.76 106.639   8
   3  -5   7 1065.98 105.602   4
   3  -5   7 1175.84 121.693   6
  -3   5  -7 1129.71 118.592   1
   3  -5   8 310.506 87.5614   4
  -3   5  -8 259.366 84.0777   1
   3  -5   8 152.686 82.6757   6
   3  -5   9 601.091 109.102   4
   3  -4 -12-5.16124 95.0305   9
   3  -4 -12 63.8988 70.4737   1
  -3   4  12 56.6141 70.5888   3
  -3   4  12 208.384 71.3582  11
  -3   4  12 137.759 68.1014   6
   3  -4 -11 2852.13 191.282   9
  -3   4  11 2952.09 165.815   3
  -3   4  11 2962.96 154.525  11
  -3   4  11 2968.07 152.394   6
   3  -4 -11 3435.96 165.608   1
   3  -4 -10 143.593 86.9798   9
  -3   4  10 228.542 77.1801   3
   3  -4 -10 274.181 68.3540   1
  -3   4  10 365.724 68.1276   6
  -3   4  10 325.513 64.2131  11
   3  -4  -9 130.784 79.3741   9
  -3   4   9 225.200 57.8336  11
  -3   4   9 141.993 64.0777   3
   3  -4  -9 217.633 57.8244   1
  -3   4   9 183.676 57.4559   6
   3  -4  -8 128.930 53.8929   1
  -3   4   8-15.5501 47.9484  11
   3  -4  -8 74.5145 76.3925   9
  -3   4   8-18.2938 54.4507   3
  -3   4   8-20.6760 46.4556   6
  -3   4   7 201.059 52.4788   6
  -3   4   7 263.169 53.7905  11
   3  -4  -7 249.314 53.6872   1
   3  -4  -7 180.760 75.2010   9
   3  -4  -7 207.004 28.1386   7
  -3   4   7 289.257 66.4825   3
  -3   4   6-5.19485 43.8230   6
  -3   4   6-11.0102 41.9936  11
   3  -4  -6-28.6870 67.1469   9
   3  -4  -6 3.89948 12.5137   7
  -3   4   6 19.9503 25.8853   2
  -3   4   6 18.6447 48.8363   3
   3  -4  -6-3.67498 41.4726   1
   3  -4  -5 2217.14 82.6207   5
  -3   4   5 2636.40 78.3103   2
  -3   4   5 2475.26 110.545  11
   3  -4  -5 2502.38 112.492   1
  -3   4   5 2717.07 124.161   3
   3  -4  -5 2435.76 140.555   9
   3  -4  -5 2529.60 83.1103   2
  -3   4   5 2711.63 117.193   6
  -3   4   4 257.661 48.6169   6
  -3   4   4 388.090 54.8355  11
  -3   4   4 320.852 41.2903   2
  -3   4   4 305.805 59.0940   8
   3  -4  -4 380.927 43.2493   2
  -3   4   4 404.828 57.9235   3
   3  -4  -4 368.001 35.4144   5
  -3   4   3 23918.6 317.451  11
  -3   4   3 23327.6 248.142   2
  -3   4   3 24308.4 343.562   8
   3  -4  -3 23859.5 266.403   2
   3  -4  -3 23792.0 183.892   5
  -3   4   3 23928.0 317.346   6
   3  -4  -2 8006.29 84.4901   5
   3  -4  -2 8104.16 192.097   6
  -3   4   2 8242.66 196.720   8
   3  -4  -2 7848.27 164.000   2
   3  -4  -2 8160.11 113.403   4
  -3   4   2 7971.36 188.172   3
  -3   4   2 8086.65 190.625  11
   3  -4  -1 107.808 28.8644   4
  -3   4   1 122.321 44.8310   8
   3  -4  -1 140.643 41.8900   2
  -3   4   1 98.8311 39.0428   3
   3  -4  -1 153.691 45.5637   6
   3  -4   0 3035.14 91.6521   4
  -3   4   0 2943.68 118.586   8
   3  -4   0 2792.92 112.770   2
  -3   4   0 3178.63 70.3353   7
   3  -4   0 3013.84 124.527   6
  -3   4   0 3025.80 117.789   3
  -3   4  -1 617.768 63.1676   8
  -3   4  -1 642.973 43.1214   7
   3  -4   1 677.471 71.1439   6
  -3   4  -1 655.839 66.9528   3
   3  -4   1 685.431 54.7930   4
   3  -4   1 524.296 61.1619   2
  -3   4  -2 264.178 52.4993   1
   3  -4   2 149.830 41.9683   4
  -3   4  -2 191.756 50.3146   8
  -3   4  -2 183.115 36.5052   7
   3  -4   2 258.789 54.2624   2
   3  -4   2 179.862 54.2292   6
  -3   4  -3 47.7271 47.6556   1
   3  -4   3 103.333 51.3330   2
   3  -4   3 64.8094 40.8246   4
   3  -4   3 140.515 56.8903   6
  -3   4  -3 144.292 49.5237   8
   3  -4   4 1736.21 97.5094   4
  -3   4  -4 1700.68 98.8289   8
   3  -4   4 1633.60 110.737   6
  -3   4  -4 1626.82 108.026   1
  -3   4  -5 220.629 52.5137   8
   3  -4   5 29.3434 48.2733   4
  -3   4  -5 34.2938 50.8225   1
   3  -4   5 122.978 63.8991   6
   3  -4   6 13839.4 288.767   4
  -3   4  -6 14724.0 288.971   8
   3  -4   6 14486.6 325.870   6
  -3   4  -6 14163.3 310.859   1
   3  -4   7 101.491 60.4474   4
  -3   4  -7 170.573 67.5147   1
  -3   4  -7 91.4940 58.2541   8
   3  -4   7 68.3061 63.8105   6
   3  -4   8 255.597 74.5221   4
  -3   4  -8 206.846 72.2833   1
   3  -4   8 185.673 77.1289   6
   3  -4   9 959.030 117.138   4
  -3   4  -9 844.435 112.699   1
   3  -4   9 693.813 110.442   6
  -3   3  13 48.9427 69.0821  11
   3  -3 -13 78.8701 70.0308   1
  -3   3  13 228.388 90.4067   3
  -3   3  13 190.555 73.9427   6
  -3   3  12 762.263 99.0025  11
   3  -3 -12 697.500 132.265   9
  -3   3  12 980.650 114.795   3
   3  -3 -12 816.525 102.665   1
  -3   3  12 708.163 92.9242   6
  -3   3  11 925.980 96.2750  11
   3  -3 -11 1071.87 132.256   9
  -3   3  11 1161.23 116.124   3
   3  -3 -11 955.829 96.9263   1
  -3   3  11 1058.53 97.6986   6
  -3   3  10-87.0643 54.0098  11
   3  -3 -10 45.0992 54.4948   1
  -3   3  10 78.9505 61.4326   3
   3  -3 -10 5.23143 80.8580   9
  -3   3  10 119.418 57.2066   6
  -3   3   9 76.9433 50.0751  11
   3  -3  -9 94.6489 55.6475   1
  -3   3   9 21.8699 55.0709   3
   3  -3  -9 17.6657 70.8276   9
  -3   3   9 19.9400 49.7360   6
  -3   3   8 1362.07 90.5305  11
   3  -3  -8 1256.70 119.293   9
   3  -3  -8 1153.55 64.5415   7
  -3   3   8 1207.59 101.718   3
  -3   3   8 1445.64 93.7737   6
   3  -3  -8 1325.27 93.9371   1
   3  -3  -7 500.235 39.7852   7
  -3   3   7 411.782 69.6932   3
  -3   3   7 452.364 57.1120  11
  -3   3   7 512.432 61.6873   6
   3  -3  -7 587.861 90.4546   9
   3  -3  -7 578.043 63.0380   1
  -3   3   6 5789.20 84.5483   2
   3  -3  -6 6189.66 213.009   9
   3  -3  -6 5910.49 95.2097   7
  -3   3   6 6188.56 184.534   3
  -3   3   6 5851.92 154.141  11
  -3   3   6 5958.45 158.732   6
   3  -3  -6 6358.53 164.439   1
  -3   3   5 267.962 45.5072   6
  -3   3   5 327.176 47.5789  11
   3  -3  -5 290.758 67.8095   9
   3  -3  -5 264.597 38.9087   5
   3  -3  -5 179.524 17.2170   7
  -3   3   5 350.374 58.8303   3
  -3   3   5 264.680 29.4182   2
   3  -3  -5 241.671 47.2545   1
   3  -3  -4 503.758 40.0140   5
  -3   3   4 520.677 41.2124   2
  -3   3   4 545.608 66.5120   8
   3  -3  -4 581.915 57.6882   1
   3  -3  -4 524.940 77.8030   9
   3  -3  -4 572.130 58.9118  11
  -3   3   4 480.274 58.2531   3
  -3   3   4 671.818 56.0918  11
  -3   3   4 513.755 51.7934   1
   3  -3  -4 549.012 56.2536   6
  -3   3   4 471.880 52.7406   6
   3  -3  -3 602.928 35.1705   5
   3  -3  -3 541.155 44.3958   2
   3  -3  -3 576.000 55.5417  11
  -3   3   3 658.010 56.9445  11
  -3   3   3 492.302 60.1613   8
  -3   3   3 575.508 45.0820   2
  -3   3   3 496.361 58.7030   3
   3  -3  -3 544.806 55.1801   6
  -3   3   3 527.190 51.9134   1
  -3   3   3 590.354 56.8273   6
  -3   3   2 2549.43 85.5123   2
  -3   3   2 2728.96 101.670  11
   3  -3  -2 2531.13 60.5288   4
   3  -3  -2 2584.38 95.7423  11
   3  -3  -2 2462.84 87.2697   2
  -3   3   2 2454.17 110.901   8
   3  -3  -2 2685.24 102.948   6
  -3   3   2 2916.23 113.726   3
   3  -3  -2 2505.88 95.9637   6
  -3   3   2 2536.81 94.9744   1
   3  -3  -1 5946.70 144.069  11
   3  -3  -1 5934.88 107.319   4
  -3   3   1 5576.21 141.253   1
  -3   3   1 5805.51 130.855   2
  -3   3   1 5710.05 160.294   8
   3  -3  -1 5699.92 135.990   2
   3  -3  -1 6093.81 150.675   6
  -3   3   1 5777.89 148.780   3
   3  -3  -1 5621.43 144.490   6
   3  -3   0 681.435 46.4641   4
  -3   3   0 673.438 64.0315   8
   3  -3   0 692.457 60.3960   2
  -3   3   0 737.601 32.4076   7
   3  -3   0 695.765 62.4248  11
   3  -3   0 669.938 59.5230   6
  -3   3   0 551.426 55.2594   3
   3  -3   0 721.619 65.6836   6
   3  -3   1 1310.28 66.6376   4
  -3   3  -1 1311.97 85.0953   8
   3  -3   1 1116.67 73.9583   2
  -3   3  -1 1344.68 51.6627   7
  -3   3  -1 1248.54 75.3108   3
   3  -3   1 1267.02 81.0147   6
  -3   3  -2 326.973 53.0694   8
  -3   3  -2 280.704 47.1136   1
  -3   3  -2 324.365 34.7586   7
   3  -3   2 343.798 56.0115   6
   3  -3   2 359.266 45.8916   4
  -3   3  -2 305.550 48.3236   3
  -3   3  -3 90.0134 47.4406   1
   3  -3   3 96.0674 42.5139   4
  -3   3  -3 52.8800 43.8715   8
  -3   3  -3 77.2682 32.7445   7
   3  -3   3 110.162 47.8161   6
   3  -3   4 1010.86 75.1530   4
  -3   3  -4 1082.44 77.5119   8
   3  -3   4 1092.98 87.2310   6
  -3   3  -4 964.208 79.9996   1
  -3   3  -5 367.554 60.1167   8
   3  -3   5 280.551 51.7040   4
  -3   3  -5 272.896 55.1871   1
   3  -3   5 281.421 64.5340   6
   3  -3   6 279.454 61.4192   4
  -3   3  -6 286.095 57.6397   8
   3  -3   6 303.310 63.6059   6
  -3   3  -6 348.983 69.5754   1
  -3   3  -7 22.1622 53.1157   8
   3  -3   7-35.2480 51.7106   4
  -3   3  -7 181.325 66.7193   1
   3  -3   7 114.398 65.1051   6
  -3   3  -8 647.931 95.6581   1
   3  -3   8 450.593 79.7684   4
   3  -3   8 593.588 93.2101   6
   3  -3   9 895.596 107.423   4
   3  -3   9 1074.73 117.821   6
   3  -3  10 528.232 97.2988   4
   3  -3  10 630.316 107.781   6
  -3   3 -10 412.264 95.1423   1
  -3   2  13 98.1691 68.2610  11
   3  -2 -13-33.7022 69.9210   1
  -3   2  13 150.351 90.3003   3
  -3   2  13-40.2253 68.5023   6
  -3   2  12 1203.29 109.508  11
  -3   2  12 1273.20 125.656   3
   3  -2 -12 1293.10 113.035   1
  -3   2  12 1447.21 114.545   6
  -3   2  11 131.887 60.4006  11
   3  -2 -11 25.0889 54.9398   1
  -3   2  11 105.467 68.9118   3
  -3   2  11 50.9348 57.6135   6
  -3   2  10 6919.92 225.966   3
  -3   2  10 6997.93 201.697  11
   3  -2 -10 6999.23 203.508   1
  -3   2  10 6303.13 189.310   6
  -3   2   9 6627.20 121.687   4
   3  -2  -9 7179.63 249.642   9
  -3   2   9 7374.89 223.544   3
  -3   2   9 7216.79 191.198  11
   3  -2  -9 7087.24 193.959   1
  -3   2   9 7253.90 189.039   6
  -3   2   8 111.141 44.1275  11
   3  -2  -8 216.056 78.5457   9
   3  -2  -8 151.479 43.0492   1
  -3   2   8 121.789 24.9889   4
  -3   2   8 210.369 61.4760   3
  -3   2   8 205.203 48.6980   6
  -3   2   7 1554.72 83.9212  11
  -3   2   7 1245.31 39.6327   4
   3  -2  -7 1562.32 69.0489   7
  -3   2   7 1559.23 103.736   3
   3  -2  -7 1474.20 116.143   9
  -3   2   7 1446.37 82.6859   6
   3  -2  -7 1617.16 89.2360   1
  -3   2   6 7641.03 161.255  11
   3  -2  -6 7780.25 124.728   7
  -3   2   6 8039.37 201.387   3
   3  -2  -6 8311.27 232.699   9
  -3   2   6 7427.08 160.675   6
   3  -2  -6 8033.88 171.508   1
  -3   2   5 5920.87 135.457  11
   3  -2  -5 6020.87 193.316   9
  -3   2   5 5748.26 137.593   1
  -3   2   5 6043.75 82.8261   2
   3  -2  -5 5814.76 93.5275   7
  -3   2   5 5738.15 165.454   3
   3  -2  -5 5777.32 138.296   6
  -3   2   5 6001.02 139.221   6
   3  -2  -5 5892.19 136.816   1
  -3   2   4 5065.87 120.907  11
  -3   2   4 5120.79 91.3656   2
   3  -2  -4 4900.31 123.673   1
  -3   2   4 5015.51 147.458   3
  -3   2   4 5234.61 123.905   1
   3  -2  -4 5173.93 123.561   6
  -3   2   4 4939.59 123.258   6
   3  -2  -4 5205.23 175.222   9
  -3   2   3 37.3120 31.9717   6
   3  -2  -3 9.75978 28.7603  11
  -3   2   3 22.8932 42.1017   8
   3  -2  -3 50.1219 50.4375   9
  -3   2   3 5.23444 32.1433   1
  -3   2   3 0.16027 28.8214  11
  -3   2   3 5.36526 26.5697   2
  -3   2   3 1.16379 39.4715   3
   3  -2  -3 35.9784 30.6548   6
   3  -2  -2 1877.20 72.2918  11
  -3   2   2 1834.84 41.2694   4
  -3   2   2 1822.08 75.0973  11
   3  -2  -2 1636.33 50.8942   4
  -3   2   2 1868.17 67.1340   2
  -3   2   2 1692.20 90.6602   8
  -3   2   2 1833.44 86.3823   3
   3  -2  -2 1694.66 70.2274   6
  -3   2   2 1731.60 71.2185   1
   3  -2  -1 4953.99 116.299  11
  -3   2   1 5190.91 83.0693   4
  -3   2   1 4711.95 116.190   1
   3  -2  -1 4823.17 95.6133   4
  -3   2   1 4790.75 111.397   2
  -3   2   1 4495.34 46.4224   7
   3  -2  -1 4628.53 134.179   3
   3  -2  -1 5004.55 122.680   6
  -3   2   1 5086.19 132.169   3
  -3   2   1 4742.39 151.091   9
   3  -2  -1 4804.66 118.444   6
  -3   2   1 5071.27 144.805   8
   3  -2   0 2606.44 92.9898  11
   3  -2   0 2794.69 81.8863   4
   3  -2   0 2491.11 104.921   8
  -3   2   0 2687.02 108.415   8
  -3   2   0 2648.49 90.6648   2
  -3   2   0 2899.66 54.2170   7
   3  -2   0 2551.27 100.521   3
   3  -2   0 2776.31 95.0512   6
  -3   2   0 2698.79 96.1421   3
   3  -2   0 2907.44 100.059   6
  -3   2   0 2746.75 72.2565   4
   3  -2   1 724.365 61.1586  11
   3  -2   1 790.068 52.8807   4
  -3   2  -1 883.255 68.1016   8
  -3   2  -1 906.793 40.2797   7
   3  -2   1 815.814 63.5687   3
  -3   2  -1 858.978 64.9023   6
  -3   2  -1 946.169 62.4349   3
   3  -2   1 866.764 64.2672   6
  -3   2  -1 887.840 59.7862   1
  -3   2  -1 838.432 50.2451   4
   3  -2   2 1930.65 81.1038   4
  -3   2  -2 1722.32 90.5407   8
  -3   2  -2 1873.97 74.9940   4
  -3   2  -2 1864.74 64.3512   7
   3  -2   2 1852.26 86.1519   3
  -3   2  -2 1674.32 88.7099   6
   3  -2   2 1740.51 88.3031   6
  -3   2  -2 1966.19 85.2203   3
  -3   2  -2 1746.90 85.9709   1
   3  -2   3 874.591 63.4895   4
  -3   2  -3 626.397 61.4226   8
  -3   2  -3 760.567 49.9747   7
   3  -2   3 653.388 62.6638   6
  -3   2  -3 816.484 66.4579   1
  -3   2  -4 6.53566 38.9779   1
   3  -2   4 1.70975 37.4303   4
  -3   2  -4-25.4994 38.5591   8
   3  -2   4-12.1496 42.3838   6
   3  -2   5 3052.94 123.900   4
  -3   2  -5 3234.60 122.607   8
   3  -2   5 2979.48 131.784   6
  -3   2  -5 3193.13 128.943   1
   3  -2   6 17.2684 46.9316   4
  -3   2  -6 71.5040 43.0974   8
  -3   2  -6 83.8035 47.5121   1
   3  -2   6 39.0143 49.6707   6
  -3   2  -7 409.668 72.9621   1
   3  -2   7 199.281 57.2519   4
  -3   2  -7 259.516 55.5196   8
   3  -2   7 350.881 72.2565   6
  -3   2  -8 671.421 88.7796   1
   3  -2   8 791.783 94.8200   4
   3  -2   8 663.150 88.4212   6
   3  -2   9 206.718 73.3413   4
  -3   2  -9 290.028 76.4755   1
   3  -2   9 218.775 77.1886   6
   3  -2  10 138.643 76.8664   4
  -3   2 -10 177.701 79.3552   1
   3  -2  10 28.8356 74.8368   6
   3  -2  11 1116.46 122.889   4
   3  -2  11 1208.39 135.434   6
  -3   2 -11 1106.41 119.869   1
  -3   1  13 62.8558 64.3901  11
  -3   1  13 17.1464 85.4047   3
   3  -1 -13 113.854 77.4004   1
  -3   1  13 77.3906 64.1418   6
  -3   1  12 129.230 69.3370  11
  -3   1  12 131.949 85.5468   3
   3  -1 -12 125.147 65.2513   1
  -3   1  12 163.598 63.0743   6
  -3   1  11 1550.15 128.762   3
   3  -1 -11 1682.01 113.797   1
  -3   1  11 1616.06 111.868   6
  -3   1  11 1799.28 118.231  11
  -3   1  10 914.411 87.9614  11
  -3   1  10 886.346 98.5398   3
   3  -1 -10 961.564 82.6443   1
  -3   1  10 747.403 81.7166   6
  -3   1  10 831.299 61.8977   4
  -3   1   9 1845.18 108.193  11
  -3   1   9 2004.21 124.786   3
   3  -1  -9 2027.07 105.429   1
  -3   1   9 1917.21 106.651   6
  -3   1   9 1943.90 78.2787   4
  -3   1   8 577.362 62.4636  11
  -3   1   8 641.943 83.2846   3
  -3   1   8 600.048 43.0445   4
   3  -1  -8 598.463 62.3718   1
  -3   1   8 635.521 63.0709   6
   3  -1  -7 7822.32 229.391   9
   3  -1  -7 7666.72 153.519   7
  -3   1   7 7980.87 211.103   3
  -3   1   7 8105.02 173.104  11
   3  -1  -7 8118.36 174.276   1
  -3   1   7 8043.39 169.842   6
  -3   1   7 8098.05 116.821   4
  -3   1   6 3145.80 64.3440   4
   3  -1  -6 3110.49 145.124   9
  -3   1   6 2981.30 102.247   1
  -3   1   6 3092.53 103.598  11
   3  -1  -6 2964.75 88.4005   7
  -3   1   6 2924.57 127.609   3
   3  -1  -6 2951.37 103.608   6
   3  -1  -6 3207.25 102.976   1
  -3   1   6 2916.50 97.4508   6
  -3   1   5 3731.82 100.868  11
  -3   1   5 3275.05 49.7588   2
   3  -1  -5 3285.82 142.792   9
  -3   1   5 3571.93 100.648   1
   3  -1  -5 3618.94 86.1803   7
  -3   1   5 3315.27 127.307   3
   3  -1  -5 3535.74 104.160   6
  -3   1   5 3429.69 96.4266   6
   3  -1  -5 3434.85 100.206   1
  -3   1   5 3066.61 57.7012   2
  -3   1   5 3450.58 56.3330   4
  -3   1   4 1201.86 56.4012  11
  -3   1   4 967.457 37.7155   4
  -3   1   4 1225.26 41.7750   2
   3  -1  -4 1143.68 46.2096   7
  -3   1   4 1191.78 57.8338   1
  -3   1   4 1200.19 76.1644   3
  -3   1   4 1174.51 40.3411   7
   3  -1  -4 1171.34 56.6868   6
   3  -1  -4 1077.81 87.4008   9
  -3   1   4 1112.89 56.5477   6
   3  -1  -4 1122.72 56.0062   1
   3  -1  -3 1972.22 68.5063  11
   3  -1  -3 1919.66 68.3280   1
  -3   1   3 1892.07 46.0290   4
   3  -1  -3 2008.59 108.435   9
  -3   1   3 2093.96 61.5793   2
  -3   1   3 2033.20 68.3867  11
  -3   1   3 2088.67 43.9839   7
  -3   1   3 1868.33 87.7998   3
  -3   1   3 2048.69 66.1344   1
   3  -1  -3 2080.01 94.6659   3
   3  -1  -3 1866.89 66.3846   6
  -3   1   3 2080.46 70.4378   6
  -3   1   2 7682.72 92.7009   4
   3  -1  -2 7705.45 120.444  11
  -3   1   2 7456.63 122.928  11
  -3   1   2 7770.61 183.837   9
  -3   1   2 7446.69 120.714   2
  -3   1   2 7537.76 169.584   8
  -3   1   2 7371.44 75.3585   7
   3  -1  -2 7674.86 163.962   3
  -3   1   2 7269.35 155.437   3
   3  -1  -2 7463.98 118.992   6
  -3   1   2 7302.92 119.324   1
  -3   1   2 7367.11 121.933   6
   3  -1  -1 1283.65 54.5529  11
  -3   1   1 1343.61 55.6069   1
  -3   1   1 1446.26 48.2215   4
   3  -1  -1 1222.65 55.6015   4
  -3   1   1 1242.10 76.6357   8
  -3   1   1 1276.58 59.7625   2
   3  -1  -1 1184.58 71.5309   3
  -3   1   1 1311.87 68.0796   3
   3  -1  -1 1270.75 56.7712   6
   3  -1  -1 1327.25 58.3932   6
   3  -1   0 105.838 30.4741   6
   3  -1   0 178.637 33.4398  11
   3  -1   0 167.724 34.9004   4
  -3   1   0 163.652 29.8180   4
   3  -1   0 135.300 42.7914   8
  -3   1   0 126.700 41.5098   8
   3  -1   0 145.537 40.6544   3
  -3   1   0 166.243 36.3398   2
  -3   1   0 178.038 38.9440   3
   3  -1   0 164.128 31.9299   6
   3  -1   1 6418.09 133.933   4
   3  -1   1 7016.53 160.406   8
  -3   1  -1 6945.02 123.045   4
  -3   1  -1 7135.37 142.341   2
   3  -1   1 7283.74 143.172   3
  -3   1  -1 7043.42 139.728   6
  -3   1  -1 7247.62 136.588   3
   3  -1   1 6926.20 137.688   6
  -3   1  -1 7021.39 134.431   1
  -3   1  -2 22.0670 32.6802   1
  -3   1  -2-25.1561 31.4505   4
   3  -1   2 60.4738 41.1704   8
   3  -1   2 22.2160 34.7326   4
  -3   1  -2-41.4976 40.3209   8
  -3   1  -2 12.3777 33.7615   2
   3  -1   2 19.2156 35.1616   3
  -3   1  -2-36.0788 29.6454   3
  -3   1  -2 6.58100 35.0573   6
   3  -1   2-4.33048 33.8350   6
  -3   1  -3 75063.0 315.539   5
  -3   1  -3 70991.3 454.747   4
  -3   1  -3 73995.0 509.957   8
  -3   1  -3 71691.0 517.049   6
   3  -1   3 73196.3 500.009   4
   3  -1   3 74954.5 457.062   3
   3  -1   3 73334.7 512.181   6
  -3   1  -3 73313.9 491.463   1
  -3   1  -4 1625.43 59.5329   5
   3  -1   4 1522.06 82.6757   4
  -3   1  -4 1626.12 84.8765   8
   3  -1   4 1461.98 70.9359   3
   3  -1   4 1627.71 88.6896   6
  -3   1  -4 1668.49 85.0873   1
  -3   1  -5 5234.07 154.197   1
  -3   1  -5 5744.70 157.436   8
  -3   1  -5 5785.42 125.684   5
   3  -1   5 5480.21 160.220   4
   3  -1   5 5651.57 139.998   3
   3  -1   5 5343.61 161.783   6
   3  -1   6 795.764 75.2962   4
  -3   1  -6 851.990 71.5710   8
   3  -1   6 854.874 81.2694   6
  -3   1  -6 889.618 76.6214   1
   3  -1   7 119.871 55.7076   4
  -3   1  -7 113.584 49.5266   8
  -3   1  -7 75.1385 53.1329   1
   3  -1   7 58.1995 52.3273   6
  -3   1  -8 1579.58 109.172   1
   3  -1   8 1867.90 117.205   4
   3  -1   8 1834.21 120.652   6
  -3   1  -9 3848.22 171.277   1
   3  -1   9 3972.96 177.108   4
   3  -1   9 3767.48 176.448   6
   3  -1  10 4063.93 192.146   4
  -3   1 -10 4071.99 186.838   1
   3  -1  10 4255.87 197.357   6
  -3   1 -11 609.061 96.1485   1
   3  -1  11 915.905 115.246   4
   3  -1  11 763.677 113.474   6
  -3   0  13 80.6721 85.9895   3
   3   0 -13 142.511 77.5638   1
  -3   0  13 202.254 73.6034   6
  -3   0  12 184.041 94.9321   3
   3   0 -12-6.57686 64.9243   1
  -3   0  12 124.701 60.7923   6
  -3   0  11 104.720 50.2631   4
  -3   0  11-19.4265 75.4242   3
   3   0 -11 74.3069 59.7209   1
  -3   0  11 26.0556 48.9495   6
  -3   0  10 4341.69 130.433   4
  -3   0  10 4132.60 184.311   3
   3   0 -10 4368.79 158.275   1
  -3   0  10 4183.24 155.934   6
  -3   0   9 1274.97 107.830   3
  -3   0   9 1195.85 68.9185   4
  -3   0   9 1119.19 82.2345   6
  -3   0   8 914.052 56.6515   4
  -3   0   8 879.577 87.3160   3
   3   0  -8 903.682 68.0095   1
  -3   0   8 752.015 65.7761   6
  -3   0   7 68.5945 30.4457   4
  -3   0   7 204.922 55.9836   3
   3   0  -7 105.521 38.7842   1
  -3   0   7 137.324 40.9088   6
  -3   0   6 754.538 55.8611  11
  -3   0   6 747.228 55.5740   1
   3   0  -6 832.010 84.6870   9
   3   0  -6 669.018 51.0710   1
   3   0  -6 814.674 57.5608   7
  -3   0   6 717.166 72.3974   3
  -3   0   6 721.592 49.3254   7
   3   0  -6 763.321 57.9831   6
  -3   0   6 734.384 55.8034   6
  -3   0   5 1430.03 61.9962  11
  -3   0   5 1592.11 65.9071   1
   3   0  -5 1462.47 98.2149   9
  -3   0   5 1179.46 29.6354   2
   3   0  -5 1559.75 67.2516   7
  -3   0   5 1446.43 89.0512   3
  -3   0   5 1472.73 58.1801   7
   3   0  -5 1511.99 63.4276   1
   3   0  -5 1552.07 66.9269   6
  -3   0   5 1427.25 61.6995   6
  -3   0   5 1243.29 31.2101   2
  -3   0   4 3110.81 78.9707  11
   3   0  -4 3174.74 128.708   9
  -3   0   4 3139.24 78.2103   1
   3   0  -4 2977.52 82.4671   7
  -3   0   4 3066.77 114.937   3
  -3   0   4 2987.27 72.6435   7
  -3   0   4 2903.86 88.5170   5
   3   0  -4 3038.01 78.8335   6
   3   0  -4 3118.94 78.4819   1
  -3   0   4 3099.39 78.4216   6
  -3   0   4 3096.85 67.9906   2
  -3   0   3 18991.7 195.902   5
  -3   0   3 19615.5 164.455  11
  -3   0   3 20497.1 173.611   1
   3   0  -3 19666.4 185.363   7
  -3   0   3 19836.5 167.788   7
  -3   0   3 19247.8 253.096   3
   3   0  -3 20173.2 173.288   6
  -3   0   3 19600.1 169.699   6
  -3   0   3 18822.0 186.003   4
   3   0  -3 19884.8 294.490   9
   3   0  -3 19307.1 168.764   1
  -3   0   2 7420.37 110.206   5
  -3   0   2 7747.99 162.233   8
   3   0  -2 7664.16 97.3117  11
  -3   0   2 7773.66 99.4110  11
  -3   0   2 7366.69 116.282   4
   3   0  -2 7262.53 150.257   3
  -3   0   2 7272.53 98.2882   7
  -3   0   2 7616.91 151.921   3
  -3   0   2 7743.34 95.9643   1
   3   0  -2 7900.16 97.7118   6
  -3   0   2 7514.07 169.677   9
  -3   0   2 7946.70 101.953   6
  -3   0   1 2556.32 57.6739   1
  -3   0   1 2376.96 101.462   9
  -3   0   1 2497.52 97.3235   8
   3   0  -1 2157.02 73.2809   4
  -3   0   1 2422.70 60.8760   7
   3   0  -1 2331.62 87.7952   3
  -3   0   1 2347.73 83.0211   3
   3   0  -1 2526.82 55.9974  11
   3   0  -1 2393.55 58.4260   6
  -3   0   1 2418.49 70.4076   4
   3   0  -1 2328.96 56.2658   6
   3   0   0 3123.02 72.3259  11
  -3   0   0 2921.16 79.6242   4
   3   0   0 2959.91 99.7417   8
   3   0   0 2834.28 86.3955   4
  -3   0   0 2886.46 100.222   8
   3   0   0 2891.41 88.2552   3
  -3   0   0 2918.40 84.4834   3
  -3   0   0 3016.69 73.8488   6
   3   0   0 2853.52 70.4054   6
  -3   0   0 3027.42 68.0259   1
  -3   0  -1 5445.06 114.561   4
   3   0   1 5698.01 127.647   4
   3   0   1 5321.92 133.457   8
  -3   0  -1 5481.06 133.087   8
   3   0   1 5669.91 115.677   3
  -3   0  -1 5767.94 112.650   3
  -3   0  -1 5657.46 110.685   6
   3   0   1 5607.62 107.203   6
  -3   0  -1 5505.41 101.987   1
   3   0   2 432.984 48.7024   4
   3   0   2 489.007 53.8501   8
  -3   0  -2 517.859 53.2239   8
  -3   0  -2 498.648 48.2574   4
   3   0   2 462.913 41.2567   3
  -3   0  -2 475.886 46.2046   6
  -3   0  -2 479.669 39.2190   3
   3   0   2 409.975 43.9717   6
  -3   0  -2 412.717 39.9688   1
  -3   0  -3 1088.34 60.2265   1
  -3   0  -3 940.495 60.8206   4
   3   0   3 1054.97 69.0868   4
   3   0   3 1000.53 70.0598   8
  -3   0  -3 1080.67 65.0245   8
  -3   0  -3 918.247 65.5511   2
   3   0   3 1121.74 55.9241   3
  -3   0  -3 1041.33 67.7305   6
   3   0   3 1037.98 64.9122   6
   3   0   3 1041.68 63.0031   1
   3   0   4 63.4587 38.1413   4
   3   0   4-6.50353 34.0287   1
  -3   0  -4-17.4685 35.3430   8
  -3   0  -4-18.7902 31.8692   1
   3   0   4 20.6251 27.1230   3
  -3   0  -4 21.0673 38.5888   6
   3   0   4 22.3913 35.0302   6
  -3   0  -5 44.4324 31.8690   8
   3   0   5 70.0279 42.2168   4
  -3   0  -5 85.7200 39.4637   1
   3   0   5 53.5329 32.6710   3
   3   0   5 101.238 44.4995   6
   3   0   6 415.053 63.3580   4
  -3   0  -6 439.600 58.5343   1
  -3   0  -6 433.314 56.2735   8
   3   0   6 500.775 49.5173   3
   3   0   6 484.741 60.3077   6
   3   0   7 2371.09 120.831   4
  -3   0  -7 2234.93 112.098   8
  -3   0  -7 2307.53 114.963   1
   3   0   7 2322.02 116.946   6
  -3   0  -8 6711.76 200.224   1
   3   0   8 7162.56 213.632   4
   3   0   8 7242.06 213.812   6
  -3   0  -9 2499.73 135.902   1
   3   0   9 2318.63 139.294   6
   3   0   9 2617.68 142.633   4
   3   0  10 1874.23 135.279   4
  -3   0 -10 1776.34 128.357   1
   3   0  10 1795.83 133.594   6
  -3   0 -11 149.584 70.0277   1
   3   0  11 188.182 77.4239   4
   3   0  11 172.840 80.1203   6
   3   0  12 25.6650 75.2585   4
  -3   0 -12 24.4290 71.9564   1
   3   0  12 139.458 77.0938   6
  -3  -1  12 873.033 116.081   3
   3   1 -12 730.455 95.0855   1
  -3  -1  12 746.403 94.4436   6
  -3  -1  11 820.822 76.9052   4
  -3  -1  11 861.186 109.816   3
  -3  -1  11 924.317 89.8925   6
   3   1 -11 899.825 93.0779   1
  -3  -1  10 12527.0 230.861   4
   3   1 -10 12199.3 262.266   1
  -3  -1  10 12144.0 254.999   6
  -3  -1   9 6262.63 153.704   4
  -3  -1   9 6645.48 217.691   3
   3   1  -9 6781.25 182.736   1
  -3  -1   9 6417.19 176.286   6
  -3  -1   8 3.22249 36.4825   4
   3   1  -8 8.24341 38.5875   1
  -3  -1   8 31.4199 37.0884   7
  -3  -1   8-19.7946 55.6922   3
  -3  -1   8-39.0082 41.6235   6
  -3  -1   7 1341.60 100.488   3
   3   1  -7 1329.10 75.0097   1
  -3  -1   7 1353.79 72.2667   7
   3   1  -7 1134.05 75.9450   6
  -3  -1   7 1244.53 72.7470   6
  -3  -1   7 1144.45 72.5516   1
  -3  -1   6 388.308 42.0140   1
  -3  -1   6 356.493 60.7231   3
   3   1  -6 435.700 45.4319   1
  -3  -1   6 456.243 44.7071   7
   3   1  -6 441.726 48.0021   6
  -3  -1   6 395.593 42.5618   6
  -3  -1   6 372.871 18.0634   2
  -3  -1   5 8603.60 136.520   1
  -3  -1   5 8777.16 86.7489   2
  -3  -1   5 8140.20 163.875   5
   3   1  -5 8575.62 200.959   9
  -3  -1   5 8581.05 197.515   3
   3   1  -5 8352.98 157.049   7
  -3  -1   5 8345.45 143.565   7
   3   1  -5 8354.46 134.194   1
   3   1  -5 8763.64 144.169   6
  -3  -1   5 8299.44 134.415   6
  -3  -1   4 8789.28 159.227   5
  -3  -1   4 8783.57 118.976   1
   3   1  -4 8683.45 149.736   7
  -3  -1   4 8895.44 185.066   3
  -3  -1   4 8617.63 136.595   7
   3   1  -4 8551.74 116.843   1
   3   1  -4 8961.96 125.056   6
   3   1  -4 8680.77 197.344   9
  -3  -1   4 8467.95 116.468   6
  -3  -1   4 8418.10 103.924   2
  -3  -1   3 25854.7 162.770   1
   3   1  -3 25010.9 308.353   9
   3   1  -3 25473.5 239.855   7
  -3  -1   3 25280.0 160.777  11
  -3  -1   3 25354.2 287.889   3
  -3  -1   3 24763.0 216.882   7
   3   1  -3 26166.5 167.436   6
   3   1  -3 24862.9 161.879   1
  -3  -1   3 25021.2 158.640   6
  -3  -1   3 25572.2 209.017   2
  -3  -1   2 37758.2 148.925  11
  -3  -1   2 40703.5 363.904   9
  -3  -1   2 40463.1 265.081   7
  -3  -1   2 40385.4 339.648   3
  -3  -1   2 38839.1 140.178   1
   3   1  -2 38620.7 145.203   6
  -3  -1   2 37669.1 152.113   6
  -3  -1   2 39539.8 279.549   2
   3   1  -1 3636.03 87.5893  10
  -3  -1   1 3791.85 116.334   9
  -3  -1   1 3274.34 99.5982   8
  -3  -1   1 3590.16 99.9145   4
  -3  -1   1 3646.21 84.8308   7
  -3  -1   1 3555.84 94.7293   3
  -3  -1   0 307.764 20.0796   1
  -3  -1   0 336.263 44.9458   8
   3   1   0 308.937 43.9714   8
   3   1   0 304.884 43.1668   4
   3   1   0 375.080 37.7319   3
  -3  -1   0 302.994 39.8070   4
  -3  -1   0 311.134 33.5461   3
  -3  -1   0 329.384 22.6571   6
   3   1   0 310.166 20.9345   6
  -3  -1  -1 63115.7 283.554   1
   3   1   1 62783.8 412.617   8
  -3  -1  -1 62160.6 399.581   8
   3   1   1 63425.4 332.886   3
  -3  -1  -1 63133.5 321.599   3
  -3  -1  -1 64424.4 304.486   6
   3   1   1 62576.2 295.421   6
  -3  -1  -1 65213.6 407.635   4
   3   1   1 62743.5 291.340   1
   3   1   1 62033.6 424.261   4
  -3  -1  -2 258.818 31.3519   1
  -3  -1  -2 323.601 43.8647   4
   3   1   2 319.183 49.7550   4
   3   1   2 285.908 45.5562   8
  -3  -1  -2 310.632 42.1497   8
   3   1   2 340.611 32.8838   3
  -3  -1  -2 295.441 35.3646   6
  -3  -1  -2 339.009 29.3020   3
   3   1   2 250.924 32.8290   6
   3   1   2 226.958 31.4326   1
  -3  -1  -3 30.7711 35.8082   4
   3   1   3 19.6905 40.3931   4
   3   1   3-3.45867 38.4756   8
   3   1   3 41.1179 31.6735   1
   3   1   3 8.72549 22.5329   3
  -3  -1  -3 11.6242 28.4568   1
  -3  -1  -3 33.3816 33.4110   8
  -3  -1  -3 11.2829 32.3618   6
   3   1   3 21.3909 29.2099   6
  -3  -1  -4 1600.41 72.2341   1
   3   1   4 1873.31 91.8634   4
  -3  -1  -4 1637.94 75.7170   8
   3   1   4 1717.37 57.4111   3
  -3  -1  -4 1606.59 81.2160   6
   3   1   4 1736.26 81.0744   6
   3   1   4 1609.93 75.6253   1
  -3  -1  -5 1686.73 81.9432   1
   3   1   5 1714.04 99.2004   4
  -3  -1  -5 1852.24 84.6215   8
   3   1   5 1889.38 63.3147   3
   3   1   5 1703.54 84.0132   6
  -3  -1  -6 1497.50 85.3468   1
   3   1   6 1553.58 96.2622   4
   3   1   6 1634.48 66.1740   3
   3   1   6 1585.11 91.7513   6
  -3  -1  -6 1615.51 85.8183   8
   3   1   7 9258.53 226.208   4
  -3  -1  -7 8728.24 203.973   1
   3   1   7 9083.24 160.182   3
   3   1   7 8819.57 214.994   6
  -3  -1  -8 26279.8 373.893   1
   3   1   8 25784.4 291.096   3
   3   1   8 25818.7 385.998   6
  -3  -1  -9-37.1112 51.4825   1
   3   1   9 112.650 64.8087   4
   3   1   9 50.4299 58.7427   6
   3   1  10 3506.91 172.392   4
   3   1  10 3599.52 173.182   6
  -3  -1 -10 3731.42 169.242   1
  -3  -1 -11 88.1176 64.4076   1
   3   1  11 74.2628 78.3538   4
   3   1  11-3.16167 72.6818   6
  -3  -1 -12 234.495 85.9230   1
   3   1  12 312.142 98.2585   4
   3   1  12 226.194 89.8737   6
  -3  -2  12 56.6336 57.1562   4
   3   2 -12 121.703 70.9326   1
  -3  -2  12 44.9231 92.1056   3
  -3  -2  12 138.506 64.0064   6
  -3  -2  11-76.1336 53.0592   4
   3   2 -11-6.74395 55.4978   1
  -3  -2  11-14.5559 73.1562   3
  -3  -2  11 67.7510 61.9488   6
  -3  -2  10 7592.20 188.806   4
   3   2 -10 7295.24 208.860   1
  -3  -2  10 7726.00 213.315   6
  -3  -2   9 346.319 56.1368   4
   3   2  -9 324.374 58.3373   1
  -3  -2   9 197.043 56.9824   6
  -3  -2   8 38.4242 38.9491   4
   3   2  -8 62.3879 43.6918   1
  -3  -2   8 16.5511 40.0010   7
  -3  -2   8 12.9356 15.2042   2
  -3  -2   8 44.7353 35.5415   6
  -3  -2   7-9.38204 46.2731   5
   3   2  -7 46.8288 39.8472   1
   3   2  -7 29.1896 21.6858   2
  -3  -2   7 42.9654 37.7087   7
  -3  -2   7-21.1515 19.1668   2
  -3  -2   7 52.4929 36.1703   6
   3   2  -6 409.296 46.1971   1
  -3  -2   6 417.148 28.9427   2
  -3  -2   6 424.627 48.3943   7
   3   2  -6 421.745 50.0728   6
  -3  -2   6 305.072 48.0267   5
  -3  -2   6 377.378 44.5206   6
   3   2  -6 290.914 32.9011   2
  -3  -2   6 306.864 42.4707   1
  -3  -2   5 126.359 40.8676   5
   3   2  -5 72.0666 47.3277   9
   3   2  -5 79.6150 26.1638   2
  -3  -2   5 116.983 30.0980   1
  -3  -2   5 153.147 37.1297   7
  -3  -2   5 72.9397 19.6628   2
   3   2  -5 97.7445 27.6974   1
   3   2  -5 88.1668 30.5578   6
  -3  -2   5 55.3289 27.0773   6
  -3  -2   4 7333.90 104.267   2
   3   2  -4 7519.19 174.171   9
   3   2  -4 7394.01 111.238   1
   3   2  -4 7219.20 150.943   7
  -3  -2   4 7217.43 139.141   7
   3   2  -4 7453.35 116.388   6
  -3  -2   4 7128.49 109.696   6
  -3  -2   4 7589.76 112.813   1
   3   2  -3 52.1422 40.9369   9
  -3  -2   3 47.6928 16.1697   1
   3   2  -3 24.1213 14.9886   1
  -3  -2   3-3.74012 22.4390   2
   3   2  -3-8.34160 33.7818   7
  -3  -2   3-30.5417 27.5485   7
   3   2  -3 4.85136 17.3121   6
  -3  -2   3-4.52162 15.8838   6
  -3  -2   2 74.6151 33.5990  10
   3   2  -2 65.5336 43.4182   9
  -3  -2   2 39.7164 26.1403   2
  -3  -2   2 43.6677 28.3656   7
  -3  -2   2 62.8941 35.6170   3
  -3  -2   1 18693.5 209.373   8
  -3  -2   1 19193.9 207.272   7
  -3  -2   1 19007.2 211.668   3
  -3  -2   1 19376.9 231.188   9
  -3  -2   1 19162.0 216.701   2
   3   2   0 1252.01 68.4478  10
  -3  -2   0 1175.62 67.6211   4
  -3  -2   0 1268.49 54.8984   3
  -3  -2   0 1230.54 59.8209   8
  -3  -2   0 1133.85 64.2698   2
   3   2   0 1211.69 59.5374   8
  -3  -2  -1 16323.9 222.286   4
   3   2   1 15856.1 231.692   4
  -3  -2  -1 16083.0 188.789   8
  -3  -2  -1 15904.0 129.839   1
  -3  -2  -1 15478.0 148.015   3
  -3  -2  -1 16008.2 136.876   6
   3   2   1 16049.7 133.116   6
   3   2   1 16047.9 194.409   8
   3   2   1 16216.8 129.782   1
   3   2   2 38387.8 248.722   1
   3   2   2 37947.3 310.199   8
  -3  -2  -2 38448.1 248.780   1
  -3  -2  -2 38104.7 293.009   8
   3   2   2 38099.9 200.919   3
  -3  -2  -2 38404.1 194.823   3
  -3  -2  -2 38227.3 264.764   6
   3   2   2 37301.7 255.737   6
  -3  -2  -2 37094.2 340.463   4
   3   2   3 3877.27 96.1521   1
  -3  -2  -3 3958.43 117.962   4
   3   2   3 3809.35 127.954   4
  -3  -2  -3 3870.46 93.7033   1
   3   2   3 4009.39 112.131   8
  -3  -2  -3 3778.43 100.110   8
   3   2   3 3841.72 59.6809   3
  -3  -2  -3 3964.89 102.969   6
   3   2   3 3964.19 99.4824   6
   3   2   4 7604.80 149.076   1
  -3  -2  -4 8060.35 149.287   1
   3   2   4 8291.41 167.394   8
  -3  -2  -4 7916.55 150.371   8
   3   2   4 7861.96 87.3939   3
  -3  -2  -4 8079.88 159.506   6
   3   2   4 7977.57 182.222   4
   3   2   4 8110.93 156.422   6
  -3  -2  -5 220.428 40.7285   1
   3   2   5 317.643 25.3055   3
  -3  -2  -5 245.667 39.7031   8
   3   2   5 242.068 44.2188   6
  -3  -2  -6-18.6341 34.6843   1
   3   2   6-51.9532 45.7777   4
  -3  -2  -6 14.4421 36.7489   8
   3   2   6-1.60220 21.0246   3
   3   2   6 27.9889 36.5197   6
   3   2   7 5418.11 174.791   4
  -3  -2  -7 6029.65 166.971   1
   3   2   7 5873.80 111.592   3
   3   2   7 5756.80 168.400   6
  -3  -2  -8 12958.5 261.731   1
   3   2   8 12518.2 268.042   6
   3   2   8 13478.1 284.640   4
  -3  -2  -9 340.481 65.7214   1
   3   2   9 359.263 75.3821   4
   3   2   9 297.574 65.1686   6
   3   2  10 2671.02 148.943   4
  -3  -2 -10 2548.08 143.772   1
   3   2  10 2587.72 151.610   6
   3   2  11 2137.61 145.987   4
  -3  -2 -11 2067.17 138.584   1
   3   2  11 2283.88 149.579   6
  -3  -2 -12 1519.55 131.904   1
   3   2  12 1528.15 134.990   4
   3   2  12 1445.63 135.184   6
   3   2  13 3033.56 189.061   4
  -3  -3  12 3471.54 162.856   4
   3   3 -12 3443.64 177.846   1
  -3  -3  12 3150.32 164.929   6
  -3  -3  11 1157.51 102.418   4
   3   3 -11 1082.67 105.342   1
  -3  -3  11 1180.53 104.609   6
   3   3 -10 70.4294 60.3575   1
  -3  -3  10 20.2648 51.0431   4
  -3  -3  10 67.3436 61.7198   6
   3   3  -9 55.7864 47.3814   1
  -3  -3   9 154.467 53.1185   4
  -3  -3   9-34.3744 48.9988   7
  -3  -3   9 93.0876 50.4477   6
   3   3  -8 65.5437 41.0665   1
  -3  -3   8 61.4240 41.8699   7
  -3  -3   8 26.4340 28.5104   2
  -3  -3   8-33.6583 41.3358   6
  -3  -3   7 411.070 65.8023   5
   3   3  -7 665.189 61.2721   1
  -3  -3   7 497.865 42.2198   2
  -3  -3   7 571.502 61.3570   7
  -3  -3   7 388.770 52.3989   6
   3   3  -7 320.640 46.1538   2
  -3  -3   6 591.410 65.1080   5
  -3  -3   6 474.609 39.2564   2
  -3  -3   6 445.210 54.5330   7
   3   3  -6 489.352 54.3264   6
  -3  -3   6 477.689 50.0227   6
   3   3  -6 435.922 47.5936   1
  -3  -3   6 415.477 49.2227   1
   3   3  -6 388.455 46.2992   2
  -3  -3   5 26305.7 324.215   5
   3   3  -5 26528.9 253.425   1
  -3  -3   5 26204.0 295.197   7
   3   3  -5 26817.7 275.747   6
  -3  -3   5 26588.2 260.064   6
  -3  -3   5 26716.8 260.115   1
  -3  -3   5 26738.8 214.406   2
   3   3  -5 26363.6 259.517   2
  -3  -3   4 11307.7 142.260   2
   3   3  -4 11010.2 144.757   1
   3   3  -4 10790.9 197.537   9
  -3  -3   4 11256.6 186.791   7
   3   3  -4 11300.8 158.377   6
  -3  -3   4 10863.4 147.467   6
   3   3  -4 11070.4 167.429   2
   3   3  -3 8731.39 110.487   1
   3   3  -3 8059.06 160.741   9
   3   3  -3 8522.78 170.603   7
  -3  -3   3 8705.20 158.928   7
   3   3  -3 8833.29 118.995   6
  -3  -3   3 8605.96 111.351   6
   3   3  -3 8495.78 152.492   2
  -3  -3   3 8644.49 127.738   2
   3   3  -2 379.636 22.1811   1
  -3  -3   2 416.827 25.0886  11
  -3  -3   2 354.855 49.5589  10
   3   3  -2 369.321 47.1203   9
   3   3  -2 345.143 47.4909   7
  -3  -3   2 370.014 43.7684   7
  -3  -3   2 402.773 23.6251   6
  -3  -3   2 403.549 25.3330   6
   3   3  -2 387.242 44.9104   2
  -3  -3   2 338.386 36.4193   2
  -3  -3   1 569.390 56.4826  10
  -3  -3   1 483.863 47.2849   9
  -3  -3   1 464.226 41.0716   8
  -3  -3   1 409.642 18.6449  11
  -3  -3   1 439.274 47.1713   7
  -3  -3   1 436.497 19.4125   6
   3   3  -1 411.814 19.3013   1
  -3  -3   1 367.256 18.0986   6
   3   3  -1 439.232 18.7298   1
   3   3  -1 308.164 46.6055   2
  -3  -3   1 508.944 49.1695   2
   3   3   0 3832.65 57.4864  11
  -3  -3   0 3841.76 88.3442   8
  -3  -3   0 3962.18 123.010   4
   3   3   0 3825.73 55.2816   1
  -3  -3   0 3763.58 55.1061   6
   3   3   0 3935.54 58.7613   6
  -3  -3   0 3775.49 105.955   2
   3   3   1 403.764 27.8613  11
   3   3   1 434.987 27.2770   1
   3   3   1 368.400 37.8851   8
  -3  -3  -1 348.543 55.2691   4
  -3  -3  -1 419.710 35.7019   8
  -3  -3  -1 375.481 31.6244   3
  -3  -3  -1 443.761 29.3904   6
  -3  -3  -1 462.693 29.1346   1
   3   3   1 413.410 28.7227   6
  -3  -3  -1 396.001 53.6070   2
  -3  -3  -2 997.455 72.1294   4
   3   3   2 1040.72 55.5865   8
   3   3   2 1052.59 79.0346   4
   3   3   2 1106.43 48.3340   1
  -3  -3  -2 1059.88 31.6547   3
  -3  -3  -2 1047.50 46.1348   1
  -3  -3  -2 1009.65 49.0669   8
  -3  -3  -2 1123.54 49.7641   6
   3   3   2 1083.60 48.7840   6
  -3  -3  -2 1080.35 70.9271   2
   3   3   3 5221.93 108.552   1
  -3  -3  -3 5357.67 143.209   4
   3   3   3 5168.17 154.335   4
   3   3   3 5666.06 124.187   8
  -3  -3  -3 4963.71 105.862   8
  -3  -3  -3 5351.19 111.810   1
  -3  -3  -3 5355.17 114.430   6
   3   3   3 5373.66 113.227   6
  -3  -3  -3 5208.06 135.486   2
   3   3   4 100.590 35.6488   8
  -3  -3  -4 111.520 43.4495   2
   3   3   4 195.061 52.0948   4
  -3  -3  -4 69.2455 28.0795   8
  -3  -3  -4 162.785 34.9292   1
   3   3   4 105.191 32.5726   1
  -3  -3  -4 136.432 36.8302   6
   3   3   4 134.245 36.3019   6
   3   3   5 24767.9 343.020   4
   3   3   5 24224.4 284.347   8
  -3  -3  -5 24823.3 271.655   8
  -3  -3  -5 24455.0 287.216   1
  -3  -3  -5 24368.9 295.514   6
   3   3   5 24687.7 295.227   6
   3   3   6 601.151 72.0145   4
  -3  -3  -6 657.639 59.7714   1
   3   3   6 582.049 25.8954   3
   3   3   6 593.913 23.2525   3
   3   3   6 551.812 58.0378   6
   3   3   7 1191.43 92.7892   4
  -3  -3  -7 1339.86 84.5051   1
   3   3   7 1312.87 44.4449   3
   3   3   7 1159.13 82.8558   6
   3   3   8 6761.15 206.290   4
  -3  -3  -8 6714.13 189.052   1
   3   3   8 6682.23 195.095   6
   3   3   9 2217.67 129.357   4
  -3  -3  -9 2167.96 122.481   1
   3   3   9 2180.14 82.1736   3
   3   3   9 2140.57 123.649   6
  -3  -3 -10 150.016 56.5462   2
  -3  -3 -10 143.010 60.1939   1
   3   3  10 131.210 40.9875   3
   3   3  10 165.574 69.2300   4
   3   3  10 78.0379 59.4049   6
   3   3  11 341.651 83.0262   4
  -3  -3 -11 306.429 65.8604   2
  -3  -3 -11 285.998 73.9836   1
   3   3  11 229.648 73.3887   6
   3   3  12 572.255 94.4945   4
  -3  -3 -12 410.716 76.8476   2
  -3  -3 -12 566.820 91.4291   1
   3   3  12 534.891 98.9567   6
   3   3  13 2207.70 169.236   4
  -3  -3 -13 2030.38 157.688   1
   3   3  13 2355.82 166.349   6
   3   4 -11 52.3916 67.8981   1
  -3  -4  11 96.4421 60.0972   4
  -3  -4  11 115.448 68.9156   6
   3   4 -10 103.030 54.5274   1
  -3  -4  10 64.6416 56.9741   4
  -3  -4  10 55.8927 53.6767   7
  -3  -4  10 152.181 59.6490   6
   3   4  -9 211.915 59.2617   1
  -3  -4   9 153.180 57.4051   4
  -3  -4   9 134.143 58.6121   7
  -3  -4   9 194.494 55.2864   6
  -3  -4   8 564.856 77.5841   5
  -3  -4   8 492.845 63.5604   7
  -3  -4   8 458.127 50.2752   2
  -3  -4   8 339.619 63.6996   6
   3   4  -8 393.370 58.6087   1
   3   4  -7 934.386 71.2392   1
  -3  -4   7 882.853 59.0864   2
  -3  -4   7 1099.57 90.3961   5
  -3  -4   7 1054.72 80.4974   7
  -3  -4   7 851.604 70.7367   6
  -3  -4   6 35.1754 47.9810   5
   3   4  -6 34.3333 41.4077   2
  -3  -4   6-12.9856 38.3812   7
  -3  -4   6-10.5269 31.6475   2
   3   4  -6-17.3289 32.7915   1
  -3  -4   6 31.8933 33.3519   6
   3   4  -5 6.29641 36.8153   2
  -3  -4   5 98.9423 40.1672   7
  -3  -4   5 91.5416 31.8007   2
   3   4  -5 78.2228 33.5168   1
   3   4  -5 94.2777 34.9977   6
  -3  -4   5 84.7420 33.5555   6
   3   4  -4 868.327 50.9932   1
  -3  -4   4 909.180 52.2811   2
   3   4  -4 883.352 64.2214   9
  -3  -4   4 852.730 63.1328   7
   3   4  -4 900.814 57.9753   6
  -3  -4   4 824.077 51.2605   6
   3   4  -4 795.064 61.6840   2
  -3  -4   3 1903.24 69.4264   2
  -3  -4   3 2086.59 73.4378  11
   3   4  -3 2102.61 82.3755   9
  -3  -4   3 1860.13 85.2482   7
   3   4  -3 2081.57 72.8760   6
  -3  -4   3 1925.89 65.9934   6
   3   4  -3 1872.72 83.7207   2
   3   4  -3 1992.91 64.9953   1
  -3  -4   2 43.7867 22.4212   6
  -3  -4   2 74.6490 23.9173  11
   3   4  -2 47.2798 19.9246   1
   3   4  -2 49.7628 34.2649   2
  -3  -4   2 66.0048 28.7091   2
  -3  -4   2 106.804 38.1945   7
  -3  -4   2 31.7740 23.0555   6
  -3  -4   1 73.5360 20.7516  11
  -3  -4   1 89.5879 47.0686  10
  -3  -4   1 87.1670 25.8827   8
   3   4  -1 96.9693 40.7811   2
  -3  -4   1 56.4985 33.5581   2
  -3  -4   1 67.9161 37.5111   7
   3   4  -1 56.4192 20.2840   1
  -3  -4   1 112.710 23.4682   6
  -3  -4   1 68.6808 22.6914   6
   3   4   0 55.3832 21.9833   6
  -3  -4   0 30.0412 20.8084  11
   3   4   0 60.2939 20.3946   1
  -3  -4   0 67.8479 30.8892   9
  -3  -4   0 38.4834 24.1389   8
   3   4   0 33.9545 42.6789   2
  -3  -4   0 57.5661 34.6974   2
  -3  -4   0 101.685 41.9366   7
   3   4   0 33.4628 19.4208  11
  -3  -4   0 54.4486 20.7552   6
  -3  -4  -1 3192.10 75.0577   1
   3   4   1 3053.70 115.704  10
   3   4   1 3086.45 73.3193   8
  -3  -4  -1 2990.49 119.002   4
  -3  -4  -1 3149.12 68.7417   8
   3   4   1 3146.54 72.9793  11
   3   4   1 3164.39 72.1045   1
  -3  -4  -1 3194.49 73.5659   6
   3   4   1 3182.76 75.9623   6
   3   4   1 3047.77 108.173   2
  -3  -4  -1 3211.40 106.401   2
   3   4   2 12517.3 158.441  11
  -3  -4  -2 11885.9 222.287   4
   3   4   2 12548.3 153.345   8
  -3  -4  -2 12270.9 136.814   8
   3   4   2 12590.4 158.210   1
  -3  -4  -2 12725.5 161.062   6
   3   4   2 12869.1 162.032   6
  -3  -4  -2 12417.2 158.907   1
  -3  -4  -2 12608.3 206.049   2
  -3  -4  -3 3782.08 130.852   4
   3   4   3 3678.65 94.7580   8
   3   4   3 3739.14 134.796   4
   3   4   3 3798.06 98.2471   1
  -3  -4  -3 3518.94 83.5787   8
   3   4   3 3251.80 95.1666  11
  -3  -4  -3 3428.14 93.0770   1
  -3  -4  -3 3705.07 99.9086   6
   3   4   3 3409.00 94.5579   6
  -3  -4  -3 3897.57 121.190   2
   3   4   4-17.3309 33.0144   8
   3   4   4 75.1097 52.0460   4
  -3  -4  -4 47.9109 26.7933   8
  -3  -4  -4 1.37388 39.1418   2
   3   4   4 4.21722 31.4502   1
  -3  -4  -4 15.3828 32.1754   1
  -3  -4  -4-0.57121 34.8079   6
   3   4   4-4.07953 32.4288   6
   3   4   5 3435.23 138.340   4
   3   4   5 3288.22 104.440   8
  -3  -4  -5 3201.36 106.075   1
   3   4   5 3080.10 108.632   6
  -3  -4  -5 3229.52 118.649   2
   3   4   6 5622.00 176.359   4
  -3  -4  -6 5527.53 149.815   1
   3   4   6 5566.76 153.660   6
  -3  -4  -6 5971.94 161.949   2
   3   4   7 6759.26 200.462   4
  -3  -4  -7 6871.69 179.823   1
   3   4   7 5151.33 52.7487   3
   3   4   7 5387.51 52.5706   3
   3   4   7 6957.78 184.204   6
  -3  -4  -7 6485.62 176.656   2
   3   4   8 272.019 71.9594   4
  -3  -4  -8 360.305 61.0029   1
   3   4   8 307.756 24.9783   3
   3   4   8 359.085 64.1611   6
  -3  -4  -8 497.579 64.3571   2
  -3  -4  -9 1284.05 97.4591   1
   3   4   9 1382.57 54.3368   3
   3   4   9 1369.88 103.570   6
  -3  -4  -9 1151.73 89.4859   2
   3   4   9 1406.74 109.288   4
   3   4  10 1890.04 127.949   4
  -3  -4 -10 2000.99 125.359   1
   3   4  10 1796.86 121.220   6
  -3  -4 -10 1945.73 114.873   2
   3   4  11 275.791 80.5311   4
  -3  -4 -11 264.722 64.6354   2
  -3  -4 -11 238.021 71.6110   1
   3   4  11 366.765 80.0316   6
   3   4  12 120.670 76.5021   4
  -3  -4 -12 146.963 61.5890   2
  -3  -4 -12 130.211 69.5676   1
   3   4  12 156.650 82.0741   6
   3   4  13 2123.19 163.732   4
   3   4  13 1896.69 152.561   6
  -3  -5  11 187.410 72.7042   4
   3   5 -11 231.875 80.9919   1
  -3  -5  11 84.6664 68.3027   6
  -3  -5  10 148.745 68.1740   4
   3   5 -10 151.792 67.3516   1
  -3  -5  10 49.4045 59.1151   7
  -3  -5  10 146.958 68.6444   6
  -3  -5   9 99.6515 61.2367   5
  -3  -5   9 98.7853 56.6921   7
  -3  -5   9 87.0148 55.3010   6
   3   5  -9 119.123 58.5134   1
  -3  -5   8 113.924 61.9048   5
  -3  -5   8 201.026 63.0335   7
  -3  -5   8 145.399 45.2330   2
   3   5  -8 22.0612 51.7751   1
  -3  -5   8 210.146 57.7517   6
  -3  -5   7 1.50176 46.4845   7
  -3  -5   7-34.2724 42.8584   2
   3   5  -7 0.76560 41.1389   1
  -3  -5   7 136.328 61.8579   5
  -3  -5   7 14.4128 42.1050   6
  -3  -5   6 2388.97 120.122   5
   3   5  -6 2530.27 106.948   1
  -3  -5   6 2642.77 96.0930   2
  -3  -5   6 2473.54 115.699   7
  -3  -5   6 2567.59 108.786   6
   3   5  -5 390.127 47.4734   1
  -3  -5   5 289.084 45.0768   2
  -3  -5   5 351.170 57.4177   7
  -3  -5   5 318.159 47.4458   6
   3   5  -4 173.722 40.0332   9
   3   5  -4 138.098 33.9529   1
  -3  -5   4 192.659 42.8258   7
  -3  -5   4 158.403 38.1530   2
   3   5  -4 150.660 43.6106   6
  -3  -5   4 158.388 39.5957   6
  -3  -5   3 1191.40 65.6138  11
   3   5  -3 1250.98 61.3359   9
  -3  -5   3 1172.23 76.4330   7
  -3  -5   3 1151.76 62.2146   2
  -3  -5   3 1266.79 62.6494   6
  -3  -5   3 1228.64 66.6283   6
   3   5  -3 1362.80 63.7481   1
  -3  -5   2 1307.89 66.4330   2
  -3  -5   2 1218.14 60.3630  11
  -3  -5   2 1104.30 71.1878   7
  -3  -5   2 1279.80 58.9870   6
   3   5  -2 1177.32 55.9439   1
  -3  -5   2 1211.47 61.4629   6
  -3  -5   1 24676.5 264.028   2
   3   5  -1 26138.3 235.865   1
  -3  -5   1 26503.1 233.659  11
  -3  -5   1 25873.6 190.199   8
  -3  -5   1 25260.3 304.924   7
  -3  -5   1 25354.3 232.123   6
  -3  -5   1 26374.8 238.725   6
   3   5   0 2839.33 83.1349  11
  -3  -5   0 2857.06 62.7065   9
  -3  -5   0 3032.23 81.5512  11
  -3  -5   0 2794.13 54.0769   8
  -3  -5   0 2722.77 103.933   7
  -3  -5   0 3003.45 81.0871   6
   3   5   0 2909.28 78.8841   1
  -3  -5   0 2754.33 96.3565   2
  -3  -5  -1 2487.79 78.0683  11
   3   5   1 2510.69 79.2287  11
  -3  -5  -1 2477.17 78.3341   1
  -3  -5  -1 2467.88 47.1262   8
  -3  -5  -1 2329.87 100.152   7
   3   5   1 2469.66 75.7848   1
  -3  -5  -1 2769.26 80.8144   6
   3   5   1 2521.12 79.9854   6
  -3  -5  -1 2443.35 92.3398   2
   3   5   2 18.8187 26.9864  11
   3   5   2 71.1966 46.2654  10
  -3  -5  -2 25.0246 26.5707   1
   3   5   2 31.8090 21.5705   8
  -3  -5  -2 20.4747 16.9963   8
  -3  -5  -2 14.1542 35.5387   2
   3   5   2-11.2765 26.5778   1
  -3  -5  -2 11.1322 27.1999   6
   3   5   2 22.0864 27.1365   6
   3   5   3 276.144 37.9860  11
   3   5   3 264.681 40.8590   1
  -3  -5  -3 284.903 49.5950   2
   3   5   3 242.714 30.7772   8
  -3  -5  -3 263.690 19.4952   3
  -3  -5  -3 228.550 37.1034   1
  -3  -5  -3 263.848 38.3425   6
   3   5   3 291.023 38.6795   6
   3   5   4 1505.84 76.5189  11
   3   5   4 1552.67 66.6042   8
   3   5   4 1512.82 76.1208   1
  -3  -5  -4 1676.05 77.5732   1
  -3  -5  -4 1443.98 74.5207   6
   3   5   4 1458.51 73.8311   6
  -3  -5  -4 1389.47 83.3900   2
   3   5   5 4735.71 165.492   4
   3   5   5 4794.44 118.442   8
   3   5   5 4695.44 140.062  11
  -3  -5  -5 4868.55 135.044   1
   3   5   5 4626.21 135.068   6
  -3  -5  -5 4653.63 137.766   2
   3   5   6 5773.89 189.480   4
  -3  -5  -6 5739.30 156.749   1
   3   5   6 5939.35 165.921   6
  -3  -5  -6 5969.62 161.017   2
   3   5   7 1793.78 113.665   4
  -3  -5  -7 2045.12 105.355   1
   3   5   7 1891.92 103.179   6
  -3  -5  -7 1790.91 96.8308   2
   3   5   8 1426.79 108.972   4
  -3  -5  -8 1429.17 95.6988   1
   3   5   8 1265.77 94.5376   6
  -3  -5  -8 1465.61 93.9402   2
   3   5   9 99.3927 63.4140   4
  -3  -5  -9-3.36071 46.9912   2
  -3  -5  -9-37.5454 48.7416   1
   3   5   9 15.1853 16.5519   3
   3   5   9 101.963 59.4483   6
   3   5  10 2329.57 145.542   4
  -3  -5 -10 2780.95 141.726   1
   3   5  10 2480.78 137.884   6
  -3  -5 -10 2525.48 122.786   2
   3   5  11 313.849 83.1088   4
  -3  -5 -11 245.756 59.8863   2
  -3  -5 -11 184.244 65.1197   1
   3   5  11 208.040 76.6655   6
   3   5  12 136.538 86.4948   4
  -3  -5 -12 181.121 65.7341   2
  -3  -5 -12 206.542 76.1476   1
   3   5  12 349.325 86.4981   6
   3   5  13 293.908 91.1437   4
  -3  -5 -13 326.059 92.1545   1
   3   5  13 246.876 88.9224   6
  -3  -6  10 93.1730 66.6177   4
  -3  -6  10 111.821 63.7702   7
  -3  -6  10 188.274 72.1764   6
   3   6 -10 190.712 74.6840   1
  -3  -6   9 191.205 73.5748   5
  -3  -6   9 0.33512 56.1965   7
   3   6  -9 58.1266 66.7091   1
  -3  -6   9 55.4619 61.0504   6
  -3  -6   8 6295.83 214.510   5
   3   6  -8 6004.66 192.486   1
  -3  -6   8 6320.99 162.321   2
  -3  -6   8 6524.88 206.664   7
  -3  -6   8 5743.17 188.848   6
  -3  -6   7 1830.81 119.146   5
  -3  -6   7 1907.08 96.7694   2
   3   6  -7 1676.91 102.907   1
  -3  -6   7 1593.49 107.904   7
  -3  -6   7 1762.19 106.887   6
   3   6  -6 1976.78 101.577   1
  -3  -6   6 1742.76 92.6387   2
  -3  -6   6 1864.48 102.054   6
  -3  -6   5 1562.50 85.6753   2
  -3  -6   5 1761.90 101.185   7
  -3  -6   5 1663.48 90.3086   6
   3   6  -5 1724.10 89.3807   1
  -3  -6   4 3599.86 113.508   2
  -3  -6   4 3211.74 97.3182   8
   3   6  -4 3660.54 104.435   9
  -3  -6   4 3618.44 132.619   7
  -3  -6   4 3628.95 119.086   6
   3   6  -4 3613.33 116.422   1
  -3  -6   3 1526.87 83.2151  11
   3   6  -3 1550.71 60.9898   9
  -3  -6   3 1587.04 88.8880   7
  -3  -6   3 1675.92 78.4400   2
  -3  -6   3 1569.82 78.4161   6
  -3  -6   3 1525.89 82.3505   6
   3   6  -3 1539.88 76.6401   1
  -3  -6   2 718.372 60.2656   2
  -3  -6   2 660.375 56.0932  11
   3   6  -2 667.500 56.6291   1
  -3  -6   2 762.442 65.1886   7
  -3  -6   2 651.391 53.1758   6
  -3  -6   2 698.327 58.9076   6
  -3  -6   1 1336.61 72.5945   2
  -3  -6   1 1334.01 67.7280  11
  -3  -6   1 1278.46 38.2815   8
  -3  -6   1 1253.71 33.2116   8
   3   6  -1 1479.03 71.5209   1
  -3  -6   1 1477.71 85.6786   7
  -3  -6   1 1342.30 67.2545   6
  -3  -6   1 1337.67 69.4379   6
  -3  -6   0 9252.30 175.037   2
   3   6   0 9174.99 168.083  11
  -3  -6   0 8726.49 192.956   7
  -3  -6   0 9203.68 164.972   6
  -3  -6   0 9210.20 159.794   6
   3   6   0 8876.72 156.473   1
  -3  -6   0 9052.22 157.604  11
  -3  -6  -1 13671.8 197.300  11
   3   6   1 13834.2 204.332  11
  -3  -6  -1 13736.0 241.055   7
   3   6   1 14110.3 200.117   1
  -3  -6  -1 14138.6 197.107   6
   3   6   1 13919.9 204.862   6
  -3  -6  -1 13524.3 210.810   2
  -3  -6  -2 5050.60 129.129  11
   3   6   2 5200.59 128.965  11
  -3  -6  -2 5207.33 129.320   1
   3   6   2 5131.48 126.021   1
  -3  -6  -2 5135.82 104.779   3
  -3  -6  -2 5414.50 130.352   6
   3   6   2 5516.47 135.213   6
   3   6   3 1455.88 99.1125  10
   3   6   3 1445.66 72.7965  11
   3   6   3 1410.91 72.5616   1
   3   6   3 1466.24 49.1944   8
  -3  -6  -3 1313.82 48.0625   3
  -3  -6  -3 1376.89 72.9436   6
   3   6   3 1422.53 73.0725   6
  -3  -6  -3 1337.56 76.4206   2
  -3  -6  -3 1423.29 75.2750   1
   3   6   4 104.920 37.7124  11
   3   6   4 100.598 26.1850   8
   3   6   4 12.8314 50.7231  10
  -3  -6  -4 90.6172 38.7411   2
  -3  -6  -4 108.707 19.1928   3
  -3  -6  -4 87.8572 36.2812   1
   3   6   4 119.547 37.1289   6
   3   6   5 1023.51 74.0166  11
   3   6   5 907.284 56.1462   8
  -3  -6  -5 938.865 69.8413   1
   3   6   5 1006.73 73.2927   6
  -3  -6  -5 883.293 68.5273   2
   3   6   6 697.625 55.6412   8
   3   6   6 712.197 69.1734  11
  -3  -6  -6 817.061 68.3192   1
   3   6   6 803.017 72.3238   6
  -3  -6  -6 644.613 66.4045   2
   3   6   7 2134.22 113.237  11
   3   6   7 2343.75 133.309   4
  -3  -6  -7 2346.22 115.628   1
   3   6   7 2244.16 113.353   6
  -3  -6  -7 2315.55 114.188   2
   3   6   8 130.776 65.3764   4
  -3  -6  -8 133.953 49.7623   2
   3   6   8 104.163 53.3170  11
   3   6   8 127.897 55.6630   6
  -3  -6  -8 262.740 59.4774   1
   3   6   9 7093.69 226.037  11
   3   6   9 7651.00 242.976   4
  -3  -6  -9 7044.38 209.337   1
   3   6   9 6969.19 217.001   6
  -3  -6  -9 7420.86 195.656   2
   3   6  10-22.7410 60.0426  11
   3   6  10 26.4187 71.4138   4
  -3  -6 -10 210.330 58.6856   2
  -3  -6 -10 16.2064 58.7001   1
   3   6  10 90.9629 64.0094   6
   3   6  11-0.13802 66.9125  11
   3   6  11 27.5782 75.0786   4
  -3  -6 -11 70.9134 60.7387   2
  -3  -6 -11 52.2742 60.4672   1
   3   6  11 63.5978 69.4242   6
   3   6  12 508.872 97.5957  11
   3   6  12 648.891 105.734   4
  -3  -6 -12 604.400 94.2927   1
  -3  -6 -12 450.944 73.5650   2
   3   6  12 550.005 95.0950   6
   3   6  13 948.877 120.870   4
   3   6  13 933.615 128.944  11
  -3  -6 -13 1177.67 122.585   1
   3   6  13 1201.45 135.962   6
  -3  -7   9 787.625 107.896   5
   3   7  -9 861.805 105.120   1
  -3  -7   9 1009.77 107.201   7
  -3  -7   9 908.433 103.174   6
  -3  -7   8 959.416 100.018   5
   3   7  -8 730.902 88.4657   1
  -3  -7   8 765.145 90.7788   7
  -3  -7   8 732.225 87.5199   6
  -3  -7   8 711.654 81.8277   2
  -3  -7   7 1087.77 102.585   5
   3   7  -7 1222.88 100.501   1
  -3  -7   7 1212.63 89.7431   2
  -3  -7   7 1319.72 104.857   7
  -3  -7   7 1202.40 100.840   6
  -3  -7   6 4076.90 145.581   2
  -3  -7   6 4338.70 164.825   7
  -3  -7   6 3884.13 149.370   6
   3   7  -6 4202.36 152.931   1
  -3  -7   5 3873.73 131.188   2
   3   7  -5 4092.64 114.513   9
  -3  -7   5 3513.99 142.072   7
  -3  -7   5 3987.88 144.512   6
   3   7  -5 3840.35 140.177   1
  -3  -7   4 842.102 74.4147   2
   3   7  -4 789.283 52.7936   9
  -3  -7   4 727.223 76.5484   7
  -3  -7   4 790.709 69.6970   6
   3   7  -4 858.224 76.4585   1
  -3  -7   3 3876.34 125.541   2
  -3  -7   3 3971.65 88.6730   8
  -3  -7   3 4226.95 146.750   7
  -3  -7   3 3931.68 130.500   6
   3   7  -3 4025.70 129.929   1
  -3  -7   2 4713.52 134.318   2
  -3  -7   2 4357.62 73.5271   8
  -3  -7   2 4405.53 146.581   7
  -3  -7   2 4586.10 134.697   6
  -3  -7   1 692.210 63.3838   2
  -3  -7   1 737.153 71.9418   7
  -3  -7   0 2805.32 105.832   2
  -3  -7   0 2382.49 96.4724  11
  -3  -7   0 2655.02 115.945   7
  -3  -7   0 2706.22 103.341   6
  -3  -7   0 2405.29 96.6660   6
   3   7   0 2588.40 101.013   1
  -3  -7  -1 4320.51 130.390   2
   3   7   1 4106.94 128.101  11
  -3  -7  -1 4132.23 141.040   7
  -3  -7  -1 4038.02 122.526  11
  -3  -7  -1 3875.50 114.544   3
  -3  -7  -1 3986.52 121.792   6
   3   7   1 4089.03 123.418   1
   3   7   1 4295.14 129.831   6
  -3  -7  -2 1803.38 88.2218   2
   3   7   2 1702.22 89.5225  11
  -3  -7  -2 1698.85 96.4537   7
  -3  -7  -2 1648.68 71.0297   3
   3   7   2 1779.60 90.8006   6
   3   7   3 85.4733 42.3491   6
   3   7   3 113.886 42.0731  11
  -3  -7  -3 116.355 39.8149   1
  -3  -7  -3 99.7071 35.4518   2
  -3  -7  -3 81.2762 28.9098   3
   3   7   3 63.1409 11.4724   8
   3   7   4 6126.38 158.914  11
   3   7   4 6604.21 207.363  10
   3   7   4 6669.49 104.145   8
  -3  -7  -4 6701.59 115.239   3
   3   7   4 6204.64 162.335   6
  -3  -7  -4 6379.72 159.988   2
  -3  -7  -4 6605.15 167.756   1
   3   7   5 4271.51 172.969  10
   3   7   5 4624.25 105.265   8
   3   7   5 4182.62 139.735  11
  -3  -7  -5 4542.31 87.1755   3
   3   7   5 4533.90 146.213   6
  -3  -7  -5 4639.84 147.026   1
  -3  -7  -5 4101.33 133.632   2
   3   7   6 546.865 51.8316   8
  -3  -7  -6 509.565 32.2179   3
   3   7   6 492.191 65.0445  11
   3   7   6 542.002 67.0781   6
  -3  -7  -6 604.739 67.1156   1
  -3  -7  -6 451.157 55.3451   2
   3   7   7 7962.71 213.270  11
  -3  -7  -7 8345.92 215.152   1
   3   7   7 8166.51 213.786   6
  -3  -7  -7 7754.22 190.270   2
   3   7   8 266.870 65.8027  11
  -3  -7  -8 321.278 62.8651   1
  -3  -7  -8 380.608 59.7768   2
   3   7   8 350.813 68.4386   6
   3   7   9 1604.05 119.210  11
   3   7   9 1400.74 116.909   4
  -3  -7  -9 1723.43 115.237   1
   3   7   9 1498.68 113.157   6
  -3  -7  -9 1787.58 99.9792   2
   3   7  10 779.381 97.5905  11
   3   7  10 863.768 110.211   4
  -3  -7 -10 976.584 98.0889   1
   3   7  10 942.315 102.646   6
  -3  -7 -10 841.237 78.0602   2
  -3  -7 -11 74.9557 53.5728   2
   3   7  11-16.6431 70.7727  11
  -3  -7 -11 32.4453 67.3087   1
   3   7  11-34.5814 75.3185   4
   3   7  11-99.3197 77.8141   6
   3   7  12 1089.16 126.003   4
  -3  -7 -12 1185.51 121.749   1
   3   7  12 1167.92 123.521   6
   3   7  12 1015.21 119.898  11
   3   7  13 51.2618 101.515   4
  -3  -8   8 114.171 78.7734   5
  -3  -8   8 124.701 72.5451   7
  -3  -8   8 250.024 65.2506   2
   3   8  -8 120.626 67.4237   1
  -3  -8   8 153.362 69.6812   6
  -3  -8   7 271.733 74.3418   5
  -3  -8   7 157.839 69.2197   7
   3   8  -7 97.1923 64.4845   1
  -3  -8   7 100.824 63.6808   2
  -3  -8   7 239.993 70.0939   6
  -3  -8   6 1144.28 96.0144   2
  -3  -8   6 1083.20 101.765   7
  -3  -8   6 1221.81 99.4464   6
   3   8  -6 1094.08 95.5485   1
   3   8  -5 41.7268 48.5474   1
  -3  -8   5 29.7340 55.2194   7
  -3  -8   5 2.94680 51.4405   2
  -3  -8   5 22.8313 49.9756   6
  -3  -8   4 1075.17 84.5668   2
  -3  -8   4 799.550 83.1566   7
  -3  -8   4 1060.93 84.9620   6
   3   8  -4 1001.72 82.7814   1
  -3  -8   3 38181.4 403.185   2
  -3  -8   3 37111.0 442.743   7
  -3  -8   3 36861.0 420.780   6
   3   8  -3 37718.2 418.540   1
  -3  -8   2 350.233 60.2582   7
  -3  -8   2 265.257 57.0829   2
  -3  -8   2 435.054 62.9480   6
  -3  -8   1 4564.35 155.402   7
  -3  -8   1 4271.97 143.050   6
  -3  -8   1 4348.04 138.714   2
  -3  -8   0 848.542 74.3758   2
  -3  -8   0 895.571 78.5405   7
  -3  -8   0 803.491 72.7962   6
   3   8   1 39.6265 43.0924  11
  -3  -8  -1 86.0703 49.4073   7
  -3  -8  -1 103.599 45.3201   2
  -3  -8  -1 147.117 52.2676   6
  -3  -8  -2 1420.23 86.6245   2
   3   8   2 1439.03 90.9604  11
  -3  -8  -2 1509.86 95.7950   7
  -3  -8  -2 1216.37 70.5646   3
   3   8   2 1442.02 90.5712   6
  -3  -8  -3 411.838 58.5007   2
   3   8   3 414.073 59.0518  11
  -3  -8  -3 389.249 60.6706   1
  -3  -8  -3 341.491 62.6903   7
  -3  -8  -3 325.307 41.8189   3
   3   8   3 344.185 60.4890   6
  -3  -8  -4 5230.65 150.214   2
   3   8   4 5379.97 162.205  11
  -3  -8  -4 5306.69 165.250   1
  -3  -8  -4 5272.88 119.816   3
   3   8   4 5216.53 164.043   6
  -3  -8  -5 31155.2 397.734   1
   3   8   5 30823.5 390.646  11
   3   8   5 29688.0 463.340  10
   3   8   5 31018.1 242.816   8
  -3  -8  -5 31038.2 272.437   3
   3   8   5 30663.6 397.539   6
  -3  -8  -5 29359.3 353.677   2
   3   8   6 36911.6 520.241  10
   3   8   6 36917.8 441.386  11
   3   8   6 37160.6 314.844   8
   3   8   6 37257.0 447.384   6
  -3  -8  -6 36952.1 443.449   1
  -3  -8  -6 36710.6 398.645   2
   3   8   7 3528.39 147.701  11
   3   8   7 3150.77 166.565  10
   3   8   7 3497.33 147.971   6
  -3  -8  -7 3477.83 148.663   1
  -3  -8  -7 3413.74 128.090   2
   3   8   8 45.3318 55.4963  11
  -3  -8  -8 2.22198 43.5991   2
  -3  -8  -8 5.48078 54.9593   1
   3   8   8 37.0294 56.9325   6
   3   8   9 942.854 100.284  11
   3   8   9 820.721 93.8444   6
  -3  -8  -9 935.920 96.3478   1
  -3  -8  -9 862.881 77.3768   2
   3   8  10 154.814 77.0810  11
  -3  -8 -10 86.8026 67.4675   1
  -3  -8 -10-88.7396 49.8387   2
   3   8  10-43.1853 67.2343   6
  -3  -8 -11 1190.70 116.101   1
   3   8  11 794.058 104.135   6
   3   8  11 1139.31 121.919  11
  -3  -8 -11 1131.94 89.5906   2
   3   8  12 498.210 104.177  11
  -3  -8 -12 562.063 96.7091   1
   3   8  12 604.888 104.389   6
  -3  -9   7 28.9955 68.5201   5
  -3  -9   7 140.692 76.3868   7
   3   9  -7 24.5980 63.8287   1
  -3  -9   7-40.4249 62.7124   2
  -3  -9   7-3.91030 59.5729   6
  -3  -9   6 1065.29 96.7524   2
  -3  -9   6 1220.66 108.666   7
  -3  -9   6 1258.45 111.539   6
   3   9  -6 1194.88 109.380   1
  -3  -9   5 461.126 73.5787   7
  -3  -9   5 464.840 80.7132   6
  -3  -9   5 253.854 69.1168   2
   3   9  -5 457.130 78.7407   1
  -3  -9   4 2639.97 125.456   2
  -3  -9   4 2797.07 139.883   7
  -3  -9   4 2542.40 132.785   6
   3   9  -4 2771.18 136.697   1
  -3  -9   3 3258.66 136.297   2
  -3  -9   3 3107.63 145.735   7
  -3  -9   3 3294.86 144.192   6
   3   9  -3 3279.32 140.593   1
  -3  -9   2-59.3365 53.6860   7
  -3  -9   2 38.3247 48.7200   2
  -3  -9   2 40.0293 52.8088   6
  -3  -9   1-21.2590 51.6338   7
  -3  -9   1-9.99248 51.8111   2
  -3  -9   1-35.3972 46.4774   6
  -3  -9   0-31.9167 51.0985   7
  -3  -9   0 20.2630 47.6777   2
  -3  -9   0-12.9157 49.0285   6
  -3  -9  -1 855.181 76.1779   2
  -3  -9  -1 800.897 80.8776   7
  -3  -9  -1 696.915 74.6645   6
  -3  -9  -2 644.029 70.2244   2
   3   9   2 697.655 78.4274  11
  -3  -9  -2 747.680 79.0137   7
   3   9   2 731.209 78.2801   6
  -3  -9  -3 17712.4 281.544   2
  -3  -9  -3 17224.7 311.554   7
   3   9   3 17429.5 312.415  11
   3   9   3 17948.6 317.622   6
  -3  -9  -4 717.119 70.8582   2
   3   9   4 661.000 77.3693  11
  -3  -9  -4 801.755 82.7152   1
  -3  -9  -4 728.251 78.8438   7
   3   9   4 643.311 73.7786   6
   3   9   5 60.6636 51.1006   6
   3   9   5 64.2112 50.0208  11
  -3  -9  -5 7.29886 48.1839   1
  -3  -9  -5 88.2406 51.6639   2
   3   9   6 114.475 54.8704   6
   3   9   6 41.4556 49.6768  11
   3   9   6 129.981 77.1921  10
  -3  -9  -6 70.2318 45.4847   2
  -3  -9  -6 171.538 61.3337   1
   3   9   7 266.048 69.8627  11
   3   9   7 195.725 76.1278  10
  -3  -9  -7 171.971 61.5351   1
  -3  -9  -7 206.959 54.8550   2
   3   9   7 185.131 61.0748   6
   3   9   8 164.190 63.7874  11
   3   9   8 324.732 88.2147  10
  -3  -9  -8 342.746 57.4651   2
  -3  -9  -8 285.929 70.1516   1
   3   9   8 332.254 74.6266   6
  -3  -9  -9 481.372 66.5632   2
   3   9   9 472.227 88.9730  11
   3   9   9 526.935 104.164  10
   3   9   9 464.910 87.1859   6
  -3  -9  -9 558.963 89.8341   1
   3   9  10-30.8038 70.6471  11
  -3  -9 -10-59.3203 52.5927   2
  -3  -9 -10 130.860 71.5485   1
   3   9  10 52.1919 70.9742   6
   3   9  11 55.3928 83.2680  11
  -3  -9 -11 42.1415 53.9476   2
  -3  -9 -11 77.2423 78.1536   1
   3   9  11 43.5975 76.5057   6
  -3 -10   6 2900.16 154.514   2
  -3 -10   6 2859.24 160.725   7
  -3 -10   6 2766.14 161.101   6
   3  10  -6 2628.51 157.350   1
   3  10  -5 110.183 67.4860   1
  -3 -10   5 175.900 72.3532   7
  -3 -10   5 15.8358 62.4775   2
  -3 -10   5 116.111 71.4022   6
   3  10  -4 216.282 68.2036   1
  -3 -10   4 127.573 61.0739   7
  -3 -10   4 132.405 67.9641   2
  -3 -10   4 128.812 70.2082   6
   3  10  -3 238.064 66.9925   1
  -3 -10   3 140.789 63.7678   7
  -3 -10   3 111.057 61.6474   2
  -3 -10   3 217.913 73.6475   6
  -3 -10   2 725.586 84.9935   2
  -3 -10   2 750.167 85.5408   7
  -3 -10   2 932.727 92.6390   6
  -3 -10   1 1427.57 102.854   2
  -3 -10   1 1477.73 109.364   7
  -3 -10   1 1529.47 111.061   6
  -3 -10   0 1346.06 97.6931   2
  -3 -10   0 1094.54 94.4991   7
  -3 -10   0 1405.27 103.953   6
  -3 -10  -1 167.630 61.5967   7
  -3 -10  -1 172.167 60.1200   2
  -3 -10  -1 199.481 63.7120   6
  -3 -10  -2 3573.70 141.652   2
  -3 -10  -2 3193.17 148.413   7
   3  10   2 3288.88 154.331  11
  -3 -10  -2 3520.99 159.853   6
   3  10   3 30.5901 60.0656   6
   3  10   3-2.01439 56.9032  11
  -3 -10  -3 3.72986 55.0522   7
  -3 -10  -3 24.8565 51.4099   2
  -3 -10  -4 4378.09 153.720   2
   3  10   4 4142.24 170.019  11
  -3 -10  -4 3963.22 165.011   7
   3  10   4 4091.06 171.663   6
   3  10   5 157.791 66.1588   6
   3  10   5 189.570 67.4643  11
  -3 -10  -5 321.521 74.9601   7
  -3 -10  -5 201.111 53.7241   2
  -3 -10  -5 263.089 69.4862   1
  -3 -10  -6 1694.38 102.932   2
   3  10   6 1744.42 121.489  11
  -3 -10  -6 1687.16 121.300   1
   3  10   6 1562.66 122.525   6
   3  10   7-10.4434 61.9411   6
   3  10   7-47.6235 62.4365  11
  -3 -10  -7 38.3671 49.8519   2
  -3 -10  -7 17.4407 60.7141   1
   3  10   8 262.597 79.1350   6
   3  10   8 309.505 81.8178  11
   3  10   8 228.837 91.2153  10
  -3 -10  -8 396.607 82.2754   1
  -3 -10  -8 273.750 61.3189   2
  -3 -10  -9 915.494 85.7918   2
   3  10   9 923.497 112.981  11
   3  10   9 787.273 117.068  10
   3  10   9 824.040 108.059   6
  -3 -10  -9 930.398 107.278   1
  -3 -10 -10 950.497 89.0503   2
   3  10  10 694.956 104.012  11
   3  10  10 1005.36 130.428  10
   3  10  10 910.431 115.385   6
  -3 -10 -10 1118.05 121.529   1
  -3 -10 -11 2368.66 124.479   2
   3  10  11 2314.82 167.746  11
   3  10  11 2339.82 191.235  10
   3  10  11 2488.52 171.983   6
  -3 -10 -11 2502.74 169.139   1
  -3 -11   4 764.705 103.796   2
  -3 -11   4 671.972 93.9702   7
  -3 -11   4 804.536 103.122   6
   3  11  -4 761.639 102.186   1
   3  11  -3 262.959 76.9958   1
  -3 -11   3 210.050 68.6535   7
  -3 -11   3 99.9138 70.2382   2
  -3 -11   3 182.650 71.7815   6
   3  11  -2 1.85316 62.4774   1
  -3 -11   2 10.2931 62.8302   7
  -3 -11   2 63.4485 66.0465   2
  -3 -11   2 216.588 73.0772   6
  -3 -11   1 175.239 68.7144   7
  -3 -11   1 97.9516 63.7969   2
  -3 -11   1 179.066 67.0584   6
  -3 -11   0 24.8811 59.8825   7
  -3 -11   0 9.34689 63.5769   2
  -3 -11   0 28.8663 66.1583   6
  -3 -11  -1 124.828 57.3376   7
  -3 -11  -1 186.368 64.4646   2
  -3 -11  -1 102.397 64.0649   6
  -3 -11  -2 4040.83 161.430   2
  -3 -11  -2 3954.34 165.382   7
  -3 -11  -2 4097.92 180.823   6
  -3 -11  -3 671.739 80.3217   2
   3  11   3 752.171 98.1582  11
  -3 -11  -3 548.172 82.1406   7
  -3 -11  -4 997.550 91.8782   2
   3  11   4 898.991 105.350  11
  -3 -11  -4 851.353 96.0805   7
   3  11   4 959.296 106.939   6
   3  11   5 410.444 85.9296   6
   3  11   5 427.511 78.4398  11
  -3 -11  -5 248.937 71.8761   7
  -3 -11  -5 480.269 71.8064   2
   3  11   6 267.160 84.9310   6
   3  11   6 75.6803 68.4139  11
  -3 -11  -6 207.948 72.0411   7
  -3 -11  -6 88.8639 61.2100   2
  -3 -11  -6 156.759 74.6331   1
   3  11   7 3.85854 70.9877   6
   3  11   7 156.295 74.9030  11
  -3 -11  -7 74.7998 62.4616   2
  -3 -11  -7 99.6208 71.6370   1
   3  11   8 18.4609 73.4288   6
   3  11   8-42.8467 71.3518  11
  -3 -11  -8 188.778 82.9440   1
  -3 -11  -8 94.8151 63.8958   2
   3  11   9 273.819 88.1742   6
   3  11   9 407.885 98.4470  11
  -3 -11  -9 284.944 70.9925   2
  -3 -11  -9 185.261 80.2416   1
  -3 -11 -10 3154.12 189.252   1
  -3 -11 -10 3168.59 145.599   2
   3  11  10 3125.11 187.056  11
   3  11  10 3092.90 207.941  10
   3  11  10 3261.07 191.679   6
   3  12  -2 59.2366 71.3624   1
  -3 -12   2 23.9640 69.2230   7
  -3 -12   2-3.49057 76.9908   2
  -3 -12   2-24.2349 76.7163   6
  -3 -12   1 327.617 81.4108   7
  -3 -12   1 256.691 79.3878   2
  -3 -12   1 326.179 88.7735   6
  -3 -12   0 165.134 68.4361   7
  -3 -12   0 97.0447 67.3485   2
  -3 -12   0 148.862 75.0067   6
  -3 -12  -1 180.706 72.7300   7
  -3 -12  -1 213.453 72.2128   2
  -3 -12  -1 237.827 88.8534   6
  -3 -12  -2 34.0128 67.9857   7
  -3 -12  -2 61.0943 68.8238   2
   3  12   3 872.133 110.475  11
  -3 -12  -3 931.107 96.6505   2
  -3 -12  -3 1136.83 106.975   7
  -3 -12  -3 930.676 109.851   6
   3  12   4-88.2467 71.7625   6
   3  12   4 126.851 78.6847  11
  -3 -12  -4-60.6965 70.1482   7
  -3 -12  -4 1.25835 59.3303   2
   3  12   5 222.299 91.4317   6
  -3 -12  -5 412.455 80.3185   2
   3  12   5 265.804 94.1870  11
  -3 -12  -5 425.801 80.9904   7
   3  12   6 217.219 86.3081   6
   3  12   6 294.437 88.9924  11
  -3 -12  -6 284.238 80.7486   7
  -3 -12  -6 145.526 69.1075   2
   3  12   7 223.843 90.4946   6
   3  12   7 447.678 97.4368  11
  -3 -12  -7 214.407 84.1242   7
  -3 -12  -7 206.439 71.7019   2
   3  12   8 21.5296 82.3514  11
  -3 -12  -8-29.8950 73.3058   7
  -3 -12  -8 8.80890 66.4739   2
  -3 -12  -8-69.2447 81.6005   1
  -3 -13  -2 621.403 97.7931   7
  -3 -13  -2 645.347 110.502   6
  -3 -13  -3 45.9508 66.9302   7
  -3 -13  -3 181.069 81.8703   2
  -3 -13  -3 37.0076 79.8761   6
   3  13   4 59.5878 89.5422  11
  -3 -13  -4-86.3629 72.8315   7
  -3 -13  -4 51.7888 70.1231   2
  -3 -13  -4-37.7842 90.4150   6
   3  13   5 532.896 106.368   6
   3  13   5 858.424 123.450  11
  -3 -13  -5 630.904 98.1497   2
  -3 -13  -5 651.304 100.578   7
  -4   9   6-21.0438 75.9099   8
   4  -9  -6 25.3254 89.7252   6
  -4   9   5 209.510 89.4303   8
   4  -9  -5 238.018 74.7594   2
  -4   9   5 274.575 89.8779   3
   4  -9  -5 313.717 104.786   6
  -4   9   4 164.002 79.2830   8
   4  -9  -4 100.756 76.9284   2
  -4   9   4 108.291 90.2741   3
   4  -9  -4 77.0027 86.1416   6
  -4   9   3 101.511 75.0689   8
   4  -9  -3 81.5575 71.8298   2
  -4   9   3 50.2528 74.1335   3
   4  -9  -3-29.3562 86.1538   6
  -4   9   2 75.7351 72.0690   8
   4  -9  -2-27.9999 72.9835   2
  -4   9   2 202.417 89.2520   3
   4  -9  -2-31.3225 85.7949   6
  -4   9   1 74.6603 78.2524   8
   4  -9  -1 115.319 76.0954   2
   4  -9  -1 119.730 95.5495   6
  -4   9   0-19.7370 62.3391   8
   4  -9   0-122.044 79.5144   2
   4  -9   0-135.659 95.3708   6
  -4   8   8 175.412 85.6415   6
  -4   8   8 235.798 87.4681  11
  -4   8   8 95.8529 84.3730   8
  -4   8   8-42.8109 77.0152   3
  -4   8   7 39.9155 77.9787   6
  -4   8   7 174.653 83.7162  11
  -4   8   7 42.3756 81.1951   8
  -4   8   7 113.948 79.4333   3
  -4   8   6 369.567 88.0651  11
  -4   8   6 551.766 97.0365   8
   4  -8  -6 594.796 78.3136   2
  -4   8   6 551.258 95.8295   3
   4  -8  -6 611.028 108.535   6
  -4   8   5 112.849 77.3650   8
   4  -8  -5 82.5626 61.5238   2
  -4   8   5 63.2800 76.1878   3
   4  -8  -5 64.7264 77.2059   6
  -4   8   4 4499.10 198.474   8
   4  -8  -4 4578.38 215.096   6
  -4   8   4 4667.39 201.683   3
  -4   8   3 1962.69 137.126   8
   4  -8  -3 1679.46 121.488   2
   4  -8  -3 2078.87 153.152   6
  -4   8   3 1914.41 137.766   3
   4  -8  -2 446.817 89.2254   2
  -4   8   2 370.427 84.8496   8
  -4   8   2 466.802 89.9278   3
   4  -8  -2 532.583 97.3408   6
  -4   8   1 2668.90 149.437   8
   4  -8  -1 2930.02 177.428   6
  -4   8   1 3015.80 172.677   3
  -4   8   0 505.207 85.1292   8
   4  -8   0 225.788 79.6119   2
   4  -8   0 334.450 92.8752   6
  -4   8  -1-5.28030 70.4392   1
   4  -8   1-52.5552 56.3683   4
  -4   8  -1-30.5637 69.7686   8
   4  -8   1 11.7036 69.6459   2
   4  -8   1 149.228 83.8662   6
   4  -8   2 106.483 62.9740   4
  -4   8  -2 237.538 83.0926   1
  -4   8  -2 64.9013 69.7831   8
   4  -8   2 117.684 85.0928   2
   4  -8   2 147.675 90.1015   6
   4  -8   3 1376.85 114.950   4
  -4   8  -3 1189.27 112.754   8
   4  -8   3 1354.80 147.968   6
  -4   8  -3 1186.14 135.510   1
  -4   7   9 245.524 86.4998   6
  -4   7   9 107.600 74.8760  11
   4  -7  -9 109.181 106.754   9
  -4   7   9 198.103 87.9263   8
  -4   7   9 113.653 85.7329   3
  -4   7   8 378.736 83.9052  11
  -4   7   8 397.984 94.4205   8
  -4   7   8 461.861 96.0039   3
  -4   7   8 587.278 97.5161   6
  -4   7   7 5728.68 221.355  11
  -4   7   7 5782.37 230.819   8
  -4   7   7 6069.05 226.441   3
  -4   7   7 5619.72 222.905   6
  -4   7   6 485.896 87.5105   6
  -4   7   6 680.474 95.0414  11
  -4   7   6 720.276 104.059   8
  -4   7   6 695.628 93.1783   3
  -4   7   5 39.1890 63.8549  11
  -4   7   5-62.4850 71.3266   8
   4  -7  -5-24.7153 47.2153   2
  -4   7   5 22.4769 59.9982   3
   4  -7  -5 188.865 79.7354   6
  -4   7   4 112.490 67.7451   8
   4  -7  -4-14.8267 51.6690   2
  -4   7   4 51.4126 60.4480   3
   4  -7  -4 36.7982 67.5550   6
  -4   7   3 30.1231 63.8714   8
   4  -7  -3 10.9725 55.3904   2
  -4   7   3 41.8477 63.7723   3
   4  -7  -3 31.9230 68.8230   6
  -4   7   2 61.8234 60.7106   8
   4  -7  -2 206.939 64.6419   2
  -4   7   2 129.310 61.6633   3
   4  -7  -2 97.7266 73.3956   6
   4  -7  -1 465.142 58.4881   4
  -4   7   1 428.245 78.9180   8
   4  -7  -1 534.826 94.9124   6
   4  -7  -1 408.981 73.7086   2
  -4   7   1 414.492 83.0376   3
   4  -7   0 63.4427 45.9439   4
  -4   7   0 111.943 59.4026   8
   4  -7   0 32.2613 57.9976   2
  -4   7   0 63.9239 67.8778   3
   4  -7   0 67.5341 68.2834   6
   4  -7   1 1023.17 84.6242   4
  -4   7  -1 1037.69 101.122   8
   4  -7   1 930.416 100.664   2
   4  -7   1 828.214 110.311   6
  -4   7  -1 1052.39 105.958   1
   4  -7   2 138.863 62.6841   4
  -4   7  -2 251.711 78.6425   1
  -4   7  -2 209.188 65.3753   8
   4  -7   2 209.294 78.4644   2
   4  -7   2 66.4292 72.4607   6
   4  -7   3-35.2431 62.8319   4
  -4   7  -3 98.0580 64.4972   8
  -4   7  -3 24.5867 69.4311   1
   4  -7   3 45.2002 79.9235   6
   4  -7   4 950.551 99.0689   4
  -4   7  -4 972.383 103.213   8
   4  -7   4 917.667 124.805   6
  -4   7  -4 1025.23 120.211   1
   4  -7   5 66.7438 71.7145   4
  -4   7  -5 299.322 82.4127   8
  -4   7  -5 157.091 80.5698   1
   4  -7   5 71.0518 96.9175   6
  -4   6  10 2537.50 155.060  11
   4  -6 -10 2506.24 164.839   1
   4  -6 -10 2951.35 212.366   9
  -4   6  10 2670.40 170.464   3
  -4   6  10 2718.94 160.423   6
  -4   6   9 1930.79 139.586  11
   4  -6  -9 1702.50 167.223   9
  -4   6   9 2327.73 163.579   8
   4  -6  -9 2064.15 145.928   1
  -4   6   9 2014.41 149.562   3
  -4   6   9 2180.09 148.843   6
  -4   6   8 58.7884 61.7264   6
  -4   6   8 54.9797 60.2127  11
   4  -6  -8 36.9434 88.7175   9
  -4   6   8 5.06383 76.5174   8
  -4   6   8 135.668 78.6760   3
  -4   6   7 10149.2 269.725  11
  -4   6   7 9905.14 292.730   8
  -4   6   7 10072.4 272.776   6
  -4   6   6 1625.31 116.550  11
  -4   6   6 1432.97 125.434   8
  -4   6   6 1536.25 120.282   3
  -4   6   6 1357.66 107.937   6
  -4   6   5 3366.77 158.930  11
  -4   6   5 3081.38 161.048   8
  -4   6   5 3502.77 163.338   3
  -4   6   4 647.521 86.2636  11
  -4   6   4 542.923 88.1796   8
   4  -6  -4 670.620 71.1307   2
   4  -6  -4 782.843 93.1360   6
  -4   6   4 565.909 80.3366   3
  -4   6   3 925.316 95.3722   8
   4  -6  -3 919.318 82.1732   2
   4  -6  -3 1181.12 103.156   6
  -4   6   3 1122.17 101.811   3
   4  -6  -2 102.977 38.7880   4
  -4   6   2 132.060 64.3870   8
   4  -6  -2 82.1268 48.7794   2
  -4   6   2 190.494 63.1924   3
   4  -6  -2 114.252 66.1912   6
   4  -6  -1 61.6694 36.6543   4
  -4   6   1 98.9912 56.7025   8
   4  -6  -1 101.224 53.8800   2
  -4   6   1 116.981 61.9999   3
   4  -6  -1 109.225 59.8835   6
   4  -6   0 8326.35 185.515   4
  -4   6   0 8543.63 239.009   8
   4  -6   0 8160.88 226.723   2
   4  -6   0 8480.07 249.423   6
  -4   6   0 8562.37 242.011   3
   4  -6   1 8356.23 198.639   4
   4  -6   1 8918.49 261.082   6
  -4   6  -1 9050.36 249.689   1
   4  -6   2 6289.35 184.198   4
   4  -6   2 6426.40 231.440   6
  -4   6  -2 6381.21 220.250   1
   4  -6   3 484.342 73.8312   4
  -4   6  -3 495.057 77.8345   8
  -4   6  -3 466.749 83.6057   1
   4  -6   3 383.305 87.8694   6
   4  -6   4 126.344 65.8671   4
  -4   6  -4 152.008 63.4266   8
  -4   6  -4 219.613 79.2583   1
   4  -6   4 77.7203 80.4325   6
   4  -6   5-3.01307 61.9663   4
  -4   6  -5 280.126 75.4090   8
  -4   6  -5 7.34183 72.6876   1
   4  -6   5 171.266 88.5760   6
   4  -6   6 173.758 76.4545   4
  -4   6  -6 189.161 72.3331   8
  -4   6  -6 60.7117 73.6413   1
   4  -6   6 142.586 88.5799   6
   4  -5 -11 2493.44 156.431   1
  -4   5  11 2094.12 136.734  11
  -4   5  11 2193.51 157.738   3
  -4   5  11 2252.39 143.779   6
   4  -5 -11 2165.28 192.025   9
  -4   5  10 3.81224 60.0763   6
  -4   5  10-5.94224 55.4624  11
   4  -5 -10-97.5123 110.221   9
  -4   5  10-31.6329 67.8727   3
   4  -5 -10 53.8236 71.5070   1
  -4   5   9 653.075 84.0215  11
   4  -5  -9 594.723 90.5227   1
  -4   5   9 630.981 101.217   3
   4  -5  -9 560.166 120.476   9
  -4   5   9 657.306 87.9781   6
  -4   5   8 13732.3 294.823  11
   4  -5  -8 13790.8 306.771   1
   4  -5  -8 13001.5 370.763   9
  -4   5   8 13984.6 332.806   3
  -4   5   8 14156.4 305.107   6
  -4   5   7 279.739 68.6583   6
  -4   5   7 249.329 64.3786  11
   4  -5  -7 268.150 91.6532   9
  -4   5   7 264.271 79.9919   8
  -4   5   7 304.460 73.3152   3
  -4   5   6 111.544 58.3809   6
  -4   5   6 176.406 57.1358  11
  -4   5   6 54.6775 55.6558   3
  -4   5   6 31.8683 60.4703   8
  -4   5   5 1548.03 103.149  11
  -4   5   5 1423.67 116.519   8
  -4   5   5 1601.12 116.047   3
  -4   5   5 1553.93 104.638   6
  -4   5   4 709.601 79.2407  11
   4  -5  -4 745.910 82.5322   6
  -4   5   4 682.662 84.0132   8
  -4   5   4 617.217 77.6783   3
   4  -5  -3 839.355 38.7334   4
  -4   5   3 1051.80 94.1027   8
   4  -5  -3 1031.38 92.4939   6
  -4   5   3 1084.94 92.5356   3
   4  -5  -2 992.638 57.7911   4
  -4   5   2 944.652 90.5372   8
   4  -5  -2 935.392 79.0958   2
   4  -5  -2 1053.70 92.6858   6
  -4   5   2 932.842 84.5032   3
   4  -5  -1-17.1559 34.7765   4
  -4   5   1-36.5199 56.1001   8
   4  -5  -1 42.1634 45.3335   2
  -4   5   1 28.2267 50.3843   3
   4  -5  -1-58.1527 50.9068   6
   4  -5   0 4623.74 133.438   4
  -4   5   0 4601.06 174.660   8
   4  -5   0 4721.92 176.408   6
  -4   5   0 4861.06 171.524   3
  -4   5  -1 16987.5 319.368   8
   4  -5   1 16666.0 330.311   6
  -4   5  -1 16551.4 313.161   3
   4  -5   1 16272.7 259.451   4
  -4   5  -1 16491.5 311.532   1
   4  -5   2 2879.34 124.886   4
  -4   5  -2 2923.95 140.888   8
   4  -5   2 3003.86 151.671   6
  -4   5  -2 2842.22 140.030   1
  -4   5  -3 516.341 76.8990   8
   4  -5   3 258.224 59.4536   4
  -4   5  -3 353.678 74.0466   1
   4  -5   3 427.526 83.0412   6
   4  -5   4 8859.70 232.470   4
  -4   5  -4 8898.07 238.432   8
   4  -5   4 8923.45 267.200   6
  -4   5  -4 8541.20 253.994   1
   4  -5   5 517.734 79.9215   4
  -4   5  -5 592.792 82.3565   8
   4  -5   5 569.189 92.2761   6
  -4   5  -5 679.788 92.0335   1
   4  -5   6 1058.71 104.291   4
  -4   5  -6 1193.85 105.997   8
   4  -5   6 1043.80 124.138   6
  -4   5  -6 914.788 111.507   1
   4  -5   7-21.9691 71.8934   4
  -4   5  -7 4.67704 64.9462   8
  -4   5  -7 96.5606 70.4595   1
   4  -5   7 152.679 94.7640   6
  -4   4  11 870.084 92.9080  11
   4  -4 -11 757.180 137.687   9
  -4   4  11 782.534 108.607   3
  -4   4  11 830.062 98.0363   6
   4  -4 -11 927.509 103.608   1
   4  -4 -10 1539.70 155.682   9
  -4   4  10 1680.42 137.167   3
  -4   4  10 1531.29 111.363  11
  -4   4  10 1895.46 124.057   6
   4  -4 -10 1549.40 120.814   1
  -4   4   9 436.783 73.3894   6
   4  -4  -9 580.016 80.0703   1
  -4   4   9 553.192 75.2458  11
   4  -4  -9 526.259 112.445   9
  -4   4   9 437.036 91.1312   3
  -4   4   8-16.2600 48.1643   6
   4  -4  -8-14.9932 51.9578   1
  -4   4   8 21.1323 47.2336  11
   4  -4  -8 39.4157 87.6100   9
  -4   4   8 78.1497 64.0809   3
  -4   4   7 1183.91 92.8883  11
   4  -4  -7 1320.37 96.2455   1
   4  -4  -7 1154.59 126.696   9
  -4   4   7 992.365 98.6767   3
  -4   4   7 1194.05 93.3416   6
  -4   4   6 44.0975 49.9844   6
  -4   4   6 11.7520 48.7083  11
   4  -4  -6-6.46817 72.4927   9
  -4   4   6-29.0757 58.4359   8
  -4   4   6 26.8070 54.0274   3
  -4   4   5 568.772 68.0396  11
  -4   4   5 412.769 73.4592   8
  -4   4   5 556.700 76.7258   3
  -4   4   5 555.403 67.4586   6
  -4   4   4 644.167 71.2077  11
  -4   4   4 498.494 77.4238   8
  -4   4   4 527.014 71.9584   3
  -4   4   4 561.200 68.2593   6
  -4   4   3 923.987 93.2802   8
   4  -4  -3 1079.27 85.5143   6
  -4   4   3 1093.79 92.0878   3
   4  -4  -2 20662.7 212.292   4
  -4   4   2 21212.2 350.178   8
   4  -4  -2 21154.0 324.761   6
  -4   4   2 21411.0 329.554   3
   4  -4  -1 629.320 51.8990   4
  -4   4   1 687.413 80.4029   8
   4  -4  -1 742.747 73.9736   6
  -4   4   1 771.302 75.4367   3
   4  -4   0 709.817 59.5220   4
  -4   4   0 597.173 74.8305   8
  -4   4   0 554.330 33.7186   7
   4  -4   0 616.465 73.1089   6
  -4   4   0 681.805 70.4778   3
  -4   4  -1 689.496 74.5656   8
  -4   4  -1 682.282 46.8286   7
   4  -4   1 780.320 82.7739   6
  -4   4  -1 800.919 76.5024   3
  -4   4  -1 741.357 75.0613   1
   4  -4   1 692.586 63.6164   4
   4  -4   2 77.3789 43.3783   4
  -4   4  -2 50.9937 47.7817   1
  -4   4  -2 141.712 56.2178   8
  -4   4  -2 104.008 51.1492   3
   4  -4   2 110.363 60.1975   6
   4  -4   3 4436.65 152.325   4
  -4   4  -3 4837.29 169.979   8
   4  -4   3 4384.95 173.655   6
  -4   4  -3 4588.60 169.988   1
   4  -4   4 60.2432 50.7701   4
  -4   4  -4 72.3539 52.5183   8
  -4   4  -4 127.949 58.7283   1
   4  -4   4 91.9436 62.8067   6
   4  -4   5-7.69495 57.5107   4
  -4   4  -5 14.1138 53.5697   8
  -4   4  -5-31.4668 60.9318   1
   4  -4   5 33.3138 67.1981   6
   4  -4   6 1566.52 116.894   4
  -4   4  -6 1852.16 124.036   8
   4  -4   6 1814.63 138.144   6
  -4   4  -6 1704.65 125.698   1
  -4   4  -7 805.947 103.665   1
  -4   4  -7 860.617 99.1988   8
   4  -4   7 802.652 99.4719   4
   4  -4   7 878.335 114.722   6
  -4   4  -8 561.898 106.147   1
  -4   4  -8 604.279 96.6024   8
   4  -4   8 424.051 94.6173   4
   4  -4   8 647.854 112.492   6
  -4   3  12 137.749 64.9443  11
  -4   3  12 298.340 92.2612   3
   4  -3 -12 153.232 76.1882   1
  -4   3  12 246.371 70.3455   6
   4  -3 -11 910.405 136.891   9
  -4   3  11 916.288 94.4737  11
  -4   3  11 835.256 112.635   3
  -4   3  11 967.935 94.6062   6
   4  -3 -11 833.172 92.5878   1
  -4   3  10 482.364 70.8725  11
   4  -3 -10 460.034 116.543   9
  -4   3  10 425.923 87.5701   3
  -4   3  10 510.358 72.6954   6
   4  -3 -10 514.259 77.1005   1
   4  -3  -9 36.3048 52.4142   1
  -4   3   9-11.0254 44.4965  11
  -4   3   9 46.6014 63.5853   3
  -4   3   9 98.2216 50.7963   6
   4  -3  -8 1400.68 95.4376   1
  -4   3   8 1323.48 92.0195  11
   4  -3  -8 1415.19 137.266   9
  -4   3   8 1293.83 110.322   3
  -4   3   8 1440.70 98.6412   6
   4  -3  -7 2634.72 120.358   1
  -4   3   7 2683.99 115.302  11
  -4   3   7 2476.59 137.011   3
  -4   3   7 2558.66 118.404   6
  -4   3   6 103.398 45.4934   6
  -4   3   6 220.583 51.0268  11
   4  -3  -6 275.336 83.7572   9
  -4   3   6 215.451 64.3527   3
   4  -3  -6 172.889 48.3385   1
  -4   3   5 736.212 67.4137  11
  -4   3   5 659.729 49.3354   2
  -4   3   5 596.201 79.8230   8
  -4   3   5 688.607 77.2069   3
  -4   3   5 712.445 65.5305   6
   4  -3  -5 617.747 93.6852   9
  -4   3   4 932.237 70.2542  11
  -4   3   4 903.522 61.2734   2
  -4   3   4 792.324 83.4924   8
  -4   3   4 1044.46 87.3897   3
  -4   3   4 912.630 70.5395   6
  -4   3   3 8969.89 190.266  11
  -4   3   3 8510.09 223.745   8
  -4   3   3 8717.00 208.087   3
   4  -3  -3 8508.85 191.412   6
   4  -3  -2 702.892 46.4911   4
  -4   3   2 655.991 76.6007   8
  -4   3   2 872.115 79.2227   3
   4  -3  -2 719.476 66.6782   6
   4  -3  -1 3574.97 102.731   4
  -4   3   1 3862.80 146.047   8
   4  -3  -1 3716.53 130.872   6
  -4   3   1 3751.57 132.195   3
   4  -3   0 4193.54 118.686   4
  -4   3   0 4353.92 153.405   8
  -4   3   0 4291.99 74.4348   7
   4  -3   0 4464.35 144.688   6
  -4   3   0 4315.05 140.480   3
  -4   3  -1 43.4208 38.7967   1
   4  -3   1 56.2818 36.4075   4
  -4   3  -1 192.452 56.2116   8
  -4   3  -1 82.4535 26.2575   7
  -4   3  -1 98.6325 46.6157   3
   4  -3   1 180.116 52.8278   6
   4  -3   2 537.179 59.4410   4
  -4   3  -2 564.695 70.4094   8
  -4   3  -2 454.611 42.4755   7
   4  -3   2 559.984 69.4745   6
  -4   3  -2 618.931 66.1717   3
  -4   3  -2 567.381 68.2794   1
  -4   3  -3 458.113 66.9270   8
   4  -3   3 329.973 52.3989   4
   4  -3   3 386.627 63.1935   6
  -4   3  -3 369.753 62.6440   1
   4  -3   4-3.77498 48.6662   4
  -4   3  -4 12.3224 46.0473   8
  -4   3  -4-59.2173 51.0822   1
   4  -3   4 33.8821 53.5913   6
   4  -3   5 103.317 49.8676   4
  -4   3  -5 135.608 55.7594   8
  -4   3  -5 197.051 58.1706   1
   4  -3   5 224.073 68.0076   6
  -4   3  -6 1627.71 114.680   1
   4  -3   6 1450.05 111.109   4
  -4   3  -6 1344.97 105.895   8
   4  -3   6 1527.12 120.949   6
  -4   3  -7 464.511 76.9283   8
   4  -3   7 369.482 78.9438   4
  -4   3  -7 364.700 77.8808   1
   4  -3   7 400.540 85.3787   6
   4  -3   8-129.841 75.4848   4
  -4   3  -8 73.7818 60.0872   8
  -4   3  -8-91.9699 66.3365   1
   4  -3   8 38.9981 75.9579   6
   4  -3   9 331.454 90.6616   4
  -4   3  -9 83.5681 78.0913   1
   4  -3   9 234.553 95.8310   6
  -4   2  12 255.858 75.4135  11
   4  -2 -12 369.742 130.700   9
   4  -2 -12 114.826 70.0114   1
  -4   2  12 37.3433 85.4613   3
  -4   2  12 216.092 70.2754   6
  -4   2  11 1642.05 113.828  11
   4  -2 -11 1511.58 156.427   9
  -4   2  11 1799.04 145.293   3
  -4   2  11 1741.98 118.000   6
   4  -2 -11 1687.67 119.820   1
  -4   2  10 237.521 59.2556  11
   4  -2 -10 106.074 90.4173   9
   4  -2 -10 227.420 61.8731   1
  -4   2  10 210.412 77.5943   3
  -4   2  10 146.574 55.3556   6
  -4   2   9 927.814 81.6960  11
   4  -2  -9 964.162 127.388   9
  -4   2   9 1056.83 107.007   3
  -4   2   9 922.979 81.4244   6
   4  -2  -9 937.051 82.2257   1
  -4   2   8 725.770 65.7579  11
   4  -2  -8 678.016 105.692   9
  -4   2   8 729.293 88.7865   3
  -4   2   8 775.788 69.8309   6
   4  -2  -8 690.947 72.2427   1
  -4   2   7 2676.96 108.062  11
   4  -2  -7 2722.20 161.517   9
   4  -2  -7 2547.70 87.5930   7
  -4   2   7 2553.04 135.634   3
  -4   2   7 2381.32 106.388   6
   4  -2  -7 2690.38 112.255   1
   4  -2  -6 6903.96 165.279   1
  -4   2   6 6818.59 158.363  11
  -4   2   6 6060.25 88.7979   2
   4  -2  -6 6906.44 236.759   9
   4  -2  -6 6277.95 113.884   7
  -4   2   6 6327.07 199.027   3
  -4   2   6 6628.14 162.150   6
  -4   2   5 246.568 44.0068  11
  -4   2   5 298.541 36.8106   2
   4  -2  -5 381.712 80.4756   9
   4  -2  -5 295.247 48.0229   1
  -4   2   5 238.771 45.3090   1
   4  -2  -5 364.259 49.4022   6
  -4   2   5 218.506 57.5364   3
  -4   2   5 289.562 49.4885   6
   4  -2  -4 3418.99 110.157  11
  -4   2   4 3456.41 93.2958   2
  -4   2   4 3580.56 109.744  11
  -4   2   4 3311.70 143.152   8
  -4   2   4 3336.11 133.829   3
  -4   2   4 3383.88 109.199   1
   4  -2  -4 3616.69 111.152   6
  -4   2   4 3540.03 110.902   6
   4  -2  -3 539.330 50.7173  11
  -4   2   3 478.450 22.9936   4
  -4   2   3 450.016 47.7069  11
  -4   2   3 598.068 72.7670   8
  -4   2   3 505.417 47.0290   2
  -4   2   3 498.235 62.4598   3
  -4   2   3 457.902 49.5985   1
   4  -2  -3 597.623 51.3701   6
  -4   2   2 712.782 35.6976   4
  -4   2   2 553.988 67.8155   8
   4  -2  -2 704.249 47.1366   4
  -4   2   2 591.506 51.9152   2
   4  -2  -2 672.425 52.3392  11
  -4   2   2 692.759 66.4051   3
   4  -2  -2 689.284 55.7384   6
   4  -2  -2 688.866 53.7539   6
  -4   2   2 609.985 51.0276   1
   4  -2  -1 20.4151 34.1550   6
   4  -2  -1 8.12640 31.2858  11
  -4   2   1 22.2489 23.8899   4
  -4   2   1-3.50614 44.3259   8
   4  -2  -1 7.72542 28.9760   4
  -4   2   1 18.7329 32.8044   1
  -4   2   1-1.93501 10.3409   7
  -4   2   1-40.1628 42.7387   3
   4  -2  -1-14.3347 35.7059   6
   4  -2   0 469.297 51.6777  11
  -4   2   0 468.323 40.5650   4
   4  -2   0 467.107 49.8416   4
  -4   2   0 417.711 62.3125   8
  -4   2   0 546.363 57.5879   3
   4  -2   0 447.696 51.7914   6
   4  -2   0 466.063 51.2468   6
  -4   2  -1 485.128 47.4332   4
   4  -2   1 518.340 55.8299   4
  -4   2  -1 566.508 66.5857   8
  -4   2  -1 607.588 39.1993   7
   4  -2   1 480.450 55.6095   6
  -4   2  -1 631.534 61.9483   3
  -4   2  -1 651.474 58.7261   1
   4  -2   2 1142.32 76.6275   4
  -4   2  -2 1253.74 87.1083   8
  -4   2  -2 1250.70 58.9203   7
   4  -2   2 1231.90 81.9905   6
  -4   2  -2 1248.64 75.7480   3
  -4   2  -2 1141.38 75.6883   1
   4  -2   3 3742.21 134.115   4
  -4   2  -3 3725.41 139.910   8
  -4   2  -3 3407.60 101.404   7
   4  -2   3 3707.96 139.311   6
  -4   2  -3 3741.71 131.795   1
   4  -2   4 47.7968 45.0418   4
  -4   2  -4-33.8346 46.3486   1
  -4   2  -4 72.7586 44.5985   8
   4  -2   4 66.5566 51.9703   6
   4  -2   5 88.4194 54.6052   4
  -4   2  -5 193.262 55.9812   8
  -4   2  -5 136.455 51.4966   1
   4  -2   5 48.5553 51.2906   6
  -4   2  -6 1627.67 110.081   1
   4  -2   6 1789.78 115.994   4
  -4   2  -6 1854.11 110.710   8
   4  -2   6 1737.75 117.201   6
  -4   2  -7 1516.63 115.536   1
   4  -2   7 1715.33 134.961   4
  -4   2  -7 1357.34 103.017   8
   4  -2   7 1189.54 107.822   6
   4  -2   8 49.1166 67.0121   4
  -4   2  -8 18.7022 57.0257   8
  -4   2  -8-55.3883 63.0392   1
   4  -2   8-6.22440 65.5824   6
  -4   2  -9 695.994 101.207   1
   4  -2   9 915.606 111.324   4
   4  -2   9 802.698 110.467   6
   4  -2  10 71.7890 81.8533   4
  -4   2 -10 16.5529 77.6143   1
   4  -2  10-50.5993 82.0564   6
   4  -1 -12 1546.32 169.251   9
  -4   1  12 1745.84 153.584   3
   4  -1 -12 1469.67 115.266   1
  -4   1  11 73.7348 59.4694  11
   4  -1 -11 125.365 95.3340   9
   4  -1 -11 92.6365 61.9706   1
  -4   1  11 74.6228 71.1704   3
  -4   1  11 91.8581 56.4169   6
  -4   1  10 5810.69 176.461  11
   4  -1 -10 5435.00 244.216   9
   4  -1 -10 5833.54 185.899   1
  -4   1  10 5697.29 176.638   6
  -4   1   9 4381.93 145.379  11
   4  -1  -9 4401.20 210.850   9
  -4   1   9 4113.98 181.752   3
   4  -1  -9 4439.35 151.390   1
  -4   1   9 4231.97 147.022   6
  -4   1   8 1967.62 96.9469  11
  -4   1   8 1567.12 56.5664   4
   4  -1  -8 1985.04 148.353   9
  -4   1   8 1699.43 122.474   3
  -4   1   8 1889.65 96.9163   6
   4  -1  -8 1988.75 99.6039   1
  -4   1   7 1744.49 50.7439   4
   4  -1  -7 2016.62 139.285   9
   4  -1  -7 1819.05 84.3074   7
  -4   1   7 1816.97 116.069   3
  -4   1   7 1985.09 88.8867  11
  -4   1   7 2006.55 89.5548   6
   4  -1  -7 2189.52 97.4818   1
  -4   1   6 18509.6 234.018  11
  -4   1   6 16548.0 129.992   4
  -4   1   6 16042.0 122.089   2
   4  -1  -6 18928.9 361.744   9
  -4   1   6 15976.8 166.578   4
  -4   1   6 18526.7 243.985   1
   4  -1  -6 17475.7 214.894   7
  -4   1   6 18461.6 321.267   3
   4  -1  -6 18212.8 248.177   6
  -4   1   6 18390.5 239.478   6
  -4   1   6 16212.8 146.424   2
   4  -1  -6 19063.5 246.650   1
   4  -1  -5 1839.74 77.6873   1
  -4   1   5 1666.15 71.9866  11
   4  -1  -5 1676.27 121.594   9
  -4   1   5 1380.14 45.9905   4
  -4   1   5 1649.42 53.3761   2
  -4   1   5 1750.11 75.4898   1
   4  -1  -5 1564.07 63.5814   7
  -4   1   5 1600.66 100.265   3
  -4   1   5 1719.05 54.5043   7
   4  -1  -5 1643.67 74.5081   6
  -4   1   5 1592.86 73.9240   6
  -4   1   4 45.8636 29.1831   6
  -4   1   4 75.0623 30.2881  11
   4  -1  -4-5.34003 55.4499   9
  -4   1   4 6.97701 44.7367   8
  -4   1   4 27.0129 17.9796   4
  -4   1   4 4.08814 16.1022   7
  -4   1   4 66.1740 29.2919   1
  -4   1   4-41.0296 24.2153   2
  -4   1   4 26.6614 46.2563   3
   4  -1  -4-9.99296 27.7749   6
  -4   1   3 19.2531 26.9341   6
   4  -1  -3 22.4590 26.9647  11
  -4   1   3-5.71979 25.4029  11
  -4   1   3-9.60899 19.5459   4
  -4   1   3 20.5426 43.6523   8
  -4   1   3 13.8337 14.1132   7
  -4   1   3 6.03320 40.9021   3
  -4   1   3 9.42281 26.2963   2
   4  -1  -3-14.8493 27.2717   6
  -4   1   3 13.3224 26.3967   1
   4  -1  -2 1171.77 55.8894  11
  -4   1   2 1300.65 50.7428   4
  -4   1   2 1229.54 88.4257   8
  -4   1   2 1277.91 64.0881   2
  -4   1   2 1242.89 39.2125   7
  -4   1   2 1386.89 81.6816   3
   4  -1  -2 1353.29 63.1992   6
   4  -1  -2 1238.77 58.3922   6
  -4   1   2 1291.71 59.2969   1
   4  -1  -1 58.8571 29.4183   6
   4  -1  -1 30.0323 26.8695  11
  -4   1   1-6.87833 25.7351   1
  -4   1   1 47.0635 25.6026   4
  -4   1   1 4.92183 40.1445   8
   4  -1  -1-15.2354 31.2350   4
  -4   1   1-23.9012 32.8831   2
  -4   1   1 33.8601 36.8773   3
   4  -1  -1-10.9586 26.6539   6
   4  -1   0 38.8273 33.4461   6
   4  -1   0 90.2898 34.4437  11
  -4   1   0 118.752 31.9485   1
  -4   1   0 83.2487 27.7568   4
  -4   1   0 122.431 45.9167   8
   4  -1   0 37.8828 33.9069   4
  -4   1   0 94.3449 38.3666   3
   4  -1   0 70.1946 31.2315   6
   4  -1   1 8851.77 171.759  11
  -4   1  -1 8578.93 153.094   4
   4  -1   1 8737.13 176.753   4
  -4   1  -1 8902.79 201.745   8
   4  -1   1 8178.74 176.253   3
  -4   1  -1 8459.72 167.483   6
  -4   1  -1 8826.53 168.812   3
   4  -1   1 8885.83 170.255   6
  -4   1  -1 9127.78 166.135   1
  -4   1  -2 20262.4 124.517   5
   4  -1   2 21880.3 293.351   4
  -4   1  -2 21975.9 311.995   8
   4  -1   2 21045.5 273.249   3
  -4   1  -2 19756.2 274.161   6
  -4   1  -2 21165.8 259.991   3
   4  -1   2 21512.1 278.300   6
  -4   1  -2 21291.8 265.315   1
  -4   1  -3 9689.75 112.232   5
   4  -1   3 9805.67 208.815   4
  -4   1  -3 9751.31 208.978   8
   4  -1   3 9440.42 199.208   6
  -4   1  -3 9397.93 178.499   3
  -4   1  -3 9583.55 191.644   1
  -4   1  -4 165.132 31.1629   5
   4  -1   4 130.564 52.1120   4
  -4   1  -4 89.6970 45.1117   8
  -4   1  -4 159.344 43.6230   1
   4  -1   4 194.524 51.0564   6
  -4   1  -5 1179.12 86.7001   1
  -4   1  -5 1125.76 62.0307   5
   4  -1   5 1224.65 95.3248   4
  -4   1  -5 1385.46 92.1911   8
   4  -1   5 1183.09 91.6920   6
   4  -1   6 63.5116 51.9345   4
  -4   1  -6 148.359 51.8324   8
  -4   1  -6 36.3910 49.7865   1
   4  -1   6 70.4370 53.4054   6
   4  -1   7 85.3510 62.1477   4
  -4   1  -7 48.7951 48.8001   8
  -4   1  -7 55.5929 52.5814   1
   4  -1   7 48.2954 58.3710   6
   4  -1   8 47.0403 65.2347   4
  -4   1  -8 59.6205 55.3739   8
  -4   1  -8 180.310 65.8558   1
   4  -1   8 73.7910 61.0565   6
   4  -1   9 189.179 74.9402   4
  -4   1  -9 135.427 62.9981   1
   4  -1   9 189.093 75.2893   6
   4  -1  10 154.756 86.8770   4
   4  -1  10 309.273 88.3283   6
  -4   1 -10 189.405 70.0166   1
   4  -1  11 2684.23 183.107   4
  -4   1 -11 2455.08 165.374   1
   4  -1  11 2541.58 177.025   6
   4   0 -12-105.481 109.038   9
  -4   0  12 126.453 92.0543   3
   4   0 -11 49.3701 55.0746   1
  -4   0  11 248.951 64.5711  11
  -4   0  11 78.1402 72.1395   3
   4   0 -11 178.361 91.4936   9
  -4   0  11 353.368 74.5518   6
  -4   0  10 1019.71 86.6293  11
   4   0 -10 955.528 124.053   9
  -4   0  10 905.098 110.743   3
   4   0 -10 1190.37 94.5886   1
  -4   0  10 1141.45 88.7856   6
   4   0  -9 102.178 47.1380   1
  -4   0   9 49.7197 43.7248  11
  -4   0   9 54.5079 33.2280   4
   4   0  -9 126.221 84.7942   9
  -4   0   9 99.2501 71.7313   3
  -4   0   9 108.653 45.3658   6
  -4   0   8 19.3022 38.2692  11
   4   0  -8 18.2222 40.6375   1
   4   0  -8-7.18468 73.8973   9
  -4   0   8-42.8579 32.7261   4
  -4   0   8-42.5636 59.4778   3
  -4   0   8 60.4638 41.5287   6
  -4   0   7 14307.6 215.594  11
  -4   0   7 14639.0 224.517   1
   4   0  -7 13936.5 327.385   9
  -4   0   7 14669.2 206.723   7
   4   0  -7 14658.6 231.727   6
   4   0  -7 14588.3 222.600   1
  -4   0   7 14782.9 217.951   6
  -4   0   6 36.9235 31.3551  11
   4   0  -6 31.2164 65.7247   9
  -4   0   6 0.82911 12.6606   2
   4   0  -6 77.1840 39.9548   7
  -4   0   6 28.4259 26.4354   7
   4   0  -6 6.15034 30.7423   1
  -4   0   6 9.62864 12.6217   2
  -4   0   6 42.3228 51.9548   3
  -4   0   6 32.2426 32.7887   1
   4   0  -6 19.5003 34.8999   6
  -4   0   6 40.9177 31.3393   6
  -4   0   5 1280.82 56.4589  11
  -4   0   5 1023.01 45.4050  10
  -4   0   5 1354.46 60.5424   1
   4   0  -5 1253.38 102.875   9
  -4   0   5 1353.73 48.2161   2
   4   0  -5 1224.26 66.5511   7
  -4   0   5 1354.37 91.5154   3
  -4   0   5 1420.01 58.7711   7
   4   0  -5 1263.17 61.5146   6
  -4   0   5 1292.07 58.6190   6
  -4   0   5 1399.59 53.8716   2
   4   0  -5 1297.19 59.5189   1
  -4   0   4 238.293 34.5567   5
  -4   0   4 246.287 31.1893  11
   4   0  -4 231.547 30.7215   1
   4   0  -4 323.221 66.0999   9
  -4   0   4 245.568 39.1189   4
  -4   0   4 307.309 32.7606   1
  -4   0   4 237.636 30.4875   2
  -4   0   4 294.597 30.7408   7
   4   0  -4 327.615 34.2625   6
  -4   0   4 280.919 50.5754   3
  -4   0   4 207.891 30.6262   6
  -4   0   4 220.746 34.7919   2
  -4   0   3 456.736 38.7331   5
  -4   0   3 464.063 33.4614  11
  -4   0   3 418.567 39.9826   4
  -4   0   3 491.709 63.1804   8
  -4   0   3 481.412 33.4469   1
  -4   0   3 502.405 34.8527   7
  -4   0   3 422.860 56.3859   3
   4   0  -3 470.319 33.5452   6
  -4   0   3 531.270 35.9530   6
  -4   0   2 7739.97 118.391   5
   4   0  -2 8109.18 109.953  11
  -4   0   2 7833.58 135.866   4
  -4   0   2 7829.99 188.061   8
  -4   0   2 7767.76 113.456   7
  -4   0   2 7922.81 171.847   3
   4   0  -2 8090.79 113.507   6
  -4   0   2 8365.29 110.336   1
  -4   0   1 9263.49 123.172   1
   4   0  -1 9619.28 123.193  11
  -4   0   1 9286.19 149.533   4
  -4   0   1 9268.73 195.980   8
  -4   0   1 9213.65 130.033   7
   4   0  -1 9006.86 184.756   3
  -4   0   1 9092.08 175.212   3
   4   0  -1 9797.72 130.753   6
   4   0  -1 9275.83 126.967   6
   4   0   0 10549.6 147.073  11
  -4   0   0 10919.3 168.799   4
   4   0   0 11098.1 195.910   4
  -4   0   0 10506.7 208.074   8
   4   0   0 10284.5 187.320   3
  -4   0   0 10583.8 179.412   3
   4   0   0 10783.9 149.841   6
   4   0   0 10704.8 149.094   6
  -4   0   0 10611.1 141.861   1
  -4   0  -1 6567.21 138.107   4
   4   0   1 6754.39 160.879   4
  -4   0  -1 6877.14 166.488   8
   4   0   1 6681.69 145.840   3
  -4   0  -1 6828.01 133.351   6
  -4   0  -1 6801.24 138.735   3
   4   0   1 6853.73 130.505   6
  -4   0  -1 6618.70 122.680   1
  -4   0  -2 34556.3 328.710   4
   4   0   2 35535.5 371.544   4
  -4   0  -2 35087.2 373.073   8
   4   0   2 35681.7 324.683   3
  -4   0  -2 34886.1 328.175   6
  -4   0  -2 35728.0 304.721   3
   4   0   2 35477.6 323.558   6
  -4   0  -2 34573.4 304.210   1
  -4   0  -3 1383.70 71.6654   1
   4   0   3 1293.70 86.4975   4
  -4   0  -3 1261.33 81.0289   8
   4   0   3 1303.36 68.9313   3
  -4   0  -3 1220.85 78.4785   6
  -4   0  -3 1339.93 65.4795   3
   4   0   3 1394.75 78.1694   6
  -4   0  -4 1257.12 77.5030   1
  -4   0  -4 1373.25 82.8720   8
   4   0   4 1305.93 69.8920   3
   4   0   4 1277.66 80.6241   6
  -4   0  -5 1005.40 76.0638   1
   4   0   5 917.046 84.3764   4
  -4   0  -5 891.119 70.5260   8
   4   0   5 1045.34 71.3238   3
  -4   0  -6 3537.58 139.193   1
   4   0   6 3407.18 148.999   4
  -4   0  -6 3633.33 137.153   8
   4   0   6 3297.87 111.038   3
   4   0   6 3348.96 140.834   6
  -4   0  -7 667.573 76.1736   1
   4   0   7 878.934 93.0504   4
  -4   0  -7 839.562 81.7480   8
   4   0   7 752.745 81.3799   6
  -4   0  -8 3369.77 152.019   1
   4   0   8 3300.64 164.559   4
  -4   0  -8 3361.21 151.336   8
   4   0   8 3125.03 154.201   6
   4   0   9 195.469 78.1262   4
   4   0   9 219.497 74.0276   6
  -4   0  -9 136.353 57.1075   1
  -4   0 -10 476.557 87.2922   1
   4   0  10 212.726 85.8829   4
   4   0  10 371.864 90.2514   6
  -4   0 -11 477.608 93.7784   1
   4   0  11 452.021 105.670   4
   4   0  11 384.327 96.4878   6
   4   1 -12 196.509 105.450   9
  -4  -1  12 4.41036 83.9420   3
   4   1 -11 250.873 97.0638   9
  -4  -1  11 72.5427 76.1261   3
   4   1 -11 238.189 69.8126   1
  -4  -1  11 107.552 61.0268   6
  -4  -1  10 15799.9 250.268   4
   4   1 -10 16173.1 386.899   9
  -4  -1  10 16960.0 377.919   3
   4   1 -10 17260.9 297.359   1
  -4  -1  10 16265.1 289.763   6
  -4  -1   9 1872.95 88.1354   4
   4   1  -9 1962.01 143.842   9
  -4  -1   9 1948.53 133.994   3
   4   1  -9 2092.38 102.060   1
  -4  -1   9 1861.92 97.2973   6
  -4  -1   8 2344.93 88.9835   4
   4   1  -8 2564.99 152.984   9
  -4  -1   8 2237.54 133.375   3
  -4  -1   8 2308.28 99.3652   7
   4   1  -8 2391.49 100.125   1
  -4  -1   8 2365.90 100.186   6
  -4  -1   7 285.550 42.4794  11
   4   1  -7 341.910 78.8882   9
  -4  -1   7 215.121 40.7368   7
  -4  -1   7 266.804 65.9192   3
  -4  -1   7 260.321 41.6487   6
   4   1  -7 200.780 47.3234   6
   4   1  -7 237.192 39.2331   1
  -4  -1   7 246.963 44.7582   1
  -4  -1   6 161.247 20.0466   2
  -4  -1   6 172.478 40.8546   5
  -4  -1   6 147.719 34.5090  11
   4   1  -6 173.427 65.5291   9
  -4  -1   6 212.478 36.9309   7
  -4  -1   6 202.837 35.2980   1
  -4  -1   6 177.331 56.1730   3
   4   1  -6 191.998 33.8959   1
   4   1  -6 216.243 37.5067   6
  -4  -1   6 187.264 34.0906   6
  -4  -1   5 119.338 30.9600   1
  -4  -1   5 103.850 37.0719   5
  -4  -1   5 118.827 27.5863  11
   4   1  -5 136.456 61.9725   9
   4   1  -5 97.7447 25.8018   1
  -4  -1   5 65.6859 24.3994   2
   4   1  -5 24.8100 33.5770   7
  -4  -1   5 103.570 31.6996   7
  -4  -1   5 64.9013 42.6173   3
   4   1  -5 85.5239 28.2624   6
  -4  -1   5 115.179 26.6566   6
  -4  -1   4 1020.29 62.3867   5
  -4  -1   4 1128.41 42.6201   1
  -4  -1   4 1110.11 42.0704  11
  -4  -1   4 1039.23 56.8501  10
   4   1  -4 1069.88 92.4303   9
   4   1  -4 1033.28 64.2601   7
  -4  -1   4 1093.77 82.4855   3
  -4  -1   4 1165.20 56.9550   7
   4   1  -4 1168.90 45.2510   6
  -4  -1   4 1144.85 43.2524   6
  -4  -1   4 1130.87 55.4897   2
   4   1  -4 1089.03 42.5488   1
  -4  -1   3 2606.97 50.4490  11
  -4  -1   3 2604.92 48.1097   1
  -4  -1   3 2616.75 109.131   8
  -4  -1   3 2611.83 95.9284   4
  -4  -1   3 2589.89 78.5448   7
  -4  -1   3 2635.39 106.423   3
   4   1  -3 2601.60 49.5952   6
  -4  -1   3 2614.01 50.9431   6
  -4  -1   3 2516.55 84.0272   2
  -4  -1   2 59211.9 469.770   8
  -4  -1   2 60587.4 412.527   4
  -4  -1   2 54742.1 177.918   1
  -4  -1   2 57925.0 351.372   7
  -4  -1   2 59453.1 445.333   3
   4   1  -2 55658.2 182.136   6
   4   1  -2 55053.9 181.236   6
   4   1  -1 426694. 568.457  11
   4   1  -1 455607. 987.434  10
  -4  -1   1 435467. 1387.69   9
  -4  -1   1 454049. 1133.12   4
  -4  -1   1 441050. 988.176   7
   4   1  -1 466166. 1261.29   3
  -4  -1   1 451057. 1153.15   3
   4   1  -1 434208. 574.980   6
   4   1  -1 434415. 566.365   6
  -4  -1   1 436464. 565.109   1
  -4  -1   1 442675. 1261.57   8
  -4  -1   1 436205. 552.789   1
  -4  -1   0 3647.01 65.4230   1
   4   1   0 3690.62 70.6301  11
  -4  -1   0 3770.48 110.936   4
   4   1   0 3659.38 125.155   8
  -4  -1   0 3973.13 125.152   8
   4   1   0 3554.43 120.080   4
   4   1   0 3657.13 109.012   3
  -4  -1   0 3814.45 102.959   3
   4   1   0 3737.17 69.2812   6
   4   1   0 3680.36 71.4895   6
  -4  -1  -1 12202.5 142.274   1
  -4  -1  -1 12599.9 198.437   4
   4   1   1 12065.1 220.340   8
   4   1   1 13283.7 229.996   4
  -4  -1  -1 12469.0 211.184   8
   4   1   1 12382.7 181.385   3
  -4  -1  -1 11257.1 164.412   3
  -4  -1  -1 12561.6 156.510   6
   4   1   1 12167.6 149.657   6
  -4  -1  -2 229.086 32.6057   1
  -4  -1  -2 282.063 47.3933   4
   4   1   2 311.816 54.4771   4
  -4  -1  -2 208.983 42.9628   8
   4   1   2 256.439 37.1545   3
  -4  -1  -2 272.744 33.7311   3
  -4  -1  -2 281.726 38.5134   6
   4   1   2 259.489 36.7394   6
  -4  -1  -3 944.295 58.2516   1
   4   1   3 783.455 70.3433   4
  -4  -1  -3 946.819 67.9572   8
   4   1   3 969.774 52.0463   3
  -4  -1  -3 970.551 61.7427   6
  -4  -1  -3 951.552 49.0435   3
   4   1   3 997.586 63.0733   6
   4   1   3 880.976 57.7322   1
  -4  -1  -4 3051.71 104.298   1
   4   1   4 3259.20 130.352   4
  -4  -1  -4 3309.99 116.693   8
   4   1   4 3386.61 90.2057   3
   4   1   4 3177.05 111.030   6
  -4  -1  -5 1213.71 75.4923   1
   4   1   5 1233.92 94.0257   4
  -4  -1  -5 1179.78 77.6581   8
   4   1   5 1149.95 60.5816   3
   4   1   5 1109.51 79.3623   6
  -4  -1  -6 947.454 71.8977   1
   4   1   6 972.179 89.2392   4
  -4  -1  -6 987.015 76.8638   8
   4   1   6 1114.40 63.0584   3
   4   1   6 1037.78 79.1150   6
  -4  -1  -7 27806.6 375.899   1
   4   1   7 28934.6 430.525   4
  -4  -1  -7 28278.8 378.447   8
   4   1   7 28801.1 290.446   3
   4   1   7 27735.1 392.619   6
   4   1   8 18900.7 368.664   4
  -4  -1  -8 18049.0 323.088   1
   4   1   8 18462.1 342.288   6
   4   1   9 2091.25 142.394   4
  -4  -1  -9 2049.92 126.798   1
   4   1   9 2203.16 134.016   6
   4   1  10 763.752 104.123   4
  -4  -1 -10 528.159 85.7470   1
   4   1  10 636.657 98.1511   6
  -4  -1 -11 290.226 81.7898   1
   4   1  11 268.163 83.6160   6
  -4  -1 -12 173.132 83.8256   1
   4   1  12 121.696 88.5990   4
   4   1  12 12.3929 89.0169   6
   4   2 -12 277.830 112.504   9
   4   2 -11 4134.01 216.620   9
  -4  -2  11 4049.61 206.652   3
   4   2 -11 4019.26 162.089   1
  -4  -2  10 3850.67 136.438   4
   4   2 -10 4233.10 206.203   9
  -4  -2  10 3938.34 191.563   3
   4   2 -10 4077.04 150.071   1
  -4  -2  10 3753.54 143.814   6
  -4  -2   9 584.222 64.4971   4
   4   2  -9 437.785 98.7395   9
  -4  -2   9 539.048 89.7098   3
   4   2  -9 468.835 61.9469   1
  -4  -2   9 387.168 60.5058   7
  -4  -2   9 457.003 60.4958   6
   4   2  -8 734.004 93.7661   9
  -4  -2   8 566.228 82.5173   3
   4   2  -8 652.930 58.6071   1
  -4  -2   8 640.142 65.2517   7
  -4  -2   8 605.736 56.8328   6
  -4  -2   7 2382.42 113.428   5
  -4  -2   7 2299.69 54.2308   2
   4   2  -7 2283.16 135.725   9
  -4  -2   7 2688.90 139.119   3
  -4  -2   7 2524.59 102.926   7
   4   2  -7 2541.19 92.7720   1
   4   2  -7 2480.74 99.6906   6
  -4  -2   7 2720.05 94.8041   6
  -4  -2   6 40.9169 46.8775   5
   4   2  -6 73.7231 62.4857   9
  -4  -2   6 155.844 35.1356   1
  -4  -2   6 98.1586 36.9472   7
  -4  -2   6 96.5832 22.3056   2
   4   2  -6 85.6461 28.9304   1
  -4  -2   6 74.9426 53.6710   3
   4   2  -6 77.5694 35.4950   6
  -4  -2   6 64.1832 29.6767   6
  -4  -2   5 6217.37 158.665   5
   4   2  -5 6650.59 197.410   9
  -4  -2   5 6149.00 177.799   3
  -4  -2   5 6428.25 141.437   7
   4   2  -5 6388.24 108.653   1
   4   2  -5 6553.50 116.759   6
  -4  -2   5 6501.12 110.233   6
  -4  -2   5 6472.27 110.586   1
  -4  -2   5 6656.51 107.290   2
  -4  -2   4 6990.82 90.4989  11
  -4  -2   4 6885.85 155.835  10
   4   2  -4 7284.98 195.484   9
   4   2  -4 6947.74 160.159   7
  -4  -2   4 7082.34 179.163   3
  -4  -2   4 7035.99 144.028   7
   4   2  -4 7271.63 96.3168   6
   4   2  -4 7182.17 91.3223   1
  -4  -2   4 7592.79 91.3780   6
  -4  -2   4 7349.23 93.8076   1
  -4  -2   3 904.843 63.0236  10
  -4  -2   3 875.527 70.8437   3
  -4  -2   3 885.382 54.2860   7
  -4  -2   3 1021.43 57.6169   2
  -4  -2   2 107449. 656.650   9
  -4  -2   2 107573. 618.707   8
  -4  -2   2 109586. 624.801   4
  -4  -2   2 109534. 531.834   7
  -4  -2   2 108572. 576.283   2
  -4  -2   1 1746.77 93.5882   9
  -4  -2   1 1941.03 89.0315   4
  -4  -2   1 1904.25 86.7481   8
  -4  -2   1 1932.62 76.3751   7
  -4  -2   1 1897.64 79.2211   3
  -4  -2   1 1935.11 81.5919   2
   4   2   0 7988.03 72.1161  11
   4   2   0 9606.22 176.269  10
   4   2   0 8860.86 176.330   8
  -4  -2   0 9345.33 183.055   4
  -4  -2   0 9275.73 175.816   8
  -4  -2   0 7679.49 64.6615   1
  -4  -2   0 7988.30 142.460   3
  -4  -2   0 8036.62 72.4655   6
   4   2   0 7932.80 66.4852   6
  -4  -2  -1 646.330 62.8821   4
   4   2   1 685.812 62.6010   8
  -4  -2  -1 642.484 57.6573   8
  -4  -2  -1 677.435 32.5775   1
   4   2   1 735.291 68.8575   4
   4   2   1 809.482 53.1896   3
  -4  -2  -1 747.513 45.4606   3
  -4  -2  -1 735.450 37.2492   6
   4   2   1 755.463 36.5380   6
   4   2   1 660.318 34.2839   1
  -4  -2  -2 6801.85 165.044   4
  -4  -2  -2 6838.94 114.134   1
   4   2   2 6625.56 159.601   8
   4   2   2 6828.10 178.604   4
  -4  -2  -2 6603.72 148.837   8
   4   2   2 6698.59 117.197   3
  -4  -2  -2 7291.21 115.368   3
  -4  -2  -2 6816.31 123.047   6
   4   2   2 6798.00 118.044   6
   4   2   2 6794.61 117.714   1
  -4  -2  -3 119.505 28.4743   1
  -4  -2  -3 163.730 37.2207   8
   4   2   3 104.404 47.2560   4
   4   2   3 115.784 33.2630   1
   4   2   3 125.449 26.3378   3
  -4  -2  -3 115.693 21.3019   3
  -4  -2  -3 97.3321 32.3232   6
   4   2   3 123.606 31.5670   6
  -4  -2  -4 495.991 46.6746   1
   4   2   4 608.426 71.2960   4
  -4  -2  -4 525.341 53.2089   8
   4   2   4 645.606 37.8512   3
  -4  -2  -4 514.363 52.1552   6
   4   2   4 610.683 51.9079   6
   4   2   4 482.191 48.9256   1
  -4  -2  -5 31.8186 32.3560   1
   4   2   5 93.2467 51.0998   4
  -4  -2  -5 123.712 38.1102   8
   4   2   5 109.682 25.4203   3
   4   2   5 106.374 37.4120   6
  -4  -2  -6 305.634 48.1575   1
  -4  -2  -6 312.571 53.4198   8
   4   2   6 289.159 64.0794   4
   4   2   6 387.187 36.1909   3
   4   2   6 214.784 48.4791   6
   4   2   7 18074.7 343.688   4
  -4  -2  -7 17744.7 294.321   1
  -4  -2  -7 17737.5 290.860   8
   4   2   7 18645.4 196.763   3
   4   2   7 17830.2 306.896   6
   4   2   8 1966.83 129.087   4
  -4  -2  -8 1942.71 111.923   1
   4   2   8 2076.33 121.058   6
  -4  -2  -9 585.925 77.5020   1
   4   2   9 526.547 84.2888   6
  -4  -2 -10 296.005 70.2543   1
   4   2  10 264.786 89.4163   4
   4   2  10 423.953 83.9236   6
   4   2  11 5389.75 231.198   4
  -4  -2 -11 5743.51 225.412   1
   4   2  11 5736.26 229.158   6
  -4  -2 -12 472.683 99.0944   1
   4   2  12 507.384 115.995   4
   4   2  12 371.062 95.6572   6
  -4  -3  11 767.413 84.8371   4
   4   3 -11 743.980 117.113   9
  -4  -3  11 851.432 124.198   3
  -4  -3  10 1099.46 86.5913   4
   4   3 -10 1006.82 118.046   9
   4   3 -10 1062.61 94.6886   1
  -4  -3  10 1280.88 127.530   3
  -4  -3  10 1391.26 104.598   7
  -4  -3  10 1170.64 92.4312   6
   4   3  -9 1308.86 120.369   9
   4   3  -9 1013.31 80.6687   1
  -4  -3   9 1016.91 110.577   3
  -4  -3   9 989.839 83.8854   7
  -4  -3   9 1065.13 81.3570   6
  -4  -3   8 353.146 64.8142   5
   4   3  -8 285.222 75.7834   9
   4   3  -8 404.436 56.3363   1
  -4  -3   8 400.876 56.5587   7
  -4  -3   8 299.481 51.7666   6
  -4  -3   7 288.378 34.3567   2
   4   3  -7 138.092 64.3825   9
  -4  -3   7 270.626 54.1655   5
   4   3  -7 243.758 43.0124   1
  -4  -3   7 248.359 52.2881   7
  -4  -3   7 237.863 44.8488   6
  -4  -3   6-20.1923 44.2233   5
   4   3  -6-31.6639 59.1414   9
   4   3  -6 28.9159 28.5049   1
  -4  -3   6-51.3455 41.7299   7
  -4  -3   6-1.34474 23.9717   2
   4   3  -6 23.0477 35.7321   6
  -4  -3   6 33.1150 29.1224   6
  -4  -3   5 12055.8 154.971   2
   4   3  -5 11273.3 242.815   9
   4   3  -5 11749.8 152.671   1
  -4  -3   5 11545.6 205.187   7
   4   3  -5 11975.8 163.464   6
  -4  -3   5 11582.2 153.051   6
   4   3  -4 379.127 62.8463   9
   4   3  -4 463.451 28.5750   1
  -4  -3   4 388.118 46.4147   7
   4   3  -4 510.426 33.1624   6
  -4  -3   4 472.849 28.9733   6
  -4  -3   4 516.196 41.2910   2
  -4  -3   3 6275.73 60.8769  11
  -4  -3   3 8001.22 174.344  10
  -4  -3   3 8420.72 187.007   3
  -4  -3   3 8193.94 160.649   7
   4   3  -3 5912.81 57.7035   1
  -4  -3   3 5823.86 55.4511   6
  -4  -3   3 6907.44 61.7334   6
  -4  -3   3 8562.11 147.680   2
  -4  -3   2 6282.16 153.195   9
  -4  -3   2 6756.30 148.917   8
  -4  -3   2 6879.48 157.400   3
  -4  -3   2 6819.68 147.456   7
  -4  -3   2 6748.43 142.868   2
  -4  -3   1 7913.89 172.365   9
  -4  -3   1 7716.84 155.052   8
  -4  -3   1 7914.51 187.112   4
  -4  -3   1 7947.71 160.232   7
  -4  -3   1 8201.64 155.888   3
  -4  -3   1 8068.57 164.777   2
   4   3   0 170.883 45.6595  10
  -4  -3   0 176.313 35.5725   8
  -4  -3   0 128.860 50.0819   4
  -4  -3   0 95.7030 43.5786   2
  -4  -3   0 188.812 35.5619   3
   4   3   1 27.7656 16.0015  11
   4   3   1 59.0311 37.4380   8
  -4  -3  -1 46.8418 28.1114   8
  -4  -3  -1 59.7021 45.6989   4
  -4  -3  -1 22.6460 39.6355   2
   4   3   1 28.1942 15.7189   1
  -4  -3  -1 5.42592 23.1336   3
  -4  -3  -1 23.6354 18.3753   6
  -4  -3  -1 34.5455 16.0840   1
   4   3   1 1.42401 15.8131   6
   4   3   2-8.78209 32.0921   8
  -4  -3  -2 13.9757 30.8892   8
  -4  -3  -2 17.4864 39.9776   2
   4   3   2 6.56530 49.9136   4
  -4  -3  -2 3.74959 20.3146   1
   4   3   2 20.9888 21.1463   1
  -4  -3  -2-12.6396 19.6128   3
  -4  -3  -2-24.9069 23.9443   6
   4   3   2 31.0396 22.7437   6
   4   3   3 266.019 34.9409   1
   4   3   3 302.498 48.1610   8
  -4  -3  -3 341.080 43.7042   8
  -4  -3  -3 336.253 37.5337   1
   4   3   3 283.971 62.9454   4
  -4  -3  -3 293.221 19.9532   3
  -4  -3  -3 342.885 41.0066   6
   4   3   3 296.408 37.0079   6
   4   3   4 56565.8 408.090   1
   4   3   4 58775.2 558.847   4
  -4  -3  -4 57487.8 424.485   8
  -4  -3  -4 57610.2 409.228   1
  -4  -3  -4 56862.9 428.367   6
   4   3   4 58186.6 421.662   6
   4   3   5 1392.17 102.239   4
  -4  -3  -5 1447.44 77.0689   8
  -4  -3  -5 1482.51 79.2379   1
   4   3   5 1442.48 80.4984   6
  -4  -3  -6 63.0709 38.1630   1
   4   3   6 58.9824 55.6704   4
  -4  -3  -6-30.3979 35.5317   8
   4   3   6 22.1811 10.1221   3
   4   3   6 44.4648 38.7029   6
   4   3   7 23303.0 390.122   4
  -4  -3  -7 22226.5 326.510   1
   4   3   7 21567.6 150.548   3
   4   3   7 22818.4 339.884   6
   4   3   8 3583.25 171.013   4
  -4  -3  -8 3068.91 137.859   1
   4   3   8 3545.44 150.444   6
  -4  -3  -9 5759.53 190.063   1
   4   3   9 5400.08 192.847   6
   4   3   9 5963.72 219.140   4
   4   3  10 520.902 91.8236   4
  -4  -3 -10 483.830 78.1449   1
   4   3  10 413.406 84.0724   6
   4   3  11 296.470 90.3466   4
  -4  -3 -11 306.737 76.9084   1
  -4  -3 -11 128.442 69.0029   2
   4   3  11 333.605 89.6752   6
   4   3  12 1504.62 156.942   4
  -4  -3 -12 1520.51 137.477   1
   4   3  12 1612.79 144.537   6
   4   4 -11 23.0600 84.6030   9
  -4  -4  11 100.605 62.7342   4
   4   4 -10 26.3658 77.8764   9
  -4  -4  10 98.5254 59.6620   4
   4   4 -10 201.168 66.1600   1
  -4  -4  10 171.026 66.2262   7
   4   4  -9 243.054 82.7259   9
   4   4  -9 267.150 60.0534   1
  -4  -4   9 341.276 67.6783   7
  -4  -4   9 156.954 55.7179   6
  -4  -4   8 118.245 60.2059   5
   4   4  -8 137.767 48.9937   1
   4   4  -8 188.539 72.6667   9
  -4  -4   8 200.556 55.6395   7
  -4  -4   8 170.682 48.2614   6
   4   4  -7 5.30433 37.7778   1
   4   4  -7-19.5960 59.7869   9
  -4  -4   7 35.1348 52.8359   5
  -4  -4   7-88.7706 48.1133   7
  -4  -4   7 33.1258 33.4596   2
  -4  -4   7-79.2940 41.1114   6
  -4  -4   6 2673.45 126.376   5
  -4  -4   6 2938.49 86.0499   2
   4   4  -6 2883.17 133.729   9
   4   4  -6 2855.76 95.3459   1
  -4  -4   6 2755.07 115.634   7
   4   4  -6 2767.02 102.344   6
  -4  -4   6 2622.19 92.1416   6
  -4  -4   5 10819.9 160.120   2
   4   4  -5 10576.7 227.733   9
   4   4  -5 10785.0 155.648   1
  -4  -4   5 10627.1 208.661   7
   4   4  -5 10976.3 172.513   6
  -4  -4   5 10418.4 157.209   6
  -4  -4   4 248.086 34.4846   2
  -4  -4   4 170.435 30.9385  11
   4   4  -4 237.596 27.9391   1
   4   4  -4 361.950 57.3138   9
   4   4  -4 161.483 45.9351   2
  -4  -4   4 250.217 46.2551   7
   4   4  -4 266.315 34.0917   6
  -4  -4   4 265.722 29.3303   6
  -4  -4   3 1800.92 50.6521  11
   4   4  -3 1768.15 46.6778   1
  -4  -4   3 1593.17 82.5926   7
  -4  -4   3 1675.76 46.9309   6
  -4  -4   3 1769.42 50.7967   6
  -4  -4   3 1753.15 70.8765   2
  -4  -4   2 403.839 19.5553  11
   4   4  -2 406.477 19.3779   1
  -4  -4   2 461.497 63.8950  10
  -4  -4   2 444.646 46.5547   8
  -4  -4   2 496.938 53.2876   7
  -4  -4   2 408.573 19.6466   6
  -4  -4   2 435.334 19.6511   6
   4   4  -2 351.329 19.7138   1
   4   4  -2 334.969 51.9835   2
  -4  -4   2 562.648 49.2761   2
  -4  -4   1 53.9565 36.6059   9
  -4  -4   1 39.0859 29.8434   8
   4   4  -1 21.7925 8.14940   1
   4   4  -1 8.15801 6.82954   1
  -4  -4   1-4.38326 33.6588   2
  -4  -4   1-19.6638 35.3905   7
  -4  -4   1 25.9818 7.63848   6
  -4  -4   1 19.2198 7.89641   6
   4   4   0-5.24069 11.0780   1
   4   4   0 5.53411 11.7217  11
  -4  -4   0-29.2220 42.2729   9
  -4  -4   0-9.73069 27.9276   8
  -4  -4   0-18.9132 41.1700   2
  -4  -4   0 47.2209 41.6222   7
  -4  -4   0-15.5512 28.3928   3
  -4  -4   0 18.1770 13.3462   6
  -4  -4  -1 8.14748 18.3290   1
   4   4   1 16.2936 17.4373  11
   4   4   1-16.8898 42.7654  10
   4   4   1 43.2421 31.0452   8
  -4  -4  -1 18.9169 26.2219   8
  -4  -4  -1-23.6171 40.2793   2
  -4  -4  -1 30.6476 24.1810   3
  -4  -4  -1 12.4792 18.6562   6
   4   4   1 13.5737 16.9600   1
   4   4   1 15.8188 19.3156   6
   4   4   2 690.806 43.1726  11
   4   4   2 603.386 39.3117   1
   4   4   2 650.429 52.4841   8
  -4  -4  -2 613.789 45.1782   8
  -4  -4  -2 640.966 35.0599   3
  -4  -4  -2 607.242 42.2487   6
  -4  -4  -2 572.092 38.8378   1
   4   4   2 591.839 38.8861   6
  -4  -4  -2 725.390 68.5919   2
   4   4   3 40828.3 312.968   1
   4   4   3 40703.5 358.637   8
   4   4   3 40185.7 459.874   4
  -4  -4  -3 40744.0 321.816   8
  -4  -4  -3 36609.5 161.576   3
  -4  -4  -3 39001.9 302.704   1
  -4  -4  -3 40376.7 320.957   6
   4   4   3 42843.9 327.104   6
  -4  -4  -3 35798.2 396.350   2
   4   4   4 31743.5 309.583   1
   4   4   4 31860.1 332.688   8
  -4  -4  -4 30914.9 297.043   8
  -4  -4  -4 31616.2 301.582   1
  -4  -4  -4 31043.9 313.198   6
   4   4   4 30991.5 307.842   6
  -4  -4  -4 30714.1 377.232   2
   4   4   5-55.7921 52.9259   4
  -4  -4  -5-12.3968 42.5277   2
  -4  -4  -5 0.35307 33.2545   8
  -4  -4  -5 24.0226 36.0843   1
   4   4   5 9.87580 36.3331   6
   4   4   6 94.1981 54.8414   4
  -4  -4  -6-26.6898 45.9374   2
  -4  -4  -6 81.3933 35.6643   8
  -4  -4  -6 35.5403 37.9916   1
   4   4   6 136.083 46.2451   6
   4   4   7-4.12276 60.9425   4
  -4  -4  -7 4.64211 49.7950   2
  -4  -4  -7 49.4967 42.9816   1
   4   4   7 97.3753 46.8166   6
   4   4   8 3377.70 172.055   4
  -4  -4  -8 3306.13 139.737   1
   4   4   8 3014.69 137.598   6
  -4  -4  -8 3010.81 141.792   2
   4   4   9 4023.28 188.532   4
  -4  -4  -9 3948.41 161.147   1
   4   4   9 3509.57 158.643   6
  -4  -4  -9 3712.85 155.718   2
   4   4  10 185.870 77.1386   4
  -4  -4 -10 372.744 72.9498   2
  -4  -4 -10 473.746 74.5467   1
   4   4  10 262.272 73.1484   6
   4   4  11 767.603 111.723   4
  -4  -4 -11 775.928 96.9332   1
  -4  -4 -11 599.634 87.0169   2
   4   4  11 502.486 88.1571   6
   4   4  12 1904.79 156.335   4
  -4  -4 -12 1565.78 133.304   1
   4   4  12 1821.20 147.330   6
  -4  -4 -12 1691.91 130.042   2
   4   5 -10 220.626 92.0133   9
  -4  -5  10 266.030 73.8704   4
  -4  -5  10 142.565 60.5393   7
  -4  -5   9 248.855 74.2931   5
   4   5  -9 171.381 59.1617   1
   4   5  -9 302.959 83.2698   9
  -4  -5   9 224.197 65.6944   7
   4   5  -8 15.5647 45.9931   1
   4   5  -8 175.032 72.8680   9
  -4  -5   8 48.0989 48.8542   7
  -4  -5   8 80.5167 60.6709   5
  -4  -5   8 64.2294 44.6016   6
   4   5  -7 90.1888 44.3861   1
  -4  -5   7 97.0104 61.1609   5
   4   5  -7 131.807 59.5443   9
  -4  -5   7 64.6303 50.9600   7
  -4  -5   7 138.282 42.5705   2
  -4  -5   7 109.116 44.1871   6
   4   5  -6 130.653 55.5522   9
  -4  -5   6 33.2702 44.5875   7
  -4  -5   6 72.9909 39.5526   2
   4   5  -6 56.6925 37.5115   1
  -4  -5   6 30.1622 36.5787   6
  -4  -5   5 756.064 57.1069   2
   4   5  -5 723.344 53.0031   1
   4   5  -5 836.149 75.1116   9
  -4  -5   5 709.552 70.2878   7
   4   5  -5 703.513 61.8156   6
  -4  -5   5 849.739 57.7957   6
  -4  -5   4 91.5009 33.9517   6
   4   5  -4 206.703 32.9604   1
  -4  -5   4 150.015 34.4852  11
   4   5  -4 159.069 47.4456   9
  -4  -5   4 103.117 43.7242   7
  -4  -5   4 102.254 35.3553   2
  -4  -5   4 111.073 30.3481   6
  -4  -5   3 420.336 46.1419   2
  -4  -5   3 468.175 38.9777  11
  -4  -5   3 402.781 56.1059   7
  -4  -5   3 407.668 35.3865   6
  -4  -5   3 423.461 38.7879   6
   4   5  -3 413.742 34.8857   1
  -4  -5   2 5037.39 89.1672  11
  -4  -5   2 4497.09 113.127   8
  -4  -5   2 4923.28 143.358   7
  -4  -5   2 5039.71 91.3785   6
  -4  -5   2 4957.49 90.3225   6
   4   5  -2 5106.62 89.5121   1
   4   5  -2 5184.51 94.8933   1
  -4  -5   2 4806.52 124.523   2
  -4  -5   1 613.698 34.5672  11
  -4  -5   1 549.992 42.9182   8
  -4  -5   1 525.316 59.2549   7
  -4  -5   1 525.618 32.3584   6
   4   5  -1 538.640 33.6225   1
  -4  -5   1 520.967 32.3394   6
  -4  -5   1 610.042 54.6121   2
  -4  -5   0 5043.93 120.477   9
  -4  -5   0 4957.86 102.325   8
  -4  -5   0 5069.00 149.623   7
   4   5   0 5405.82 91.2856   1
  -4  -5   0 5353.44 95.6159   6
  -4  -5   0 5368.59 92.2226   6
  -4  -5   0 5184.08 139.145   2
   4   5   1 6799.76 115.012  11
   4   5   1 6369.84 187.443  10
  -4  -5  -1 6549.70 113.752   1
  -4  -5  -1 6545.63 113.824   8
   4   5   1 6990.70 114.776   1
  -4  -5  -1 7003.48 116.961   6
   4   5   1 6712.44 116.279   6
  -4  -5  -1 6603.90 168.912   2
   4   5   2 140.785 28.8071  11
   4   5   2 190.139 32.5313   1
   4   5   2 154.030 34.5571   8
  -4  -5  -2 134.875 25.4672   8
  -4  -5  -2 166.293 27.8862   3
  -4  -5  -2 115.570 41.6555   2
  -4  -5  -2 178.814 30.8974   1
  -4  -5  -2 156.095 30.7266   6
   4   5   2 121.658 27.5467   6
   4   5   3 2554.38 86.4386  11
   4   5   3 2486.78 84.4198   1
   4   5   3 2442.66 86.2961   8
  -4  -5  -3 2450.49 74.9831   8
  -4  -5  -3 2193.09 41.6738   3
  -4  -5  -3 2403.02 84.7536   6
  -4  -5  -3 2628.75 85.9785   1
   4   5   3 2415.52 83.4711   6
  -4  -5  -3 2204.18 107.701   2
   4   5   4 821.121 60.5024  11
   4   5   4 883.580 61.5031   1
   4   5   4 974.707 64.0761   8
  -4  -5  -4 821.489 52.3601   8
  -4  -5  -4 1048.20 63.5249   1
  -4  -5  -4 807.443 60.6519   6
   4   5   4 854.975 59.6689   6
  -4  -5  -4 879.291 73.9808   2
   4   5   5 2046.72 125.270   4
   4   5   5 2081.10 98.2383   8
  -4  -5  -5 1931.94 80.4846   8
  -4  -5  -5 2021.38 90.3952   1
   4   5   5 2074.85 97.0619   6
  -4  -5  -5 2115.58 107.008   2
   4   5   6 52.3670 71.3769   4
  -4  -5  -6 9.87531 46.9547   2
  -4  -5  -6-42.5853 37.7463   1
   4   5   6-48.9493 41.2770   6
   4   5   7 3836.13 173.370   4
  -4  -5  -7 3413.06 130.937   1
   4   5   7 3354.27 133.913   6
  -4  -5  -7 3399.91 146.499   2
   4   5   8 1284.25 114.526   4
  -4  -5  -8 1278.33 94.2297   1
   4   5   8 1462.76 105.347   6
  -4  -5  -8 1526.26 109.091   2
   4   5   9 2079.53 139.100   4
  -4  -5  -9 2015.40 116.183   1
   4   5   9 1884.30 116.509   6
  -4  -5  -9 1891.05 120.546   2
   4   5  10 1312.40 122.765   4
  -4  -5 -10 1515.65 109.793   1
   4   5  10 1403.39 111.294   6
  -4  -5 -10 1405.62 111.840   2
   4   5  11 9.56314 82.1664   4
  -4  -5 -11-9.95423 62.1985   2
  -4  -5 -11 87.7201 65.3481   1
   4   5  11 139.888 75.9776   6
   4   5  12 381.233 110.319   4
  -4  -5 -12 271.861 83.3571   2
  -4  -5 -12 307.214 77.3775   1
   4   5  12 299.352 85.9307   6
  -4  -6  10 105.929 72.5175   4
  -4  -6  10 133.830 67.7733   7
  -4  -6   9 2540.45 151.358   5
  -4  -6   9 2698.19 146.868   7
  -4  -6   8 824.063 97.2432   5
   4   6  -8 897.411 80.4961   1
   4   6  -8 887.319 96.9017   9
  -4  -6   8 1043.71 96.4265   7
  -4  -6   8 843.450 80.8712   6
  -4  -6   7-62.0842 55.4307   5
   4   6  -7 23.1350 58.8670   9
  -4  -6   7 26.3838 49.2993   7
  -4  -6   7-32.1060 45.9919   2
   4   6  -7 19.4787 45.3300   1
  -4  -6   7-55.2580 48.3040   6
   4   6  -6 1039.54 75.5375   1
  -4  -6   6 840.386 68.8099   2
   4   6  -6 905.017 83.1460   9
  -4  -6   6 871.507 82.9573   7
  -4  -6   6 840.108 69.0172   6
   4   6  -5 5337.50 139.313   1
  -4  -6   5 5488.52 136.763   2
   4   6  -5 5634.79 157.052   9
  -4  -6   5 5392.05 169.736   7
  -4  -6   5 5387.61 140.311   6
  -4  -6   4 141.427 42.6670   6
  -4  -6   4 176.334 45.2676  11
   4   6  -4 157.282 47.2797   9
  -4  -6   4 116.049 48.0601   7
  -4  -6   4 221.090 44.9524   2
   4   6  -4 148.354 35.0089   1
  -4  -6   4 166.878 36.0506   6
  -4  -6   3 90.5015 37.5332   6
  -4  -6   3 93.4863 34.4898  11
   4   6  -3 86.1518 37.2873   1
   4   6  -3 106.987 33.4797   1
  -4  -6   3 94.6518 49.1924   7
  -4  -6   3 148.433 43.3322   2
  -4  -6   3 106.379 32.1513   6
  -4  -6   2 16.6896 29.1733   6
  -4  -6   2 19.8414 28.0309  11
   4   6  -2-12.9058 25.4078   1
  -4  -6   2 25.8470 27.8823   8
   4   6  -2-3.60092 29.0390   1
  -4  -6   2-17.1497 48.2702   7
  -4  -6   2-0.48475 34.4493   2
  -4  -6   2 10.4970 29.0827   6
  -4  -6   1 15221.2 184.983  11
  -4  -6   1 15144.0 168.180   8
  -4  -6   1 14070.5 260.677   7
  -4  -6   1 14868.1 185.504   6
  -4  -6   1 15037.6 184.355   6
   4   6  -1 14748.6 185.073   1
  -4  -6   1 14466.2 223.757   2
  -4  -6   0 26669.9 251.357  11
  -4  -6   0 26295.1 225.848   9
  -4  -6   0 26601.5 198.577   8
  -4  -6   0 25269.8 338.667   7
  -4  -6   0 26181.1 251.649   6
   4   6   0 26776.5 245.155   1
  -4  -6   0 27035.4 248.221   6
  -4  -6   0 25763.5 311.711   2
   4   6   1 6386.41 130.308  11
  -4  -6  -1 7316.08 134.248   9
  -4  -6  -1 7024.58 98.3039   8
  -4  -6  -1 6566.80 179.989   7
   4   6   1 6946.39 130.358   1
  -4  -6  -1 7348.28 135.068   6
   4   6   1 6430.54 131.673   6
  -4  -6  -1 6736.12 165.110   2
   4   6   2 3689.61 103.174  11
  -4  -6  -2 3736.40 105.352   1
   4   6   2 3588.05 153.037  10
  -4  -6  -2 3670.31 74.5058   8
   4   6   2 3764.96 103.986   1
  -4  -6  -2 3812.29 104.551   6
   4   6   2 3933.18 108.470   6
  -4  -6  -2 3838.02 129.257   2
   4   6   3 1015.14 62.7257  11
   4   6   3 996.209 92.6765  10
   4   6   3 1009.26 56.0168   8
  -4  -6  -3 944.020 45.3335   8
   4   6   3 976.743 62.0105   1
  -4  -6  -3 912.754 36.6996   3
  -4  -6  -3 989.107 62.9763   6
   4   6   3 918.455 60.1550   6
  -4  -6  -3 1046.87 62.4107   1
  -4  -6  -3 1070.69 79.4863   2
   4   6   4 1389.87 77.3885  11
   4   6   4 1383.19 68.5412   8
   4   6   4 1326.49 73.9213   6
  -4  -6  -4 1397.42 77.0315   1
  -4  -6  -4 1359.91 91.7715   2
   4   6   5 51.2939 38.3823  11
  -4  -6  -5 24.4378 35.4073   1
   4   6   5-7.93398 38.4519   8
  -4  -6  -5 87.6263 52.4654   2
   4   6   5 5.38618 33.4221   6
  -4  -6  -6 27.0512 40.0338   1
   4   6   6 30.4712 44.2073  11
   4   6   6-38.2210 63.8962   4
  -4  -6  -6-16.8913 49.0623   2
   4   6   6 25.1976 46.1527   6
   4   6   7 180.611 56.5662  11
   4   6   7 173.143 73.7686   4
  -4  -6  -7 106.494 54.5548   2
  -4  -6  -7 34.0510 43.6104   1
   4   6   7 107.818 53.0277   6
   4   6   8 3987.21 190.852   4
   4   6   8 3787.22 163.018  11
  -4  -6  -8 3954.09 151.876   1
   4   6   8 3911.96 160.001   6
  -4  -6  -8 3995.27 156.198   2
   4   6   9 112.141 78.1404   4
  -4  -6  -9 147.212 66.7525   2
  -4  -6  -9 36.4580 53.7731   1
   4   6   9 68.7341 58.9940   6
   4   6  10 785.169 105.631   4
  -4  -6 -10 843.052 94.0345   1
   4   6  10 959.312 104.703   6
  -4  -6 -10 969.037 95.0473   2
   4   6  11 756.839 112.602   4
  -4  -6 -11 638.514 98.1590   1
   4   6  11 784.829 106.593   6
  -4  -6 -11 623.269 85.6054   2
   4   6  12 1554.41 149.079   4
  -4  -6 -12 1108.95 116.411   1
   4   6  12 1248.17 128.177   6
  -4  -6 -12 1147.16 109.146   2
  -4  -7   9 95.2256 66.4228   5
  -4  -7   9 88.6048 71.0285   7
  -4  -7   8 786.428 94.2350   7
  -4  -7   8 673.755 102.731   5
  -4  -7   7 381.970 80.4092   5
  -4  -7   7 279.142 68.7471   7
  -4  -7   7 344.950 62.8685   2
   4   7  -7 295.218 65.7717   1
  -4  -7   7 316.910 62.1704   6
   4   7  -6 2015.68 104.525   1
  -4  -7   6 1881.97 98.3424   2
  -4  -7   6 1745.25 114.729   7
  -4  -7   6 2024.29 105.328   6
  -4  -7   5 5005.10 144.460   2
   4   7  -5 5119.72 142.452   9
  -4  -7   5 4794.86 172.916   7
  -4  -7   5 5000.54 148.643   6
   4   7  -5 5132.95 146.934   1
  -4  -7   4 6409.84 161.153   2
  -4  -7   4 6555.87 191.018   7
  -4  -7   4 6187.87 155.126   6
   4   7  -4 6500.33 157.616   1
  -4  -7   3 3235.31 116.349   2
  -4  -7   3 2881.69 129.716   7
  -4  -7   3 2995.46 106.065   6
   4   7  -3 3338.26 108.614   1
  -4  -7   2 53.9697 41.0728   6
  -4  -7   2 100.393 39.3775  11
   4   7  -2 87.8626 33.6951   1
  -4  -7   2 99.7486 27.6190   8
   4   7  -2-2.23922 37.3905   1
  -4  -7   2 49.6246 42.3358   2
  -4  -7   2 58.3682 35.1958   6
  -4  -7   1 2585.58 105.432   2
  -4  -7   1 2512.06 91.4967  11
  -4  -7   1 2285.25 54.7291   8
  -4  -7   1 2375.82 116.731   7
  -4  -7   1 2760.76 96.3464   6
  -4  -7   1 2451.51 90.2741   6
   4   7  -1 2461.44 93.2224   1
  -4  -7   0 3036.75 113.472   2
  -4  -7   0 3110.30 101.433  11
  -4  -7   0 2969.72 130.658   7
  -4  -7   0 3123.37 102.073   6
   4   7   0 2999.13 100.296   1
  -4  -7   0 3181.41 102.028   6
  -4  -7  -1 1803.26 82.8470  11
   4   7   1 1913.13 85.0253  11
  -4  -7  -1 1731.26 54.7571   9
  -4  -7  -1 1613.47 99.9677   7
   4   7   1 1817.70 81.1060   1
  -4  -7  -1 1734.42 79.6784   6
   4   7   1 2012.19 86.4875   6
  -4  -7  -1 1644.46 89.5930   2
   4   7   2 239.763 44.0297   6
   4   7   2 219.027 42.6887  11
  -4  -7  -2 276.347 60.6768   7
  -4  -7  -2 251.054 52.3033   2
   4   7   2 152.933 40.1172   1
  -4  -7  -2 240.114 44.3119   6
   4   7   3 118.239 38.4792   6
   4   7   3 72.2813 34.1812  11
   4   7   3 131.997 66.4385  10
   4   7   3 141.822 25.2008   8
  -4  -7  -3 170.870 55.3226   2
  -4  -7  -3 135.847 28.3707   3
  -4  -7  -3 214.142 46.5855   1
   4   7   4 1162.50 73.3793  11
   4   7   4 1217.97 105.789  10
   4   7   4 1190.61 59.3628   8
  -4  -7  -4 1021.65 38.7325   3
   4   7   4 1330.06 79.5604   6
  -4  -7  -4 1125.93 73.5434   1
  -4  -7  -4 1184.16 87.8542   2
   4   7   5 2613.53 113.667  11
   4   7   5 2874.50 156.562  10
   4   7   5 2620.74 93.7738   8
   4   7   5 2520.58 110.719   6
  -4  -7  -5 2578.30 111.901   1
  -4  -7  -5 2562.96 120.205   2
   4   7   6 7676.60 199.125  11
   4   7   6 7924.43 170.962   8
   4   7   6 7945.25 201.033   6
  -4  -7  -6 7877.92 198.646   1
  -4  -7  -6 7352.48 199.052   2
   4   7   7 1142.44 94.4476  11
  -4  -7  -7 1213.41 90.9768   1
   4   7   7 1256.32 95.6579   6
  -4  -7  -7 1336.23 99.8229   2
   4   7   8 1247.15 100.470  11
  -4  -7  -8 1105.97 90.3969   1
   4   7   8 1119.73 93.8763   6
  -4  -7  -8 1045.78 90.6278   2
  -4  -7  -9-8.55079 54.6207   1
   4   7   9-61.9786 64.4862  11
   4   7   9-14.9811 71.4433   4
  -4  -7  -9 59.8466 61.0705   2
   4   7   9 80.6456 66.2278   6
  -4  -7 -10 240.068 74.3264   1
   4   7  10 172.709 79.4335  11
   4   7  10 371.962 96.1589   4
  -4  -7 -10 173.162 64.8483   2
   4   7  10 234.396 77.0358   6
  -4  -7 -11 79.7967 68.9801   1
   4   7  11 225.253 79.4198  11
   4   7  11 159.386 91.0981   4
  -4  -7 -11 250.690 73.6476   2
   4   7  11 302.264 81.8337   6
   4   7  12 495.305 98.2753  11
   4   7  12 740.998 127.364   4
  -4  -7 -12 871.568 107.399   1
   4   7  12 588.471 108.999   6
  -4  -7 -12 601.026 90.2100   2
  -4  -8   8 85.7546 67.4419   5
  -4  -8   8 193.946 76.7450   7
  -4  -8   7 21.4289 72.0010   5
  -4  -8   7 41.3901 63.7058   7
  -4  -8   7 40.5758 59.1828   2
   4   8  -7 141.896 63.4340   1
  -4  -8   6 79.0668 57.2917   7
  -4  -8   6-41.6437 53.5750   2
   4   8  -6 77.1866 49.8785   1
  -4  -8   6 119.051 53.8368   6
  -4  -8   5 421.678 73.3399   7
  -4  -8   5 260.194 60.0855   2
  -4  -8   5 315.855 58.9412   6
   4   8  -5 280.756 60.0784   1
  -4  -8   4 16791.1 271.415   2
  -4  -8   4 16962.7 319.610   7
  -4  -8   4 15920.5 269.261   6
   4   8  -4 16460.6 268.508   1
  -4  -8   3 1524.67 91.4356   2
  -4  -8   3 1500.44 102.770   7
  -4  -8   3 1607.85 91.3873   6
   4   8  -3 1331.75 82.3333   1
  -4  -8   2 4229.17 140.468   2
  -4  -8   2 4171.95 157.572   7
  -4  -8   2 4440.84 138.071   6
   4   8  -2 4600.66 135.796   1
  -4  -8   1 3258.22 123.924   2
  -4  -8   1 3028.33 136.427   7
  -4  -8   1 3229.91 115.627   6
  -4  -8   0 133.918 52.1311   7
  -4  -8   0 164.845 52.3417   2
  -4  -8   0 224.401 45.2445   6
   4   8   1 166.251 47.7757  11
  -4  -8  -1 137.874 57.5517   7
  -4  -8  -1 133.247 49.3507   2
  -4  -8  -1 87.3403 42.3018   6
  -4  -8  -2 1549.82 93.8872   2
   4   8   2 1608.02 91.4955  11
  -4  -8  -2 1534.24 105.389   7
  -4  -8  -2 1471.57 76.2399   3
   4   8   2 1555.21 88.2089   6
   4   8   3 7083.81 178.434  11
  -4  -8  -3 6974.10 179.081   1
  -4  -8  -3 6531.97 128.906   3
   4   8   3 7023.67 180.145   6
  -4  -8  -3 6559.47 176.786   2
  -4  -8  -4 816.227 75.3805   1
   4   8   4 816.591 70.9234  11
   4   8   4 976.491 110.913  10
   4   8   4 700.431 39.7039   8
   4   8   4 793.467 72.2175   6
  -4  -8  -4 766.454 73.3438   2
   4   8   5 42141.9 445.900  11
   4   8   5 42788.6 570.687  10
   4   8   5 42026.3 451.955   6
  -4  -8  -5 41435.9 455.253   2
  -4  -8  -5 43069.2 456.761   1
   4   8   6 1758.15 104.300  11
   4   8   6 1891.17 139.627  10
   4   8   6 1887.97 110.482   6
  -4  -8  -6 1807.77 107.646   1
  -4  -8  -6 1855.95 107.285   2
   4   8   7 2152.94 120.823  11
   4   8   7 1997.50 117.477   6
  -4  -8  -7 2195.76 123.517   1
  -4  -8  -7 2161.49 118.666   2
   4   8   8 10347.2 263.951  11
   4   8   8 9929.46 257.997   6
  -4  -8  -8 10644.6 261.201   1
  -4  -8  -8 10561.8 243.399   2
   4   8   9 401.968 79.5580  11
  -4  -8  -9 427.868 75.7528   1
  -4  -8  -9 453.152 69.5183   2
   4   8   9 514.664 85.9465   6
   4   8  10 317.603 80.7189  11
  -4  -8 -10 383.190 79.2749   1
  -4  -8 -10 353.393 68.9477   2
   4   8  10 262.715 71.8179   6
   4   8  11-95.1371 83.8871  11
  -4  -8 -11-40.5404 67.8446   1
  -4  -8 -11-17.0108 60.6590   2
   4   8  11-108.477 78.6122   6
   4   8  12 14.7256 81.4795  11
  -4  -8 -12-25.7018 75.1360   1
   4   8  12 109.455 102.776   4
  -4  -8 -12 15.1826 62.4162   2
   4   8  12-92.2265 85.4136   6
  -4  -9   7 224.004 82.9384   5
  -4  -9   7 186.050 73.5355   2
  -4  -9   6-94.6499 69.2088   7
   4   9  -6-63.0005 59.9726   1
  -4  -9   6-27.5762 58.5746   2
  -4  -9   5 3047.35 157.025   7
  -4  -9   5 2778.45 134.906   6
   4   9  -5 2767.36 132.993   1
  -4  -9   4 3186.68 139.180   2
  -4  -9   4 3306.40 157.188   7
  -4  -9   4 3479.38 141.608   6
   4   9  -4 3175.69 134.425   1
  -4  -9   3 2431.52 118.234   2
  -4  -9   3 2865.38 144.539   7
  -4  -9   3 2367.74 116.905   6
   4   9  -3 2691.52 123.117   1
   4   9  -2 102.117 49.3965   1
  -4  -9   2 71.9225 59.1175   7
  -4  -9   2 122.110 54.0159   2
  -4  -9   2 63.7548 46.3290   6
  -4  -9   1 453.783 65.4148   2
  -4  -9   1 504.361 72.7738   7
  -4  -9   1 518.678 63.5828   6
  -4  -9   0 97.0156 56.7701   7
  -4  -9   0 267.008 61.3960   2
  -4  -9   0 112.782 51.3523   6
  -4  -9  -1 726.696 74.4046   2
  -4  -9  -1 786.993 83.4308   7
  -4  -9  -1 755.109 75.2525   6
  -4  -9  -2 1505.38 94.5402   2
   4   9   2 1544.90 96.9098  11
  -4  -9  -2 1563.25 107.315   7
   4   9   2 1547.29 97.1399   6
  -4  -9  -3 1189.87 91.2104   2
   4   9   3 1220.99 89.0165  11
  -4  -9  -3 1149.50 99.2779   7
   4   9   3 1301.83 94.7581   6
  -4  -9  -4 26539.6 364.079   2
   4   9   4 26547.2 374.630  11
  -4  -9  -4 27027.1 384.026   1
   4   9   4 26960.3 384.971   6
   4   9   5 3355.16 140.562  11
  -4  -9  -5 3329.33 141.701   1
   4   9   5 3305.47 182.736  10
   4   9   5 3637.26 150.670   6
  -4  -9  -5 3254.63 132.774   2
  -4  -9  -6 5416.00 181.072   1
   4   9   6 5035.02 177.909  11
   4   9   6 4748.50 214.796  10
   4   9   6 5043.47 180.068   6
  -4  -9  -6 4953.57 166.218   2
  -4  -9  -7 280.812 68.2929   1
   4   9   7 302.589 67.0137  11
   4   9   7 318.298 95.9557  10
  -4  -9  -7 214.832 60.3603   2
   4   9   7 311.033 71.2997   6
   4   9   8 679.038 83.5978  11
   4   9   8 816.031 115.983  10
   4   9   8 909.516 92.3325   6
  -4  -9  -8 707.396 88.8699   1
  -4  -9  -8 699.931 77.0715   2
   4   9   9 88.5694 67.5125  11
  -4  -9  -9 211.284 63.5298   2
  -4  -9  -9 200.016 69.7602   1
   4   9   9 129.466 70.0764   6
   4   9  10 146.075 75.5411  11
  -4  -9 -10 171.305 66.2439   2
  -4  -9 -10 76.4554 66.9777   1
   4   9  10 144.980 74.2938   6
   4   9  11 1692.38 143.295  11
   4   9  11 1612.51 140.955   6
  -4  -9 -11 1849.53 142.117   1
  -4  -9 -11 1611.55 115.669   2
  -4 -10   5 521.114 87.9073   2
  -4 -10   5 542.800 93.2694   7
   4  10  -5 514.293 81.0415   1
   4  10  -4 20.6331 58.4396   1
  -4 -10   4 33.3122 67.2740   7
  -4 -10   4-18.3946 62.4260   2
  -4 -10   4 22.7834 58.2719   6
   4  10  -3 96.9936 52.9394   1
  -4 -10   3 112.378 68.1914   7
  -4 -10   3 137.674 67.8815   2
  -4 -10   3 220.539 67.5033   6
  -4 -10   2 1654.42 109.080   2
  -4 -10   2 1516.63 115.800   7
  -4 -10   2 1776.20 112.717   6
   4  10  -2 1658.12 107.908   1
  -4 -10   1 240.985 68.6002   7
  -4 -10   1 27.2287 54.6757   2
  -4 -10   1 216.371 61.3867   6
  -4 -10   0 1770.98 110.320   2
  -4 -10   0 1910.02 124.543   7
  -4 -10   0 1919.49 112.616   6
  -4 -10  -1 10783.7 242.474   2
  -4 -10  -1 10886.3 271.639   7
  -4 -10  -2 2585.06 126.404   2
   4  10   2 2557.53 134.534  11
  -4 -10  -2 2512.43 140.801   7
  -4 -10  -2 2585.54 134.049   6
  -4 -10  -3 1518.18 101.846   2
   4  10   3 1500.10 111.370  11
  -4 -10  -3 1485.57 115.227   7
   4  10   3 1587.26 112.611   6
  -4 -10  -4 1400.30 99.5343   2
   4  10   4 1457.37 108.416  11
  -4 -10  -4 1383.16 114.734   7
   4  10   4 1276.92 104.843   6
  -4 -10  -5 1777.40 110.607   2
   4  10   5 1451.22 106.468  11
  -4 -10  -5 1533.92 114.279   1
   4  10   5 1541.02 113.523   6
  -4 -10  -6 1659.59 107.377   2
   4  10   6 1367.52 107.604  11
  -4 -10  -6 1836.26 122.492   1
   4  10   6 1430.11 113.618   6
   4  10   7 189.627 69.2135   6
   4  10   7 27.4106 55.6417  11
   4  10   7 2.02114 82.8972  10
  -4 -10  -7 108.337 54.9984   2
  -4 -10  -7-3.36705 58.3424   1
   4  10   8 79.5757 61.5522  11
   4  10   8 209.147 83.9392  10
  -4 -10  -8 200.208 74.6337   1
  -4 -10  -8 229.922 63.6636   2
   4  10   8 161.993 75.0147   6
  -4 -10  -9 759.296 86.0713   2
   4  10   9 758.825 102.961  11
   4  10   9 805.885 125.427  10
   4  10   9 690.516 98.7177   6
  -4 -10  -9 804.171 96.8339   1
  -4 -10 -10 4813.33 178.658   2
   4  10  10 4427.00 208.559  11
   4  10  10 4638.78 251.114  10
   4  10  10 4843.30 215.585   6
  -4 -10 -10 5100.34 218.866   1
  -4 -11   4 58.7072 71.3310   7
  -4 -11   4 56.4147 71.9021   2
   4  11  -3 331.120 74.5701   1
  -4 -11   3 349.794 83.0278   7
  -4 -11   3 205.461 73.1454   2
  -4 -11   3 61.9524 60.1986   6
  -4 -11   2 447.984 87.1264   7
  -4 -11   2 417.382 81.8869   2
  -4 -11   2 564.538 86.8689   6
   4  11  -2 550.118 83.8513   1
  -4 -11   1 22.8635 66.5625   7
  -4 -11   1 30.8807 60.6330   2
  -4 -11   1-31.9687 65.2089   6
  -4 -11   0 900.224 93.7006   2
  -4 -11   0 863.376 103.738   7
  -4 -11   0 888.675 93.6580   6
  -4 -11  -1 965.612 93.8631   2
  -4 -11  -1 958.490 99.5212   6
  -4 -11  -2 1330.80 103.586   2
  -4 -11  -2 1135.63 107.968   7
  -4 -11  -2 1401.20 111.421   6
   4  11   3-12.5999 61.7060  11
  -4 -11  -3 87.0344 67.0366   7
  -4 -11  -3 94.5390 64.3357   2
  -4 -11  -4 1572.69 108.822   2
   4  11   4 1497.83 120.590  11
  -4 -11  -4 1568.01 122.695   7
   4  11   4 1661.54 129.538   6
   4  11   5 473.465 83.1384   6
  -4 -11  -5 540.514 79.6545   2
   4  11   5 359.561 76.3549  11
  -4 -11  -5 467.542 85.5698   7
   4  11   6 427.508 88.4658   6
   4  11   6 317.395 78.6100  11
  -4 -11  -6 388.545 88.2608   7
  -4 -11  -6 371.305 71.1080   2
  -4 -11  -6 537.952 88.8096   1
  -4 -11  -7 896.397 92.8551   2
   4  11   7 1031.74 111.103  11
  -4 -11  -7 1030.68 109.420   1
   4  11   7 739.529 98.5342   6
  -4 -11  -8 523.306 81.5288   2
  -4 -11  -8 546.056 93.5723   1
   4  11   8 515.358 96.4759  11
   4  11   8 657.704 106.975   6
   4  11   9 363.706 96.0073   6
  -4 -11  -9 429.125 98.8872   1
   4  11   9 259.299 85.2610  11
   4  11   9 387.311 117.325  10
  -4 -11  -9 139.669 63.5077   2
   4  12  -2 592.605 92.0921   1
  -4 -12   2 691.477 103.895   7
  -4 -12   2 457.278 90.3245   2
  -4 -12   1 768.938 101.393   2
  -4 -12   1 697.913 101.048   7
  -4 -12   1 807.664 104.710   6
  -4 -12   0 140.590 76.9279   7
  -4 -12   0 83.8460 69.8191   2
  -4 -12   0-41.7961 69.2838   6
  -4 -12  -1 341.447 82.1135   7
  -4 -12  -1 212.867 75.9137   2
  -4 -12  -2 46.4583 70.3911   7
  -4 -12  -2-74.6553 67.4977   2
  -4 -12  -2-113.859 75.8223   6
   4  12   3 104.646 71.8330  11
  -4 -12  -3-14.9341 67.8205   7
  -4 -12  -3 50.5106 65.7507   2
  -4 -12  -3 115.213 72.8572   6
   4  12   4 52.1368 71.8201   6
   4  12   4 139.215 78.8484  11
  -4 -12  -4 175.717 85.2882   7
  -4 -12  -4 193.168 73.9041   2
  -4 -12  -5 984.525 102.590   2
   4  12   5 1041.56 118.119  11
  -4 -12  -5 875.849 106.645   7
   4  12   5 1003.54 120.622   6
   4  12   6 18.4237 77.8552   6
   4  12   6 68.6568 80.1607  11
  -4 -12  -6 14.5802 74.2545   7
  -4 -12  -6 76.1165 63.9189   2
  -4 -12  -7 3168.96 156.706   2
   4  12   7 3273.94 187.104  11
  -4 -12  -7 3873.89 195.969   1
  -4 -12  -7 3595.79 191.586   7
   4  12   7 3512.13 193.352   6
   4  12   8 129.203 88.1181   6
  -4 -12  -8 53.3044 78.8728   1
   4  12   8 85.5968 80.3404  11
  -4 -12  -8 172.134 73.8946   2
  -4 -13  -2 141.271 75.8209   7
  -4 -13  -3 281.202 89.0062   7
  -4 -13  -3 191.977 84.7709   6
   4  13   4 879.365 120.184  11
  -4 -13  -4 854.219 109.890   7
  -4 -13  -4 1031.30 123.179   6
  -5   8   4 399.642 96.7012   8
   5  -8  -4 539.724 113.783   6
  -5   8   3 223.215 89.9023   8
   5  -8  -3 154.707 90.0914   6
  -5   8   2 961.244 125.052   8
   5  -8  -2 1069.78 132.316   6
  -5   8   1 79.6860 81.9637   8
   5  -8  -1 150.446 91.9095   6
  -5   7   7 222.474 84.1079  11
  -5   7   7 228.944 98.0836   8
  -5   7   7 213.270 80.8020   3
   5  -7  -7 245.539 90.8335   6
  -5   7   6 4380.68 217.121   8
   5  -7  -6 4806.39 217.387   6
  -5   7   6 4710.02 213.571   3
  -5   7   5 9555.37 305.417   8
   5  -7  -5 10027.9 300.269   6
  -5   7   5 9805.00 294.050   3
  -5   7   4 19.9223 73.3706   8
  -5   7   4-76.1505 70.9281   3
   5  -7  -4 166.062 82.1405   6
  -5   7   3 112.917 77.1421   8
  -5   7   3 125.076 74.5760   3
   5  -7  -3 15.1188 73.0556   6
  -5   7   2-47.7521 71.5099   8
  -5   7   2 15.5525 68.6866   3
   5  -7  -2 86.5824 81.7936   6
  -5   7   1-26.0554 70.5522   8
  -5   7   1 114.778 71.1109   3
   5  -7  -1 120.546 78.2923   6
  -5   7   0-65.5998 69.5236   1
  -5   7   0 77.3008 72.9311   8
  -5   7   0 89.1580 71.3878   3
   5  -7   0-14.3593 83.5872   6
  -5   7  -1 587.711 96.0988   8
  -5   7  -1 347.911 90.8210   1
   5  -7   1 525.123 102.739   6
  -5   7  -2 144.272 77.2657   8
  -5   7  -2 169.012 78.3029   1
   5  -7   2 73.9221 82.9292   6
  -5   6   9 216.850 78.3955   6
  -5   6   9 348.650 106.428   8
  -5   6   8 9258.05 273.420  11
  -5   6   8 9531.68 317.094   8
  -5   6   8 9939.48 311.483   3
  -5   6   8 9600.72 279.453   6
  -5   6   7 2343.30 143.054  11
  -5   6   7 2279.09 174.030   8
  -5   6   7 2822.24 172.685   3
  -5   6   7 2393.42 146.208   6
  -5   6   6 833.727 98.9431  11
  -5   6   6 598.699 105.196   8
   5  -6  -6 708.707 97.3726   6
  -5   6   6 732.046 105.055   3
  -5   6   5 413.732 93.8316   8
   5  -6  -5 600.984 96.4312   6
  -5   6   5 681.847 96.6074   3
  -5   6   4 183.935 81.6579   8
  -5   6   4 197.803 72.2196   3
   5  -6  -4 124.971 72.7486   6
  -5   6   3 43.5682 66.5579   8
  -5   6   3 88.4840 65.1054   3
   5  -6  -3 58.4571 61.5121   6
  -5   6   2 822.261 101.697   8
   5  -6  -2 855.649 99.9005   6
  -5   6   2 749.500 94.9039   3
  -5   6   1 210.944 80.1863   8
  -5   6   1 184.073 71.8964   3
   5  -6  -1 110.722 69.3970   6
  -5   6   0 5657.63 214.819   8
  -5   6   0 5919.17 218.338   3
  -5   6   0 5416.79 204.662   1
   5  -6   1 5452.85 178.267   4
  -5   6  -1 5539.56 213.899   8
   5  -6   1 5637.16 224.567   6
  -5   6  -1 5846.06 219.328   3
  -5   6  -1 5426.16 210.490   1
   5  -6   2 1574.94 114.760   4
  -5   6  -2 1458.34 122.937   8
   5  -6   2 1823.19 144.416   6
  -5   6  -2 1744.76 132.706   1
   5  -6   3 722.066 97.2564   4
  -5   6  -3 848.348 94.7801   8
   5  -6   3 676.644 105.986   6
  -5   6  -3 632.392 98.7417   1
   5  -6   4 451.691 86.2302   4
  -5   6  -4 472.133 89.5376   8
   5  -6   4 449.539 105.066   6
  -5   6  -4 709.948 102.968   1
   5  -5 -10 144.622 85.9619   1
  -5   5   9 13898.4 318.920  11
   5  -5  -9 13052.1 413.788   9
  -5   5   9 13253.1 356.689   3
  -5   5   9 13309.2 315.871   6
  -5   5   8 154.052 68.8672   6
  -5   5   8 102.744 69.7196  11
  -5   5   8-0.92294 79.3152   8
  -5   5   7 563.356 87.2751  11
  -5   5   7 549.202 99.7940   8
  -5   5   7 503.630 90.4566   3
  -5   5   7 640.880 88.6359   6
  -5   5   6 889.950 91.6799  11
  -5   5   6 745.547 106.742   8
  -5   5   6 699.558 95.4367   3
  -5   5   5 20.1859 53.5735  11
  -5   5   5 22.9910 66.1458   8
  -5   5   5 174.715 72.7581   3
   5  -5  -5 28.4852 59.9786   6
  -5   5   4 206.230 76.8077   8
  -5   5   4 138.852 67.4837   3
   5  -5  -4 77.9537 56.4159   6
  -5   5   3 43.0358 60.5475   8
  -5   5   3 172.939 65.8367   3
   5  -5  -3-12.9147 58.4509   6
  -5   5   2 1400.19 118.449   8
   5  -5  -2 1318.39 106.182   6
  -5   5   2 1483.97 112.044   3
   5  -5  -1 1316.02 80.8140   4
  -5   5   1 1321.01 111.164   8
   5  -5  -1 1146.77 101.907   6
  -5   5   1 1218.22 103.771   3
   5  -5   0 16100.4 274.874   4
  -5   5   0 17158.4 364.133   8
   5  -5   0 15156.2 325.929   6
  -5   5   0 16100.0 327.170   3
  -5   5   0 14833.2 309.137   1
   5  -5   1 2353.98 119.257   4
  -5   5  -1 2275.87 144.064   8
   5  -5   1 2398.02 145.803   6
  -5   5  -1 2440.50 139.153   3
  -5   5  -1 2321.45 134.141   1
   5  -5   2 862.762 86.6017   4
  -5   5  -2 886.135 98.9470   8
   5  -5   2 1037.13 109.511   6
  -5   5  -2 1034.90 102.437   1
   5  -5   3 5610.12 195.970   4
  -5   5  -3 6506.18 226.548   8
   5  -5   3 5835.92 226.113   6
  -5   5  -3 6179.40 221.484   1
   5  -5   4 1905.47 131.760   4
  -5   5  -4 2168.43 139.322   8
   5  -5   4 1977.88 148.320   6
  -5   5  -4 1912.64 134.047   1
   5  -5   5-5.41678 69.0400   4
  -5   5  -5 72.5665 69.8054   8
  -5   5  -5 113.443 68.6373   1
   5  -5   5 57.9440 77.5634   6
   5  -5   6 135.704 81.3433   4
  -5   5  -6-47.5067 68.1142   8
  -5   5  -6 52.2761 81.0459   1
   5  -5   6-69.9744 90.6627   6
   5  -4 -10 285.398 121.026   9
   5  -4 -10 447.936 85.4006   1
  -5   4  10 376.652 98.6893   3
  -5   4   9 78.1669 59.0714   6
  -5   4   9 53.4534 61.9859  11
   5  -4  -9-31.3718 100.890   9
  -5   4   9 117.909 81.5679   8
   5  -4  -9 146.663 64.7820   1
  -5   4   9 48.2143 69.6278   3
  -5   4   8 158.438 62.6145   6
  -5   4   8 64.6019 60.7871  11
   5  -4  -8-17.1685 92.7182   9
  -5   4   8-11.8002 73.7897   8
  -5   4   7 1249.27 99.5264  11
  -5   4   7 1053.51 114.008   8
  -5   4   7 1358.43 119.934   3
  -5   4   7 937.179 89.6889   6
  -5   4   6 105.882 58.3562   6
  -5   4   6 63.5352 51.7407  11
  -5   4   6 39.3003 71.0631   8
  -5   4   6 202.166 70.9750   3
  -5   4   5 340.927 64.0914  11
  -5   4   5 269.768 78.3364   8
  -5   4   5 452.119 77.4199   3
   5  -4  -5 363.495 70.8960   6
  -5   4   4 59.6789 65.3290   8
  -5   4   4 208.133 63.8126   3
   5  -4  -4 137.528 56.7775   6
  -5   4   3 3499.81 167.367   8
   5  -4  -3 4014.14 155.535   6
  -5   4   3 3703.89 157.534   3
  -5   4   2 125.130 63.7442   8
   5  -4  -2 184.044 41.3853   4
  -5   4   2 283.709 62.1016   3
   5  -4  -2 128.842 54.7886   6
   5  -4  -1 702.493 65.0895   4
  -5   4   1 685.993 87.7862   8
   5  -4  -1 690.388 83.3783   6
  -5   4   1 720.975 78.5892   3
   5  -4   0 845.642 71.0354   4
  -5   4   0 784.451 91.5468   8
   5  -4   0 659.980 80.0332   6
  -5   4   0 779.170 87.1616   3
  -5   4   0 728.960 76.9453   1
   5  -4   1 1917.56 111.519   4
  -5   4  -1 1873.07 122.417   8
   5  -4   1 1850.82 120.233   6
  -5   4  -1 1770.03 113.880   3
  -5   4  -1 1623.97 109.452   1
   5  -4   2 890.706 86.1700   4
  -5   4  -2 939.271 93.5263   8
   5  -4   2 905.321 95.1206   6
  -5   4  -2 883.925 91.3450   3
  -5   4  -2 818.034 88.2668   1
   5  -4   3 558.116 78.0872   4
  -5   4  -3 691.468 89.6188   8
   5  -4   3 456.572 83.9522   6
  -5   4  -3 537.547 79.8194   1
   5  -4   4 512.918 82.1035   4
  -5   4  -4 457.654 79.5358   8
   5  -4   4 608.531 90.2889   6
  -5   4  -4 692.616 88.8316   1
   5  -4   5 92.9016 67.5187   4
  -5   4  -5 261.664 75.1636   8
  -5   4  -5 248.609 75.3635   1
   5  -4   5 182.155 75.3821   6
  -5   4  -6 3976.32 196.485   1
   5  -4   6 3872.96 190.179   4
  -5   4  -6 4340.82 189.697   8
   5  -4   6 4132.89 206.630   6
  -5   4  -7 529.493 94.5210   8
   5  -4   7 571.723 100.344   4
  -5   4  -7 283.748 84.7369   1
   5  -4   7 256.392 90.4305   6
  -5   3  11 624.885 115.784   3
   5  -3 -10-133.063 111.782   9
  -5   3  10-0.53050 77.3221   3
  -5   3   9-20.3249 51.1522   6
  -5   3   9 94.2738 55.1297  11
   5  -3  -9-70.9443 99.8965   9
   5  -3  -9 71.9696 60.3510   1
  -5   3   9 44.8679 74.5674   3
  -5   3   8 783.391 78.3832  11
   5  -3  -8 672.288 80.8050   1
   5  -3  -8 547.467 112.340   9
  -5   3   8 571.928 92.4257   3
  -5   3   8 724.070 79.0222   6
  -5   3   7 252.956 60.0488   6
  -5   3   7 284.563 60.3843  11
   5  -3  -7 140.826 87.6862   9
  -5   3   7 398.095 85.2951   8
  -5   3   7 309.076 75.1008   3
  -5   3   6 3828.79 141.431  11
  -5   3   6 3374.08 170.307   8
  -5   3   6 3538.78 162.888   3
  -5   3   6 3874.11 142.446   6
  -5   3   5-0.25977 42.7541  11
  -5   3   5 43.2096 64.4667   8
  -5   3   5 62.7752 55.5404   3
  -5   3   4 4546.54 187.634   8
  -5   3   4 5038.17 180.768   3
   5  -3  -4 4742.90 154.591   6
  -5   3   3 1759.04 111.040   3
   5  -3  -3 1747.29 99.7698   6
  -5   3   2 91.3772 62.2789   8
   5  -3  -2 66.5195 39.1671   4
  -5   3   2 72.6965 47.6077   3
   5  -3  -2 99.9457 51.8306   6
   5  -3  -1 1154.39 76.4567   4
  -5   3   1 1286.84 104.788   8
  -5   3   1 1337.97 96.0708   3
   5  -3  -1 1325.13 89.2398   6
  -5   3   0 47.7260 40.6667   1
   5  -3   0 129.442 46.8117   4
  -5   3   0 86.0842 61.7026   8
  -5   3   0 101.663 52.5044   3
   5  -3   0 89.9762 53.1159   6
   5  -3   1 692.692 73.2248   4
  -5   3  -1 551.988 78.7876   8
   5  -3   1 714.698 78.2523   6
  -5   3  -1 657.562 72.3052   3
  -5   3  -1 689.999 72.7552   1
   5  -3   2-7.67610 52.8009   4
  -5   3  -2-53.2267 55.5575   8
  -5   3  -2-17.4682 49.1368   1
  -5   3  -2-95.1405 51.0617   3
   5  -3   2-27.5484 49.9458   6
   5  -3   3 108.350 60.1860   4
  -5   3  -3 169.794 63.2640   8
  -5   3  -3 115.374 51.0045   1
   5  -3   3 146.638 63.4024   6
   5  -3   4 187.425 65.3837   4
  -5   3  -4 82.6061 51.7695   1
   5  -3   4 153.637 69.6165   6
   5  -3   5 5211.72 194.428   4
  -5   3  -5 4895.50 188.288   8
   5  -3   5 4902.41 197.323   6
  -5   3  -5 5215.98 190.242   1
   5  -3   6 16.6371 70.4248   4
  -5   3  -6 13.4177 61.4141   8
  -5   3  -6 150.384 64.5141   1
   5  -3   6 124.990 68.4818   6
   5  -3   7 97.4136 75.0969   4
  -5   3  -7 255.445 77.9414   8
  -5   3  -7 223.602 81.1575   1
   5  -3   7 307.740 89.6454   6
  -5   3  -8 801.975 108.110   1
  -5   3  -8 738.384 103.309   8
   5  -3   8 533.004 106.541   4
   5  -3   8 688.552 116.602   6
   5  -2 -11 63.1566 108.030   9
  -5   2  11 99.6923 79.5841   3
   5  -2 -10 1450.05 165.526   9
  -5   2  10 1372.48 130.027   3
  -5   2   9 242.241 58.4448   6
  -5   2   9 280.883 57.0401  11
   5  -2  -9 191.496 102.710   9
   5  -2  -9 206.581 59.8997   1
  -5   2   9 164.153 82.6296   3
   5  -2  -8 329.374 59.0432   1
  -5   2   8 317.817 55.1580  11
   5  -2  -8 431.902 111.074   9
  -5   2   8 408.360 83.3548   3
  -5   2   8 392.252 62.9673   6
  -5   2   7 82.3654 45.0952   6
  -5   2   7 155.758 48.0380  11
   5  -2  -7-6.44228 87.2454   9
   5  -2  -7 205.216 54.9712   1
  -5   2   7 196.190 71.0213   3
  -5   2   6 856.966 70.4517  11
  -5   2   6 805.402 95.6069   8
  -5   2   6 978.745 101.368   3
  -5   2   6 850.295 70.1953   6
  -5   2   5 2247.06 97.8191  11
  -5   2   5 2288.07 137.458   8
  -5   2   5 2383.26 132.326   3
  -5   2   5 2315.60 100.094   6
   5  -2  -4 71.8220 39.2530  11
  -5   2   4 81.8225 41.0891  11
  -5   2   4 180.818 64.9188   8
  -5   2   4-7.00584 50.1803   3
   5  -2  -4 106.678 42.0077   6
   5  -2  -4 142.485 44.1773   6
   5  -2  -3 1163.34 73.1972  11
  -5   2   3 1226.46 43.7020   4
  -5   2   3 1363.67 96.4593   3
   5  -2  -3 1291.45 78.5799   6
  -5   2   3 1139.39 72.6033   1
   5  -2  -3 1258.01 75.2587   6
   5  -2  -2 1400.25 77.2060  11
  -5   2   2 1446.31 56.8544   4
  -5   2   2 1455.09 110.739   8
  -5   2   2 1547.48 96.6738   3
   5  -2  -2 1565.64 82.8268   6
   5  -2  -2 1452.90 79.7079   6
  -5   2   2 1374.69 76.4085   1
  -5   2   1 29.6700 29.8234   4
  -5   2   1 15.6263 57.5987   8
   5  -2  -1 112.796 42.8805   4
  -5   2   1 32.8365 17.4266   7
  -5   2   1 11.5498 14.4526   7
  -5   2   1 93.4117 49.5353   3
   5  -2  -1 0.77613 37.2388   6
  -5   2   0 36.9562 34.1015   4
  -5   2   0 50.1555 35.0954   1
  -5   2   0-13.2054 56.7248   8
   5  -2   0 8.95850 42.6470   4
  -5   2   0-7.14568 21.2439   7
  -5   2   0 48.1944 43.7244   3
   5  -2   0 21.4370 42.9753   6
  -5   2  -1 422.187 73.3823   8
   5  -2   1 244.097 57.4103   4
  -5   2  -1 273.377 51.0235   1
  -5   2  -1 271.778 35.7737   7
  -5   2  -1 269.554 56.5003   3
   5  -2   1 321.581 57.8083   6
   5  -2   2 38.8512 45.0317   4
  -5   2  -2 85.1256 53.5387   8
  -5   2  -2 33.3170 38.9352   1
  -5   2  -2-19.8086 30.7333   7
  -5   2  -2-52.9849 44.3453   3
   5  -2   2-15.6763 46.4414   6
   5  -2   3 1036.18 89.1413   4
  -5   2  -3 1072.85 92.2144   8
   5  -2   3 1165.69 90.5691   6
  -5   2  -3 919.025 78.5547   3
  -5   2  -3 1105.17 84.8652   1
   5  -2   4 1162.06 97.7151   4
  -5   2  -4 1165.96 100.043   8
   5  -2   4 997.307 91.5440   6
  -5   2  -4 1026.15 85.3281   1
   5  -2   5-40.3397 62.6261   4
  -5   2  -5-54.9210 61.0398   8
  -5   2  -5-58.7193 54.6326   1
   5  -2   5 52.9281 60.1424   6
   5  -2   6 415.542 81.2149   4
  -5   2  -6 278.981 68.8138   8
  -5   2  -6 363.931 69.6685   1
   5  -2   6 241.883 69.9453   6
  -5   2  -7 569.417 86.9606   1
   5  -2   7 601.676 97.7157   4
  -5   2  -7 607.437 87.8381   8
   5  -2   7 504.653 89.2313   6
  -5   2  -8 1159.76 115.902   1
   5  -2   8 950.607 113.889   4
  -5   2  -8 1117.12 107.517   8
   5  -2   8 1230.22 126.999   6
  -5   2  -9 775.999 114.063   1
  -5   2  -9 791.013 106.643   8
   5  -2   9 627.924 114.651   4
   5  -2   9 558.352 107.525   6
   5  -1 -11 3150.12 222.946   9
  -5   1  11 3973.39 210.793   3
   5  -1 -10 1738.97 166.518   9
  -5   1  10 1679.15 146.040   3
   5  -1  -9 618.848 118.104   9
  -5   1   9 744.095 99.0744   3
   5  -1  -9 681.371 71.3274   1
   5  -1  -8 2101.34 103.031   1
  -5   1   8 2041.16 97.2337  11
   5  -1  -8 1654.59 149.771   9
  -5   1   8 1835.53 133.582   3
  -5   1   8 1975.28 99.4263   6
  -5   1   7 5126.87 137.746  11
   5  -1  -7 5018.76 144.092   1
   5  -1  -7 4870.95 222.645   9
  -5   1   7 5045.90 195.773   3
  -5   1   7 5307.75 146.630   6
  -5   1   6-19.1348 34.9839   6
  -5   1   6 16.6498 32.7155  11
   5  -1  -6-26.7412 77.1709   9
  -5   1   6-32.1028 31.1840   2
  -5   1   6 79.0365 54.8626   3
   5  -1  -6 19.9891 34.7253   1
  -5   1   5 51.8423 35.7030   6
  -5   1   5 79.6325 34.8963  11
  -5   1   5 113.716 65.0874   8
  -5   1   5 56.1417 34.6739   1
  -5   1   5 11.2443 19.4225   7
  -5   1   5 1.37249 32.2504   2
  -5   1   5-15.7103 51.6671   3
   5  -1  -5 76.7191 38.1544   6
  -5   1   4 202.793 38.5276  11
  -5   1   4 190.460 26.3608   4
  -5   1   4 141.471 59.3103   8
  -5   1   4 199.593 24.2933   7
  -5   1   4 238.237 39.7152   1
   5  -1  -4 260.715 41.8903   6
  -5   1   4 160.737 41.1994   2
   5  -1  -4 213.002 40.5124   6
  -5   1   4 149.875 55.2483   3
  -5   1   3 41.9836 32.6762   1
   5  -1  -3 19.3667 32.4102  11
  -5   1   3 19.9501 24.6428   4
  -5   1   3 71.4915 51.7686   8
  -5   1   3 29.7990 16.6244   7
  -5   1   3 71.8916 49.1392   3
   5  -1  -3-6.86510 31.7243   6
   5  -1  -3 61.2722 32.7575   6
   5  -1  -2 606.591 50.2160  11
  -5   1   2 678.637 45.8316   4
  -5   1   2 679.947 80.1931   8
  -5   1   2 648.504 34.2116   7
  -5   1   2 492.536 60.6759   3
   5  -1  -2 708.272 52.6815   6
   5  -1  -2 665.271 51.2500   6
  -5   1   2 625.905 51.4931   1
   5  -1  -1 889.045 58.1424  11
  -5   1   1 944.996 56.3943   4
  -5   1   1 1016.34 88.9938   8
   5  -1  -1 965.561 71.1037   4
  -5   1   1 841.431 57.2712   1
  -5   1   1 927.084 45.6527   7
  -5   1   1 918.341 73.9156   3
   5  -1  -1 946.389 62.8371   6
   5  -1  -1 822.079 59.7983   6
  -5   1   1 973.731 58.6854   1
   5  -1   0 63.5985 40.2659   6
   5  -1   0 21.1160 36.4416  11
  -5   1   0 84.4582 35.0636   4
  -5   1   0 40.9075 47.9780   8
  -5   1   0-0.27728 30.7255   1
   5  -1   0 123.765 46.5223   4
  -5   1   0 9.47530 41.0324   3
   5  -1   0 76.7987 39.2198   6
   5  -1   1 2696.65 108.487  11
   5  -1   1 3165.21 125.675   4
  -5   1  -1 3182.22 140.584   8
  -5   1  -1 3238.85 117.283   3
   5  -1   1 3053.22 111.223   6
   5  -1   1 2858.15 112.737   6
  -5   1  -1 3280.53 109.356   1
   5  -1   2-43.2134 50.4597   4
  -5   1  -2 33.1862 49.4739   8
  -5   1  -2 18.2324 34.1011   1
  -5   1  -2-56.7518 39.6123   3
   5  -1   2 22.3988 38.8604   6
  -5   1  -3 4910.68 74.2518   5
   5  -1   3 5458.42 177.312   4
  -5   1  -3 5654.92 180.510   8
   5  -1   3 5261.51 163.155   6
  -5   1  -3 5365.27 150.858   3
  -5   1  -3 5307.82 154.403   1
  -5   1  -4 2482.75 115.475   1
   5  -1   4 2651.12 132.612   4
  -5   1  -4 2607.01 131.254   8
   5  -1   4 2548.43 126.919   6
   5  -1   5 486.121 78.2576   4
  -5   1  -5 500.592 71.7609   8
  -5   1  -5 321.139 59.2854   1
   5  -1   6 69.2069 66.4430   4
  -5   1  -6-59.3395 55.0616   8
  -5   1  -6-24.4562 51.2663   1
   5  -1   6 21.1817 55.9933   6
   5  -1   7 156.981 80.7425   4
  -5   1  -7 144.252 61.9719   8
  -5   1  -7 153.165 64.4703   1
   5  -1   7 162.506 71.0614   6
   5  -1   8 164.220 83.9444   4
  -5   1  -8 105.432 66.7242   8
  -5   1  -8 101.690 65.4500   1
   5  -1   8 36.2890 71.9727   6
   5  -1   9 287.974 95.8811   4
  -5   1  -9 277.598 81.1919   8
   5  -1   9 135.390 84.2479   6
  -5   1  -9 309.085 84.6422   1
  -5   1 -10 2300.60 161.085   1
   5  -1  10 1955.45 162.687   6
   5   0 -11 76.5248 105.595   9
  -5   0  11 12.4070 78.3290   3
   5   0 -10 1570.91 160.707   9
  -5   0  10 1631.64 139.219   3
   5   0  -9 213.895 102.259   9
  -5   0   9 16.9412 69.8641   3
  -5   0   8 742.641 60.9998  11
   5   0  -8 858.696 116.263   9
  -5   0   8 1073.28 108.520   3
  -5   0   8 872.416 67.0867   6
   5   0  -8 888.339 67.2560   1
   5   0  -7 647.325 109.095   9
  -5   0   7 659.567 54.9503  11
  -5   0   7 578.491 86.4419   3
  -5   0   7 684.319 54.3698   7
  -5   0   7 625.953 57.8854   6
   5   0  -7 697.421 59.3082   1
   5   0  -6 560.926 49.0357   1
   5   0  -6 670.087 101.000   9
  -5   0   6 528.821 76.2887   3
  -5   0   6 574.239 47.4494   7
  -5   0   6 551.934 51.7211   6
  -5   0   6 648.365 45.1911   2
  -5   0   5 125.481 31.6629   1
  -5   0   5 117.319 32.5690   6
  -5   0   5 125.647 32.0667  11
  -5   0   5 99.4050 58.6065   8
  -5   0   5 174.106 40.0473   4
  -5   0   5 179.924 31.3547   7
   5   0  -5 200.856 35.8624   6
  -5   0   5 233.827 62.2701   3
  -5   0   5 88.2091 31.6786   2
  -5   0   5 234.323 44.1312   2
  -5   0   4 602.481 42.2269  11
  -5   0   4 540.675 49.6421   4
  -5   0   4 626.439 43.6795   1
  -5   0   4 567.579 47.6039   2
  -5   0   4 478.209 73.9274   8
  -5   0   4 512.536 39.9061   7
  -5   0   4 463.656 67.1881   3
   5   0  -4 571.936 42.3893   6
   5   0  -4 598.405 41.8869   6
  -5   0   3 5051.24 110.538   5
  -5   0   3 5022.12 120.763   4
  -5   0   3 4893.26 170.117   8
  -5   0   3 4869.59 123.526   2
  -5   0   3 5297.38 102.106   7
  -5   0   3 5325.39 95.8513   1
  -5   0   3 5101.31 160.326   3
   5   0  -3 5321.22 102.356   6
   5   0  -3 5210.56 96.7103   6
  -5   0   2 1836.78 63.8911   5
   5   0  -2 2061.01 64.5481  11
  -5   0   2 1808.77 75.0363   4
  -5   0   2 1778.83 106.249   8
  -5   0   2 1834.25 64.3529   7
  -5   0   2 2085.90 103.445   3
   5   0  -2 1951.24 64.8692   6
  -5   0   2 1961.62 62.6575   1
   5   0  -2 1915.44 62.2596   6
   5   0  -1 314.722 34.7324  11
  -5   0   1 262.986 39.8254   4
  -5   0   1 399.584 65.2190   8
  -5   0   1 366.879 39.6577   7
  -5   0   1 350.759 51.6468   3
   5   0  -1 302.607 34.8282   6
   5   0  -1 314.336 37.6132   6
  -5   0   1 292.839 32.9646   1
  -5   0   1 324.895 35.5383   1
   5   0   0 322.041 40.5819  11
  -5   0   0 298.447 46.0211   4
   5   0   0 335.536 59.3583   4
  -5   0   0 248.625 55.4245   8
  -5   0   0 286.023 48.6902   3
   5   0   0 282.862 38.3810   6
   5   0   0 213.027 34.5014   6
  -5   0   0 386.614 38.4415   1
   5   0   1 304.957 44.2389  11
   5   0   1 365.069 60.7022   4
  -5   0  -1 342.481 58.7702   8
  -5   0  -1 295.930 44.8072   6
  -5   0  -1 305.370 47.9649   3
   5   0   1 265.437 40.8191   6
  -5   0  -1 350.999 39.9412   1
   5   0   2 15005.0 275.564   4
  -5   0  -2 14559.2 270.965   8
  -5   0  -2 15079.7 223.384   3
   5   0   2 14562.2 226.606   6
  -5   0  -2 14615.2 213.392   1
  -5   0  -3 2032.31 90.4396   1
   5   0   3 2058.88 113.643   4
  -5   0  -3 1781.20 103.084   8
  -5   0  -3 2006.79 88.7559   3
   5   0   3 1822.04 92.8345   6
   5   0   4 3060.14 142.866   4
  -5   0  -4 3161.67 136.186   8
  -5   0  -4 3270.18 123.622   1
   5   0   4 3019.09 124.659   6
  -5   0  -5 687.629 69.7066   1
   5   0   5 734.120 88.5848   4
  -5   0  -5 634.936 75.0896   8
   5   0   5 695.099 75.9710   6
   5   0   6 74.6786 66.7314   4
  -5   0  -6-41.8180 49.5592   8
  -5   0  -6-16.5274 51.9792   1
   5   0   6 57.6994 49.9751   6
  -5   0  -7 1951.47 118.283   1
   5   0   7 1804.76 132.826   4
  -5   0  -7 2076.19 122.583   8
   5   0   7 1810.78 119.485   6
  -5   0  -8 3370.82 158.174   1
   5   0   8 3522.00 183.073   4
  -5   0  -8 3473.54 159.803   8
   5   0   8 3429.07 169.701   6
  -5   0  -9 516.783 83.6253   1
   5   0   9 469.903 98.6816   4
   5   0   9 329.105 86.0224   6
   5   0  10 330.040 101.618   4
  -5   0 -10 196.857 76.7257   1
   5   0  10 242.973 89.0381   6
   5   1 -11 1889.28 178.791   9
  -5  -1  11 1999.89 165.350   3
   5   1 -10 2621.61 185.232   9
  -5  -1  10 2569.73 168.967   3
   5   1  -9 1230.21 135.316   9
  -5  -1   9 1504.50 131.614   3
   5   1  -8-27.6609 77.1389   9
   5   1  -8 13.7013 37.0673   1
  -5  -1   8 39.6807 37.1463   7
  -5  -1   8 20.8973 65.4456   3
  -5  -1   7 30.0925 32.3183  11
   5   1  -7-78.1372 84.5792   9
  -5  -1   7 81.5745 37.9435   7
  -5  -1   7-10.7984 60.1430   3
   5   1  -7-4.16113 31.3955   1
  -5  -1   7 32.9141 32.0270   6
  -5  -1   6 1316.79 57.0865  11
   5   1  -6 1454.48 124.177   9
  -5  -1   6 1234.57 100.567   3
  -5  -1   6 1202.52 67.9927   7
  -5  -1   6 1161.37 56.8783   6
  -5  -1   6 1246.12 52.0500   2
   5   1  -6 1236.60 58.3750   1
  -5  -1   5 2738.48 68.5985   1
  -5  -1   5 2738.30 105.314   5
  -5  -1   5 3024.33 72.3176  11
   5   1  -5 2779.17 71.9089   1
   5   1  -5 2835.61 151.746   9
  -5  -1   5 2492.72 108.199   4
  -5  -1   5 2902.13 136.800   3
  -5  -1   5 2692.47 89.7873   7
   5   1  -5 2812.59 72.8291   6
  -5  -1   5 2811.45 72.1189   6
  -5  -1   5 2902.89 90.7244   2
  -5  -1   4 313.761 22.0202   1
  -5  -1   4 325.235 42.9029   5
  -5  -1   4 331.037 64.5451   8
  -5  -1   4 262.125 49.1982   4
  -5  -1   4 358.190 41.0620   7
   5   1  -4 269.514 21.8820   6
   5   1  -4 300.064 23.2877   6
  -5  -1   4 287.083 59.5991   3
  -5  -1   4 366.651 48.8334   2
  -5  -1   3 5125.60 124.778   5
  -5  -1   3 4303.07 51.6834   1
  -5  -1   3 5062.49 136.742   4
  -5  -1   3 5133.28 167.857   8
  -5  -1   3 5366.38 116.832   7
  -5  -1   3 5305.69 161.846   3
   5   1  -3 4245.97 52.9222   6
   5   1  -3 4288.75 53.0608   6
  -5  -1   3 5385.01 137.675   2
  -5  -1   2 8099.35 169.697   4
  -5  -1   2 8074.86 201.778   8
  -5  -1   2 6803.49 66.4926   1
  -5  -1   2 8555.91 149.336   7
  -5  -1   2 8418.54 191.660   3
   5   1  -2 6786.74 67.9600   6
   5   1  -2 7026.10 69.8385   6
  -5  -1   2 7077.53 65.4860   1
   5   1  -1 0.23762 14.4937  11
   5   1  -1-20.8807 31.5681  10
  -5  -1   1 21.2225 46.2032   8
  -5  -1   1 23.5643 32.4813   4
  -5  -1   1-2.35022 27.6852   7
  -5  -1   1 25.8286 15.0765   1
  -5  -1   1 8.95620 13.0075   1
  -5  -1   1 14.4186 36.0510   3
   5   1  -1-14.2057 14.4976   6
   5   1  -1-1.99749 14.1423   6
  -5  -1   0 4209.91 80.0547   1
   5   1   0 4267.55 87.3839  11
  -5  -1   0 3849.00 122.810   4
  -5  -1   0 4229.75 145.642   8
   5   1   0 3939.28 139.454   4
  -5  -1   0 4165.94 123.273   3
   5   1   0 4138.87 84.1868   6
   5   1   0 4323.89 89.2893   6
  -5  -1  -1 10614.8 148.625   1
   5   1   1 11079.2 240.141   4
  -5  -1  -1 10734.6 223.040   8
   5   1   1 9909.12 191.977   3
  -5  -1  -1 10497.9 182.228   3
  -5  -1  -1 10251.2 159.606   6
   5   1   1 10718.6 157.365   6
  -5  -1  -2 33.4167 38.7575   8
   5   1   2-8.40001 45.0191   4
   5   1   2-23.4728 38.0882   3
  -5  -1  -2-7.86507 28.9478   1
  -5  -1  -2 16.2783 28.3072   3
  -5  -1  -2 25.8222 33.7761   6
   5   1   2 8.90486 30.3341   6
  -5  -1  -3 1697.84 78.6074   1
   5   1   3 2066.27 116.185   4
  -5  -1  -3 1925.74 100.308   8
   5   1   3 1938.58 84.4927   3
  -5  -1  -3 1802.10 90.4330   6
  -5  -1  -3 1817.83 76.2266   3
   5   1   3 1799.49 85.0444   6
   5   1   4 307.956 66.3357   4
  -5  -1  -4 226.155 48.7723   8
   5   1   4 191.423 43.7942   3
  -5  -1  -4 207.925 42.5021   1
   5   1   4 174.084 46.0088   6
   5   1   5 302.730 69.7242   4
  -5  -1  -5 212.740 51.7137   8
   5   1   5 170.571 43.7643   3
  -5  -1  -5 220.829 48.6567   1
   5   1   5 286.847 54.2180   6
  -5  -1  -6 2597.71 118.353   1
   5   1   6 2869.27 151.425   4
  -5  -1  -6 2983.62 132.124   8
   5   1   6 2559.19 125.515   6
  -5  -1  -7 5016.91 170.926   1
   5   1   7 5097.59 201.769   4
  -5  -1  -7 5020.24 177.590   8
   5   1   7 4678.99 175.092   6
  -5  -1  -8 7723.59 223.505   1
   5   1   8 8158.71 267.057   4
  -5  -1  -8 7957.24 226.919   8
   5   1   8 7881.82 238.440   6
   5   1   9 2733.46 171.178   4
  -5  -1  -9 3001.46 152.870   1
   5   1   9 2803.67 155.624   6
  -5  -1 -10 339.751 79.1536   1
   5   1  10 355.752 96.4118   4
   5   1  10 211.383 81.1070   6
  -5  -1 -11 209.798 82.2983   1
   5   1  11 314.128 98.6497   6
   5   2 -11 2977.58 204.008   9
  -5  -2  11 2591.07 181.346   3
   5   2 -10 5517.83 252.897   9
  -5  -2  10 5154.54 230.593   3
  -5  -2   9 79.2820 45.4374   7
  -5  -2   9-2.59658 68.2851   3
   5   2  -8 270.822 93.4762   9
  -5  -2   8 206.073 51.3065   7
  -5  -2   8 116.956 67.5475   3
  -5  -2   7 231.865 54.3954   5
  -5  -2   7 158.380 34.0481  11
   5   2  -7 110.564 72.1144   9
   5   2  -7 178.190 34.4332   1
  -5  -2   7 208.941 44.8208   7
  -5  -2   7 190.249 71.4902   3
  -5  -2   7 189.061 35.3287   6
  -5  -2   6 2165.77 69.2068   2
  -5  -2   6 2118.00 107.194   5
  -5  -2   6 2299.32 67.7504  11
   5   2  -6 2264.39 142.284   9
  -5  -2   6 2321.24 132.432   3
  -5  -2   6 2259.23 95.2106   7
  -5  -2   6 2128.51 66.0031   6
   5   2  -6 2153.98 68.7543   1
   5   2  -5 1222.17 41.1072   1
  -5  -2   5 1569.22 88.4324   5
  -5  -2   5 1137.07 37.6515  11
   5   2  -5 1136.32 103.271   9
  -5  -2   5 1375.52 99.8867   3
  -5  -2   5 1308.05 71.5565   7
   5   2  -5 1285.63 42.6052   6
  -5  -2   5 1151.62 39.1149   6
  -5  -2   5 1158.99 38.9498   1
  -5  -2   5 1387.15 64.2969   2
  -5  -2   4 260.873 56.8870   8
  -5  -2   4 261.846 57.3714   4
  -5  -2   4 303.660 40.4685   7
  -5  -2   4 256.856 55.5827   3
  -5  -2   4 432.008 48.9076   2
  -5  -2   3 14353.1 265.398   8
  -5  -2   3 14672.2 260.376   4
  -5  -2   3 15068.3 212.388   7
  -5  -2   3 15259.7 264.334   3
  -5  -2   3 15569.2 233.352   2
  -5  -2   2 1040.48 83.0616   8
  -5  -2   2 887.295 73.2888   4
  -5  -2   2 1099.11 66.0607   7
  -5  -2   2 1107.78 77.5516   3
  -5  -2   2 1099.01 70.9430   2
  -5  -2   1 3241.32 122.644   4
  -5  -2   1 3546.80 132.141   8
  -5  -2   1 3792.96 111.582   7
  -5  -2   1 3611.62 118.801   3
  -5  -2   1 3403.99 123.443   2
   5   2   0 3771.39 57.3320  11
   5   2   0 4543.38 133.506  10
  -5  -2   0 3578.44 52.9697   1
  -5  -2   0 4192.81 137.186   8
  -5  -2   0 3647.59 52.4116   1
  -5  -2   0 4055.40 116.935   3
   5   2   0 3716.26 54.4990   6
   5   2   0 3724.41 57.9799   6
  -5  -2  -1 534.329 32.6305   1
  -5  -2  -1 456.487 58.2964   8
   5   2   1 381.573 66.3661   4
   5   2   1 500.769 53.4788   3
  -5  -2  -1 459.705 43.8750   3
  -5  -2  -1 531.471 37.2375   6
   5   2   1 537.997 35.2535   6
  -5  -2  -2 2538.27 75.8876   1
   5   2   2 2722.85 134.936   4
  -5  -2  -2 2499.37 108.889   8
   5   2   2 2544.53 88.5490   3
  -5  -2  -2 2688.08 84.6551   3
  -5  -2  -2 2606.94 85.1865   6
   5   2   2 2601.17 81.6634   6
  -5  -2  -3 37.1234 29.3786   1
   5   2   3 28.0338 31.4275   1
  -5  -2  -3 29.1847 44.6129   8
   5   2   3 78.1212 54.0049   4
   5   2   3-1.86834 31.4030   3
  -5  -2  -3 11.9793 24.7122   3
  -5  -2  -3-46.9740 38.5698   6
   5   2   3 75.0661 30.2426   6
  -5  -2  -4-37.3747 32.7043   1
   5   2   4 12.1825 55.0424   4
  -5  -2  -4-16.0057 37.9506   8
   5   2   4 25.0986 32.5441   3
   5   2   4 35.2548 38.1462   6
  -5  -2  -5 897.352 68.6380   1
  -5  -2  -5 1045.42 79.7689   8
   5   2   5 1076.77 57.0131   3
   5   2   5 1036.26 78.1519   6
   5   2   6 2453.94 140.937   4
  -5  -2  -6 2597.34 116.569   1
  -5  -2  -6 2597.57 121.081   8
   5   2   6 2748.82 84.8607   3
   5   2   6 2499.30 120.374   6
   5   2   7 18070.1 372.561   4
  -5  -2  -7 17640.0 302.808   1
  -5  -2  -7 18148.7 314.512   8
   5   2   7 17531.4 315.566   6
   5   2   8 1091.31 112.310   4
  -5  -2  -8 899.296 87.9374   1
  -5  -2  -8 944.907 88.3320   8
   5   2   8 1000.43 95.7119   6
   5   2   9 2587.95 168.315   4
  -5  -2  -9 2503.69 137.965   1
   5   2   9 2457.13 142.271   6
   5   2  10 745.375 118.570   4
  -5  -2 -10 789.596 100.519   1
   5   2  10 637.148 101.036   6
  -5  -2 -11 709.966 107.880   1
   5   2  11 573.220 110.328   4
   5   2  11 804.867 118.722   6
   5   3 -10 80.8992 93.9458   9
  -5  -3  10 10.0375 55.3471   7
  -5  -3  10 29.2253 79.1986   3
   5   3  -9 104.514 80.7658   9
  -5  -3   9 109.215 49.0043   7
  -5  -3   9-29.3895 67.3943   3
  -5  -3   8-84.8263 51.5606   5
   5   3  -8 36.6169 72.5897   9
  -5  -3   8-34.3170 44.3975   7
  -5  -3   8-55.0476 63.8009   3
  -5  -3   7 82.5382 51.5421   5
   5   3  -7 151.135 75.2789   9
  -5  -3   7 119.183 44.7431   7
  -5  -3   7 58.9487 56.1586   3
   5   3  -7 81.3472 34.2245   1
  -5  -3   6 617.521 44.9493   2
  -5  -3   6 478.039 64.0216   5
  -5  -3   6 489.949 36.5059  11
   5   3  -6 482.032 82.8979   9
  -5  -3   6 538.630 78.4501   3
  -5  -3   6 431.409 55.3627   7
   5   3  -6 457.647 36.8575   1
  -5  -3   6 540.709 37.9788   6
  -5  -3   5 6708.10 178.684   5
  -5  -3   5 5294.84 73.0123  11
   5   3  -5 6470.40 208.504   9
  -5  -3   5 6836.28 202.189   3
  -5  -3   5 6616.81 160.531   7
   5   3  -5 5927.30 83.1152   6
  -5  -3   5 5432.85 74.4385   6
   5   3  -5 5472.19 77.7737   1
  -5  -3   5 6994.91 132.602   2
  -5  -3   4 3090.44 125.371   8
  -5  -3   4 2938.52 130.055   3
  -5  -3   4 2945.71 105.055   7
  -5  -3   4 3038.04 100.193   2
  -5  -3   3 1883.54 86.9750   7
  -5  -3   3 1820.43 101.045   3
  -5  -3   3 1760.09 94.4101   8
  -5  -3   3 1872.07 86.8945   2
  -5  -3   2 2598.21 113.787   8
  -5  -3   2 2609.20 98.7473   7
  -5  -3   2 2524.05 106.596   3
  -5  -3   2 2698.44 105.458   2
  -5  -3   1 258.537 42.7235   8
  -5  -3   1 342.653 47.9226   7
  -5  -3   1 291.805 45.4739   3
  -5  -3   1 282.140 52.4794   2
   5   3   0 1498.73 89.6318  10
  -5  -3   0 1644.78 85.8842   8
  -5  -3   0 1490.86 73.4417   3
  -5  -3   0 1610.03 95.1038   2
  -5  -3  -1 9855.19 195.035   8
  -5  -3  -1 9519.60 157.978   3
  -5  -3  -1 9708.04 104.441   1
  -5  -3  -1 9655.15 112.455   6
   5   3   1 9796.64 107.116   6
  -5  -3  -1 9090.91 207.126   2
   5   3   2 478.907 72.3418   4
  -5  -3  -2 475.772 54.4956   8
  -5  -3  -2 504.028 37.3274   1
  -5  -3  -2 478.885 37.6705   3
  -5  -3  -2 504.104 42.3355   6
   5   3   2 469.101 38.3241   6
  -5  -3  -2 456.552 66.0238   2
   5   3   2 477.199 38.7058   1
   5   3   3 3198.15 149.871   4
  -5  -3  -3 2915.87 112.459   8
  -5  -3  -3 2949.17 89.4310   1
  -5  -3  -3 3034.91 72.8596   3
  -5  -3  -3 2941.92 96.5501   6
   5   3   3 3125.15 94.0370   6
   5   3   3 2876.18 92.5901   1
  -5  -3  -4 284.967 41.0915   1
  -5  -3  -4 237.748 43.7001   8
  -5  -3  -4 321.660 49.7036   6
   5   3   4 341.704 46.2255   6
   5   3   4 281.692 45.5459   1
   5   3   5 2938.88 150.022   4
  -5  -3  -5 3028.60 115.995   8
  -5  -3  -5 3182.56 114.477   1
   5   3   5 3043.24 65.1349   3
   5   3   5 3251.01 120.437   6
  -5  -3  -6 484.714 63.3158   1
  -5  -3  -6 566.867 64.0674   8
   5   3   6 505.412 84.7151   4
   5   3   6 462.431 27.3966   3
   5   3   6 508.022 65.0470   6
   5   3   7 2797.80 159.567   4
  -5  -3  -7 3089.55 132.239   1
  -5  -3  -7 2806.88 125.618   8
   5   3   7 3202.51 141.289   6
   5   3   8 1590.81 135.882   4
  -5  -3  -8 1459.35 101.792   1
  -5  -3  -8 1331.37 98.6347   8
   5   3   8 1367.79 109.199   6
   5   3   9 3597.65 189.818   4
  -5  -3  -9 3567.23 156.405   1
   5   3   9 4034.00 174.076   6
   5   3  10 1087.31 127.397   4
  -5  -3 -10 892.274 96.9704   1
   5   3  10 787.259 95.1667   6
   5   3  11 304.721 97.2053   4
  -5  -3 -11 233.661 79.2283   1
   5   3  11 224.361 89.0320   6
   5   4 -10 7.74509 92.5143   9
  -5  -4  10 0.72287 61.1242   4
  -5  -4  10-10.5409 61.1944   7
  -5  -4  10-16.9184 84.7142   3
   5   4  -9 173.783 89.4981   9
  -5  -4   9 66.1680 53.4826   7
  -5  -4   8 325.887 73.2398   5
   5   4  -8 316.699 87.3602   9
  -5  -4   8 279.313 59.9429   7
  -5  -4   8 320.486 84.6217   3
  -5  -4   7 128.956 54.5085   5
   5   4  -7 93.2812 65.2233   9
  -5  -4   7 59.1051 45.8125   7
  -5  -4   7-23.2773 63.7938   3
  -5  -4   6 2835.83 132.383   5
  -5  -4   6 3268.48 94.1388   2
   5   4  -6 2792.11 147.674   9
  -5  -4   6 3327.38 159.582   3
   5   4  -6 2980.44 80.8422   1
  -5  -4   6 3100.24 123.724   7
  -5  -4   5 2850.90 93.1438   2
   5   4  -5 2783.00 136.751   9
  -5  -4   5 2661.23 137.091   3
  -5  -4   5 2578.92 111.052   7
   5   4  -5 2248.35 55.5907   1
  -5  -4   5 2204.72 54.6607   6
  -5  -4   4 357.168 50.7514   7
  -5  -4   4 308.742 63.3027   3
  -5  -4   4 315.458 41.4330   2
  -5  -4   3 959.814 73.1990   8
  -5  -4   3 1016.37 80.0736   3
  -5  -4   3 910.347 71.0114   7
  -5  -4   3 1050.00 66.6709   2
  -5  -4   2 72.1206 41.0726   8
  -5  -4   2 69.6920 40.4163   2
  -5  -4   2 101.448 41.8184   7
  -5  -4   2 117.197 38.8084   3
  -5  -4   1 1023.20 81.4598   9
  -5  -4   1 1162.93 74.7744   8
  -5  -4   1 1239.80 80.0777   7
  -5  -4   1 1054.75 71.4430   3
  -5  -4   1 1182.47 78.4913   2
  -5  -4   0 1252.32 71.8896   8
  -5  -4   0 1333.05 79.1281   7
  -5  -4   0 1282.91 69.3132   3
  -5  -4   0 1321.07 83.6174   2
   5   4   1 1314.54 40.8615  11
   5   4   1 1295.66 91.5233  10
   5   4   1 1309.49 81.4993   8
  -5  -4  -1 1508.20 77.5201   8
  -5  -4  -1 1341.10 63.2443   3
  -5  -4  -1 1373.21 43.3056   6
   5   4   1 1420.34 41.2497   6
  -5  -4  -1 1394.54 91.4268   2
   5   4   1 1420.59 42.1236   1
  -5  -4  -1 1378.81 41.0317   1
  -5  -4  -2 53.5565 22.7869   1
   5   4   2 31.7364 24.8639  11
  -5  -4  -2 44.7628 38.4540   8
  -5  -4  -2 62.3268 51.1807   2
   5   4   2 23.7188 23.6220   1
  -5  -4  -2 78.7834 26.6005   3
  -5  -4  -2 46.1670 27.3120   6
   5   4   2 21.6367 22.5676   6
  -5  -4  -3 285.986 46.1756   8
   5   4   3 292.734 63.7258   4
  -5  -4  -3 219.224 34.6907   1
   5   4   3 234.348 36.0783   1
  -5  -4  -3 247.398 23.9638   3
  -5  -4  -3 321.482 43.3882   6
   5   4   3 268.428 37.1091   6
   5   4   4 4076.07 175.723   4
  -5  -4  -4 4160.69 125.803   8
  -5  -4  -4 4246.09 117.521   1
  -5  -4  -4 3723.58 118.340   6
   5   4   4 4124.47 117.639   6
  -5  -4  -4 4324.09 154.521   2
   5   4   4 3679.37 115.119   1
   5   4   5 3043.53 160.353   4
  -5  -4  -5 2996.97 112.191   8
  -5  -4  -5 3055.37 110.468   1
   5   4   5 3005.59 113.364   6
  -5  -4  -5 2840.91 138.131   2
   5   4   6 5425.14 212.615   4
  -5  -4  -6 4979.90 149.835   8
  -5  -4  -6 5036.72 151.564   1
   5   4   6 4966.17 154.499   6
  -5  -4  -6 4818.53 174.426   2
   5   4   7 5233.32 208.259   4
  -5  -4  -7 4948.18 159.584   8
  -5  -4  -7 4717.43 157.965   1
   5   4   7 4976.93 167.959   6
  -5  -4  -7 4465.42 176.099   2
  -5  -4  -8 32.0380 58.2112   2
  -5  -4  -8 27.4247 49.0770   1
   5   4   8 60.1538 57.6835   6
   5   4   9 1696.03 143.702   4
  -5  -4  -9 1571.63 110.386   1
   5   4   9 1687.33 117.743   6
  -5  -4  -9 1402.80 117.289   2
   5   4  10 702.112 115.094   4
  -5  -4 -10 602.862 89.1098   1
   5   4  10 699.704 97.0411   6
  -5  -4 -10 586.077 95.1975   2
   5   4  11 168.076 89.8110   4
  -5  -4 -11 278.476 85.9053   2
  -5  -4 -11 221.346 78.2132   1
   5   4  11 409.513 91.0644   6
  -5  -5  10 110.337 68.4406   7
  -5  -5   9 191.619 72.8694   5
   5   5  -9 148.282 86.6621   9
  -5  -5   9 188.640 65.4644   7
  -5  -5   8-5.45687 56.1187   5
   5   5  -8 121.354 76.5915   9
  -5  -5   8 42.4177 51.6760   7
  -5  -5   7 240.810 67.5800   5
   5   5  -7 297.910 75.5642   9
  -5  -5   7 177.977 57.3346   7
  -5  -5   6 228.369 44.5757   2
   5   5  -6 275.090 73.8588   9
  -5  -5   6 282.537 61.3038   7
   5   5  -5 203.196 29.2679   1
  -5  -5   5 272.477 55.0068   7
  -5  -5   5 176.707 40.2708   2
   5   5  -4-3.75251 14.9280   1
  -5  -5   4 20.5476 41.7850   7
  -5  -5   4-6.51240 34.6883   2
   5   5  -4 27.6275 17.7861   1
  -5  -5   4-1.67308 14.9866   6
  -5  -5   3 750.320 67.2458   8
  -5  -5   3 654.183 69.4172   7
  -5  -5   3 717.068 57.6764   2
  -5  -5   2 259.048 46.8636   8
  -5  -5   2 308.834 54.3743   7
  -5  -5   2 378.181 51.4070   2
  -5  -5   1 2816.70 113.473   9
  -5  -5   1 3038.00 105.483   8
  -5  -5   1 3110.00 115.644   3
  -5  -5   1 3282.87 129.001   7
  -5  -5   1 3204.39 118.470   2
  -5  -5   0 91.2673 48.5056   9
  -5  -5   0 58.3892 34.3177   8
  -5  -5   0 119.674 48.6964   2
  -5  -5   0 112.032 46.6603   7
  -5  -5   0 103.348 35.4027   3
   5   5   0 53.8766 10.9140   1
  -5  -5   0 63.2263 11.3552   6
  -5  -5   0 51.5317 11.1904   6
   5   5   1 1810.29 54.7501  11
   5   5   1 1869.90 54.0640   1
   5   5   1 1722.86 112.188  10
  -5  -5  -1 1725.25 76.3488   8
  -5  -5  -1 1663.98 74.3425   3
  -5  -5  -1 1834.05 54.6160   6
   5   5   1 1738.37 54.2118   6
  -5  -5  -1 1519.60 97.3650   2
   5   5   2 506.199 38.9828  11
   5   5   2 529.584 40.5717   1
   5   5   2 482.491 73.4149  10
   5   5   2 489.269 56.9067   8
  -5  -5  -2 502.263 46.4267   8
  -5  -5  -2 517.823 39.9997   3
  -5  -5  -2 547.708 41.4463   6
   5   5   2 535.653 40.9636   6
  -5  -5  -2 534.375 39.6301   1
  -5  -5  -2 603.846 67.2567   2
   5   5   3 936.332 57.7662  11
   5   5   3 919.956 56.0458   1
   5   5   3 946.210 73.4675   8
  -5  -5  -3 890.362 58.2562   8
  -5  -5  -3 901.126 34.2162   3
  -5  -5  -3 1093.13 62.6539   6
  -5  -5  -3 969.239 56.3607   1
   5   5   3 907.260 55.4110   6
  -5  -5  -3 1038.60 89.5459   2
   5   5   4 699.800 56.3909  11
   5   5   4 607.742 57.2536   1
  -5  -5  -4 634.986 54.3624   8
  -5  -5  -4 752.318 55.8635   1
  -5  -5  -4 681.173 60.0569   6
   5   5   4 774.002 60.3540   6
  -5  -5  -4 778.164 80.7301   2
  -5  -5  -5 21.1946 36.5334   8
   5   5   5-31.8071 66.1904   4
  -5  -5  -5 51.9328 56.3703   2
  -5  -5  -5-4.21746 38.2883   1
   5   5   5 22.0356 39.1025   6
  -5  -5  -6 76.9825 39.7700   8
   5   5   6 38.6382 81.2837   4
  -5  -5  -6 115.140 57.5553   2
  -5  -5  -6 75.3843 41.6151   1
   5   5   6 112.664 46.5128   6
   5   5   7 191.139 78.2134   4
  -5  -5  -7 331.946 75.1788   2
  -5  -5  -7 297.194 55.0730   1
   5   5   7 238.695 56.0612   6
   5   5   8-97.2653 85.4920   4
  -5  -5  -8 19.1224 60.7540   2
  -5  -5  -8 52.5828 47.3698   1
   5   5   8-27.2727 50.8061   6
   5   5   9 248.109 90.1458   4
  -5  -5  -9 251.445 72.9759   2
  -5  -5  -9 213.982 60.0212   1
   5   5   9 271.429 74.4210   6
   5   5  10 750.619 113.718   4
  -5  -5 -10 373.920 87.4278   2
  -5  -5 -10 616.783 87.9942   1
   5   5  10 605.134 90.1996   6
   5   5  11 177.514 94.8366   4
  -5  -5 -11 35.5543 74.3800   2
  -5  -5 -11 61.8007 66.6532   1
   5   5  11 207.474 83.8329   6
   5   5  12 1549.77 160.138   4
  -5  -5 -12 1263.53 127.564   1
   5   5  12 1441.43 137.480   6
  -5  -6   9-14.7443 73.9391   5
  -5  -6   9 34.6642 63.4123   7
  -5  -6   8 496.823 89.1040   5
  -5  -6   8 534.928 80.0581   7
  -5  -6   7 2786.75 151.959   5
   5   6  -7 2863.38 148.727   9
  -5  -6   7 2849.42 139.676   7
  -5  -6   6 947.777 68.9668   2
   5   6  -6 1074.29 94.9855   9
  -5  -6   6 866.159 84.5155   7
  -5  -6   5 304.726 49.5447   2
  -5  -6   5 249.582 60.3773   7
   5   6  -5 235.235 36.2524   1
  -5  -6   4 425.715 53.8356   2
   5   6  -4 455.794 37.4853   1
  -5  -6   4 459.019 67.1010   7
  -5  -6   4 471.041 39.3469   6
  -5  -6   3 2059.34 93.7704   2
   5   6  -3 1951.84 58.1686   1
  -5  -6   3 1981.29 91.2286   8
  -5  -6   3 1780.16 102.478   7
  -5  -6   3 1996.61 59.9600   6
  -5  -6   2 5246.72 88.1415  11
  -5  -6   2 5294.13 136.390   8
  -5  -6   2 5182.93 165.293   7
   5   6  -2 5032.70 87.7265   1
  -5  -6   2 5405.20 86.8478   6
  -5  -6   2 4955.67 85.7042   6
   5   6  -2 5395.70 85.1211   1
  -5  -6   2 5538.01 150.473   2
   5   6  -1 44.3598 17.6384   1
  -5  -6   1 43.2503 33.1550   8
  -5  -6   1 44.9353 39.9454   2
   5   6  -1 64.9507 18.8604   1
  -5  -6   1 64.1364 19.5375   6
  -5  -6   1 108.170 20.5688   6
  -5  -6   0 1780.21 90.5961   9
  -5  -6   0 2007.55 77.1288   8
   5   6   0 1999.05 58.7854   1
  -5  -6   0 1783.75 103.957   7
  -5  -6   0 1943.67 59.7079   6
  -5  -6   0 1850.90 57.5048   6
  -5  -6   0 1988.69 100.210   2
   5   6   1 198.873 32.4412   6
   5   6   1 152.144 30.3982  11
   5   6   1 158.824 28.8360   1
  -5  -6  -1 124.347 49.7359   9
  -5  -6  -1 160.297 32.5007   8
  -5  -6  -1 205.972 42.8061   3
  -5  -6  -1 184.204 51.3072   2
  -5  -6  -1 222.048 55.1941   7
  -5  -6  -1 195.861 31.6907   6
   5   6   2 1156.63 59.6207  11
  -5  -6  -2 1294.67 62.1359   1
   5   6   2 1269.79 109.255  10
   5   6   2 1183.81 59.2336   1
  -5  -6  -2 1176.17 58.7389   8
  -5  -6  -2 1065.29 55.7308   3
  -5  -6  -2 1174.91 59.0927   6
   5   6   2 1172.87 60.8868   6
  -5  -6  -2 1195.98 92.5296   2
   5   6   3 104.881 37.2320   1
   5   6   3 212.870 40.1113  11
   5   6   3 143.252 65.3573  10
   5   6   3 49.1817 40.0357   8
  -5  -6  -3 154.486 34.5643   8
  -5  -6  -3 125.333 56.9010   2
  -5  -6  -3 105.888 20.6608   3
  -5  -6  -3 159.729 34.5300   1
  -5  -6  -3 104.867 36.9984   6
   5   6   3 158.223 36.3247   6
   5   6   4 1346.69 76.3765  11
   5   6   4 1230.96 78.8154   8
  -5  -6  -4 1361.06 68.1994   8
  -5  -6  -4 1462.21 77.4983   1
   5   6   4 1353.78 75.7412   6
  -5  -6  -4 1382.49 99.4911   2
   5   6   5 948.827 70.8468  11
  -5  -6  -5 964.649 63.2351   8
  -5  -6  -5 1084.30 75.1687   1
   5   6   5 1107.13 74.0764   6
  -5  -6  -5 1017.90 90.7483   2
   5   6   6 935.703 81.1451  11
  -5  -6  -6 949.036 77.7652   1
   5   6   6 799.957 74.2971   6
  -5  -6  -6 846.961 89.8463   2
   5   6   7 155.441 60.2692  11
   5   6   7 164.983 75.8928   4
  -5  -6  -7 105.171 61.9488   2
  -5  -6  -7 181.338 52.5756   1
   5   6   7 21.3045 50.3146   6
   5   6   8 18.5108 77.7957   4
  -5  -6  -8-14.6270 60.3577   2
  -5  -6  -8-60.0055 52.5551   1
   5   6   8-19.1021 55.3431   6
   5   6   9 3351.90 193.003   4
  -5  -6  -9 2952.94 142.979   1
   5   6   9 3303.04 159.336   6
  -5  -6  -9 3183.73 160.366   2
   5   6  10 806.173 124.035   4
  -5  -6 -10 640.391 89.7145   1
   5   6  10 577.974 90.7375   6
  -5  -6 -10 544.867 90.3968   2
   5   6  11-11.1428 92.6802   4
  -5  -6 -11 153.142 76.5178   2
  -5  -6 -11 36.2565 70.0857   1
   5   6  11-9.25397 75.6102   6
  -5  -7   8 64.9915 67.5435   5
  -5  -7   8 130.874 63.9101   7
  -5  -7   7-30.2159 69.5869   5
  -5  -7   7 75.8501 63.3915   7
  -5  -7   6 2932.80 116.378   2
  -5  -7   6 2795.80 143.316   7
  -5  -7   5 2828.83 113.505   2
  -5  -7   5 3012.74 144.303   7
  -5  -7   4 129.580 44.8604   8
  -5  -7   4 80.9009 48.9982   7
  -5  -7   4 106.790 47.4974   2
   5   7  -4 93.2313 37.1870   1
  -5  -7   3 1056.86 76.6480   2
  -5  -7   3 1141.86 70.0535   8
  -5  -7   3 1077.35 90.7054   7
  -5  -7   3 1092.52 59.0535   6
   5   7  -3 1191.17 59.6996   1
  -5  -7   2 185.813 38.4429   8
  -5  -7   2 207.332 52.2107   2
  -5  -7   2 207.186 36.2959   6
   5   7  -2 266.177 34.3937   1
  -5  -7   1 1690.46 66.7331   8
  -5  -7   1 1526.52 103.163   7
  -5  -7   1 1739.63 68.4610   6
   5   7  -1 1619.26 65.8548   1
  -5  -7   1 1756.91 94.8076   2
  -5  -7   0 6369.07 111.964   8
  -5  -7   0 6836.84 200.725   7
   5   7   0 6477.70 124.723   1
  -5  -7   0 6342.97 127.179   6
  -5  -7   0 6298.65 124.193   6
  -5  -7   0 5884.17 170.567   2
   5   7   1 194.280 37.0082  11
  -5  -7  -1 152.418 46.6811   9
  -5  -7  -1 192.592 26.5622   8
  -5  -7  -1 262.768 69.9051   7
   5   7   1 117.592 33.4692   1
  -5  -7  -1 97.1076 54.7359   2
  -5  -7  -1 162.112 37.3427   6
   5   7   2 642.128 55.5362  11
  -5  -7  -2 632.951 40.1332   8
   5   7   2 635.471 52.7898   1
  -5  -7  -2 632.675 74.9149   7
  -5  -7  -2 608.586 55.3578   6
   5   7   2 667.042 57.2124   6
  -5  -7  -2 559.512 70.2195   2
   5   7   3 12.6558 36.6907   6
   5   7   3 5.82825 33.6739  11
   5   7   3-111.113 70.0095  10
   5   7   3-0.30563 37.8110   1
   5   7   3 28.8671 33.8886   8
  -5  -7  -3 15.5140 24.8806   8
  -5  -7  -3-86.0213 55.7453   2
  -5  -7  -3-4.75436 22.1809   3
  -5  -7  -3 11.9470 36.1680   1
  -5  -7  -3 19.3985 22.7949   3
  -5  -7  -3-27.0786 38.5816   6
   5   7   4 1982.03 93.1087  11
   5   7   4 1884.88 129.740  10
   5   7   4 1709.81 82.4978   8
   5   7   4 1733.07 89.8553   6
  -5  -7  -4 1971.25 91.4196   1
  -5  -7  -4 1860.15 113.373   2
   5   7   5 4658.54 146.581  11
   5   7   5 4349.82 194.962  10
   5   7   5 4433.31 142.160   6
  -5  -7  -5 4507.91 143.347   1
  -5  -7  -5 4309.49 171.065   2
   5   7   6 1537.99 100.684  11
  -5  -7  -6 1713.79 98.7599   1
   5   7   6 1587.27 98.0244   6
  -5  -7  -6 1840.23 118.950   2
   5   7   7 741.683 77.3894  11
  -5  -7  -7 653.384 71.5739   1
   5   7   7 654.256 74.9899   6
  -5  -7  -7 445.221 79.6969   2
   5   7   8 5531.73 195.882  11
   5   7   8 5407.93 231.014   4
  -5  -7  -8 5822.63 190.020   1
   5   7   8 5413.23 188.779   6
  -5  -7  -8 5875.46 202.291   2
  -5  -7  -9 45.7370 56.7466   1
   5   7   9 126.816 65.2958  11
   5   7   9 279.796 90.8175   4
  -5  -7  -9 264.232 75.2980   2
   5   7   9 276.421 75.5310   6
   5   7  10 269.818 78.2581  11
   5   7  10 104.667 81.9180   4
  -5  -7 -10 13.7420 70.1717   2
   5   7  10-60.1455 66.8199   6
  -5  -7 -10 136.947 64.1122   1
   5   7  11 356.184 93.4994  11
   5   7  11 385.869 112.801   4
  -5  -7 -11 404.374 88.8727   2
  -5  -7 -11 309.798 84.5723   1
   5   7  11 273.171 78.8190   6
  -5  -8   7 659.156 95.9672   5
  -5  -8   7 389.893 85.0487   7
  -5  -8   6 695.596 79.1471   2
  -5  -8   6 630.884 89.1548   7
  -5  -8   5 1132.79 83.7589   2
  -5  -8   5 1081.73 103.089   7
  -5  -8   4 1218.01 86.2664   2
  -5  -8   4 1291.54 104.991   7
  -5  -8   3 13291.4 245.057   2
  -5  -8   3 13632.4 291.848   7
   5   8  -3 13270.8 207.105   1
  -5  -8   2 378.407 60.2496   2
  -5  -8   2 362.425 48.8245   6
   5   8  -2 451.265 49.5795   1
  -5  -8   1 25.3735 51.1196   7
  -5  -8   1 20.4766 47.0292   2
  -5  -8   1 25.3872 34.9032   6
  -5  -8   0 2123.14 107.859   2
  -5  -8   0 2134.37 123.475   7
  -5  -8   0 2280.23 90.1230   6
   5   8   1 81.4710 40.8020  11
  -5  -8  -1 48.3607 52.2832   7
  -5  -8  -1 87.2531 48.0854   2
  -5  -8  -1 38.6934 39.4875   6
   5   8   2 1338.46 80.7001  11
  -5  -8  -2 1136.74 104.348   7
   5   8   2 1408.67 82.1321   6
  -5  -8  -2 1082.06 88.2116   2
   5   8   3 2306.39 102.395  11
  -5  -8  -3 2418.36 104.929   1
   5   8   3 2374.33 107.050   6
  -5  -8  -3 2218.26 119.923   2
   5   8   4 43.0109 45.0840   6
   5   8   4 61.2004 43.4054  11
   5   8   4 50.4784 80.3650  10
  -5  -8  -4-3.09093 53.8808   2
  -5  -8  -4 67.8350 43.5964   1
   5   8   5 9496.72 212.165  11
   5   8   5 9196.57 286.008  10
   5   8   5 10008.6 221.636   6
  -5  -8  -5 9901.87 218.288   1
   5   8   6 14396.7 275.551  11
   5   8   6 14169.0 364.106  10
   5   8   6 14145.2 272.782   6
  -5  -8  -6 14882.5 280.604   1
  -5  -8  -6 14340.0 299.392   2
   5   8   7 754.376 86.5011  11
   5   8   7 908.199 89.7343   6
  -5  -8  -7 944.884 84.7813   1
  -5  -8  -7 948.686 90.5857   2
   5   8   8 347.676 74.9401  11
  -5  -8  -8 357.641 72.5223   1
  -5  -8  -8 351.587 73.8458   2
   5   8   8 222.009 66.9291   6
   5   8   9 775.064 93.6164  11
  -5  -8  -9 961.395 97.7260   1
   5   8   9 1098.05 104.853   6
  -5  -8  -9 982.385 102.218   2
   5   8  10 67.6914 71.1944  11
  -5  -8 -10 165.866 73.9662   1
  -5  -8 -10 155.238 69.3685   2
   5   8  10 142.001 72.9493   6
   5   8  11 103.466 80.3649  11
  -5  -8 -11 20.5159 69.0432   1
  -5  -8 -11-52.3615 74.4916   2
   5   8  11 78.5703 78.1019   6
  -5  -9   6 251.659 79.7048   7
  -5  -9   6 179.328 68.3815   2
  -5  -9   5 86.7192 66.3649   7
  -5  -9   5 39.8783 58.4725   2
  -5  -9   4 12734.4 257.693   2
  -5  -9   4 13058.7 309.315   7
  -5  -9   3 179.786 69.5245   7
  -5  -9   3 278.713 65.1956   2
  -5  -9   2 1788.13 109.780   2
  -5  -9   2 2164.50 132.149   7
   5   9  -2 2003.25 95.5035   1
  -5  -9   1 37.3186 58.0557   7
  -5  -9   1 105.764 50.8354   2
  -5  -9   1 71.8478 41.1234   6
  -5  -9   0-1.44452 56.9514   7
  -5  -9   0 42.8678 48.8275   2
  -5  -9   0-28.9321 44.7261   6
  -5  -9  -1-64.9712 65.4214   7
  -5  -9  -1 54.7477 54.2955   2
  -5  -9  -1 42.9266 45.8688   6
  -5  -9  -2 819.465 79.8740   2
   5   9   2 1090.56 80.8133  11
  -5  -9  -2 1091.64 102.690   7
   5   9   2 1104.56 83.0406   6
   5   9   3 9042.92 212.165  11
  -5  -9  -3 9445.96 264.264   7
  -5  -9  -3 9008.62 226.760   2
   5   9   4 10966.9 238.717  11
  -5  -9  -4 11161.8 241.962   1
   5   9   4 11339.0 248.508   6
  -5  -9  -4 10707.8 247.120   2
  -5  -9  -5 8186.95 212.271   1
   5   9   5 8298.36 211.533  11
   5   9   5 8364.61 290.183  10
   5   9   5 7733.08 209.130   6
  -5  -9  -5 8069.95 224.626   2
   5   9   6 2873.54 138.873  11
   5   9   6 3082.25 184.390  10
   5   9   6 2843.13 139.324   6
  -5  -9  -6 2895.88 141.937   2
  -5  -9  -6 3067.93 140.366   1
   5   9   7 70.4236 56.0067  11
   5   9   7 99.7887 84.6629  10
  -5  -9  -7 187.042 66.8396   2
  -5  -9  -7 98.6082 55.5926   1
   5   9   7 128.124 59.4998   6
   5   9   8 307.399 73.3838  11
   5   9   8 348.597 99.8982  10
  -5  -9  -8 338.194 77.8954   2
  -5  -9  -8 323.288 73.8868   1
   5   9   8 332.067 75.1378   6
   5   9   9 291.790 77.5861  11
  -5  -9  -9 262.397 75.9889   2
  -5  -9  -9 352.312 79.9119   1
   5   9   9 320.184 77.3948   6
   5   9  10 729.135 105.894  11
   5   9  10 1018.01 119.041   6
  -5  -9 -10 1092.91 110.754   1
  -5  -9 -10 894.356 104.392   2
  -5 -10   5 248.790 82.1804   7
  -5 -10   5 288.256 73.6597   2
  -5 -10   4 1170.25 103.200   2
  -5 -10   4 1187.06 118.105   7
  -5 -10   3 181.104 67.8630   7
  -5 -10   3 341.482 69.7251   2
  -5 -10   2 2.06944 61.7386   7
  -5 -10   2 86.6923 61.4549   2
  -5 -10   1 190.018 65.1055   7
  -5 -10   1 212.849 59.0556   2
  -5 -10   0 1175.76 98.9447   2
  -5 -10   0 1068.65 106.650   7
  -5 -10   0 1102.78 85.8161   6
  -5 -10  -1 140.298 60.7728   2
  -5 -10  -1 59.4225 51.9003   6
  -5 -10  -2 5629.75 185.647   2
   5  10   2 5688.41 182.969  11
  -5 -10  -2 5371.96 206.481   7
   5  10   3 437.776 69.6699   6
   5  10   3 422.430 70.9682  11
  -5 -10  -3 406.046 83.5976   7
  -5 -10  -3 372.194 69.1569   2
  -5 -10  -4 837.544 88.7167   2
   5  10   4 757.952 85.0912  11
  -5 -10  -4 717.820 97.4911   7
   5  10   4 953.475 92.7295   6
   5  10   5 1488.64 108.912  11
  -5 -10  -5 1549.52 110.164   1
   5  10   5 1383.85 108.603   6
  -5 -10  -5 1409.05 105.078   2
   5  10   6 1162.38 98.0951  11
  -5 -10  -6 1123.80 99.7135   1
   5  10   6 1211.21 141.819  10
   5  10   6 1075.01 100.330   6
  -5 -10  -6 1141.29 99.6799   2
   5  10   7-45.6594 69.3786   6
   5  10   7 71.4133 64.3250  11
   5  10   7 84.7396 92.3311  10
  -5 -10  -7 23.9271 57.7317   1
  -5 -10  -7 126.963 62.7095   2
   5  10   8 121.696 69.8699  11
  -5 -10  -8 67.2931 61.2221   1
   5  10   8 57.8340 88.2097  10
  -5 -10  -8 61.5237 62.6737   2
   5  10   8 99.9390 65.7370   6
   5  10   9 21.0196 73.0455  11
   5  10   9 104.614 100.573  10
  -5 -10  -9 108.340 70.7300   2
  -5 -10  -9 128.367 70.0922   1
   5  10   9 98.1062 71.5985   6
   5  10  10 61.0103 80.3527  11
  -5 -10 -10 261.875 79.0747   2
  -5 -10 -10 200.692 84.7237   1
   5  10  10 60.3808 75.9529   6
  -5 -11   3 262.226 80.4229   7
  -5 -11   3 221.670 75.2717   2
  -5 -11   2 464.787 91.3483   7
  -5 -11   2 240.190 70.6901   2
  -5 -11   1 98.2471 65.7576   7
  -5 -11   1-26.1059 62.1876   2
  -5 -11   0 177.613 75.9995   7
  -5 -11   0 180.336 69.1920   2
  -5 -11  -1 1204.71 103.096   2
  -5 -11  -1 1159.11 115.114   7
  -5 -11  -1 1193.83 101.277   6
  -5 -11  -2 893.419 93.8459   2
  -5 -11  -2 1127.79 116.029   7
  -5 -11  -2 1093.98 97.8469   6
   5  11   3 325.645 73.5560  11
  -5 -11  -3 438.976 86.8307   7
  -5 -11  -3 286.062 70.5345   2
   5  11   4 2.90103 63.3047   6
   5  11   4-32.6594 68.5879  11
  -5 -11  -4 18.8627 76.7596   7
  -5 -11  -4 40.8825 60.4953   2
   5  11   5 239.930 71.6857   6
   5  11   5 330.182 82.8115  11
  -5 -11  -5 147.363 78.0459   7
  -5 -11  -5 189.742 67.1146   2
   5  11   6 73.5064 68.4784   6
   5  11   6 43.4189 66.8593  11
  -5 -11  -6 51.7861 67.4457   1
  -5 -11  -6 48.4369 63.8315   2
   5  11   7 347.742 83.1691   6
  -5 -11  -7 485.089 88.7135   1
   5  11   7 257.222 76.0572  11
  -5 -11  -7 298.310 73.2410   2
  -5 -11  -8 837.820 94.9747   2
  -5 -11  -8 965.093 108.279   1
   5  11   8 681.358 97.4596  11
   5  11   8 928.316 142.389  10
   5  11   8 648.713 98.6575   6
  -5 -11  -9 903.124 99.5475   2
  -5 -11  -9 1153.53 124.223   1
   5  11   9 1029.12 118.100  11
  -5 -12   1 157.479 79.6333   7
  -5 -12   1-78.1474 74.3592   2
  -5 -12   0-7.31658 76.6096   7
  -5 -12   0 144.689 68.6400   2
  -5 -12  -1 1010.12 101.127   2
  -5 -12  -1 906.225 111.630   7
  -5 -12  -2 250.087 88.6072   7
  -5 -12  -2 65.5227 69.1679   2
   5  12   3 227.105 81.1650  11
  -5 -12  -3 232.075 84.4068   7
  -5 -12  -3 96.8696 72.3675   2
  -5 -12  -3 202.915 78.7181   6
   5  12   4 216.583 87.0912   6
   5  12   4 226.012 80.2917  11
  -5 -12  -4 31.0178 75.7639   7
  -5 -12  -4 235.765 73.5507   2
   5  12   5 158.611 81.7452   6
   5  12   5-0.06571 67.5363  11
  -5 -12  -5 134.719 79.8400   7
  -5 -12  -5 31.9915 67.8595   2
   5  12   6 41.9039 73.7982   6
   5  12   6 241.918 88.2606  11
  -5 -12  -6 179.587 90.7120   7
  -5 -12  -6 139.440 69.4328   2
   5  12   7-9.44417 80.4685   6
   5  12   7 140.964 87.3610  11
  -5 -12  -7 47.7855 86.5283   7
  -5 -12  -7-60.0069 77.5107   1
  -5 -12  -7 15.7497 72.1884   2
  -6   6   6 342.997 102.923   8
  -6   6   5 414.669 102.978   8
  -6   6   5 453.579 95.5012   3
   6  -6  -5 464.635 98.5977   6
  -6   6   4 281.327 85.7059   3
   6  -6  -4 357.695 90.7161   6
  -6   6   3 93.6608 80.9076   8
  -6   6   3 38.3012 76.9958   3
   6  -6  -3 87.4336 81.4082   6
  -6   6   2 363.864 94.8841   8
  -6   6   2 335.331 86.3081   3
   6  -6  -2 254.516 89.3149   6
  -6   6   1 25.2851 63.7196   1
  -6   6   1 49.9913 81.2787   8
  -6   6   1 161.747 81.1218   3
   6  -6  -1 71.7838 72.7445   6
  -6   6   0 2037.11 154.978   8
   6  -6   0 2161.26 155.301   6
  -6   6   0 2283.31 157.587   3
  -6   6   0 1921.79 140.514   1
  -6   6  -1 1247.44 129.861   8
   6  -6   1 1457.98 138.727   6
  -6   6  -1 1040.08 115.823   1
  -6   5   7 102.019 98.2748   8
  -6   5   7 379.466 96.2191   3
  -6   5   6 824.726 122.070   8
  -6   5   6 699.077 113.319   3
   6  -5  -6 513.037 93.5944   6
  -6   5   5-51.2865 75.7281   8
  -6   5   5 28.1157 70.1573   3
   6  -5  -5 80.9228 64.6486   6
  -6   5   4-41.8115 63.4821   3
   6  -5  -4-16.0471 66.9216   6
  -6   5   3 168.603 88.3371   8
  -6   5   3 194.457 71.9440   3
   6  -5  -3 143.170 74.2641   6
  -6   5   2 192.742 71.7710   3
   6  -5  -2 347.302 80.3319   6
   6  -5  -1 2449.52 145.995   6
  -6   5   1 2522.96 150.792   3
  -6   5   1 2733.60 144.072   1
   6  -5   0 6441.94 231.377   6
  -6   5   0 6569.48 232.028   3
  -6   5   0 6196.42 217.122   1
   6  -5   1 6481.17 236.080   6
  -6   5  -1 6575.93 234.204   3
  -6   5  -1 6541.40 223.316   1
   6  -5   2 63.3045 70.6149   4
  -6   5  -2-100.232 75.3958   8
  -6   5  -2-63.2766 62.7810   1
   6  -5   2-35.9367 75.7350   6
  -6   5  -3 648.033 107.485   8
   6  -5   3 288.534 87.6226   4
  -6   5  -3 373.347 85.6431   1
   6  -5   3 530.209 105.212   6
   6  -5   4 523.510 110.049   4
  -6   5  -4 354.859 92.9511   8
  -6   5  -4 358.239 95.4698   1
   6  -5   4 467.188 106.150   6
  -6   4   8 39.6258 85.4971   8
  -6   4   8 165.542 85.7157   3
  -6   4   7 182.984 93.2209   8
  -6   4   7 111.096 74.0517   3
  -6   4   6 717.480 113.938   8
  -6   4   6 1012.51 114.910   3
   6  -4  -6 741.724 88.6009   6
  -6   4   5-72.9940 75.3146   8
  -6   4   5 24.6161 71.1679   3
   6  -4  -5 159.544 65.3220   6
  -6   4   4 88.1744 77.1991   8
  -6   4   4 182.600 76.7300   3
   6  -4  -4 192.559 66.9198   6
  -6   4   3 388.823 91.0680   8
  -6   4   3 547.955 84.4013   3
   6  -4  -3 332.011 67.9956   6
  -6   4   2 1915.09 140.612   8
   6  -4  -2 1778.65 118.216   6
  -6   4   2 1700.74 119.556   3
  -6   4   1 1654.87 133.484   8
   6  -4  -1 1466.58 114.156   6
  -6   4   1 1556.62 116.093   3
  -6   4   1 1507.98 107.308   1
   6  -4   0 2433.68 124.501   4
  -6   4   0 3037.61 176.428   8
   6  -4   0 2967.52 150.351   6
  -6   4   0 2519.40 140.719   3
  -6   4   0 2847.96 141.674   1
   6  -4   1 1048.74 99.7846   4
  -6   4  -1 1173.14 118.624   8
   6  -4   1 1017.13 101.155   6
  -6   4  -1 1038.96 100.137   3
  -6   4  -1 975.451 93.8973   1
   6  -4   2 418.827 82.6621   4
  -6   4  -2 467.055 89.3933   8
  -6   4  -2 486.582 78.6391   1
   6  -4   2 611.582 95.7738   6
  -6   4  -2 693.814 94.9955   3
   6  -4   3 6306.23 221.460   4
  -6   4  -3 7089.48 245.433   8
   6  -4   3 6604.98 235.875   6
  -6   4  -3 6555.92 220.352   1
   6  -4   4 180.794 74.4737   4
  -6   4  -4 44.3345 71.1413   8
  -6   4  -4 59.2545 69.2359   1
   6  -4   4 75.1414 76.4860   6
   6  -4   5 177.445 88.4250   4
  -6   4  -5 98.0164 76.1693   8
  -6   4  -5 156.372 72.4020   1
   6  -4   5 310.498 96.6861   6
  -6   3   9 42.3479 87.2349   8
  -6   3   9 193.263 88.4735   3
  -6   3   8 1283.21 138.761   8
  -6   3   8 1199.22 123.984   3
  -6   3   7 241.066 90.6348   8
  -6   3   7 329.502 83.4825   3
  -6   3   6 268.803 85.5981   8
  -6   3   6 417.515 83.9263   3
  -6   3   5 956.153 113.550   8
  -6   3   5 844.257 99.8818   3
   6  -3  -5 708.130 79.1953   6
  -6   3   4 890.662 109.098   8
  -6   3   4 708.646 93.4077   3
   6  -3  -4 778.961 78.9989   6
  -6   3   3 8848.68 258.633   3
   6  -3  -3 8652.43 214.548   6
  -6   3   2 44.0246 63.2313   8
  -6   3   2 197.267 62.5802   3
   6  -3  -2 121.629 55.1638   6
   6  -3  -1 1429.76 95.2923   4
  -6   3   1 1639.64 125.383   8
  -6   3   1 1585.82 107.982   3
   6  -3  -1 1531.44 102.772   6
  -6   3   1 1453.65 97.3781   1
  -6   3   0 39.9170 48.9489   1
  -6   3   0 107.221 68.7821   8
   6  -3   0 29.5319 51.7967   4
  -6   3   0-18.1417 54.4500   3
   6  -3   0-9.67875 48.2960   6
   6  -3   1 223.690 64.1170   4
  -6   3  -1 226.919 72.6911   8
  -6   3  -1 278.775 60.7427   1
  -6   3  -1 179.367 57.3196   3
   6  -3   1 203.258 62.6749   6
   6  -3   2 15.2087 62.7934   4
  -6   3  -2 174.626 70.2058   8
  -6   3  -2 138.703 60.8063   1
  -6   3  -2 157.620 61.3109   3
   6  -3   2 230.337 71.0937   6
   6  -3   3 99.1631 66.3810   4
  -6   3  -3 227.956 74.3858   8
  -6   3  -3 177.671 61.0244   1
   6  -3   3 228.290 71.4131   6
   6  -3   4 75.0873 76.7903   4
  -6   3  -4 62.7495 70.0242   8
  -6   3  -4 47.7199 57.9133   1
   6  -3   4 27.2562 62.7814   6
  -6   3  -5 728.849 93.4253   1
  -6   3  -5 819.536 103.011   8
   6  -3   5 573.122 99.0628   4
   6  -3   5 783.226 106.746   6
  -6   3  -6 741.985 102.900   1
  -6   3  -6 699.433 100.341   8
   6  -3   6 628.328 106.773   4
   6  -3   6 656.116 108.667   6
   6  -2  -9 132.598 107.324   9
  -6   2   9-123.480 95.5229   8
  -6   2   9 81.5305 90.5811   3
  -6   2   8 165.093 87.2000   8
  -6   2   8 122.356 75.0069   3
  -6   2   7 375.540 95.1839   8
  -6   2   7 529.377 94.1459   3
  -6   2   6 1481.92 131.107   8
  -6   2   6 1597.54 126.048   3
  -6   2   5 25.6661 69.8160   8
  -6   2   5 69.8791 61.3732   3
   6  -2  -5 29.9958 44.2675   6
  -6   2   4 2773.69 158.221   8
  -6   2   4 3171.99 155.517   3
   6  -2  -4 3197.47 118.227   6
  -6   2   3 143.032 64.9748   8
  -6   2   3 111.656 58.2120   3
   6  -2  -3 153.606 44.0449   6
  -6   2   2 241.601 72.7737   8
   6  -2  -2 436.517 58.7930   6
  -6   2   2 341.964 75.0450   3
  -6   2   1 793.114 95.4663   8
   6  -2  -1 872.148 76.7077   4
  -6   2   1 731.069 83.0432   3
   6  -2  -1 740.610 70.1783   6
  -6   2   1 709.185 66.7682   1
  -6   2   0 89.2315 60.5760   8
   6  -2   0 79.1506 56.8789   4
  -6   2   0 1.87514 39.4788   1
  -6   2   0 27.7988 53.5753   3
   6  -2   0-43.7692 48.7129   6
  -6   2  -1 277.001 71.4490   8
   6  -2   1 188.814 62.1949   4
  -6   2  -1 192.722 52.7856   1
  -6   2  -1 205.067 53.7987   3
   6  -2   1 315.703 62.5536   6
   6  -2   2-17.6636 57.1470   4
  -6   2  -2 76.6518 59.6625   8
  -6   2  -2 83.0054 52.8665   1
  -6   2  -2 59.6083 49.8551   3
   6  -2   2-50.1443 50.8224   6
   6  -2   3 176.346 67.1240   4
  -6   2  -3 229.537 67.3865   8
  -6   2  -3 133.212 55.5616   1
  -6   2  -3 28.4221 51.5856   3
   6  -2   3 148.185 63.6311   6
   6  -2   4 239.563 76.9221   4
  -6   2  -4 74.8650 72.3642   8
  -6   2  -4 138.399 55.8294   1
   6  -2   4 85.9178 59.3199   6
  -6   2  -5 1176.57 102.150   1
   6  -2   5 898.566 112.972   4
  -6   2  -5 1135.82 106.609   8
   6  -2   5 885.355 99.8099   6
  -6   2  -6 1228.47 113.393   1
   6  -2   6 1052.60 121.292   4
  -6   2  -6 1222.11 116.899   8
   6  -2   6 1102.13 114.737   6
   6  -2   7 68.7277 80.6143   4
  -6   2  -7-23.7032 68.0895   8
  -6   2  -7-6.58108 68.3086   1
   6  -2   7-11.8918 75.2599   6
   6  -1 -10 1965.87 192.628   9
   6  -1  -9 1072.26 150.602   9
  -6   1   9 1182.49 127.335   3
  -6   1   8 15.6119 74.7782   8
  -6   1   8-28.0169 71.4012   3
  -6   1   7 1303.75 125.895   8
  -6   1   7 1307.65 117.652   3
  -6   1   6 134.928 69.5915   8
  -6   1   6 19.7763 64.9967   3
  -6   1   5 973.552 108.933   8
  -6   1   5 1265.29 109.292   3
   6  -1  -5 1188.17 69.6064   6
  -6   1   4 37.1011 62.2278   8
  -6   1   4 10.2042 55.7061   3
   6  -1  -4 0.47212 33.4975   6
  -6   1   3 223.787 70.6746   8
   6  -1  -3 227.262 43.2015   6
  -6   1   3 103.632 54.9917   3
  -6   1   2 312.729 67.1784   8
  -6   1   2 271.273 29.6360   7
   6  -1  -2 267.384 44.5561   6
  -6   1   2 296.044 63.9232   3
  -6   1   2 297.762 41.3481   1
  -6   1   1 165.853 64.2937   8
  -6   1   1 206.349 40.5142   1
  -6   1   1 240.155 33.3252   7
  -6   1   1 161.921 56.0671   3
   6  -1  -1 240.902 43.1503   6
  -6   1   0 82.2228 55.9938   8
   6  -1   0 104.306 59.7865   4
  -6   1   0 100.083 37.8694   1
  -6   1   0 58.6386 44.9502   3
   6  -1   0 139.806 45.8129   6
  -6   1  -1 250.541 71.1481   8
   6  -1   1 154.539 63.9088   4
  -6   1  -1 250.634 45.9009   1
  -6   1  -1 126.644 49.0038   3
   6  -1   1 226.384 50.1963   6
   6  -1   2 3002.83 146.278   4
  -6   1  -2 3289.76 154.824   8
  -6   1  -2 3384.64 132.959   3
   6  -1   2 3374.01 131.512   6
  -6   1  -2 3194.32 122.066   1
   6  -1   3 209.724 73.7014   4
  -6   1  -3 156.051 60.0398   8
  -6   1  -3 41.0761 45.2633   1
  -6   1  -3 177.061 54.9459   3
   6  -1   3 258.851 61.9146   6
   6  -1   4 81.9903 63.2876   4
  -6   1  -4 111.364 58.0881   8
  -6   1  -4 66.2351 50.1678   1
   6  -1   4-88.2444 54.2505   6
   6  -1   5 53.1653 71.2298   4
  -6   1  -5 161.013 65.8765   8
  -6   1  -5 185.951 61.6302   1
   6  -1   5 47.7198 57.1477   6
  -6   1  -6 687.349 90.0343   8
   6  -1   6 391.156 87.9063   4
   6  -1   6 536.827 86.5224   6
  -6   1  -6 397.839 74.3407   1
   6  -1   7-80.7795 84.2026   4
  -6   1  -7 0.76964 61.1496   8
  -6   1  -7-97.2859 67.7023   1
   6  -1   7-87.2804 72.2215   6
   6  -1   8 657.277 117.703   4
  -6   1  -8 684.345 100.067   8
   6  -1   8 580.803 104.420   6
  -6   1  -8 523.143 91.1131   1
   6   0 -10 1082.23 153.584   9
  -6   0  10 821.779 122.867   3
   6   0  -9 846.873 136.573   9
  -6   0   9 1134.90 124.519   3
   6   0  -8 495.790 117.849   9
  -6   0   8 665.172 102.596   3
  -6   0   7 9436.57 285.886   8
  -6   0   7 10261.0 293.246   3
  -6   0   6 408.002 83.4156   8
  -6   0   6 325.467 78.0485   3
  -6   0   5-1.44929 57.5916   8
  -6   0   5-8.29908 41.5713   2
  -6   0   5 68.5266 27.9497   7
  -6   0   5-18.5852 52.3331   3
  -6   0   4 77.9775 64.2763   8
  -6   0   4 64.3573 27.8591   7
  -6   0   4 29.7160 54.9323   3
   6   0  -4 75.3191 26.5410   6
  -6   0   3 989.601 96.5800   8
  -6   0   3 1153.25 56.2351   7
  -6   0   3 1049.84 90.9097   3
   6   0  -3 1023.60 49.3955   6
  -6   0   3 904.499 44.6715   1
  -6   0   2 717.279 45.7532   5
  -6   0   2 1001.15 96.4803   8
  -6   0   2 872.866 52.2223   7
  -6   0   2 696.273 72.7420   3
   6   0  -2 913.864 50.3470   6
  -6   0   2 762.909 44.2342   1
  -6   0   1 102.167 26.6669   5
   6   0  -1 78.8751 31.8775  11
   6   0  -1 150.788 39.6665  10
  -6   0   1 75.1530 59.2213   8
  -6   0   1 142.180 31.7942   1
  -6   0   1 123.047 33.5245   7
  -6   0   1 116.679 47.9133   3
   6   0  -1 102.807 32.6553   6
   6   0  -1 160.122 33.6688   6
   6   0   0 953.818 62.2294  11
  -6   0   0 1019.34 92.3407   8
   6   0   0 1011.36 87.5757   4
  -6   0   0 1078.28 88.2148   3
   6   0   0 989.151 62.2117   6
   6   0   0 877.963 61.9962   6
  -6   0   0 970.628 57.0325   1
   6   0   1 13676.5 284.911   4
  -6   0  -1 13197.7 290.521   8
  -6   0  -1 13075.2 236.156   3
   6   0   1 13016.6 213.924   6
  -6   0  -1 13010.6 202.733   1
  -6   0  -2 10371.0 191.684   1
   6   0   2 10424.0 254.424   4
  -6   0  -2 10285.1 255.477   8
  -6   0  -2 10545.2 211.863   3
   6   0   2 10646.8 206.336   6
  -6   0  -3 120.908 55.7246   8
   6   0   3 22.4735 61.8261   4
  -6   0  -3 97.7991 40.8617   1
  -6   0  -3 50.9511 41.9953   3
   6   0   3 82.4458 49.2068   6
   6   0   4-71.6510 64.4671   4
  -6   0  -4 48.8168 58.0952   8
  -6   0  -4-38.7514 44.6281   1
   6   0   4 51.1558 46.3622   6
   6   0   5 165.982 75.3807   4
  -6   0  -5 271.801 66.1625   8
  -6   0  -5 207.507 56.7204   1
   6   0   5 113.016 54.1167   6
   6   0   6 23.2810 74.0843   4
  -6   0  -6 19.5606 58.0851   8
  -6   0  -6 46.3714 57.3830   1
   6   0   6 169.849 62.1094   6
   6   0   7 284.441 94.5832   4
  -6   0  -7 229.456 67.3727   8
   6   0   7 229.969 71.9068   6
  -6   0  -7 373.103 75.0832   1
   6   0   8-147.889 86.2500   4
   6   0   8 5.77626 68.2833   6
  -6   0  -8 36.6170 61.1542   1
  -6   0  -9 58.4321 71.9963   1
   6   0   9 4.94309 90.3854   4
  -6   0  -9 185.498 81.2732   8
   6   0   9 12.0211 79.8418   6
   6   1 -10 2303.30 200.600   9
  -6  -1  10 2626.12 179.101   3
   6   1  -9 538.719 120.984   9
  -6  -1   9 387.225 89.3587   3
   6   1  -8 969.053 134.165   9
  -6  -1   8 1146.69 115.944   3
  -6  -1   7 171.600 41.7588   7
  -6  -1   7 139.896 68.4266   3
  -6  -1   6 102.722 36.1155   7
  -6  -1   6 24.8805 57.6780   3
  -6  -1   5-11.1470 35.3933   5
  -6  -1   5-38.0538 56.4577   8
  -6  -1   5-7.83235 38.6808   2
  -6  -1   5 26.3324 31.8050   7
  -6  -1   5-113.538 63.8399   3
  -6  -1   4 41.0543 34.0199   5
  -6  -1   4 11.3589 60.7762   8
  -6  -1   4-11.7295 42.6856   2
  -6  -1   4-0.09373 31.2081   7
  -6  -1   4-26.3505 53.4756   3
  -6  -1   3 2222.38 89.0741   5
  -6  -1   3 2265.67 130.711   8
  -6  -1   3 2284.54 84.5355   7
  -6  -1   3 2363.75 123.206   3
  -6  -1   3 2321.74 108.426   2
  -6  -1   2 13410.0 284.803   8
  -6  -1   2 13496.2 198.924   7
  -6  -1   2 13926.3 266.542   3
   6   1  -1 38471.9 225.001  11
  -6  -1   1 38711.5 215.291   1
   6   1  -1 44818.3 385.164  10
  -6  -1   1 41381.5 492.029   8
  -6  -1   1 41857.1 357.449   7
  -6  -1   1 42017.7 426.023   3
   6   1  -1 39054.8 222.638   6
  -6  -1   1 38308.9 221.804   1
   6   1  -1 38668.7 224.901   6
   6   1   0 44.0648 27.7893   6
  -6  -1   0 18.0239 24.9596   1
   6   1   0 38.8322 26.4027  11
  -6  -1   0 82.7330 56.2441   8
  -6  -1   0 54.9985 23.8834   1
  -6  -1   0 15.7534 38.6687   3
   6   1   0 60.7857 27.6730   6
  -6  -1  -1 1161.29 58.7033   1
   6   1   1 1116.60 63.0500  11
   6   1   1 1341.74 106.933   4
  -6  -1  -1 983.701 86.9647   8
  -6  -1  -1 1251.74 80.0065   3
   6   1   1 1192.29 62.0951   6
   6   1   1 1037.25 63.1004   6
  -6  -1  -2 3.16457 49.3291   8
   6   1   2 122.719 67.2386   4
  -6  -1  -2 10.0320 36.1088   3
  -6  -1  -2 37.3529 30.7259   1
   6   1   2 14.3590 34.1406   6
  -6  -1  -3 1455.29 78.6389   1
   6   1   3 1642.84 119.723   4
  -6  -1  -3 1664.17 105.891   8
  -6  -1  -3 1571.15 82.5460   3
   6   1   3 1525.55 84.3874   6
  -6  -1  -4 518.876 59.3838   1
   6   1   4 598.839 88.9675   4
  -6  -1  -4 527.836 73.7642   8
   6   1   4 647.132 68.8487   6
  -6  -1  -5 2112.38 106.191   1
   6   1   5 2020.41 141.858   4
  -6  -1  -5 2149.75 123.316   8
   6   1   5 2094.69 115.157   6
  -6  -1  -6 1071.60 86.9482   1
   6   1   6 909.379 107.566   4
  -6  -1  -6 829.235 91.1247   8
   6   1   6 1000.72 92.5032   6
  -6  -1  -7 8564.73 229.179   1
   6   1   7 8618.40 282.178   4
  -6  -1  -7 8697.28 246.358   8
   6   1   7 8400.18 241.874   6
  -6  -1  -8 1648.02 120.294   1
   6   1   8 1441.03 140.662   4
  -6  -1  -8 1706.63 124.631   8
   6   1   8 1676.75 129.616   6
   6   1   9 77.0470 95.6930   4
  -6  -1  -9-88.3633 66.2075   8
   6   1   9-6.91554 71.8910   6
   6   2 -10 794.677 138.033   9
  -6  -2  10 923.917 128.407   3
   6   2  -9 1527.34 156.281   9
  -6  -2   9 1505.67 138.303   3
  -6  -2   9 1476.64 96.6762   7
   6   2  -8 62.8322 89.2026   9
  -6  -2   8 12.1917 45.4891   7
  -6  -2   8-56.4066 72.7996   3
   6   2  -7 133.310 83.1828   9
  -6  -2   7 194.544 46.9982   7
  -6  -2   7 46.8741 61.9070   3
  -6  -2   6 143.867 50.1676   5
  -6  -2   6 192.032 67.5077   8
  -6  -2   6 125.158 40.5168   7
  -6  -2   6 173.586 66.1922   3
  -6  -2   5 2174.38 104.975   5
  -6  -2   5 2216.40 129.816   8
  -6  -2   5 1913.60 88.0905   7
  -6  -2   5 1948.70 122.084   3
  -6  -2   5 2221.63 96.1313   2
  -6  -2   4 93.9018 37.9868   5
  -6  -2   4 6.07441 53.9808   8
  -6  -2   4 67.6885 40.2397   2
  -6  -2   4 47.7552 33.9426   7
  -6  -2   4-9.69266 59.2223   3
  -6  -2   3 13180.3 282.457   8
  -6  -2   3 13215.8 211.408   7
  -6  -2   3 13138.1 268.238   3
  -6  -2   3 13701.1 246.736   2
  -6  -2   2 101332. 745.144   8
  -6  -2   2 100072. 579.691   7
  -6  -2   2 100257. 687.803   3
  -6  -2   1 4740.98 168.695   8
  -6  -2   1 4564.90 129.714   7
  -6  -2   1 4655.83 146.547   3
  -6  -2   1 4807.80 156.447   2
   6   2   0 6942.06 80.5760  11
   6   2   0 8777.04 196.958  10
  -6  -2   0 8759.18 218.143   8
  -6  -2   0 6885.23 76.4587   1
  -6  -2   0 8927.03 187.628   3
   6   2   0 7013.38 79.2836   6
   6   2   0 6873.70 82.1659   6
  -6  -2   0 6172.23 71.6537   1
   6   2   1 418.051 38.6919  11
  -6  -2  -1 448.770 34.7595   1
  -6  -2  -1 388.347 60.9965   8
  -6  -2  -1 446.832 49.2961   3
   6   2   1 491.664 36.5676   6
  -6  -2  -2 513.190 43.4479   1
   6   2   2 502.675 80.7849   4
  -6  -2  -2 519.167 66.4296   8
   6   2   2 423.616 58.2878   3
  -6  -2  -2 420.155 48.5615   6
  -6  -2  -2 567.234 52.5552   3
   6   2   2 476.628 46.1876   6
  -6  -2  -3 442.799 46.3319   1
   6   2   3 623.313 86.9648   4
  -6  -2  -3 515.748 64.9423   8
   6   2   3 393.638 56.9226   3
  -6  -2  -3 442.689 48.6654   3
   6   2   3 436.807 50.2194   6
  -6  -2  -4-2.57140 36.7820   1
  -6  -2  -4 69.7009 49.4489   8
   6   2   4 72.7364 65.3806   4
  -6  -2  -4 20.5695 34.1682   3
   6   2   4-15.2498 40.9487   6
  -6  -2  -5 309.545 53.4799   1
  -6  -2  -5 376.675 67.3773   8
   6   2   5 403.910 85.2663   4
   6   2   5 362.965 58.3674   6
   6   2   6 12843.5 334.824   4
  -6  -2  -6 12292.6 250.508   1
  -6  -2  -6 11995.6 265.698   8
   6   2   6 12509.6 264.418   6
   6   2   7 12955.1 345.860   4
  -6  -2  -7 12702.1 269.947   1
  -6  -2  -7 12942.0 288.956   8
   6   2   7 12629.8 280.795   6
  -6  -2  -8 607.841 79.8286   1
  -6  -2  -8 632.411 86.5333   8
   6   2   8 617.781 109.037   4
   6   2   8 622.798 86.6241   6
  -6  -2  -9 451.636 83.0187   1
  -6  -2  -9 541.440 92.0703   8
   6   2   9 394.042 108.420   4
   6   2   9 323.579 83.5492   6
  -6  -2 -10 515.919 93.9803   1
   6   2  10 595.510 122.882   4
   6   2  10 525.756 101.799   6
   6   3  -9 419.405 113.200   9
  -6  -3   9 491.557 72.3081   7
  -6  -3   9 380.319 92.6575   3
   6   3  -8 985.478 128.701   9
  -6  -3   8 845.433 111.613   3
  -6  -3   8 981.310 84.1396   7
  -6  -3   7 215.663 62.2983   5
   6   3  -7 259.040 87.3521   9
  -6  -3   7 138.188 46.0724   7
  -6  -3   7 15.1215 65.3107   3
  -6  -3   6 866.094 81.6731   5
  -6  -3   6 975.130 96.7699   8
  -6  -3   6 1009.31 103.254   3
  -6  -3   6 905.310 71.0846   7
  -6  -3   5 3447.50 135.662   5
  -6  -3   5 3300.45 150.098   8
  -6  -3   5 3630.67 162.379   3
  -6  -3   5 3708.15 125.824   7
  -6  -3   5 3767.73 118.098   2
  -6  -3   4 113.823 56.4497   8
  -6  -3   4 29.6409 40.7721   2
  -6  -3   4 46.7911 35.2691   7
  -6  -3   4 108.752 53.6519   3
  -6  -3   3 5653.62 182.342   8
  -6  -3   3 5299.76 144.924   7
  -6  -3   3 5218.18 170.002   3
  -6  -3   3 5588.87 157.098   2
  -6  -3   2 2310.22 119.412   8
  -6  -3   2 2158.82 98.9306   7
  -6  -3   2 2008.77 103.756   3
  -6  -3   2 2456.91 113.779   2
  -6  -3   1 162.909 51.5793   8
  -6  -3   1 216.997 56.4008   2
  -6  -3   1 193.139 53.2303   7
  -6  -3   1 233.037 46.8300   3
   6   3   0 104.670 50.1951  10
  -6  -3   0 57.8570 46.4111   8
  -6  -3   0 66.3649 49.8881   2
  -6  -3   0 135.469 45.1535   7
  -6  -3   0 79.5021 37.9567   3
   6   3   1 445.297 28.7902  11
   6   3   1 506.570 76.3203  10
  -6  -3  -1 596.028 66.0697   8
  -6  -3  -1 563.394 52.2121   3
  -6  -3  -1 474.933 26.5211   1
  -6  -3  -1 443.340 30.3560   6
   6   3   1 493.598 28.0847   6
  -6  -3  -1 551.715 70.4006   2
  -6  -3  -2 156.830 49.4652   8
  -6  -3  -2 96.2071 26.7949   1
  -6  -3  -2 162.339 37.1801   3
  -6  -3  -2 173.556 36.3528   6
   6   3   2 99.8592 29.8758   6
  -6  -3  -3 122.097 35.7334   1
  -6  -3  -3 155.046 48.4296   8
   6   3   3 104.828 69.7978   4
  -6  -3  -3 163.110 32.9710   3
  -6  -3  -3 170.856 44.9665   6
   6   3   3 147.385 39.0914   6
  -6  -3  -4 4465.41 152.927   8
  -6  -3  -4 4487.79 127.261   1
  -6  -3  -4 4312.43 98.8003   3
   6   3   4 4609.23 132.982   6
  -6  -3  -5 134.219 47.6924   1
   6   3   5 108.025 74.4449   4
  -6  -3  -5 168.743 54.4553   8
   6   3   5 109.484 48.0003   6
   6   3   6 7328.01 252.678   4
  -6  -3  -6 6591.37 193.807   8
  -6  -3  -6 6763.74 184.019   1
   6   3   6 6786.46 192.112   6
   6   3   7 8126.26 276.600   4
  -6  -3  -7 8031.73 221.262   8
  -6  -3  -7 7533.75 208.143   1
   6   3   7 7937.84 222.306   6
  -6  -3  -8 822.228 90.2359   8
  -6  -3  -8 590.831 76.7641   1
   6   3   8 497.232 105.469   4
   6   3   8 828.030 91.6666   6
  -6  -3  -9 285.783 67.1062   1
   6   3   9 365.771 109.016   4
   6   3   9 301.979 75.4496   6
   6   3  10 1047.18 139.477   4
  -6  -3 -10 1011.15 108.609   1
   6   3  10 731.808 106.098   6
   6   4  -9 197.339 101.726   9
  -6  -4   9 209.743 63.5103   7
  -6  -4   9 70.9641 86.4739   3
  -6  -4   8 270.882 71.0527   5
   6   4  -8-4.58542 91.8072   9
  -6  -4   8 190.274 60.7077   7
  -6  -4   8 99.0690 75.6023   3
  -6  -4   7-16.2640 52.0940   5
  -6  -4   7 15.8178 46.2228   7
  -6  -4   7 111.195 66.7832   3
  -6  -4   6 3568.00 152.493   5
  -6  -4   6 3720.18 172.532   3
  -6  -4   6 3891.66 141.624   7
  -6  -4   5 1587.79 106.645   8
  -6  -4   5 1476.05 112.145   3
  -6  -4   5 1521.12 93.7260   7
  -6  -4   5 1774.87 82.6337   2
  -6  -4   4 2292.35 118.534   8
  -6  -4   4 2322.13 127.054   3
  -6  -4   4 2200.65 105.789   7
  -6  -4   4 2296.41 99.5914   2
  -6  -4   3 621.118 70.1606   8
  -6  -4   3 513.081 58.7490   7
  -6  -4   3 561.019 68.8791   3
  -6  -4   3 583.629 62.1653   2
  -6  -4   2 1041.89 80.4803   8
  -6  -4   2 939.371 72.9383   7
  -6  -4   2 884.832 77.5425   3
  -6  -4   2 951.121 78.2234   2
  -6  -4   1-4.42028 41.0113   8
  -6  -4   1 84.5494 47.6217   2
  -6  -4   1 41.3755 37.3486   7
  -6  -4   1-26.6860 39.6023   3
  -6  -4   0 68.1349 41.0612   8
  -6  -4   0 48.6177 51.7992   2
  -6  -4   0 25.4636 39.7065   7
  -6  -4   0 10.9895 36.9251   3
   6   4   1 37.5556 56.8943  10
  -6  -4  -1-46.9143 45.1001   8
  -6  -4  -1-40.4115 55.5272   2
  -6  -4  -1-18.5863 36.1568   3
  -6  -4  -1 8.76084 8.95164   6
   6   4   2 1472.35 57.4944  11
  -6  -4  -2 1555.17 91.9760   8
  -6  -4  -2 1494.69 69.2179   3
  -6  -4  -2 1406.70 59.4998   6
  -6  -4  -2 1520.86 55.4490   1
   6   4   2 1531.21 56.4338   6
  -6  -4  -2 1482.88 109.104   2
  -6  -4  -3 29439.3 359.174   8
  -6  -4  -3 30275.1 276.929   1
  -6  -4  -3 29310.0 238.665   3
  -6  -4  -3 28808.9 293.540   6
   6   4   3 30156.9 280.623   6
   6   4   3 29294.6 287.172   1
  -6  -4  -3 29645.0 422.480   2
  -6  -4  -4 360.841 53.5528   8
  -6  -4  -4 318.713 71.4754   2
   6   4   4 362.442 81.3431   4
  -6  -4  -4 374.047 46.1656   1
  -6  -4  -4 336.301 27.2862   3
   6   4   4 379.876 49.1782   6
  -6  -4  -5 179.985 68.5575   2
  -6  -4  -5 15.7327 39.0405   8
   6   4   5 86.5030 75.3905   4
  -6  -4  -5 60.7450 41.0368   1
   6   4   5 91.1915 45.8729   6
   6   4   6 5640.88 232.126   4
  -6  -4  -6 5359.96 168.186   8
  -6  -4  -6 5668.46 167.292   1
   6   4   6 5805.51 173.771   6
  -6  -4  -6 5511.71 206.280   2
  -6  -4  -7 394.952 82.5129   2
   6   4   7 362.786 90.4829   4
  -6  -4  -7 352.732 61.8804   8
  -6  -4  -7 319.082 58.4638   1
   6   4   7 323.208 67.7861   6
   6   4   8 6303.85 257.985   4
  -6  -4  -8 6157.72 198.535   8
  -6  -4  -8 5900.82 193.464   1
   6   4   8 5999.51 202.834   6
  -6  -4  -8 6037.86 227.265   2
   6   4   9 1232.19 134.358   4
  -6  -4  -9 1275.50 106.737   1
   6   4   9 1320.51 117.395   6
  -6  -4  -9 1139.99 117.331   2
   6   4  10 1195.72 142.653   4
  -6  -4 -10 1065.36 110.331   1
   6   4  10 988.337 113.920   6
  -6  -5   9 30.0168 67.4257   5
  -6  -5   9-114.599 66.1800   7
  -6  -5   9-18.3327 76.1052   3
  -6  -5   8 53.0776 62.3155   5
   6   5  -8-47.5267 84.0618   9
  -6  -5   8-14.2322 52.8432   7
  -6  -5   8 126.340 81.2253   3
  -6  -5   7 303.757 70.9848   5
  -6  -5   7 291.601 67.8391   7
  -6  -5   7 286.716 78.6219   3
  -6  -5   6 1334.63 107.938   5
  -6  -5   6 1521.00 124.112   3
  -6  -5   6 1416.86 97.9253   7
  -6  -5   5-49.8867 50.8983   8
  -6  -5   5 40.4319 44.5436   7
  -6  -5   5 21.5041 35.0237   2
  -6  -5   5 40.0632 57.9354   3
  -6  -5   4 576.633 69.2374   8
  -6  -5   4 462.779 71.2321   3
  -6  -5   4 503.973 67.2961   7
  -6  -5   4 665.861 58.7746   2
  -6  -5   3 0.04108 42.4428   8
  -6  -5   3 13.8977 35.9675   2
  -6  -5   3 35.8624 43.9174   7
  -6  -5   3 64.9715 40.8021   3
  -6  -5   2 1272.48 85.4506   8
  -6  -5   2 1326.48 91.0923   7
  -6  -5   2 1150.17 87.0281   3
  -6  -5   2 1333.28 86.8644   2
  -6  -5   1 250.177 50.4445   8
  -6  -5   1 177.222 47.2973   7
  -6  -5   1 280.818 53.9128   3
  -6  -5   0 151.333 43.7279   8
  -6  -5   0 167.665 54.0579   2
  -6  -5   0 285.895 51.3645   3
  -6  -5   0 210.210 55.3341   7
   6   5   1 15.5399 9.01549  11
   6   5   1 22.7862 56.2521  10
  -6  -5  -1 74.1478 39.7153   8
  -6  -5  -1 16.8058 54.2033   2
  -6  -5  -1 71.7568 54.1629   7
  -6  -5  -1 54.5351 36.9897   3
   6   5   2 5111.32 97.0257  11
   6   5   2 5089.31 190.241  10
  -6  -5  -2 5095.69 143.814   8
  -6  -5  -2 4673.16 111.478   3
   6   5   2 4998.36 95.8214   6
  -6  -5  -2 5129.10 180.823   2
   6   5   2 4895.96 96.5710   1
  -6  -5  -2 5196.48 96.7948   1
   6   5   3 9189.97 156.689  11
  -6  -5  -3 9134.38 197.334   8
  -6  -5  -3 8790.47 124.606   3
  -6  -5  -3 9541.55 157.583   1
  -6  -5  -3 9403.93 247.804   2
   6   5   3 9009.54 155.720   1
   6   5   4 27.3470 38.0396  11
  -6  -5  -4 65.3720 37.3565   8
  -6  -5  -4 58.7127 61.6388   2
  -6  -5  -4-0.26609 32.3354   1
   6   5   4-10.6381 37.2449   6
   6   5   5 1759.56 131.426   4
  -6  -5  -5 1844.51 97.8015   8
  -6  -5  -5 1903.31 92.8170   1
   6   5   5 1955.62 95.7037   6
  -6  -5  -5 2043.58 132.037   2
  -6  -5  -6-16.9130 43.0668   8
   6   5   6-33.4085 77.2226   4
  -6  -5  -6 65.0942 62.6212   2
  -6  -5  -6-13.5824 40.6569   1
   6   5   6 18.3578 45.4095   6
   6   5   7 84.3873 91.9056   4
  -6  -5  -7-29.2905 51.4890   8
  -6  -5  -7-22.1024 70.5593   2
  -6  -5  -7 128.848 55.1088   1
   6   5   7-20.0591 51.1066   6
   6   5   8 172.890 94.3715   4
  -6  -5  -8 30.0150 70.3218   2
  -6  -5  -8 92.6388 54.9855   1
   6   5   8 62.0379 60.6783   6
   6   5   9 70.4156 88.7085   4
  -6  -5  -9 68.4320 78.2370   2
  -6  -5  -9 98.5341 61.4185   1
   6   5   9-63.8965 64.7191   6
   6   5  10 95.2927 100.239   4
  -6  -5 -10-68.6895 85.9104   2
  -6  -5 -10-19.4685 62.6547   1
   6   5  10-19.9578 68.0002   6
  -6  -6   8 310.254 81.3883   5
  -6  -6   8 245.748 71.6249   7
  -6  -6   8 350.536 97.1294   3
  -6  -6   7-17.0411 68.0073   5
  -6  -6   7-128.009 62.4008   7
  -6  -6   7 52.4293 71.8969   3
  -6  -6   6 1095.47 110.596   3
  -6  -6   6 1015.46 90.9492   7
  -6  -6   5 1382.97 85.9327   2
  -6  -6   5 1409.10 101.821   8
  -6  -6   5 1229.81 107.154   3
  -6  -6   5 1525.92 106.184   7
  -6  -6   4 608.072 63.5093   2
  -6  -6   4 698.318 75.0745   8
  -6  -6   4 676.668 82.4723   3
  -6  -6   4 638.920 74.1387   7
  -6  -6   3 678.720 73.2038   8
  -6  -6   3 755.070 82.8907   3
  -6  -6   3 784.539 79.6254   7
  -6  -6   3 684.871 66.7047   2
  -6  -6   2-2.40515 42.0183   8
  -6  -6   2 22.0718 45.9444   2
  -6  -6   2 7.60008 50.3274   7
  -6  -6   2 68.1783 46.4054   3
  -6  -6   1 7212.84 169.702   8
  -6  -6   1 6835.04 203.349   7
  -6  -6   1 6438.52 172.151   3
  -6  -6   1 7474.39 194.982   2
  -6  -6   0 7049.81 163.776   8
  -6  -6   0 6984.86 201.132   7
  -6  -6   0 6820.27 167.638   3
  -6  -6   0 6475.51 192.503   2
  -6  -6  -1 303.500 44.7787   8
  -6  -6  -1 296.990 48.3542   3
  -6  -6  -1 289.816 67.4849   2
  -6  -6  -1 283.851 60.9829   7
  -6  -6  -1 293.621 24.9321   6
   6   6   2 70.2146 28.0869   6
   6   6   2 49.0979 26.5496  11
   6   6   2 5.84367 66.2830  10
  -6  -6  -2 94.3456 36.2148   8
  -6  -6  -2 64.2936 55.6338   2
  -6  -6  -2 84.0377 28.4970   1
  -6  -6  -2 60.7901 33.1803   3
   6   6   3 95.3881 31.1187  11
   6   6   3 113.379 78.6618  10
  -6  -6  -3 137.478 39.9047   8
  -6  -6  -3 75.5158 57.6937   2
  -6  -6  -3 70.1849 21.6441   3
  -6  -6  -3 77.9050 30.5541   1
   6   6   3 145.714 35.7869   6
   6   6   4 53.1477 36.6256  11
  -6  -6  -4 35.2575 35.6989   8
  -6  -6  -4 75.2644 59.7874   2
  -6  -6  -4 58.8790 36.0883   1
   6   6   4 89.2076 40.2032   6
   6   6   5 132.274 45.0129  11
  -6  -6  -5 128.503 42.9440   1
  -6  -6  -5 97.7338 41.5267   8
  -6  -6  -5 124.637 66.9756   2
   6   6   5 166.499 48.5119   6
   6   6   6 1096.71 85.6508  11
  -6  -6  -6 1178.85 81.2829   8
  -6  -6  -6 1335.56 90.1180   1
   6   6   6 1144.80 85.3186   6
  -6  -6  -6 1355.94 116.852   2
   6   6   7 713.585 80.2582  11
   6   6   7 919.181 121.665   4
  -6  -6  -7 774.218 77.8864   1
   6   6   7 729.823 78.7699   6
  -6  -6  -7 751.715 95.6893   2
   6   6   8 5049.62 243.761   4
  -6  -6  -8 4448.52 167.973   1
   6   6   8 4724.31 178.591   6
  -6  -6  -8 4537.80 197.059   2
   6   6   9 734.446 126.399   4
  -6  -6  -9 881.198 93.6666   1
   6   6   9 903.291 95.8340   6
  -6  -6  -9 659.344 101.180   2
   6   6  10 25.0693 99.6383   4
  -6  -6 -10-94.0675 80.6460   2
  -6  -6 -10 59.9833 66.1487   1
   6   6  10-111.961 74.9711   6
  -6  -7   7 465.256 85.9071   5
  -6  -7   7 710.763 92.2347   7
  -6  -7   6 1965.08 126.389   7
  -6  -7   5 980.050 75.3934   2
  -6  -7   5 979.211 96.8749   7
  -6  -7   4 1427.54 89.8532   2
  -6  -7   4 1343.46 103.581   7
  -6  -7   3 203.803 52.7508   8
  -6  -7   3 141.634 55.9318   7
  -6  -7   3 145.047 51.9838   2
  -6  -7   2 2348.69 99.7262   8
  -6  -7   2 2464.01 133.360   7
  -6  -7   2 2224.17 109.739   2
  -6  -7   1 5665.74 140.542   8
  -6  -7   1 5270.08 163.538   3
  -6  -7   1 5690.47 191.360   7
  -6  -7   1 5252.43 169.755   2
  -6  -7   0 4374.07 118.429   8
  -6  -7   0 4127.27 167.169   7
  -6  -7   0 4141.01 137.799   3
  -6  -7   0 3921.09 152.451   2
  -6  -7  -1 472.318 46.1169   8
  -6  -7  -1 559.487 56.6915   3
   6   7   2 440.912 46.5519  11
  -6  -7  -2 427.801 44.5472   8
  -6  -7  -2 481.851 76.5647   7
  -6  -7  -2 308.651 43.2489   3
  -6  -7  -2 310.818 69.6690   2
   6   7   2 340.835 43.2318   6
  -6  -7  -3 287.832 45.2908   1
   6   7   3 284.258 45.8291  11
   6   7   3 250.151 80.8730  10
  -6  -7  -3 245.426 42.6450   8
  -6  -7  -3 185.058 68.4730   2
   6   7   3 274.459 45.1364   6
   6   7   4 65.0101 40.8232  11
  -6  -7  -4 73.1432 36.6392   8
  -6  -7  -4 106.622 62.0768   2
  -6  -7  -4 79.9183 39.4179   1
   6   7   4 102.442 41.2538   6
   6   7   5 468.205 59.3800  11
   6   7   5 537.536 102.766  10
  -6  -7  -5 445.806 54.0088   8
  -6  -7  -5 296.846 75.2972   2
   6   7   5 442.578 61.4787   6
  -6  -7  -5 571.785 62.2393   1
   6   7   6 340.469 62.2120  11
  -6  -7  -6 260.174 54.0125   1
  -6  -7  -6 352.831 78.6798   2
   6   7   6 380.926 61.2603   6
   6   7   7 249.037 65.3332  11
  -6  -7  -7 404.512 85.2357   2
  -6  -7  -7 491.805 73.2673   1
   6   7   7 421.321 69.3444   6
  -6  -7  -8 13.7338 55.2258   1
   6   7   8-32.9547 62.4698  11
  -6  -7  -8 57.0893 69.5420   2
   6   7   8 105.921 63.1415   6
  -6  -7  -9 417.215 77.3363   1
   6   7   9 494.511 90.5591  11
   6   7   9 557.993 110.424   4
   6   7   9 651.283 88.8099   6
  -6  -7  -9 734.828 101.222   2
   6   7  10 252.290 85.0997  11
   6   7  10 506.148 122.585   4
  -6  -7 -10 354.327 95.7219   2
  -6  -7 -10 311.023 79.3934   1
   6   7  10 354.748 90.7446   6
  -6  -8   6 1472.05 123.076   7
  -6  -8   5 1178.83 90.8620   2
  -6  -8   5 1207.98 109.279   7
  -6  -8   4 3677.52 141.002   2
  -6  -8   4 3824.49 170.130   7
  -6  -8   3-9.42178 58.1738   7
  -6  -8   3 37.2411 48.1392   2
  -6  -8   2 62.4870 58.9531   7
  -6  -8   2 32.1340 50.0032   2
  -6  -8   1-45.7995 57.3158   7
  -6  -8   1 83.2195 50.2477   2
  -6  -8   0 343.601 78.4466   7
  -6  -8   0 336.745 61.8215   2
  -6  -8  -1 4.45623 51.8170   2
  -6  -8  -1 50.2176 63.0251   7
  -6  -8  -1 39.0556 43.0951   3
   6   8   2 32.8819 37.8136   6
   6   8   2 10.2270 35.6463  11
  -6  -8  -2 65.2973 55.2382   2
  -6  -8  -2-88.4229 63.2177   7
   6   8   3 348.971 53.4726   6
   6   8   3 372.550 55.9359  11
  -6  -8  -3 299.651 70.0150   2
  -6  -8  -4 1124.04 78.5334   1
   6   8   4 1044.35 76.0038  11
   6   8   4 1044.62 125.131  10
   6   8   4 1158.23 80.8754   6
  -6  -8  -4 1036.50 101.672   2
   6   8   5 11439.7 229.900  11
   6   8   5 12110.1 343.702  10
   6   8   5 11855.9 237.135   6
  -6  -8  -5 11897.1 290.925   2
  -6  -8  -5 12264.9 239.559   1
   6   8   6 1692.92 107.361  11
   6   8   6 1639.60 151.228  10
   6   8   6 1736.27 104.601   6
  -6  -8  -6 1777.92 103.774   1
  -6  -8  -6 1715.28 125.952   2
   6   8   7 3115.87 146.169  11
   6   8   7 2939.58 140.216   6
  -6  -8  -7 3359.74 146.280   1
   6   8   8 1532.00 115.542  11
  -6  -8  -8 1451.29 107.028   1
   6   8   8 1233.17 104.223   6
  -6  -8  -8 1411.15 125.803   2
   6   8   9 623.727 95.5947  11
  -6  -8  -9 745.808 93.4540   1
   6   8   9 708.858 94.9915   6
  -6  -8  -9 614.007 101.689   2
   6   8  10 19.0893 71.6950  11
  -6  -8 -10 137.901 68.4636   1
  -6  -8 -10 131.991 84.8853   2
   6   8  10 222.755 80.8405   6
  -6  -9   5 8062.44 212.542   2
  -6  -9   5 8241.74 263.049   7
  -6  -9   4 1333.16 103.871   2
  -6  -9   4 1500.81 125.463   7
  -6  -9   3 2627.78 129.443   2
  -6  -9   3 2667.65 156.563   7
  -6  -9   2 730.178 77.2089   2
  -6  -9   2 764.411 93.4483   7
  -6  -9   1 431.593 72.6981   2
  -6  -9   1 409.949 81.7603   7
  -6  -9   0 29.4492 62.7689   7
  -6  -9   0-46.7248 55.0765   2
  -6  -9  -1 1800.13 129.982   7
  -6  -9  -1 1723.93 110.849   2
  -6  -9  -2 3461.17 170.694   7
  -6  -9  -2 3328.32 149.350   2
   6   9   3 2411.12 111.642  11
  -6  -9  -3 2669.65 154.913   7
   6   9   3 2557.51 114.839   6
  -6  -9  -3 2576.85 142.000   2
   6   9   4 35481.0 412.318  11
  -6  -9  -4 36408.4 419.325   1
   6   9   4 35591.0 418.729   6
  -6  -9  -4 35182.6 483.420   2
   6   9   5 22.7387 51.8128   6
   6   9   5-2.92237 47.8018  11
   6   9   5-8.50372 81.5700  10
  -6  -9  -5 19.8767 63.9883   2
  -6  -9  -5 84.3252 58.9087   1
   6   9   6-12.0456 50.4670  11
   6   9   6 3.33830 89.8084  10
  -6  -9  -6-26.0101 59.6017   1
  -6  -9  -6 97.1521 69.4140   2
   6   9   6-9.30302 55.5396   6
   6   9   7 3166.58 152.065  11
   6   9   7 3254.08 210.102  10
   6   9   7 3182.93 151.652   6
  -6  -9  -7 3686.34 154.687   1
  -6  -9  -7 3429.89 166.095   2
   6   9   8 42.0288 61.7980  11
   6   9   8 94.9695 96.1334  10
  -6  -9  -8 108.634 76.2228   2
  -6  -9  -8 161.470 65.6117   1
   6   9   8-8.36513 63.6647   6
   6   9   9 167.342 73.1961  11
  -6  -9  -9 203.018 76.9670   2
  -6  -9  -9 271.405 81.4014   1
   6   9   9 92.3664 67.6898   6
  -6 -10   4 323.627 80.3333   2
  -6 -10   4 336.036 83.7389   7
  -6 -10   3-59.2470 72.3967   7
  -6 -10   3 38.6663 55.8733   2
  -6 -10   2 766.841 90.6100   2
  -6 -10   2 718.004 97.7410   7
  -6 -10   1 102.972 69.6066   7
  -6 -10   1 143.011 64.9522   2
  -6 -10   0 174.107 72.4887   7
  -6 -10   0 128.139 59.6294   2
  -6 -10  -1 1168.14 102.663   2
  -6 -10  -1 1245.94 119.979   7
  -6 -10  -2 1979.45 123.805   2
  -6 -10  -2 1714.89 136.759   7
  -6 -10  -3 3700.68 186.726   7
  -6 -10  -3 3646.55 160.214   2
   6  10   4 892.585 87.4086  11
   6  10   4 1067.49 92.1385   6
  -6 -10  -4 876.187 97.2570   2
   6  10   5 4513.85 169.629  11
  -6 -10  -5 4669.62 174.884   1
   6  10   5 4741.16 175.808   6
  -6 -10  -5 4657.63 189.696   2
   6  10   6 217.629 71.5028   6
   6  10   6 211.080 66.1827  11
   6  10   6 210.788 108.502  10
  -6 -10  -6 96.2625 68.8855   2
  -6 -10  -6 100.714 60.0420   1
  -6 -10  -7 1042.30 96.8788   1
   6  10   7 870.874 99.2915  11
   6  10   7 793.607 133.607  10
   6  10   7 703.543 95.0889   6
  -6 -10  -7 813.141 102.853   2
  -6 -10  -8 476.215 80.9318   1
   6  10   8 428.234 83.2744  11
   6  10   8 227.627 105.938  10
  -6 -10  -8 616.356 92.9865   2
   6  10   8 480.054 88.7721   6
  -6 -11   2 127.986 68.7695   2
  -6 -11   1 885.242 95.6253   2
  -6 -11   1 1028.93 114.639   7
  -6 -11   0 4618.68 184.284   2
  -6 -11   0 5259.57 220.494   7
  -6 -11  -1 416.624 92.2162   7
  -6 -11  -1 356.519 76.4302   2
  -6 -11  -2 3405.08 162.701   2
  -6 -11  -2 3010.02 174.349   7
  -6 -11  -3 154.498 82.1256   7
  -6 -11  -3 187.316 77.2650   2
  -6 -11  -4 59.7904 78.3786   7
  -6 -11  -4 104.699 73.9282   2
  -6 -11  -5-51.2969 82.4742   7
  -6 -11  -5 129.159 73.9810   2
   6  11   6 250.471 82.6608  11
  -6 -11  -6 350.851 78.7621   2
   6  11   6 378.079 92.2094   6
   6  11   7 103.971 71.1692   6
   6  11   7-32.5706 70.0545  11
  -6 -11  -7-53.4894 64.7849   1
  -6 -11  -7-36.9704 72.9981   2
  -6 -12  -2 36.1913 80.4848   7
  -6 -12  -2 55.5979 67.1133   2
  -6 -12  -3 481.818 105.848   7
  -6 -12  -3 406.122 87.1516   2
  -6 -12  -4 161.648 92.1202   7
  -7   4   5-27.1387 85.0019   8
  -7   4   5 110.408 77.7872   3
  -7   4   4 37.4305 87.4808   8
  -7   4   4 96.3916 72.0460   3
  -7   4   3-6.50447 88.8862   8
  -7   4   3 55.6966 72.7256   3
  -7   4   2 889.714 121.848   8
  -7   4   2 1013.38 113.275   3
  -7   4   1 5067.46 234.583   8
  -7   4   1 4896.26 206.358   3
  -7   4   0 90.8389 83.8420   8
  -7   4   0 62.5528 67.3551   3
   7  -4   0 178.748 74.9412   6
  -7   4  -1 1168.78 130.733   8
   7  -4   1 1045.74 110.387   6
  -7   4  -1 817.405 108.536   3
  -7   4  -1 909.006 102.478   1
  -7   4  -2 1986.13 156.542   8
   7  -4   2 1839.40 143.149   6
  -7   4  -2 2132.04 151.001   3
  -7   4  -2 1751.09 128.713   1
  -7   3   6 858.179 125.087   8
  -7   3   6 752.181 109.237   3
  -7   3   5 35.2222 87.0765   8
  -7   3   5-2.25893 73.2376   3
  -7   3   4 2805.57 184.761   8
  -7   3   4 3301.37 183.679   3
  -7   3   3 141.878 80.5942   8
  -7   3   3 196.251 71.1061   3
  -7   3   2 25.8437 76.1877   8
  -7   3   2 88.0644 66.4289   3
  -7   3   1 965.720 120.633   8
  -7   3   1 956.428 102.941   3
  -7   3   0 192.824 90.0448   8
  -7   3   0 158.199 75.1624   3
   7  -3   0 278.180 73.5242   6
  -7   3  -1 40.3791 72.1705   8
  -7   3  -1 68.0453 53.2065   1
  -7   3  -1 125.103 67.0454   3
   7  -3   1-21.3357 61.1478   6
  -7   3  -2 28.7003 77.1888   8
   7  -3   2 61.5197 73.6446   4
  -7   3  -2 60.6502 57.6416   1
  -7   3  -2 90.3663 66.4765   3
   7  -3   2 7.86489 63.7964   6
   7  -3   3-116.267 83.9780   4
  -7   3  -3 54.7084 64.4551   1
   7  -3   3-78.8512 73.9541   6
  -7   3  -4 706.996 95.6288   1
   7  -3   4 513.305 105.225   4
   7  -3   4 570.849 101.408   6
  -7   2   7 1134.05 137.155   8
  -7   2   7 1161.69 124.577   3
  -7   2   6 176.499 88.4203   8
  -7   2   6 275.898 86.5392   3
  -7   2   5 88.7096 89.0834   8
  -7   2   5 108.377 72.3973   3
  -7   2   4 124.758 83.9544   8
  -7   2   4 70.6759 63.1913   3
  -7   2   3-91.2770 74.1238   8
  -7   2   3 69.5599 63.4615   3
  -7   2   2 434.155 87.0726   8
  -7   2   2 567.820 81.7149   3
  -7   2   1 116.702 73.9417   8
  -7   2   1 181.784 60.0371   3
  -7   2   0 59.3897 74.2568   8
   7  -2   0 127.305 73.0557   4
  -7   2   0 219.308 64.7436   3
   7  -2   0 119.088 60.5110   6
  -7   2  -1 102.156 70.4443   8
   7  -2   1 78.8622 74.2887   4
  -7   2  -1 43.2832 48.6485   1
  -7   2  -1 109.626 56.6160   3
   7  -2   1 41.9637 57.5063   6
  -7   2  -2 30.3268 73.5338   8
   7  -2   2 120.102 81.6224   4
  -7   2  -2 88.4753 52.8585   1
  -7   2  -2 49.0302 58.5945   3
   7  -2   2 24.5119 60.2008   6
   7  -2   3-50.8525 78.7699   4
  -7   2  -3 83.6513 72.1241   8
  -7   2  -3 49.1247 54.3691   1
  -7   2  -3-103.069 69.3641   3
   7  -2   3 31.5440 61.0783   6
  -7   2  -4 522.746 97.6255   8
   7  -2   4 363.929 98.9802   4
  -7   2  -4 289.756 69.1869   1
   7  -2   4 362.809 88.4545   6
   7  -2   5-41.7694 87.5036   4
  -7   2  -5 88.7719 76.5367   8
  -7   2  -5 12.1492 67.6161   1
   7  -2   5-120.330 85.9389   6
  -7   1   8 362.103 101.285   8
  -7   1   8 491.026 97.7690   3
  -7   1   7 1273.89 135.653   8
  -7   1   7 1385.84 138.659   3
  -7   1   6 297.053 92.4544   8
  -7   1   6 419.145 88.5761   3
  -7   1   5-17.4712 71.4247   8
  -7   1   5 2.55807 63.3138   3
  -7   1   4 221.746 86.4601   8
  -7   1   4 196.315 70.7430   3
  -7   1   3 16.6407 72.6921   8
  -7   1   3 111.738 61.6660   3
  -7   1   2 58.0285 72.1760   8
  -7   1   2 174.615 64.1250   3
  -7   1   1 87.2398 70.6817   8
  -7   1   1 176.320 57.0469   3
  -7   1   0 69.0238 67.3188   8
   7  -1   0 62.5009 66.2176   4
  -7   1   0 24.5334 54.2624   3
   7  -1   0 98.6572 49.2390   6
   7  -1   1 613.472 95.7362   4
  -7   1  -1 692.231 99.0876   8
  -7   1  -1 537.754 72.8654   3
   7  -1   1 551.390 70.6249   6
  -7   1  -2 97.7968 66.0927   8
   7  -1   2 168.051 77.5391   4
  -7   1  -2 185.356 55.8403   1
  -7   1  -2 272.603 64.4078   3
   7  -1   2 166.613 56.5672   6
  -7   1  -3-56.7172 69.4654   8
   7  -1   3 37.3571 75.1918   4
  -7   1  -3 28.9763 51.0606   1
  -7   1  -3-1.47258 55.3372   3
   7  -1   3 48.1511 59.4240   6
   7  -1   4 57.0991 82.8921   4
  -7   1  -4 148.288 73.3242   8
  -7   1  -4 16.8268 53.4270   1
   7  -1   4-52.1770 68.0867   6
   7  -1   5 233.511 85.1599   4
  -7   1  -5 173.422 70.0587   8
  -7   1  -5 206.671 68.9117   1
   7  -1   5 99.8941 67.8969   6
  -7   1  -6 533.271 97.3009   8
   7  -1   6 400.449 105.087   4
  -7   1  -6 290.536 76.2439   1
  -7   0   8 1204.59 137.336   8
  -7   0   8 1337.26 138.351   3
  -7   0   7 35.6639 79.5149   8
  -7   0   7 79.6256 80.2702   3
  -7   0   6-3.90662 74.7693   8
  -7   0   6 165.371 83.1347   3
  -7   0   5 263.692 88.7359   8
  -7   0   5 415.874 82.0655   3
  -7   0   4 290.573 77.9625   8
  -7   0   4 228.988 62.5195   2
  -7   0   4 271.940 72.6448   3
  -7   0   3 98.8604 68.6048   8
  -7   0   3 37.4570 55.5234   3
  -7   0   2 623.570 92.7047   8
  -7   0   2 925.071 93.5308   3
  -7   0   1 109.483 66.5839   8
  -7   0   1 72.4096 56.0036   3
  -7   0   0 1002.28 105.826   8
  -7   0   0 1013.45 88.2053   3
  -7   0  -1-16.1387 67.9359   8
   7   0   1 16.7943 67.1315   4
  -7   0  -1 0.70847 46.7926   3
   7   0   1 63.3867 42.3576   6
  -7   0  -2 4715.18 143.049   1
   7   0   2 4943.75 204.775   4
  -7   0  -2 4377.05 191.511   8
  -7   0  -2 4637.00 158.409   3
   7   0   2 4695.43 150.992   6
  -7   0  -3 2311.05 113.233   1
   7   0   3 2614.61 155.225   4
  -7   0  -3 2615.93 151.896   8
  -7   0  -3 2412.79 118.259   3
   7   0   3 2575.76 122.778   6
  -7   0  -4 889.576 81.8513   1
   7   0   4 898.944 113.481   4
  -7   0  -4 1172.98 109.642   8
   7   0   4 864.312 89.0090   6
   7   0   5-17.0885 76.3241   4
  -7   0  -5 36.6636 60.3081   8
  -7   0  -5 61.9655 49.7546   1
   7   0   5-18.8021 59.2900   6
   7   0   6 89.9775 89.1650   4
  -7   0  -6-16.5208 62.7064   8
   7   0   6-60.9884 70.3467   6
  -7   0  -6 1.11617 57.6429   1
   7   0   7 472.953 109.097   4
  -7   0  -7 491.828 88.4959   8
   7   0   7 477.435 90.7285   6
  -7   0  -7 303.921 74.6479   1
  -7  -1   8-53.9884 76.4540   8
  -7  -1   8 56.8388 79.0130   3
  -7  -1   7-37.2343 69.5995   8
  -7  -1   7 48.3120 72.0085   3
  -7  -1   6 97.5795 73.2695   8
  -7  -1   6-25.9342 67.2636   3
  -7  -1   5 90.7399 66.7170   8
  -7  -1   5 43.1364 65.4343   3
  -7  -1   4 758.459 64.4780   5
  -7  -1   4 758.232 99.0378   8
  -7  -1   4 886.160 99.9944   3
  -7  -1   4 770.350 81.4351   2
  -7  -1   3 1498.54 77.7714   5
  -7  -1   3 1634.13 129.249   8
  -7  -1   3 1461.87 108.122   3
  -7  -1   3 1710.44 107.600   2
  -7  -1   2 151.277 39.7467   5
  -7  -1   2-8.28282 63.6887   8
  -7  -1   2 103.498 38.1094   7
  -7  -1   2 71.1553 51.0870   3
  -7  -1   1 207.296 73.0478   8
  -7  -1   1 133.175 42.0589   7
  -7  -1   1 103.168 51.3758   3
   7   1   0 1266.49 85.6357  10
  -7  -1   0 1287.85 110.080   8
  -7  -1   0 1384.74 82.0448   7
  -7  -1   0 1584.18 102.792   3
  -7  -1  -1 168.715 68.6003   8
   7   1   1 108.954 70.0756   4
  -7  -1  -1 49.9720 43.8168   3
   7   1   2 587.591 95.6587   4
  -7  -1  -2 474.132 83.7717   8
  -7  -1  -2 488.541 63.3979   3
   7   1   2 444.637 53.6920   6
  -7  -1  -3-25.8665 57.1729   8
   7   1   3 69.6118 76.6154   4
  -7  -1  -3 41.6390 45.2195   3
   7   1   3 90.1468 45.3311   6
  -7  -1  -3 65.4722 39.4514   1
  -7  -1  -4 157.851 71.8745   8
   7   1   4 239.923 89.8180   4
   7   1   4 202.945 57.7869   6
  -7  -1  -4 154.150 47.6555   1
   7   1   5 120.517 84.8368   4
  -7  -1  -5 113.519 63.6880   8
   7   1   5 43.8792 56.7264   6
  -7  -1  -5 90.0287 50.2194   1
  -7  -1  -6 1697.14 113.410   1
   7   1   6 1929.35 160.724   4
  -7  -1  -6 2101.59 138.493   8
   7   1   6 1584.15 117.120   6
  -7  -1  -7 2009.67 126.233   1
   7   1   7 2143.16 174.162   4
   7   1   7 2248.07 140.446   6
  -7  -1  -8 177.344 71.6634   1
   7   1   8 217.084 101.540   4
  -7  -1  -8 208.163 75.3866   8
   7   1   8 324.067 91.1185   6
  -7  -2   8-163.961 76.9931   8
  -7  -2   8 32.1462 78.7301   3
  -7  -2   7 743.714 102.097   8
  -7  -2   7 713.526 105.231   3
  -7  -2   6 1279.66 90.9217   5
  -7  -2   6 1194.99 118.750   8
  -7  -2   6 1285.94 117.852   3
  -7  -2   5 9.97400 37.4842   5
  -7  -2   5 12.4172 66.7434   8
  -7  -2   5 19.5809 38.1339   7
  -7  -2   5 111.231 68.7969   3
  -7  -2   4 687.472 64.1066   5
  -7  -2   4 597.351 88.6265   8
  -7  -2   4 653.429 61.3140   7
  -7  -2   4 729.346 87.6944   3
  -7  -2   4 570.631 73.1159   2
  -7  -2   3 8448.33 187.214   5
  -7  -2   3 8166.43 247.233   8
  -7  -2   3 8990.37 183.278   7
  -7  -2   3 9067.22 239.816   3
  -7  -2   3 9368.57 236.956   2
  -7  -2   2 254.358 71.0170   8
  -7  -2   2 174.549 56.2704   2
  -7  -2   2 338.264 54.1527   7
  -7  -2   2 227.522 64.0747   3
  -7  -2   1 165.764 63.8031   8
  -7  -2   1 167.201 46.1652   7
  -7  -2   1 251.607 55.0908   3
  -7  -2   1 312.850 67.5690   2
   7   2   0 3431.97 135.497  10
  -7  -2   0 3383.37 156.047   8
  -7  -2   0 3372.95 127.882   7
  -7  -2   0 3587.77 136.991   3
  -7  -2  -1 591.483 85.2005   8
  -7  -2  -1 576.834 66.5573   3
  -7  -2  -2 443.745 76.7805   8
   7   2   2 355.263 81.7345   4
  -7  -2  -2 465.926 55.7926   3
   7   2   2 326.888 43.2739   6
  -7  -2  -3 96.8066 38.2663   1
  -7  -2  -3 30.1560 53.1108   8
   7   2   3 42.0929 75.1778   4
  -7  -2  -3 9.57550 41.3014   3
   7   2   3 10.2415 37.4586   6
  -7  -2  -4 32.8817 39.4314   1
  -7  -2  -4 83.7314 60.8379   8
   7   2   4-5.06297 83.6366   4
   7   2   4 57.5531 44.0543   6
   7   2   5 2373.34 167.004   4
  -7  -2  -5 2143.72 109.568   1
  -7  -2  -5 2047.41 129.853   8
   7   2   5 1910.14 110.795   6
   7   2   6 2263.33 165.477   4
  -7  -2  -6 1947.42 114.524   1
  -7  -2  -6 2061.95 131.579   8
   7   2   6 2001.41 121.853   6
   7   2   7 8993.22 314.809   4
  -7  -2  -7 8698.20 237.684   1
  -7  -2  -7 9312.63 266.958   8
   7   2   7 8951.12 251.613   6
   7   2   8 854.129 135.781   4
  -7  -2  -8 1083.39 102.682   1
  -7  -2  -8 1263.75 115.952   8
   7   2   8 996.164 113.609   6
  -7  -3   8 92.9263 69.4199   8
  -7  -3   8 233.366 83.6085   3
  -7  -3   7 309.269 68.6891   5
  -7  -3   7 272.566 82.2679   8
  -7  -3   7 305.460 58.1788   7
  -7  -3   7 307.293 83.3703   3
  -7  -3   6 93.2435 54.4505   5
  -7  -3   6 41.0470 63.5556   8
  -7  -3   6-95.1585 46.1698   7
  -7  -3   6 131.713 69.0118   3
  -7  -3   5 599.938 69.2269   5
  -7  -3   5 488.850 84.5625   8
  -7  -3   5 513.708 60.9213   7
  -7  -3   5 463.393 83.5815   3
  -7  -3   4 1546.30 94.7342   5
  -7  -3   4 2039.06 132.330   8
  -7  -3   4 1760.63 93.7312   7
  -7  -3   4 2189.04 130.089   3
  -7  -3   4 1687.47 107.547   2
  -7  -3   3 6.78825 54.2606   8
  -7  -3   3 43.7855 49.9677   2
  -7  -3   3 141.368 45.5451   7
  -7  -3   3 81.5077 56.2012   3
  -7  -3   2 2551.44 137.384   8
  -7  -3   2 2245.00 105.909   7
  -7  -3   2 2214.59 118.477   3
  -7  -3   2 2341.32 123.163   2
  -7  -3   1 102.295 58.2103   8
  -7  -3   1 71.7175 54.8496   2
  -7  -3   1 116.487 48.5932   7
  -7  -3   1 115.488 47.7379   3
   7   3   0-89.3352 60.2378  10
  -7  -3   0-4.61614 52.0034   8
  -7  -3   0-71.6465 59.4523   2
  -7  -3   0 35.7970 45.1040   7
  -7  -3   0 10.6589 38.7491   3
   7   3   1 4218.06 166.419  10
  -7  -3  -1 4146.25 167.873   8
  -7  -3  -1 4031.68 132.879   3
  -7  -3  -1 3772.01 166.188   2
  -7  -3  -2 133.042 57.4270   8
  -7  -3  -2-30.0749 60.8811   2
  -7  -3  -2 56.5175 33.7806   3
  -7  -3  -3 168.444 61.8015   8
  -7  -3  -3 120.780 39.5767   3
   7   3   3 167.214 43.4103   6
  -7  -3  -4 44.0258 37.5877   1
  -7  -3  -4 31.5311 51.2254   8
   7   3   4-45.3696 78.3196   4
   7   3   4 111.787 46.5909   6
  -7  -3  -5 61.2005 43.1382   1
  -7  -3  -5 180.148 61.1632   8
   7   3   5-1.60199 85.0550   4
   7   3   5-24.9907 47.2478   6
  -7  -3  -6 6265.58 205.020   8
  -7  -3  -6 5896.01 178.902   1
   7   3   6 6030.77 187.060   6
   7   3   7 949.045 132.422   4
  -7  -3  -7 1284.23 107.926   8
  -7  -3  -7 976.466 88.5244   1
   7   3   7 1039.71 100.164   6
   7   3   8 2143.49 178.678   4
  -7  -3  -8 2122.30 141.718   8
  -7  -3  -8 2498.43 139.027   1
   7   3   8 1932.99 131.835   6
  -7  -3  -9 2414.37 152.746   8
  -7  -3  -9 2055.01 137.389   1
   7   3   9 2210.78 150.280   6
  -7  -4   8 104.858 67.5605   5
  -7  -4   8 33.3119 65.0222   8
  -7  -4   8 65.6564 56.5413   7
  -7  -4   8-58.1979 83.9378   3
  -7  -4   7 307.906 73.8432   5
  -7  -4   7 257.985 73.5749   8
  -7  -4   7 194.879 56.7696   7
  -7  -4   7 191.981 92.1244   3
  -7  -4   6 1999.98 122.768   5
  -7  -4   6 1977.41 131.370   8
  -7  -4   6 2105.65 148.455   3
  -7  -4   6 1957.85 108.747   7
  -7  -4   5 2138.50 120.599   5
  -7  -4   5 2516.07 140.787   8
  -7  -4   5 2356.53 115.313   7
  -7  -4   5 2108.32 135.855   3
  -7  -4   5 2376.37 108.574   2
  -7  -4   4 590.668 80.8903   8
  -7  -4   4 615.463 65.6588   7
  -7  -4   4 574.030 83.0972   3
  -7  -4   4 578.591 67.3706   2
  -7  -4   3 26.2780 48.4749   8
  -7  -4   3-14.6849 43.7226   2
  -7  -4   3-5.27003 39.2665   7
  -7  -4   3 86.9831 56.9711   3
  -7  -4   2 22.8626 49.8306   8
  -7  -4   2-9.07222 48.4478   2
  -7  -4   2 48.6034 44.0646   7
  -7  -4   2 32.5974 41.3014   3
  -7  -4   1 330.663 62.0894   8
  -7  -4   1 135.334 58.3719   2
  -7  -4   1 301.159 54.2366   7
  -7  -4   1 249.584 54.8102   3
  -7  -4   0 411.672 63.9889   8
  -7  -4   0 437.914 64.2176   7
  -7  -4   0 363.502 68.4046   2
  -7  -4   0 376.408 58.0380   3
   7   4   1 66.1754 66.4750  10
  -7  -4  -1-14.8843 46.7226   8
  -7  -4  -1 100.313 63.0093   2
  -7  -4  -1 3.57384 36.3868   3
   7   4   2 937.280 102.659  10
  -7  -4  -2 898.827 86.0237   8
  -7  -4  -2 820.272 61.5410   3
  -7  -4  -2 723.314 91.9747   2
  -7  -4  -3 394.531 70.2100   8
  -7  -4  -3 481.503 83.7245   2
   7   4   4 2000.71 152.066   4
  -7  -4  -4 1787.29 107.758   8
   7   4   4 1908.94 89.9838   6
  -7  -4  -4 1910.48 133.173   2
  -7  -4  -5 431.214 67.9767   8
  -7  -4  -5 419.516 85.4167   2
   7   4   5 524.112 100.614   4
  -7  -4  -5 376.717 58.1026   1
   7   4   5 349.022 55.1724   6
  -7  -4  -6 13.6498 76.5945   2
  -7  -4  -6-10.9966 55.4534   8
   7   4   6 204.803 101.502   4
  -7  -4  -6-21.9215 44.4459   1
   7   4   6 48.5722 52.2506   6
   7   4   7 1425.91 154.672   4
  -7  -4  -7 1456.40 112.290   8
  -7  -4  -7 1318.63 98.3087   1
   7   4   7 1453.20 107.164   6
  -7  -4  -7 1621.20 142.797   2
  -7  -4  -8 780.669 94.8548   8
   7   4   8 692.626 126.458   4
  -7  -4  -8 837.449 93.6936   1
   7   4   8 706.908 92.6605   6
  -7  -4  -8 811.755 116.413   2
  -7  -4  -9 89.1060 84.2338   2
   7   4   9-38.2214 103.311   4
  -7  -4  -9 27.6194 61.6264   1
   7   4   9-21.7850 69.5476   6
  -7  -5   7 217.232 70.8728   5
  -7  -5   7 216.577 73.7300   8
  -7  -5   7 218.768 67.5823   7
  -7  -5   7 87.9214 74.0448   3
  -7  -5   6 597.229 85.8860   5
  -7  -5   6 700.103 95.1341   8
  -7  -5   6 534.688 93.7929   3
  -7  -5   6 557.086 73.1430   7
  -7  -5   5 65.8118 61.6472   8
  -7  -5   5 107.862 43.6584   2
  -7  -5   5 7.33724 58.9874   3
  -7  -5   4 39.5512 53.3081   8
  -7  -5   4 54.5518 44.5413   2
  -7  -5   4 48.0869 50.0256   7
  -7  -5   4 6.26321 61.4384   3
  -7  -5   3 208.454 58.1879   8
  -7  -5   3 352.129 62.0562   7
  -7  -5   3 284.529 56.2628   2
  -7  -5   3 195.616 58.3456   3
  -7  -5   2 234.291 57.2328   8
  -7  -5   2 165.524 61.5661   2
  -7  -5   2 141.326 51.7174   7
  -7  -5   2 244.374 57.8595   3
  -7  -5   1-11.3678 47.1905   8
  -7  -5   1 40.8481 52.0773   2
  -7  -5   1-44.4971 51.6693   7
  -7  -5   1 28.1241 47.4029   3
  -7  -5   0 30.0278 38.9943   8
  -7  -5   0 26.9890 51.4602   2
  -7  -5   0 30.4825 50.8047   7
  -7  -5   0 122.976 50.3458   3
  -7  -5  -1 131.695 51.4133   8
  -7  -5  -1 60.0261 61.5105   2
  -7  -5  -1 57.4542 48.5765   7
  -7  -5  -1 69.4717 42.9887   3
   7   5   2 43.9058 69.5981  10
  -7  -5  -2 69.5662 50.3135   8
  -7  -5  -2 160.048 67.3625   2
  -7  -5  -2 112.856 38.5147   3
   7   5   3 169.770 73.4685  10
  -7  -5  -3 61.6597 43.9866   8
  -7  -5  -3 145.295 69.4795   2
   7   5   4 1585.17 82.6617  11
  -7  -5  -4 1530.57 96.6971   8
   7   5   4 1522.74 79.1271   6
  -7  -5  -4 1727.68 134.664   2
  -7  -5  -5 1863.03 107.140   8
   7   5   5 1599.04 92.6059   6
  -7  -5  -5 2034.54 141.702   2
  -7  -5  -6 575.037 73.4330   8
  -7  -5  -6 291.167 85.6227   2
   7   5   6 568.555 106.066   4
  -7  -5  -6 380.525 58.0924   1
   7   5   6 479.219 66.0080   6
  -7  -5  -7 319.897 64.5812   8
  -7  -5  -7 183.104 83.9473   2
   7   5   7 286.373 100.312   4
  -7  -5  -7 230.821 60.9104   1
   7   5   7 187.231 62.8307   6
   7   5   8 1043.29 149.595   4
  -7  -5  -8 880.660 94.6627   8
  -7  -5  -8 907.929 90.4248   1
   7   5   8 729.215 90.4068   6
  -7  -5  -8 875.464 119.053   2
   7   5   9 95.0822 109.847   4
  -7  -5  -9 8.24596 84.0570   2
  -7  -5  -9 184.632 64.3020   1
   7   5   9 91.3743 67.2149   6
  -7  -6   7 522.648 89.9808   5
  -7  -6   7 608.921 89.3352   7
  -7  -6   7 636.863 106.238   3
  -7  -6   6 73.6465 67.2004   5
  -7  -6   6-16.7702 55.8272   7
  -7  -6   6 168.821 74.6923   3
  -7  -6   5 123.997 56.7713   8
  -7  -6   5-29.7077 58.2792   7
  -7  -6   5 23.3554 40.6427   2
  -7  -6   5-83.3380 73.5626   3
  -7  -6   4-3.93054 50.8853   8
  -7  -6   4 33.6666 41.6350   2
  -7  -6   4 61.0742 54.1998   7
  -7  -6   4 0.46178 54.8164   3
  -7  -6   3 1128.24 94.9567   8
  -7  -6   3 886.557 87.4762   7
  -7  -6   3 983.935 93.4963   3
  -7  -6   3 914.076 82.3815   2
  -7  -6   2 2624.57 124.823   8
  -7  -6   2 2428.66 128.880   7
  -7  -6   2 2707.01 133.349   3
  -7  -6   2 2695.60 131.115   2
  -7  -6   1 130.066 54.8078   8
  -7  -6   1 147.248 58.9340   2
  -7  -6   1 73.7230 53.6721   7
  -7  -6   1 188.000 59.5118   3
  -7  -6   0 387.097 61.1839   8
  -7  -6   0 327.624 63.9678   3
  -7  -6   0 274.249 64.9133   7
  -7  -6   0 318.877 79.3920   2
  -7  -6  -1 140.681 45.2103   8
  -7  -6  -1 171.862 65.6161   2
  -7  -6  -1 136.917 64.6732   7
  -7  -6  -1 146.156 47.0760   3
   7   6   2 66.2492 75.3609  10
  -7  -6  -2 58.2914 41.1879   8
  -7  -6  -2 25.8717 63.8619   2
  -7  -6  -3 21.8074 43.7018   8
  -7  -6  -3 27.5654 64.2939   2
   7   6   4 438.367 91.7103  10
  -7  -6  -4 441.050 63.6309   8
  -7  -6  -4 394.924 84.7126   2
   7   6   5 112.121 46.4330  11
  -7  -6  -5 126.439 49.9477   8
   7   6   5 92.8898 48.0945   6
   7   6   6 730.009 78.6599  11
  -7  -6  -6 977.695 86.1198   8
   7   6   6 876.287 81.3917   6
  -7  -6  -6 797.812 104.745   2
   7   6   7 31.6751 57.3061  11
  -7  -6  -7 84.0883 55.5710   8
   7   6   7 24.7507 91.6419   4
  -7  -6  -7 155.433 77.3834   2
  -7  -6  -7-5.39921 47.2015   1
   7   6   7-25.8598 54.2495   6
   7   6   8 166.094 114.531   4
  -7  -6  -8 99.7212 83.4063   2
  -7  -6  -8-35.5410 56.6456   1
   7   6   8 20.8838 62.4925   6
   7   6   9 660.142 135.435   4
  -7  -6  -9 386.327 100.578   2
  -7  -6  -9 497.623 83.8364   1
   7   6   9 398.576 88.1500   6
  -7  -7   6 1316.80 124.845   3
  -7  -7   6 1174.24 110.555   7
  -7  -7   5 1127.19 112.128   3
  -7  -7   5 1194.13 108.610   7
  -7  -7   4 206.460 67.0164   7
  -7  -7   4 189.234 58.6210   2
  -7  -7   4 120.966 62.1114   3
  -7  -7   3 18.3007 45.4372   2
  -7  -7   3 35.1724 56.9195   7
  -7  -7   3 49.5692 59.1672   3
  -7  -7   2 997.378 97.2392   7
  -7  -7   2 817.295 86.2042   3
  -7  -7   2 940.853 87.8280   2
  -7  -7   1 1167.93 102.938   7
  -7  -7   1 1239.58 94.6058   3
  -7  -7   1 1119.60 95.8001   2
  -7  -7   0 813.810 68.5678   8
  -7  -7   0 738.109 93.7335   7
  -7  -7   0 700.760 73.1648   3
  -7  -7   0 646.229 83.5877   2
  -7  -7  -1 693.425 62.9658   8
  -7  -7  -1 703.691 86.1599   7
  -7  -7  -1 719.543 92.0842   2
  -7  -7  -2 60.8684 39.7331   8
  -7  -7  -2-45.3445 66.4321   2
  -7  -7  -2 62.4146 65.9714   7
   7   7   3 215.298 88.0450  10
  -7  -7  -3 305.147 51.5249   8
  -7  -7  -3 285.796 75.5567   2
   7   7   4 60.0497 73.6509  10
  -7  -7  -4 80.4627 46.0138   8
  -7  -7  -4-4.98725 66.1504   2
   7   7   5 154.922 91.4397  10
  -7  -7  -5 178.384 50.1208   8
  -7  -7  -5 168.717 73.2062   2
  -7  -7  -6 342.455 62.1910   8
  -7  -7  -6 330.963 90.1784   2
   7   7   7 125.400 61.3975  11
  -7  -7  -7 177.705 84.4336   2
   7   7   7-58.2975 57.9549   6
   7   7   8 3206.65 160.647  11
   7   7   8 3487.25 160.004   6
  -7  -7  -8 3336.45 184.487   2
   7   7   9 195.884 75.8878  11
  -7  -7  -9 317.482 94.3981   2
   7   7   9 144.166 75.6004   6
  -7  -8   5 679.841 99.8399   3
  -7  -8   5 606.225 88.9786   7
  -7  -8   4 948.206 87.3528   2
  -7  -8   4 1140.64 109.964   3
  -7  -8   4 845.570 102.049   7
  -7  -8   3 1086.73 96.9658   2
  -7  -8   3 928.584 97.5199   3
  -7  -8   3 1041.58 107.188   7
  -7  -8   2 492.461 74.9007   2
  -7  -8   2 280.533 69.9860   7
  -7  -8   2 317.244 64.9289   3
  -7  -8   1 1277.30 112.093   7
  -7  -8   1 1211.15 98.5231   2
  -7  -8   0 98.0895 59.7624   2
  -7  -8   0 24.9105 67.6224   7
  -7  -8  -1-8.95945 57.8014   2
  -7  -8  -1 101.698 67.5667   7
  -7  -8  -2 231.423 71.9614   2
  -7  -8  -2 264.362 70.5128   7
  -7  -8  -3 1135.48 111.059   7
  -7  -8  -3 970.205 100.401   2
   7   8   4 2905.83 198.235  10
  -7  -8  -4 2676.76 159.991   2
   7   8   5 213.452 95.6011  10
  -7  -8  -5 396.841 92.1607   2
   7   8   6 3644.96 218.439  10
  -7  -8  -6 3254.37 177.607   2
   7   8   7 1213.92 151.786  10
  -7  -8  -7 1409.24 132.891   2
  -7  -8  -8 48.9483 84.5135   2
  -7  -9   4 8784.37 228.692   2
  -7  -9   4 8874.26 273.602   7
  -7  -9   3 419.817 88.6511   7
  -7  -9   3 347.949 72.3126   2
  -7  -9   2 545.966 82.3924   2
  -7  -9   2 636.695 86.8492   3
  -7  -9   2 538.875 92.7144   7
  -7  -9   1 710.429 86.7549   2
  -7  -9   1 456.616 85.4690   7
  -7  -9   0-28.2539 69.4129   7
  -7  -9   0 91.1611 57.9748   2
  -7  -9  -1 163.983 63.6474   2
  -7  -9  -1 162.280 76.3541   7
  -7  -9  -2 1203.76 119.086   7
  -7  -9  -2 1210.71 109.353   2
  -7  -9  -3 1259.44 121.971   7
  -7  -9  -3 1236.11 115.860   2
  -7  -9  -4 10105.7 297.673   7
  -7  -9  -4 9679.21 278.394   2
   7   9   5 5747.35 269.681  10
  -7  -9  -5 5214.30 211.879   2
   7   9   6 3356.20 212.966  10
  -7  -9  -6 3629.22 183.822   2
   7   9   7 108.802 102.542  10
  -7  -9  -7 61.4151 78.1841   2
  -7  -9  -8 394.721 100.195   2
  -7 -10   2 124.459 80.6360   7
  -7 -10   2 86.7735 72.9622   2
  -7 -10   1 52.8812 75.6821   7
  -7 -10   1 219.360 75.6944   2
  -7 -10   0 438.337 84.2990   2
  -7 -10   0 533.043 91.1859   7
  -7 -10  -1 236.412 80.6021   7
  -7 -10  -1 196.333 66.1339   2
  -7 -10  -2 4252.57 206.058   7
  -7 -10  -2 4147.61 178.532   2
  -7 -10  -3 547.736 95.2107   7
  -7 -10  -3 618.131 86.6184   2
  -7 -10  -4 510.620 89.8072   2
  -7 -10  -4 352.814 85.6260   7
  -7 -10  -5 167.786 79.1750   2
   7  10   6 62.2093 106.254  10
  -7 -10  -6-74.9184 75.2266   2
  -7 -11  -1 1374.73 124.521   2
  -7 -11  -2 43.8634 77.0307   7
  -7 -11  -2-79.0798 71.5172   2
  -7 -11  -3 58.4448 79.9655   7
  -7 -11  -3 133.753 67.6227   2
  -8   2   3-55.2798 70.9020   3
  -8   2   2 553.308 109.067   8
  -8   2   2 608.962 97.0780   3
  -8   2   1 70.5255 83.4753   8
  -8   2   1-81.5261 70.2119   3
  -8   2   0 261.300 95.0477   8
  -8   2   0 77.2818 75.6593   3
  -8   2  -1 83.5573 67.6151   3
  -8   1   5 685.131 117.853   8
  -8   1   5 744.561 112.049   3
  -8   1   4 70.5896 85.8433   8
  -8   1   4 85.1586 71.3973   3
  -8   1   3 64.1865 84.3750   8
  -8   1   3 51.2182 74.9194   3
  -8   1   2 208.400 89.4277   8
  -8   1   2 59.0103 73.9970   3
  -8   1   1-215.720 91.2557   8
  -8   1   1 122.907 67.3065   3
  -8   1   0-1.88330 80.5784   8
  -8   1   0-131.142 70.3239   3
  -8   1  -1-102.455 80.9816   8
  -8   1  -1 173.362 67.8102   3
  -8   1  -2 121.127 85.3332   8
   8  -1   2 114.386 89.4437   4
  -8   1  -2 269.796 71.8255   3
   8  -1   3 127.290 88.2720   4
  -8   0   6 217.538 92.8607   8
  -8   0   6 202.323 86.0613   3
  -8   0   5-69.8472 83.9384   8
  -8   0   5-60.2351 73.7236   3
  -8   0   4 154.403 90.2057   8
  -8   0   4 93.2271 72.7168   3
  -8   0   3 391.238 92.3201   8
  -8   0   3 453.787 89.7801   3
  -8   0   2 130.087 76.8227   8
  -8   0   2-32.5087 66.4604   3
  -8   0   1 302.884 88.7660   8
  -8   0   1 36.5296 62.1956   3
  -8   0   0 496.624 99.8055   8
  -8   0   0 285.630 68.8610   3
  -8   0  -1 3632.65 190.153   8
  -8   0  -1 3607.57 155.824   3
   8   0   2 997.294 121.895   4
  -8   0  -2 1000.18 95.2125   3
  -8   0  -3 44.1365 73.6072   8
   8   0   3 6.13247 84.8708   4
  -8   0  -4 115.855 78.4682   8
   8   0   4-76.5672 101.895   4
  -8  -1   6 45.6166 79.7748   8
  -8  -1   6-11.3302 78.4384   3
  -8  -1   5 98.6068 82.8771   8
  -8  -1   5 84.3673 71.8380   3
  -8  -1   4 404.120 98.5385   8
  -8  -1   4 234.669 74.3261   3
  -8  -1   3 539.581 101.049   8
  -8  -1   3 543.857 90.6784   3
  -8  -1   3 684.979 84.9142   2
  -8  -1   2 1240.58 122.914   8
  -8  -1   2 1182.15 110.764   3
  -8  -1   2 1450.96 109.734   2
  -8  -1   1 1655.27 136.064   8
  -8  -1   1 1860.75 123.478   3
  -8  -1   0 4044.81 194.362   8
  -8  -1   0 4092.61 163.463   3
  -8  -1  -1 2394.50 152.347   8
  -8  -1  -1 2747.77 132.623   3
  -8  -1  -2-70.7142 80.3946   8
   8   1   2 4.25362 84.4736   4
  -8  -1  -2 40.7690 52.9630   3
  -8  -1  -3 402.619 87.6563   8
   8   1   3 515.350 105.432   4
  -8  -1  -4 220.638 80.0719   8
   8   1   4 323.654 106.607   4
  -8  -1  -5 48.5678 70.4962   8
   8   1   5 86.3891 93.5023   4
  -8  -2   6 115.616 86.9939   8
  -8  -2   6 10.9564 71.4311   3
  -8  -2   5 142.258 81.9400   8
  -8  -2   5 264.350 79.2976   3
  -8  -2   4 267.734 88.0750   8
  -8  -2   4 352.715 81.5506   3
  -8  -2   3 8258.52 269.251   8
  -8  -2   3 8256.76 245.444   3
  -8  -2   3 8175.36 240.195   2
  -8  -2   2 26373.1 466.660   8
  -8  -2   2 27398.4 420.884   3
  -8  -2   2 27881.2 435.939   2
  -8  -2   1 1476.72 124.997   8
  -8  -2   1 1817.25 118.530   3
  -8  -2   1 1648.89 120.785   2
  -8  -2   0 604.583 91.5573   8
  -8  -2   0 420.129 83.1389   2
  -8  -2   0 644.743 78.2100   3
  -8  -2  -1 110.022 64.5196   8
  -8  -2  -1 172.380 54.6946   7
  -8  -2  -1 17.2158 48.5465   3
  -8  -2  -2 91.5455 72.2236   8
  -8  -2  -3 160.536 75.4985   8
   8   2   3 376.076 107.812   4
  -8  -2  -4 463.290 91.5999   8
   8   2   4 482.793 113.008   4
   8   2   5 731.938 130.386   4
  -8  -2  -5 602.754 92.3734   8
   8   2   6 7761.28 314.116   4
  -8  -2  -6 7272.87 251.989   8
  -8  -3   6 589.241 78.8840   5
  -8  -3   6 611.430 102.066   8
  -8  -3   5 207.285 55.2472   5
  -8  -3   5 139.036 78.0294   8
  -8  -3   5 254.807 80.4537   3
  -8  -3   4 2211.60 115.738   5
  -8  -3   4 2033.60 145.489   8
  -8  -3   4 2356.13 147.431   3
  -8  -3   3 16609.3 369.152   8
  -8  -3   3 16827.9 343.702   3
  -8  -3   3 17790.3 334.136   2
  -8  -3   2 1379.87 119.319   8
  -8  -3   2 1052.24 81.8306   7
  -8  -3   2 1117.33 98.1245   3
  -8  -3   2 1194.11 103.695   2
  -8  -3   1 798.706 96.5253   8
  -8  -3   1 820.874 79.3012   7
  -8  -3   1 786.673 77.7835   3
  -8  -3   1 776.397 99.9812   2
  -8  -3   0 305.663 73.9820   8
  -8  -3   0 354.939 82.9929   2
  -8  -3   0 313.342 61.7464   7
  -8  -3   0 324.924 58.3662   3
   8   3   1 366.617 76.0120  10
  -8  -3  -1 288.707 74.1952   8
  -8  -3  -1 211.575 75.5320   2
  -8  -3  -1 350.067 65.9108   7
  -8  -3  -1 285.476 57.5301   3
   8   3   2 395.945 84.3488  10
  -8  -3  -2 540.614 87.2249   8
  -8  -3  -2 379.635 87.1033   2
  -8  -3  -3 81.4314 57.9280   8
  -8  -3  -3 58.6999 79.8391   2
  -8  -3  -4 168.412 66.7613   8
   8   3   4 59.6395 86.5261   4
   8   3   5 3344.37 215.878   4
  -8  -3  -5 4002.06 179.549   8
   8   3   6 6869.90 302.673   4
  -8  -3  -6 6636.36 231.917   8
  -8  -4   6 1575.84 120.243   5
  -8  -4   6 1622.46 139.929   3
  -8  -4   5 83.5482 54.2621   5
  -8  -4   5 105.239 69.9099   8
  -8  -4   5 75.5578 72.8688   3
  -8  -4   4 64.2070 46.9755   5
  -8  -4   4 126.051 67.2994   8
  -8  -4   4 71.0246 53.7222   7
  -8  -4   4 29.8880 61.7250   3
  -8  -4   3 1248.05 114.830   8
  -8  -4   3 1306.27 91.3468   7
  -8  -4   3 1254.66 106.826   3
  -8  -4   3 1321.10 105.831   2
  -8  -4   2 611.533 91.1921   8
  -8  -4   2 565.103 75.0049   7
  -8  -4   2 575.379 77.3620   3
  -8  -4   2 659.568 84.8330   2
  -8  -4   1 97.1411 59.9532   8
  -8  -4   1 65.0343 61.7664   2
  -8  -4   1 82.0612 55.3039   7
  -8  -4   1 120.822 55.9100   3
  -8  -4   0 16.6399 57.1249   8
  -8  -4   0-110.809 66.8390   2
  -8  -4   0-11.4129 53.3399   7
  -8  -4   0 19.7832 45.5411   3
   8   4   1 126.127 74.5579  10
  -8  -4  -1 46.1916 60.8705   8
  -8  -4  -1 52.4976 75.4343   2
  -8  -4  -1 80.4605 56.0468   7
   8   4   2 336.342 86.4550  10
  -8  -4  -2 369.413 73.6591   8
  -8  -4  -2 273.029 83.9268   2
  -8  -4  -3 6542.27 214.114   8
  -8  -4  -3 6131.34 236.349   2
  -8  -4  -4 91.5477 62.7625   8
  -8  -4  -4 97.5541 77.4830   2
   8   4   5 1728.32 161.012   4
  -8  -4  -5 1867.09 130.887   8
  -8  -4  -5 1950.05 153.965   2
   8   4   6 5326.06 263.514   4
  -8  -4  -6 5049.04 197.908   8
  -8  -4  -6 4787.72 232.124   2
  -8  -4  -7-59.0374 67.9478   8
   8   4   7 267.675 134.161   4
  -8  -5   5 492.497 82.2139   5
  -8  -5   5 351.204 84.8160   8
  -8  -5   5 467.832 71.4328   7
  -8  -5   5 431.450 85.7832   3
  -8  -5   4 35.7939 58.1024   8
  -8  -5   4 6.88938 50.8360   7
  -8  -5   4-21.9477 56.5706   3
  -8  -5   3 162.128 62.8941   8
  -8  -5   3 98.7216 52.7190   2
  -8  -5   3 94.1759 57.3890   7
  -8  -5   3 46.9091 53.7353   3
  -8  -5   2 133.853 57.0819   8
  -8  -5   2 208.010 66.2757   2
  -8  -5   2 31.7658 44.6100   7
  -8  -5   2 288.789 68.6547   3
  -8  -5   1 105.249 58.2854   8
  -8  -5   1 105.194 62.8210   2
  -8  -5   1 85.5999 55.9897   7
  -8  -5   1 11.5409 51.7699   3
  -8  -5   0 112.310 60.6806   8
  -8  -5   0-21.3581 64.4883   2
  -8  -5   0 7.62002 47.0828   7
  -8  -5  -1 628.125 79.6413   8
  -8  -5  -1 616.708 82.4842   7
  -8  -5  -1 636.090 99.6381   2
   8   5   2 7725.62 265.327  10
  -8  -5  -2 7794.46 223.946   8
  -8  -5  -2 7983.12 261.739   2
   8   5   3 923.104 114.506  10
  -8  -5  -3 755.452 85.8545   8
  -8  -5  -3 912.672 115.238   2
  -8  -5  -4 215.166 66.3686   8
  -8  -5  -4 222.892 85.3132   2
  -8  -5  -5 153.413 68.2862   8
  -8  -5  -5 51.4038 78.1845   2
  -8  -5  -6 81.4127 63.7104   8
  -8  -5  -6-141.945 93.2126   2
   8   5   7 1628.04 170.490   4
  -8  -5  -7 1266.44 115.413   8
  -8  -6   5 136.761 66.3427   7
  -8  -6   5-10.2113 66.4622   3
  -8  -6   4 64.1680 57.3436   7
  -8  -6   4 119.724 64.6713   3
  -8  -6   3 651.078 87.6875   8
  -8  -6   3 721.972 85.1204   7
  -8  -6   3 801.315 96.2243   3
  -8  -6   3 839.015 89.0798   2
  -8  -6   2 3.80112 53.2082   8
  -8  -6   2 24.0700 57.3075   2
  -8  -6   2 52.6583 55.3676   7
  -8  -6   2 10.9698 53.4685   3
  -8  -6   1 1363.19 102.164   8
  -8  -6   1 1282.00 104.398   7
  -8  -6   1 1257.37 101.826   3
  -8  -6   1 1384.07 115.814   2
  -8  -6   0 576.885 75.8388   8
  -8  -6   0 809.236 90.9713   7
  -8  -6   0 877.214 99.1736   2
  -8  -6  -1 1134.84 94.9755   8
  -8  -6  -1 1067.05 104.902   7
  -8  -6  -1 1118.60 110.079   2
  -8  -6  -2 1512.16 102.032   8
  -8  -6  -2 1769.79 127.572   7
  -8  -6  -2 1490.37 128.733   2
   8   6   3 118.678 78.9037  10
  -8  -6  -3-63.1032 55.1129   8
  -8  -6  -3 97.8246 72.8384   2
   8   6   4 608.529 116.784  10
  -8  -6  -4 499.173 72.8915   8
  -8  -6  -4 708.289 106.428   2
  -8  -6  -5 20.1121 57.8047   8
  -8  -6  -5-26.3884 77.4760   2
  -8  -6  -6 551.743 81.2822   8
  -8  -6  -6 690.295 111.014   2
  -8  -6  -7 123.255 67.7471   8
  -8  -7   4 139.847 63.6945   7
  -8  -7   4 77.3499 62.6016   3
  -8  -7   3 214.812 64.1472   2
  -8  -7   3 40.7826 61.8123   7
  -8  -7   3 262.434 75.8687   3
  -8  -7   2 2913.58 154.045   7
  -8  -7   2 2717.85 142.823   3
  -8  -7   2 2901.20 149.408   2
  -8  -7   1 2541.65 147.353   7
  -8  -7   1 3332.98 166.831   2
  -8  -7   0 1197.50 108.859   7
  -8  -7   0 1071.46 102.851   2
  -8  -7  -1 302.517 79.4960   2
  -8  -7  -1 243.641 78.5504   7
  -8  -7  -2-55.4784 70.2939   2
  -8  -7  -2 88.9282 72.8400   7
   8   7   3 599.147 123.233  10
  -8  -7  -3 410.171 88.8997   7
  -8  -7  -3 495.466 93.1102   2
   8   7   4-143.125 96.3187  10
  -8  -7  -4 7.68359 73.6317   2
   8   7   5 7.36953 90.9437  10
  -8  -7  -5 9.34285 80.3605   2
   8   7   6 75.9679 105.272  10
  -8  -7  -6 193.344 93.2577   2
  -8  -8   3 250.927 79.5148   7
  -8  -8   3 239.149 69.5490   2
  -8  -8   3 193.548 72.4751   3
  -8  -8   2 1002.65 110.970   7
  -8  -8   2 639.623 86.3940   2
  -8  -8   1 395.901 79.0949   2
  -8  -8   1 395.664 82.9748   7
  -8  -8   0 98.3066 67.6819   2
  -8  -8   0 215.683 80.9624   7
  -8  -8  -1 47.8191 67.6510   2
  -8  -8  -1 143.930 76.6876   7
  -8  -8  -2 77.7148 67.7147   2
  -8  -8  -2 24.5271 67.5450   7
  -8  -8  -3 71.5315 77.8722   2
  -8  -8  -3 168.043 83.6120   7
   8   8   4 432.685 113.643  10
  -8  -8  -4 436.522 103.352   2
   8   8   5 1194.53 145.809  10
  -8  -8  -5 818.026 114.523   2
   8   8   6-17.7444 104.473  10
  -8  -9   1 287.309 75.5901   2
  -8  -9   1 405.850 87.7210   7
  -8  -9   0 3.06423 67.6886   2
  -8  -9   0 169.462 82.4918   7
  -8  -9  -1 337.063 87.0108   2
  -8  -9  -1 415.509 94.2083   7
  -8  -9  -2 827.925 112.554   7
  -8  -9  -2 721.974 105.262   2
  -8  -9  -3 1443.96 134.942   7
  -8  -9  -3 1510.56 136.959   2
  -8  -9  -4 13976.0 368.684   7
  -8  -9  -4 13400.7 344.331   2
   8   9   5 473.109 132.307  10
  -9  -2   2 222.736 86.0489   8
  -9  -2   2 90.9283 69.2544   2
  -9  -2   2 112.854 68.9158   3
  -9  -2   1 684.318 111.289   8
  -9  -2   1 463.297 92.4188   2
  -9  -2   0 254.869 85.2621   8
  -9  -2   0 150.463 75.9525   2
  -9  -2  -1 74.7452 76.2919   8
  -9  -2  -1 171.289 79.0260   2
  -9  -3   2 194.925 85.4778   8
  -9  -3   2 140.911 72.9223   2
  -9  -3   2 158.354 71.6877   3
  -9  -3   1 436.965 97.3956   8
  -9  -3   1 320.377 90.1883   2
  -9  -3   0-62.0153 77.9773   8
  -9  -3   0 34.4310 74.8478   2
  -9  -3  -1 198.355 85.4943   8
  -9  -3  -1 26.4273 78.2426   2
  -9  -3  -2-98.2088 72.7791   8
  -9  -3  -2 8.09762 81.7511   2
  -9  -4   2 140.663 81.1880   8
  -9  -4   2-63.5421 62.8092   2
  -9  -4   1 0.27671 71.9548   8
  -9  -4   1 127.689 77.7698   2
  -9  -4   0 1181.17 120.575   8
  -9  -4   0 1464.30 132.122   2
  -9  -4  -1 108.325 72.2639   8
  -9  -4  -1 142.253 82.1873   2
  -9  -4  -2 214.802 69.9980   8
  -9  -4  -2 188.672 89.2780   2
  -9  -4  -2 90.0670 59.7118   7
  -9  -4  -3 116.058 77.8840   8
  -9  -4  -3 82.7578 85.7445   2
  -9  -5   2 127.767 68.4732   8
  -9  -5   2 223.038 74.5570   2
  -9  -5   1-13.8260 66.6989   8
  -9  -5   1 79.1330 68.4865   2
  -9  -5   1-48.8897 62.3338   7
  -9  -5   0-13.7765 68.9582   8
  -9  -5   0-100.738 79.6204   2
  -9  -5   0 30.5213 62.5741   7
  -9  -5  -1 240.714 80.3153   8
  -9  -5  -1 272.226 70.0307   7
  -9  -5  -1 406.980 103.376   2
  -9  -5  -2 269.512 75.6098   8
  -9  -5  -2 152.970 88.0923   2
  -9  -5  -2 160.725 67.9684   7
   9   5   3 388.342 112.499  10
  -9  -5  -3 463.076 85.8865   8
  -9  -5  -3 412.780 109.074   2
  -9  -6   1 75.0291 75.2229   2
  -9  -6   1-58.3096 58.4340   7
  -9  -6   0 57.7944 74.6665   2
  -9  -6   0 107.005 65.8136   7
  -9  -6  -1 99.5474 78.1318   2
  -9  -6  -1 103.521 61.0315   7
  -9  -6  -2 66.6931 80.1126   2
  -9  -6  -2 28.5915 66.4558   7
   9   6   3 296.957 110.918  10
  -9  -6  -3 249.164 73.9925   8
  -9  -6  -3 384.962 104.914   2
  -9  -6  -3 222.754 76.5578   7
   0   0   0    0.00    0.00   0
TITL kat1 in P-1
REM P-1 (#2 in standard setting)
CELL 0.71073   7.102847  10.136696  10.817106  75.8266  88.3180  71.2708
ZERR    2.00   0.000356   0.000373   0.000516   0.0037   0.0040   0.0039
LATT  1
SFAC C H N O
UNIT 36.00 30.00 2.00 8.00
TREF
HKLF 4
END
;
_shelx_hkl_checksum              63874
_shelx_res_file
;
    amf41.res created by SHELXL-2014/7
TITL amf42_a.res in P-1
CELL  0.71073    7.1028   10.1367   10.8171    75.827    88.318    71.271
ZERR        2    0.0004    0.0004    0.0005     0.004     0.004     0.004
LATT   1
SFAC  C  H  N  O
UNIT 36 30 2 8
list 4
size 0.2 0.04 0.02
temp -173
omit 0 0 1
L.S. 5
FMAP 2
PLAN 20
Htab
HTAB N32 O2
EQIV $1 -x+1, -y+1, -z
HTAB C8 O1_$1
EQIV $2 -x+2, -y, -z+1
HTAB C61 O31_$2
EQIV $3 x, y+1, z
HTAB C317 O31_$3
ACTA
BOND $H
CONF
MPLA 10 O1 C2 C3 C4 C4a C5 C6 C7 C8 C8a
MPLA 5 c311 c312 c313 c314 c315 c316
MPLA 3 N32 c31 o31
MPLA 10 O1 C2 C3 C4 C4a C5 C6 C7 C8 C8a
WGHT    0.082300    0.220300
FVAR       6.20174
O1    4    0.657875    0.442088    0.157778    11.00000    0.03666    0.02311 =
         0.02534   -0.00665   -0.00639   -0.00751
O2    4    0.620792    0.612565    0.256214    11.00000    0.04432    0.02135 =
         0.03357   -0.00702   -0.00943   -0.00747
O31   4    0.863932    0.302912    0.599531    11.00000    0.04882    0.02997 =
         0.02405   -0.00732   -0.00465   -0.01189
N32   3    0.738975    0.543133    0.504930    11.00000    0.02626    0.02623 =
         0.02607   -0.01026    0.00015   -0.00876
H32   2    0.686741    0.604483    0.422720    11.00000    0.05007
O313  4    0.688783    0.968462    0.624473    11.00000    0.04811    0.03169 =
         0.03758   -0.01807    0.00095   -0.01576
C8A   1    0.699278    0.300000    0.156283    11.00000    0.02277    0.02328 =
         0.02854   -0.00833   -0.00091   -0.00714
C2    1    0.674084    0.483764    0.266774    11.00000    0.02597    0.02744 =
         0.02741   -0.00918   -0.00272   -0.00926
C3    1    0.752332    0.370758    0.382594    11.00000    0.02027    0.02509 =
         0.02416   -0.00731    0.00103   -0.00835
C4    1    0.792824    0.231545    0.380729    11.00000    0.02225    0.02662 =
         0.02381   -0.00659    0.00047   -0.00819
AFIX  43
H4    2    0.840948    0.158742    0.457279    11.00000   -1.20000
AFIX   0
C4A   1    0.765232    0.190838    0.266747    11.00000    0.01942    0.02803 =
         0.02484   -0.00995    0.00226   -0.00906
C5    1    0.805246    0.048181    0.259540    11.00000    0.02449    0.02497 =
         0.02613   -0.00724    0.00247   -0.00858
AFIX  43
H5    2    0.850827   -0.027886    0.334260    11.00000   -1.20000
AFIX   0
C6    1    0.779161    0.016847    0.144954    11.00000    0.02259    0.02774 =
         0.03142   -0.01318    0.00467   -0.00977
C7    1    0.710231    0.131595    0.036994    11.00000    0.02755    0.03384 =
         0.02565   -0.01220    0.00021   -0.00982
AFIX  43
H7    2    0.690392    0.111378   -0.041956    11.00000   -1.20000
AFIX   0
C8    1    0.670166    0.272453    0.040937    11.00000    0.03202    0.02945 =
         0.02514   -0.00706   -0.00328   -0.00773
AFIX  43
H8    2    0.623772    0.348588   -0.033649    11.00000   -1.20000
AFIX   0
C31   1    0.790319    0.402531    0.506506    11.00000    0.02413    0.02781 =
         0.02552   -0.00941    0.00163   -0.00964
C61   1    0.824567   -0.135604    0.135106    11.00000    0.03585    0.02995 =
         0.03631   -0.01563    0.00400   -0.01142
AFIX 137
H61A  2    0.706612   -0.146356    0.099488    11.00000   -1.50000
H61B  2    0.861534   -0.201155    0.220202    11.00000   -1.50000
H61C  2    0.935141   -0.158637    0.079211    11.00000   -1.50000
AFIX   0
C311  1    0.757347    0.605129    0.605851    11.00000    0.01992    0.03219 =
         0.02933   -0.01541    0.00351   -0.01057
C312  1    0.715678    0.753071    0.574133    11.00000    0.02467    0.03076 =
         0.02839   -0.01193    0.00120   -0.01013
AFIX  43
H312  2    0.678775    0.806506    0.488212    11.00000   -1.20000
AFIX   0
C313  1    0.727627    0.823773    0.667552    11.00000    0.02415    0.03226 =
         0.03669   -0.01612    0.00507   -0.01256
C314  1    0.778732    0.746417    0.793259    11.00000    0.03038    0.04397 =
         0.03088   -0.02115    0.00598   -0.01563
AFIX  43
H314  2    0.786114    0.793706    0.857823    11.00000   -1.20000
AFIX   0
C315  1    0.818628    0.599681    0.822851    11.00000    0.03899    0.04336 =
         0.02643   -0.01183    0.00306   -0.01362
AFIX  43
H315  2    0.853387    0.546535    0.909038    11.00000   -1.20000
AFIX   0
C316  1    0.809856    0.526796    0.731312    11.00000    0.03388    0.03391 =
         0.02927   -0.01087    0.00253   -0.01126
AFIX  43
H316  2    0.839181    0.425373    0.754034    11.00000   -1.20000
AFIX   0
C317  1    0.672630    1.047483    0.719001    11.00000    0.03600    0.03925 =
         0.04715   -0.02726    0.00719   -0.01658
AFIX 137
H31A  2    0.635705    1.150369    0.677406    11.00000   -1.50000
H31B  2    0.800787    1.016186    0.766995    11.00000   -1.50000
H31C  2    0.570302    1.030172    0.777532    11.00000   -1.50000
REM #####
AFIX   0
HKLF 4
REM  amf42_a.res in P-1
REM R1 =  0.0469 for    2704 Fo > 4sig(Fo)  and  0.0576 for all    3261 data
REM    214 parameters refined using      0 restraints
END
WGHT      0.0724      0.2473
REM Instructions for potential hydrogen bonds
HTAB N32 O2
HTAB C8 O1_$1
HTAB C316 O31
HTAB C317 O31_$3
REM Highest difference peak  0.372,  deepest hole -0.206,  1-sigma level  0.052
Q1    1   0.7875  0.0345  0.1978  11.00000  0.05    0.37
Q2    1   0.7670  0.3899  0.4372  11.00000  0.05    0.34
Q3    1   0.6860  0.2804  0.1039  11.00000  0.05    0.33
Q4    1   0.7502  0.0754  0.0957  11.00000  0.05    0.32
Q5    1   0.7254  0.4141  0.3365  11.00000  0.05    0.32
Q6    1   0.7394  0.2424  0.2178  11.00000  0.05    0.31
Q7    1   0.7724  0.1230  0.2608  11.00000  0.05    0.29
Q8    1   0.6884  0.8004  0.6187  11.00000  0.05    0.29
Q9    1   0.7948  0.2076  0.3156  11.00000  0.05    0.28
Q10   1   0.8644  0.2235  0.5934  11.00000  0.05    0.28
Q11   1   0.7963 -0.0480  0.1311  11.00000  0.05    0.27
Q12   1   0.7811  0.5728  0.6656  11.00000  0.05    0.26
Q13   1   0.7421  0.7860  0.7271  11.00000  0.05    0.26
Q14   1   0.7238  0.6785  0.5930  11.00000  0.05    0.26
Q15   1   0.7132  0.5788  0.4590  11.00000  0.05    0.26
Q16   1   0.7440  0.5730  0.5606  11.00000  0.05    0.25
Q17   1   0.6477  0.6433  0.3387  11.00000  0.05    0.25
Q18   1   0.7265  0.1953  0.0337  11.00000  0.05    0.23
Q19   1   0.8553  0.6659  0.9855  11.00000  0.05    0.22
Q20   1   0.7970  0.3160  0.3662  11.00000  0.05    0.22
;
_shelx_res_checksum              68570
loop_
_space_group_symop_operation_xyz
'x, y, z'
'-x, -y, -z'
loop_
_atom_site_type_symbol
_atom_site_label
_atom_site_fract_x
_atom_site_fract_y
_atom_site_fract_z
_atom_site_U_iso_or_equiv
_atom_site_adp_type
_atom_site_calc_flag
_atom_site_occupancy
O O1 0.65788(15) 0.44209(11) 0.15778(9) 0.0286(3) Uani d 1
O O2 0.62079(16) 0.61257(11) 0.25621(10) 0.0336(3) Uani d 1
O O31 0.86393(17) 0.30291(11) 0.59953(9) 0.0342(3) Uani d 1
N N32 0.73898(17) 0.54313(13) 0.50493(12) 0.0254(3) Uani d 1
H H32 0.687(3) 0.604(2) 0.423(2) 0.050(6) Uiso d 1
O O313 0.68878(17) 0.96846(12) 0.62447(11) 0.0367(3) Uani d 1
C C8A 0.6993(2) 0.30000(15) 0.15628(13) 0.0245(3) Uani d 1
C C2 0.6741(2) 0.48376(15) 0.26677(14) 0.0263(3) Uani d 1
C C3 0.75233(19) 0.37076(14) 0.38259(12) 0.0227(3) Uani d 1
C C4 0.79282(19) 0.23155(15) 0.38073(13) 0.0241(3) Uani d 1
H H4 0.8409 0.1587 0.4573 0.029 Uiso calc 1
C C4A 0.76523(19) 0.19084(15) 0.26675(13) 0.0232(3) Uani d 1
C C5 0.8052(2) 0.04818(15) 0.25954(13) 0.0249(3) Uani d 1
H H5 0.8508 -0.0279 0.3343 0.030 Uiso calc 1
C C6 0.7792(2) 0.01685(15) 0.14495(14) 0.0258(3) Uani d 1
C C7 0.7102(2) 0.13159(16) 0.03699(14) 0.0281(3) Uani d 1
H H7 0.6904 0.1114 -0.0420 0.034 Uiso calc 1
C C8 0.6702(2) 0.27245(16) 0.04094(14) 0.0293(3) Uani d 1
H H8 0.6238 0.3486 -0.0336 0.035 Uiso calc 1
C C31 0.7903(2) 0.40253(15) 0.50651(13) 0.0250(3) Uani d 1
C C61 0.8246(2) -0.13560(16) 0.13511(15) 0.0325(3) Uani d 1
H H61A 0.7066 -0.1464 0.0995 0.049 Uiso calc 1
H H61B 0.8615 -0.2012 0.2202 0.049 Uiso calc 1
H H61C 0.9351 -0.1586 0.0792 0.049 Uiso calc 1
C C311 0.75735(19) 0.60513(16) 0.60585(13) 0.0252(3) Uani d 1
C C312 0.7157(2) 0.75307(16) 0.57413(14) 0.0268(3) Uani d 1
H H312 0.6788 0.8065 0.4882 0.032 Uiso calc 1
C C313 0.7276(2) 0.82377(16) 0.66755(14) 0.0289(3) Uani d 1
C C314 0.7787(2) 0.74642(17) 0.79326(14) 0.0321(3) Uani d 1
H H314 0.7861 0.7937 0.8578 0.039 Uiso calc 1
C C315 0.8186(2) 0.59968(18) 0.82285(15) 0.0356(4) Uani d 1
H H315 0.8534 0.5465 0.9090 0.043 Uiso calc 1
C C316 0.8099(2) 0.52680(17) 0.73131(14) 0.0318(3) Uani d 1
H H316 0.8392 0.4254 0.7540 0.038 Uiso calc 1
C C317 0.6726(2) 1.04748(18) 0.71900(16) 0.0368(4) Uani d 1
H H31A 0.6357 1.1504 0.6774 0.055 Uiso calc 1
H H31B 0.8008 1.0162 0.7670 0.055 Uiso calc 1
H H31C 0.5703 1.0302 0.7775 0.055 Uiso calc 1
loop_
_atom_site_aniso_label
_atom_site_aniso_U_11
_atom_site_aniso_U_22
_atom_site_aniso_U_33
_atom_site_aniso_U_12
_atom_site_aniso_U_13
_atom_site_aniso_U_23
O1 0.0367(6) 0.0231(5) 0.0253(5) -0.0075(4) -0.0064(4) -0.0066(4)
O2 0.0443(6) 0.0214(5) 0.0336(6) -0.0075(4) -0.0094(5) -0.0070(4)
O31 0.0488(7) 0.0300(6) 0.0241(5) -0.0119(5) -0.0046(4) -0.0073(4)
N32 0.0263(6) 0.0262(6) 0.0261(6) -0.0088(5) 0.0001(5) -0.0103(5)
O313 0.0481(7) 0.0317(6) 0.0376(6) -0.0158(5) 0.0010(5) -0.0181(5)
C8A 0.0228(6) 0.0233(7) 0.0285(7) -0.0071(5) -0.0009(5) -0.0083(5)
C2 0.0260(7) 0.0274(7) 0.0274(7) -0.0093(6) -0.0027(5) -0.0092(6)
C3 0.0203(6) 0.0251(7) 0.0242(7) -0.0083(5) 0.0010(5) -0.0073(5)
C4 0.0222(6) 0.0266(7) 0.0238(7) -0.0082(5) 0.0005(5) -0.0066(5)
C4A 0.0194(6) 0.0280(7) 0.0248(7) -0.0091(5) 0.0023(5) -0.0099(5)
C5 0.0245(7) 0.0250(7) 0.0261(7) -0.0086(5) 0.0025(5) -0.0072(5)
C6 0.0226(6) 0.0277(7) 0.0314(7) -0.0098(5) 0.0047(5) -0.0132(6)
C7 0.0276(7) 0.0338(8) 0.0256(7) -0.0098(6) 0.0002(5) -0.0122(6)
C8 0.0320(7) 0.0295(7) 0.0251(7) -0.0077(6) -0.0033(6) -0.0071(6)
C31 0.0241(7) 0.0278(7) 0.0255(7) -0.0096(5) 0.0016(5) -0.0094(5)
C61 0.0359(8) 0.0300(8) 0.0363(8) -0.0114(6) 0.0040(6) -0.0156(6)
C311 0.0199(6) 0.0322(7) 0.0293(7) -0.0106(5) 0.0035(5) -0.0154(6)
C312 0.0247(7) 0.0308(7) 0.0284(7) -0.0101(6) 0.0012(5) -0.0119(6)
C313 0.0241(7) 0.0323(8) 0.0367(8) -0.0126(6) 0.0051(6) -0.0161(6)
C314 0.0304(8) 0.0440(9) 0.0309(8) -0.0156(7) 0.0060(6) -0.0211(7)
C315 0.0390(8) 0.0434(9) 0.0264(7) -0.0136(7) 0.0031(6) -0.0118(6)
C316 0.0339(8) 0.0339(8) 0.0293(8) -0.0113(6) 0.0025(6) -0.0109(6)
C317 0.0360(8) 0.0392(9) 0.0471(9) -0.0166(7) 0.0072(7) -0.0273(7)
loop_
_atom_type_symbol
_atom_type_description
_atom_type_scat_dispersion_real
_atom_type_scat_dispersion_imag
_atom_type_scat_source
C C 0.0033 0.0016 'International Tables Vol C Tables 4.2.6.8 and 6.1.1.4'
H H 0.0000 0.0000 'International Tables Vol C Tables 4.2.6.8 and 6.1.1.4'
N N 0.0061 0.0033 'International Tables Vol C Tables 4.2.6.8 and 6.1.1.4'
O O 0.0106 0.0060 'International Tables Vol C Tables 4.2.6.8 and 6.1.1.4'
loop_
_geom_angle_atom_site_label_1
_geom_angle_atom_site_label_2
_geom_angle_atom_site_label_3
_geom_angle
C2 O1 C8A 122.60(11)
C31 N32 C311 128.29(13)
C31 N32 H32 112.4(12)
C311 N32 H32 119.3(12)
C313 O313 C317 116.71(12)
O1 C8A C8 116.95(12)
O1 C8A C4A 120.97(12)
C8 C8A C4A 122.07(13)
O2 C2 O1 115.82(12)
O2 C2 C3 126.86(13)
O1 C2 C3 117.32(12)
C4 C3 C2 119.74(12)
C4 C3 C31 117.86(12)
C2 C3 C31 122.40(12)
C3 C4 C4A 121.83(13)
C3 C4 H4 119.1
C4A C4 H4 119.1
C8A C4A C5 118.50(12)
C8A C4A C4 117.36(12)
C5 C4A C4 124.12(13)
C6 C5 C4A 120.84(13)
C6 C5 H5 119.6
C4A C5 H5 119.6
C5 C6 C7 118.07(13)
C5 C6 C61 121.52(13)
C7 C6 C61 120.41(13)
C8 C7 C6 122.46(13)
C8 C7 H7 118.8
C6 C7 H7 118.8
C7 C8 C8A 118.06(13)
C7 C8 H8 121.0
C8A C8 H8 121.0
O31 C31 N32 124.90(13)
O31 C31 C3 119.53(12)
N32 C31 C3 115.57(12)
C6 C61 H61A 109.5
C6 C61 H61B 109.5
H61A C61 H61B 109.5
C6 C61 H61C 109.5
H61A C61 H61C 109.5
H61B C61 H61C 109.5
C312 C311 C316 120.02(13)
C312 C311 N32 116.32(13)
C316 C311 N32 123.65(14)
C311 C312 C313 120.38(14)
C311 C312 H312 119.8
C313 C312 H312 119.8
O313 C313 C314 124.95(13)
O313 C313 C312 115.09(13)
C314 C313 C312 119.96(14)
C315 C314 C313 118.75(13)
C315 C314 H314 120.6
C313 C314 H314 120.6
C314 C315 C316 122.32(15)
C314 C315 H315 118.8
C316 C315 H315 118.8
C315 C316 C311 118.57(15)
C315 C316 H316 120.7
C311 C316 H316 120.7
O313 C317 H31A 109.5
O313 C317 H31B 109.5
H31A C317 H31B 109.5
O313 C317 H31C 109.5
H31A C317 H31C 109.5
H31B C317 H31C 109.5
loop_
_geom_bond_atom_site_label_1
_geom_bond_atom_site_label_2
_geom_bond_distance
O1 C2 1.3656(16)
O1 C8A 1.3785(16)
O2 C2 1.2137(17)
O31 C31 1.2247(17)
N32 C31 1.3488(18)
N32 C311 1.4145(17)
N32 H32 0.96(2)
O313 C313 1.3629(18)
O313 C317 1.4267(17)
C8A C8 1.3785(19)
C8A C4A 1.3871(19)
C2 C3 1.4560(19)
C3 C4 1.3518(19)
C3 C31 1.5038(18)
C4 C4A 1.4297(18)
C4 H4 0.9500
C4A C5 1.4028(19)
C5 C6 1.3841(19)
C5 H5 0.9500
C6 C7 1.400(2)
C6 C61 1.5040(19)
C7 C8 1.375(2)
C7 H7 0.9500
C8 H8 0.9500
C61 H61A 0.9800
C61 H61B 0.9800
C61 H61C 0.9800
C311 C312 1.387(2)
C311 C316 1.387(2)
C312 C313 1.3931(19)
C312 H312 0.9500
C313 C314 1.386(2)
C314 C315 1.377(2)
C314 H314 0.9500
C315 C316 1.386(2)
C315 H315 0.9500
C316 H316 0.9500
C317 H31A 0.9800
C317 H31B 0.9800
C317 H31C 0.9800
loop_
_geom_hbond_atom_site_label_D
_geom_hbond_atom_site_label_H
_geom_hbond_atom_site_label_A
_geom_hbond_site_symmetry_A
_geom_hbond_distance_DH
_geom_hbond_distance_HA
_geom_hbond_distance_DA
_geom_hbond_angle_DHA
N32 H32 O2 . 0.96(2) 1.85(2) 2.6952(16) 145.7(17)
C8 H8 O1 2_665 0.95 2.52 3.3676(18) 149
C61 H61B O31 2_756 0.98 2.57 3.4044(19) 143
C317 H31A O31 1_565 0.98 2.57 3.2769(19) 129
loop_
_geom_torsion_atom_site_label_1
_geom_torsion_atom_site_label_2
_geom_torsion_atom_site_label_3
_geom_torsion_atom_site_label_4
_geom_torsion
_geom_torsion_publ_flag
C2 O1 C8A C8 177.70(12) ?
C2 O1 C8A C4A -1.7(2) ?
C8A O1 C2 O2 -175.39(12) ?
C8A O1 C2 C3 4.54(19) ?
O2 C2 C3 C4 175.53(13) ?
O1 C2 C3 C4 -4.39(19) ?
O2 C2 C3 C31 -4.3(2) ?
O1 C2 C3 C31 175.77(11) ?
C2 C3 C4 C4A 1.4(2) ?
C31 C3 C4 C4A -178.73(11) ?
O1 C8A C4A C5 -179.94(11) ?
C8 C8A C4A C5 0.7(2) ?
O1 C8A C4A C4 -1.47(19) ?
C8 C8A C4A C4 179.19(12) ?
C3 C4 C4A C8A 1.5(2) ?
C3 C4 C4A C5 179.88(12) ?
C8A C4A C5 C6 -0.1(2) ?
C4 C4A C5 C6 -178.51(12) ?
C4A C5 C6 C7 -0.5(2) ?
C4A C5 C6 C61 178.98(12) ?
C5 C6 C7 C8 0.7(2) ?
C61 C6 C7 C8 -178.82(13) ?
C6 C7 C8 C8A -0.1(2) ?
O1 C8A C8 C7 -179.94(12) ?
C4A C8A C8 C7 -0.6(2) ?
C311 N32 C31 O31 -0.1(2) ?
C311 N32 C31 C3 -179.84(12) ?
C4 C3 C31 O31 3.1(2) ?
C2 C3 C31 O31 -177.02(13) ?
C4 C3 C31 N32 -177.06(11) y
C2 C3 C31 N32 2.78(19) y
C31 N32 C311 C312 172.29(12) y
C31 N32 C311 C316 -9.0(2) y
C316 C311 C312 C313 0.5(2) ?
N32 C311 C312 C313 179.28(12) ?
C317 O313 C313 C314 -9.2(2) ?
C317 O313 C313 C312 171.67(12) ?
C311 C312 C313 O313 178.26(12) ?
C311 C312 C313 C314 -0.9(2) ?
O313 C313 C314 C315 -178.48(13) ?
C312 C313 C314 C315 0.6(2) ?
C313 C314 C315 C316 0.1(2) ?
C314 C315 C316 C311 -0.6(2) ?
C312 C311 C316 C315 0.2(2) ?
N32 C311 C316 C315 -178.48(13) ?

_cod_database_fobs_code 2241713
