#------------------------------------------------------------------------------
#$Date: 2015-11-07 04:26:41 +0200 (Sat, 07 Nov 2015) $
#$Revision: 170170 $
#$URL: svn://www.crystallography.net/cod/cif/2/24/12/2241287.cif $
#------------------------------------------------------------------------------
#
# This file is available in the Crystallography Open Database (COD),
# http://www.crystallography.net/. The original data for this entry
# were provided by IUCr Journals, http://journals.iucr.org/.
#
# The file may be used within the scientific community so long as
# proper attribution is given to the journal article from which the
# data were obtained.
#
data_2241287
loop_
_publ_author_name
'Hern\'andez, Guadalupe'
'Bern\`es, Sylvain'
'Portillo, Oscar'
'Ru\'iz, Alejandro'
'Moreno, Gloria E.'
'Guti\'errez, Ren\'e'
_publ_section_title
;
 Crystal structures of three mercury(II) complexes [HgCl~2~<i>L</i>] where
 <i>L</i> is a bidentate chiral imine ligand
;
_journal_coeditor_code           RZ5175
_journal_issue                   12
_journal_name_full               'Acta Crystallographica Section E'
_journal_page_first              1462
_journal_page_last               1466
_journal_paper_doi               10.1107/S2056989015020368
_journal_volume                  71
_journal_year                    2015
_chemical_formula_iupac          '[Hg Cl2 (C15 H16 N2)]'
_chemical_formula_moiety         'C15 H16 Cl2 Hg N2'
_chemical_formula_sum            'C15 H16 Cl2 Hg N2'
_chemical_formula_weight         495.79
_chemical_melting_point          418
_chemical_name_systematic
(<i>S</i>)-(+)-Dichlorido[1-(4-methylphenyl)-<i>N</i>-(pyridin-2-ylmethylidene)ethylamine-\k^2^<i>N</i>,<i>N</i>']mercury(II)
_space_group_crystal_system      triclinic
_space_group_IT_number           1
_space_group_name_Hall           'P 1'
_space_group_name_H-M_alt        'P 1'
_symmetry_space_group_name_Hall  'P 1'
_symmetry_space_group_name_H-M   'P 1'
_atom_sites_solution_hydrogens   geom
_atom_sites_solution_primary     direct
_atom_sites_solution_secondary   difmap
_audit_creation_method           SHELXL-2014/7
_cell_angle_alpha                94.597(4)
_cell_angle_beta                 103.178(4)
_cell_angle_gamma                94.222(3)
_cell_formula_units_Z            2
_cell_length_a                   7.6194(3)
_cell_length_b                   9.2982(4)
_cell_length_c                   12.2341(8)
_cell_measurement_reflns_used    4707
_cell_measurement_temperature    294.2(8)
_cell_measurement_theta_max      24.5690
_cell_measurement_theta_min      3.5570
_cell_volume                     837.43(8)
_computing_cell_refinement
;
CrysAlis PRO (Agilent, 2013)
;
_computing_data_collection
;
CrysAlis PRO (Agilent, 2013)
;
_computing_data_reduction
;
CrysAlis PRO (Agilent, 2013)
;
_computing_molecular_graphics
;
MERCURY (Macrae <i>et al.</i>,  2008)
;
_computing_publication_material
;
SHELXL2014/7 (Sheldrick, 2015)
;
_computing_structure_refinement
;
SHELXL2014/7 (Sheldrick, 2015)
;
_computing_structure_solution
;
SHELXS2014/7 (Sheldrick, 2008)
;
_diffrn_ambient_temperature      294.2(8)
_diffrn_detector_area_resol_mean 10.5564
_diffrn_measured_fraction_theta_full 0.998
_diffrn_measured_fraction_theta_max 0.999
_diffrn_measurement_device       'four-circle diffractometer'
_diffrn_measurement_device_type  'Agilent Xcalibur (Atlas, Gemini)'
_diffrn_measurement_method       '\w scans'
_diffrn_radiation_monochromator  graphite
_diffrn_radiation_type           MoK\a
_diffrn_radiation_wavelength     0.71073
_diffrn_reflns_av_R_equivalents  0.0456
_diffrn_reflns_limit_h_max       9
_diffrn_reflns_limit_h_min       -9
_diffrn_reflns_limit_k_max       11
_diffrn_reflns_limit_k_min       -11
_diffrn_reflns_limit_l_max       15
_diffrn_reflns_limit_l_min       -15
_diffrn_reflns_number            17266
_diffrn_reflns_theta_full        25.242
_diffrn_reflns_theta_max         26.369
_diffrn_reflns_theta_min         2.930
_exptl_absorpt_coefficient_mu    9.500
_exptl_absorpt_correction_T_max  0.467
_exptl_absorpt_correction_T_min  0.052
_exptl_absorpt_correction_type   analytical
_exptl_absorpt_process_details
;
(CrysAlis PRO; Agilent, 2013)
;
_exptl_crystal_colour            colourless
_exptl_crystal_density_diffrn    1.966
_exptl_crystal_description       plate
_exptl_crystal_F_000             468
_exptl_crystal_size_max          0.6669
_exptl_crystal_size_mid          0.3637
_exptl_crystal_size_min          0.1140
_refine_diff_density_max         1.069
_refine_diff_density_min         -1.060
_refine_ls_abs_structure_details
;
Flack <i>x</i> determined using 1903 quotients
[(<i>I</i>^+^)-(<i>I</i>^-^)]/[(<i>I</i>^+^)+(<i>I</i>^-^)]
(Parsons <i>et al.</i>,  2013).
;
_refine_ls_abs_structure_Flack   -0.006(12)
_refine_ls_extinction_method     none
_refine_ls_goodness_of_fit_ref   0.981
_refine_ls_hydrogen_treatment    constr
_refine_ls_matrix_type           full
_refine_ls_number_parameters     365
_refine_ls_number_reflns         6767
_refine_ls_number_restraints     18
_refine_ls_restrained_S_all      0.980
_refine_ls_R_factor_all          0.0653
_refine_ls_R_factor_gt           0.0361
_refine_ls_shift/su_max          0.001
_refine_ls_shift/su_mean         0.000
_refine_ls_structure_factor_coef Fsqd
_refine_ls_weighting_details
'w=1/[\s^2^(Fo^2^)+(0.0149P)^2^] where P=(Fo^2^+2Fc^2^)/3'
_refine_ls_weighting_scheme      calc
_refine_ls_wR_factor_gt          0.0504
_refine_ls_wR_factor_ref         0.0586
_reflns_number_gt                5013
_reflns_number_total             6767
_reflns_threshold_expression     'I > 2\s(I)'
_cod_data_source_file            rz5175sup1.cif
_cod_data_source_block           II
_cod_original_cell_volume        837.43(7)
_cod_database_code               2241287
_shelx_hkl_file
;
  -9  -2   1 24815.2 5431.24   8
  -9  -1   0 4270.21 3082.10   5
  -9  -1   0 405.730 1887.51   8
  -9   0  -1 29015.5 9452.15  10
  -9   0  -1 24508.7 5162.98   5
  -9   0   0 6287.27 4786.33  10
  -9   0   1 11182.8 4678.78  10
  -9   0   2 10828.4 5153.83  10
  -9   0   8 10630.0 4087.34   6
  -9   1  -1 2913.09 4261.84  10
  -9   1   0 12722.5 6713.57  10
  -9   1   1 3315.57 3814.23  10
  -9   1   2 5080.18 4115.61  10
  -9   1   3-3140.93 3150.86  10
  -9   1   4 5820.57 3778.45  10
  -9   1   5 5633.55 3450.85  10
  -9   1   6 23530.7 5929.95  10
  -9   1   8 8640.53 3916.69   6
  -9   2  -1-11860.1 6205.20  10
  -9   2   0 6339.92 3873.88  10
  -9   2   1 27110.9 8530.31  10
  -9   2   2 41120.7 10529.9  10
  -9   2   3 30630.1 7995.49  10
  -9   2   4 1950.50 3490.18  10
  -9   2   5 1836.14 2750.95  10
  -9   2   6 9497.47 4069.70  10
  -9   2   7 17957.3 5291.32   6
  -9   2   7 11282.5 3977.19  10
  -9   3   0-765.856 3285.74  10
  -9   3   1-1636.60 3122.04  10
  -9   3   2-2014.38 3838.67  10
  -9   3   3 19965.1 8134.96  10
  -9   3   4 22327.7 7732.07  10
  -9   3   5 4131.59 3297.37  10
  -9   3   6-2220.74 2788.03  10
  -9   4   1 8684.81 6086.87  10
  -9   4   2 760.124 3163.27  10
  -9   4   3-1585.47 3225.06  10
  -9   4   4 14448.8 5651.15  10
  -9   4   5 29437.6 7724.64  10
  -8  -5   1 5961.74 3646.42   5
  -8  -5   1 4081.31 2851.68   8
  -8  -5   2 20584.7 5084.02   8
  -8  -5   3 26473.5 5463.30   8
  -8  -5   4 23146.8 5337.46   8
  -8  -5   5 2068.60 2588.55   8
  -8  -5   7 12199.5 3417.68   2
  -8  -4  -1 20287.2 5182.33   5
  -8  -4  -1 22651.5 5249.07   8
  -8  -4   0 10594.4 3564.26   8
  -8  -4   0 5044.28 2968.75   5
  -8  -4   1 4134.73 2875.84   5
  -8  -4   1 990.098 2390.96   8
  -8  -4   2-218.296 2528.22   8
  -8  -4   3 7669.09 3124.49   8
  -8  -4   4 15760.4 4041.92   8
  -8  -4   6 5307.61 2401.02   2
  -8  -4   7 1525.62 1962.90   2
  -8  -4   8-1541.52 2006.74   2
  -8  -3  -3 10186.7 4638.95   5
  -8  -3  -3 8111.81 3971.83   8
  -8  -3  -2-2231.51 2162.03   8
  -8  -3  -2-1875.66 2894.35   5
  -8  -3  -1 12326.2 4047.77   8
  -8  -3  -1 19628.6 5286.76   5
  -8  -3   0 36803.6 6475.67   5
  -8  -3   0 48917.9 6884.45   8
  -8  -3   1 30020.5 5324.88   8
  -8  -3   1 27922.4 5474.08   5
  -8  -3   2 10968.7 3525.02   8
  -8  -3   3-1088.54 2283.14   8
  -8  -3   7 14316.5 3615.28   2
  -8  -3   8 7426.16 3194.21   2
  -8  -3   9 2154.72 2090.40   6
  -8  -3   9 1852.79 2447.52   2
  -8  -2  -3 17631.4 4875.60   5
  -8  -2  -3 22424.1 4780.04   8
  -8  -2  -2 22871.6 4872.48   8
  -8  -2  -2 10562.5 3801.01   5
  -8  -2  -1 8983.37 3237.29   8
  -8  -2  -1 5859.29 3361.69   5
  -8  -2   0-262.758 1702.33   8
  -8  -2   0 1694.76 2239.72   5
  -8  -2   1 30747.0 5478.96   5
  -8  -2   1 24561.7 4692.19   8
  -8  -2   2 56002.3 6967.29   8
  -8  -2   8 23987.5 5125.00   6
  -8  -2   8 17009.9 4276.04   2
  -8  -2   9 14305.1 4436.69   6
  -8  -2   9 12011.8 3613.44   2
  -8  -2  10 4278.08 3416.84   2
  -8  -2  10-377.671 2034.45   6
  -8  -1  -4-219.928 1507.75   8
  -8  -1  -4-716.807 2251.38   5
  -8  -1  -3 12702.5 3776.80   8
  -8  -1  -3 10783.3 3955.40   5
  -8  -1  -2 33183.3 5619.45   8
  -8  -1  -2 30668.3 5820.46   5
  -8  -1  -1 24733.2 4826.28   8
  -8  -1  -1 35092.9 5953.76   5
  -8  -1   0 11729.8 3506.32   5
  -8  -1   0 17923.8 4165.13   8
  -8  -1   1 1094.89 2234.04   8
  -8  -1   7 12088.1 4014.13   6
  -8  -1   8 16640.0 4600.76   6
  -8  -1   9 10260.0 3642.09   6
  -8  -1  10 10890.2 4465.28   6
  -8   0  -4 4025.40 2837.10   5
  -8   0  -4 9489.87 3188.74   8
  -8   0  -4-164.487 3605.75  10
  -8   0  -3-1211.59 2263.47   5
  -8   0  -3 1267.41 1702.58   8
  -8   0  -2 17523.2 5763.91  10
  -8   0  -2 9225.14 3504.28   5
  -8   0  -2 9501.75 3124.20   8
  -8   0  -1 24086.8 4906.86   5
  -8   0  -1 20623.5 7304.45  10
  -8   0  -1 27009.4 4971.05   8
  -8   0   0 17487.4 6520.25  10
  -8   0   0 33985.2 5506.37   5
  -8   0   1 27644.0 7702.06  10
  -8   0   2 3805.94 3311.04  10
  -8   0   3 5871.38 3374.33  10
  -8   0   4 21310.5 5613.12  10
  -8   0   6 31640.6 5635.24   6
  -8   0   7 5031.89 2852.20   6
  -8   0   8-276.146 2103.75   6
  -8   0   9 5319.85 2958.90   6
  -8   0  10 12056.5 4181.23   6
  -8   0  11 6988.71 3730.85   6
  -8   1  -5 4766.98 2250.07   5
  -8   1  -5 8792.12 4236.63  10
  -8   1  -4 24588.2 7224.68  10
  -8   1  -4 37914.4 6559.95   5
  -8   1  -3 21304.3 4816.34   5
  -8   1  -3 21172.9 6160.37  10
  -8   1  -3 22690.3 4490.64   8
  -8   1  -2 4833.40 2816.45   5
  -8   1  -2 5618.29 3429.42  10
  -8   1  -1 5151.90 2580.56   5
  -8   1  -1 6834.55 4520.94  10
  -8   1   0 29601.3 8666.00  10
  -8   1   1 37578.1 9128.09  10
  -8   1   2 28121.5 7620.50  10
  -8   1   3 14397.1 5086.47  10
  -8   1   4 2426.50 2895.11  10
  -8   1   5 4977.94 3215.13  10
  -8   1   6 22718.2 5141.62  10
  -8   1   6 25546.4 5397.98   6
  -8   1   7 37077.6 6161.80  10
  -8   1   7 39005.7 6458.58   6
  -8   1   8 23915.2 5596.32   6
  -8   1   9 3654.95 2822.40   6
  -8   1  10-4277.26 2863.56   6
  -8   2  -5 6899.34 3002.93   5
  -8   2  -5 2465.21 2976.65  10
  -8   2  -4 7542.06 3346.89  10
  -8   2  -4 8103.61 3371.03   5
  -8   2  -3 28229.8 7980.14  10
  -8   2  -3 38039.5 6032.09   5
  -8   2  -2 57291.9 7084.64   5
  -8   2  -2 47374.8 10410.3  10
  -8   2  -1 33069.4 5151.76   5
  -8   2  -1 40695.0 9612.08  10
  -8   2   0-7920.46 4848.14  10
  -8   2   1 8533.61 5249.22  10
  -8   2   2 27366.1 7841.22  10
  -8   2   3 40619.9 8809.49  10
  -8   2   4 23305.3 6341.77  10
  -8   2   5 11203.2 4578.47  10
  -8   2   6 8853.16 3556.64  10
  -8   2   6-1578.22 2067.38   6
  -8   2   7 4666.20 2744.52  10
  -8   2   7 6887.67 3448.13   6
  -8   2   8 15468.0 3957.99  10
  -8   2   8 20880.4 5295.92   6
  -8   2   9 28767.1 4946.40  10
  -8   2   9 25297.2 5793.46   6
  -8   2  10 14066.5 4541.68   6
  -8   3  -4-4841.83 3700.65  10
  -8   3  -4 2611.57 2429.44   5
  -8   3  -3-23.3884 4075.09  10
  -8   3  -3 2817.37 2469.02   5
  -8   3  -2 21488.0 7049.72  10
  -8   3  -2 11907.3 3357.51   5
  -8   3  -1 33683.5 9374.07  10
  -8   3   0 48328.5 10913.3  10
  -8   3   1 10223.0 5543.80  10
  -8   3   2 2930.70 3305.75  10
  -8   3   3 42044.6 9359.58  10
  -8   3   4 48386.5 8977.07  10
  -8   3   5 31530.9 7116.50  10
  -8   3   5 38604.2 6230.88   6
  -8   3   6 4078.33 2411.05   6
  -8   3   6 8820.61 3551.53  10
  -8   3   7 2183.64 2161.36  10
  -8   3   7 1224.24 2548.27   6
  -8   3   8 3080.52 2198.02  10
  -8   3   8 3933.62 2852.59   6
  -8   3   9 11364.7 3228.69  10
  -8   3   9 9495.88 4047.35   6
  -8   3  10 9104.68 3823.19   6
  -8   4  -4 15945.3 5807.75  10
  -8   4  -4 16526.6 3749.21   5
  -8   4  -3 1409.13 3027.92  10
  -8   4  -2 2185.36 3871.83  10
  -8   4  -1 7501.40 4932.94  10
  -8   4   0 19223.6 7881.81  10
  -8   4   1 20479.3 8061.86  10
  -8   4   2 12371.2 6945.62  10
  -8   4   3-7723.18 4959.26  10
  -8   4   4 5491.38 4591.88  10
  -8   4   5 11902.7 5452.75  10
  -8   4   5 21428.6 5027.78   6
  -8   4   6 25459.8 6150.43  10
  -8   4   6 16940.2 4420.85   6
  -8   4   7 12125.6 3859.65   6
  -8   4   7 12357.8 4010.16  10
  -8   4   8 2169.81 2644.45   6
  -8   4   8 4978.91 2797.09  10
  -8   4   9 905.467 2003.32   6
  -8   5  -3 27663.9 7789.90  10
  -8   5  -2 16546.9 6553.02  10
  -8   5  -1 13651.3 6679.49  10
  -8   5   0 6150.59 5096.87  10
  -8   5   1 7667.47 5881.19  10
  -8   5   2 32479.2 9877.60  10
  -8   5   3 47213.6 11349.9  10
  -8   5   4 15166.9 6672.50  10
  -8   5   5 3952.84 2788.63   6
  -8   5   5 4280.06 3887.74  10
  -8   5   6 4387.82 2754.46  10
  -8   5   6 4279.97 2440.91   6
  -8   5   7 12518.0 4132.93   6
  -8   5   7 8021.63 3925.46  10
  -8   5   8 15493.0 4834.20   6
  -8   5   8 10919.3 4035.85  10
  -8   6  -2 27741.8 8820.23  10
  -8   6  -1 23248.1 8561.86  10
  -8   6   0 33232.7 10790.1  10
  -8   6   1 4888.79 4669.02  10
  -8   6   2-2474.53 4041.55  10
  -8   6   3 9972.91 6105.76  10
  -8   6   4 21961.6 7540.95  10
  -8   6   5 14436.9 7160.74  10
  -8   6   5 26593.5 5393.29   6
  -8   6   6 9904.26 3731.66   6
  -8   6   6 13113.9 5160.17  10
  -8   7   2-1501.96 3345.90  10
  -7  -7   2 7701.25 3657.09   8
  -7  -7   3 2917.10 3199.54   8
  -7  -7   4 1288.22 2226.78   8
  -7  -7   5 4498.34 3306.07   8
  -7  -6  -1 8775.23 3546.84   8
  -7  -6  -1 11530.2 4397.74   5
  -7  -6   0 1126.77 2230.51   5
  -7  -6   0-971.416 2209.32   8
  -7  -6   1 17922.7 4864.70   5
  -7  -6   1 9875.81 3549.19   8
  -7  -6   2 38726.0 6268.30   5
  -7  -6   2 42582.2 6734.91   8
  -7  -6   3 50983.3 7129.97   8
  -7  -6   4 16192.8 4273.35   8
  -7  -6   5 125.947 1429.26   2
  -7  -6   5 2720.08 2647.19   8
  -7  -6   6 11081.3 4216.64   8
  -7  -6   6 4882.60 2751.67   2
  -7  -6   7 26837.1 5813.28   2
  -7  -6   8 19417.4 5500.93   2
  -7  -5  -3 3335.35 2973.20   5
  -7  -5  -3 5958.65 3002.45   8
  -7  -5  -2 18029.3 4738.16   8
  -7  -5  -2 16142.6 4982.18   5
  -7  -5  -1 23767.5 5522.66   5
  -7  -5  -1 24008.1 5210.58   8
  -7  -5   0 24880.8 5198.75   8
  -7  -5   0 25223.3 5559.24   5
  -7  -5   1 5421.80 3111.56   5
  -7  -5   1-1377.33 2549.66   8
  -7  -5   2 2392.93 2264.74   5
  -7  -5   2 4000.37 2557.99   8
  -7  -5   3 35644.0 5884.51   8
  -7  -5   4 58422.5 5587.60   2
  -7  -5   4 57601.6 7127.30   8
  -7  -5   5 37391.7 5174.79   2
  -7  -5   5 35736.2 5912.67   8
  -7  -5   6 2294.89 2024.69   2
  -7  -5   7 508.198 2565.89   2
  -7  -5   8 10076.4 4565.45   2
  -7  -5   9 11146.4 5377.57   2
  -7  -5  10 2778.97 2495.91   6
  -7  -5  10 6263.89 4902.07   2
  -7  -4  -4 10662.1 4049.62   5
  -7  -4  -4 16567.6 4551.48   8
  -7  -4  -3-808.637 2865.20   8
  -7  -4  -3 1779.92 2449.42   5
  -7  -4  -2 3280.23 1941.72   8
  -7  -4  -2 1907.57 2054.44   5
  -7  -4  -1 18720.6 4308.83   8
  -7  -4  -1 24133.5 5231.70   5
  -7  -4   0 34086.7 6000.81   5
  -7  -4   0 37149.1 5793.76   8
  -7  -4   1 31136.9 5320.77   8
  -7  -4   1 29556.9 5575.06   5
  -7  -4   2 21944.4 4539.66   8
  -7  -4   2 15208.3 3987.31   5
  -7  -4   3 1349.69 2107.83   8
  -7  -4   4 4979.83 2830.62   8
  -7  -4   4 7239.23 2142.84   2
  -7  -4   5 33720.6 5543.15   8
  -7  -4   5 24644.7 4076.25   2
  -7  -4   6 39625.3 5509.28   2
  -7  -4   7 16959.1 4359.97   2
  -7  -4   8 669.127 1899.85   6
  -7  -4   8-8753.25 3738.03   2
  -7  -4   9 211.697 2469.45   6
  -7  -4   9 420.249 2984.94   2
  -7  -4  10 9482.05 3819.49   6
  -7  -4  10 1292.28 2606.39   2
  -7  -4  11 553.105 2047.56   2
  -7  -4  11 6560.81 3434.58   6
  -7  -3  -5 6688.63 3921.37   5
  -7  -3  -5 2620.80 2320.94   8
  -7  -3  -4 22771.3 4978.16   8
  -7  -3  -4 23792.1 5409.88   5
  -7  -3  -3 32260.9 6131.07   5
  -7  -3  -3 34479.7 5653.88   8
  -7  -3  -2 20354.2 4709.73   5
  -7  -3  -2 19826.4 4221.01   8
  -7  -3  -1 1771.48 2451.09   5
  -7  -3  -1 2629.72 2509.32   8
  -7  -3   0 15400.6 3853.85   5
  -7  -3   0 9477.96 3027.41   8
  -7  -3   1 51269.4 6392.75   8
  -7  -3   1 50415.7 6601.79   5
  -7  -3   2 63857.0 7072.15   8
  -7  -3   2 66693.4 7230.51   5
  -7  -3   3 38111.8 5501.74   8
  -7  -3   4 12710.5 3392.04   8
  -7  -3   4 13151.4 2616.24   2
  -7  -3   5 1904.75 1327.56   2
  -7  -3   6 15385.8 3547.99   2
  -7  -3   7 43288.6 6289.15   2
  -7  -3   7 39239.5 6013.78   6
  -7  -3   8 39945.3 6139.58   6
  -7  -3   8 44807.9 7134.37   2
  -7  -3   9 20301.5 4677.61   6
  -7  -3   9 13928.0 4836.36   2
  -7  -3  10 1294.42 3017.24   2
  -7  -3  10-304.470 1805.01   6
  -7  -3  11-4217.88 3869.75   2
  -7  -3  11 1919.38 2552.71   6
  -7  -2  -6 22659.1 5804.60   5
  -7  -2  -6 12716.4 4390.54   8
  -7  -2  -5 4600.44 3435.59   5
  -7  -2  -5 1868.36 2225.64   8
  -7  -2  -4 10.9955 2118.72   8
  -7  -2  -4-4748.34 2902.39   5
  -7  -2  -3 16827.7 3941.61   8
  -7  -2  -3 19005.2 4593.45   5
  -7  -2  -2 59625.7 7489.12   5
  -7  -2  -2 54454.2 6545.63   8
  -7  -2  -1 72409.0 7340.33   8
  -7  -2  -1 68189.7 7766.22   5
  -7  -2   0 22501.4 4251.08   8
  -7  -2   0 25702.7 4919.09   5
  -7  -2   1 905.063 1646.26   5
  -7  -2   1 956.068 1785.40   8
  -7  -2   2 38726.3 5357.86   8
  -7  -2   3 77851.6 7639.98   8
  -7  -2   6 982.347 1513.21   2
  -7  -2   6 915.790 2012.19   6
  -7  -2   7 7270.70 3193.24   2
  -7  -2   7 8799.05 3154.27   6
  -7  -2   8 24157.8 4965.16   2
  -7  -2   8 28473.7 5374.51   6
  -7  -2   9 31485.3 6213.66   2
  -7  -2   9 36314.1 6079.50   6
  -7  -2  10 14443.8 4844.44   2
  -7  -2  10 21514.6 5049.89   6
  -7  -2  11-680.825 2364.72   2
  -7  -2  11 2494.69 2635.07   6
  -7  -2  12 3650.15 3470.92   2
  -7  -2  12-409.493 1742.27   6
  -7  -1  -7-677.610 2233.41   8
  -7  -1  -7 8692.96 4490.54   5
  -7  -1  -6 10070.8 4080.63   5
  -7  -1  -6 12557.6 3881.15   8
  -7  -1  -5 28836.1 5815.67   5
  -7  -1  -5 17568.2 4431.35   8
  -7  -1  -4 18828.9 4196.92   8
  -7  -1  -4 12514.1 3666.50   5
  -7  -1  -3-1150.80 2127.96   5
  -7  -1  -3-4655.75 4062.90  10
  -7  -1  -3 3339.66 2121.40   8
  -7  -1  -2 10772.1 3548.27   5
  -7  -1  -2 9425.59 3681.74  10
  -7  -1  -2 12697.9 3278.95   8
  -7  -1  -1 92379.5 7892.56   8
  -7  -1  -1 74042.1 11802.5  10
  -7  -1  -1 89204.8 8500.84   5
  -7  -1   0 119459. 9011.73   8
  -7  -1   0 119607. 14027.5  10
  -7  -1   0 136432. 10255.9   5
  -7  -1   1 74789.1 10667.2  10
  -7  -1   1 62305.2 6515.25   8
  -7  -1   1 59972.5 6689.59   5
  -7  -1   2 3096.30 2261.46   8
  -7  -1   6 33529.6 5432.46   6
  -7  -1   7 2821.21 1972.18   2
  -7  -1   7 2935.64 2346.37   6
  -7  -1   8 145.251 2041.64   2
  -7  -1   8 361.496 1955.49   6
  -7  -1   9 7342.58 3410.24   2
  -7  -1   9 7101.74 3266.01   6
  -7  -1  10 11366.4 4815.98   2
  -7  -1  10 8438.49 3412.96   6
  -7  -1  11 2992.22 3714.96   2
  -7  -1  11 7987.07 3624.79   6
  -7  -1  12 7376.81 4091.46   2
  -7  -1  12 5766.13 3280.66   6
  -7   0  -7 2382.86 2549.86  10
  -7   0  -7 1397.88 2401.67   5
  -7   0  -6 4849.49 2472.90   8
  -7   0  -6 4014.79 2958.04  10
  -7   0  -6 6227.83 2808.71   5
  -7   0  -5 19676.3 4391.37   8
  -7   0  -5 14935.1 4043.14   5
  -7   0  -5 24139.5 5829.16  10
  -7   0  -4 20667.5 6072.73  10
  -7   0  -4 27124.8 5197.58   5
  -7   0  -4 27555.9 4612.34   8
  -7   0  -3 22065.2 6797.39  10
  -7   0  -3 25287.3 4657.23   5
  -7   0  -3 23665.6 4241.75   8
  -7   0  -2 14343.1 3326.48   8
  -7   0  -2 18363.4 6384.73  10
  -7   0  -2 15730.2 3873.55   5
  -7   0  -1-653.986 1544.13   5
  -7   0  -1-818.585 3884.78  10
  -7   0  -1-880.091 1770.56   8
  -7   0   0 20587.3 3879.70   8
  -7   0   0 19677.7 3950.64   5
  -7   0   0 13193.7 5946.70  10
  -7   0   1 78310.6 11220.9  10
  -7   0   1 70688.9 6922.95   5
  -7   0   2 109077. 12361.5  10
  -7   0   3 32216.2 6427.92  10
  -7   0   4 1197.69 2280.48  10
  -7   0   5 30861.3 5039.34   6
  -7   0   5 29766.7 5685.99  10
  -7   0   6 68021.0 7553.86   6
  -7   0   7 29095.5 5305.78   6
  -7   0   8 9195.98 3030.94   6
  -7   0   9 2950.88 2234.23   6
  -7   0  10 311.227 2017.73   2
  -7   0  10 4377.01 2719.82   6
  -7   0  11 3939.76 2896.86   6
  -7   0  11 5171.56 3473.71   2
  -7   0  12 10091.7 4077.85   6
  -7   0  12 1246.95 2672.69   2
  -7   1  -7 11725.5 3723.48  10
  -7   1  -7 21266.2 5389.90   5
  -7   1  -6 8602.61 4055.36  10
  -7   1  -6 1779.21 2386.54   5
  -7   1  -5-1693.85 2496.07   5
  -7   1  -5 2867.91 1740.48   8
  -7   1  -5-944.986 2693.96  10
  -7   1  -4 26445.1 4290.42   8
  -7   1  -4 22585.9 6593.24  10
  -7   1  -4 25711.0 5045.20   5
  -7   1  -3 48652.4 9373.67  10
  -7   1  -3 62916.4 7270.55   5
  -7   1  -3 58163.4 6133.87   8
  -7   1  -2 52975.4 10219.4  10
  -7   1  -2 61037.0 6151.10   8
  -7   1  -2 63293.6 7051.57   5
  -7   1  -1 29029.6 4684.58   5
  -7   1  -1 22548.4 6909.32  10
  -7   1   0-1603.92 2937.56  10
  -7   1   0 907.940 1435.68   5
  -7   1   1 3799.43 3873.43  10
  -7   1   2 47888.8 8623.22  10
  -7   1   3 99329.1 11566.2  10
  -7   1   4 96925.9 10636.3  10
  -7   1   5 25915.5 5475.30  10
  -7   1   5 33163.2 5419.97   6
  -7   1   6 786.780 1753.65  10
  -7   1   6-618.050 1904.49   6
  -7   1   7 20218.2 4174.48  10
  -7   1   7 20519.4 4451.36   6
  -7   1   8 32826.1 5650.46   6
  -7   1   9 34200.6 6006.67   6
  -7   1  10 8676.89 3669.60   6
  -7   1  11 2256.15 1983.04   6
  -7   1  12-1726.67 2870.46   6
  -7   2  -7 12290.7 4420.86   5
  -7   2  -7 12281.2 4516.18  10
  -7   2  -6 22134.0 5157.02   5
  -7   2  -6 23407.5 5658.60  10
  -7   2  -5 25194.0 5093.76   5
  -7   2  -5 26381.0 6485.58  10
  -7   2  -4 5770.76 3618.40  10
  -7   2  -4 9340.20 2831.31   5
  -7   2  -4 8960.72 2684.23   8
  -7   2  -3 1915.58 3350.19  10
  -7   2  -3 2873.67 2457.40   5
  -7   2  -2 42433.2 5705.87   5
  -7   2  -2 39652.6 9024.28  10
  -7   2  -1 75383.4 7112.42   5
  -7   2  -1 85155.5 13684.2  10
  -7   2   0 39183.8 9236.84  10
  -7   2   1 7715.78 4846.86  10
  -7   2   2 4802.37 3981.31  10
  -7   2   3 28697.2 6746.67  10
  -7   2   4 57645.4 8823.79  10
  -7   2   4 67646.7 7233.36   6
  -7   2   5 61686.6 8200.13  10
  -7   2   5 64798.7 7305.01   6
  -7   2   6 32075.6 5396.67   6
  -7   2   6 20432.5 4679.76  10
  -7   2   7 1503.22 2150.08   6
  -7   2   7 1078.79 1947.59  10
  -7   2   8 3511.27 2617.28   6
  -7   2   8 4330.27 2493.30  10
  -7   2   9 27142.7 5690.70   6
  -7   2   9 20665.2 3785.12  10
  -7   2  10 21707.1 5111.53   6
  -7   2  11 6284.36 3392.05   6
  -7   2  12 1657.54 2518.72   6
  -7   3  -7-2016.78 2314.43   5
  -7   3  -7-2018.91 2436.43  10
  -7   3  -6 13347.4 4900.86  10
  -7   3  -6 12529.1 3624.45   5
  -7   3  -5 37734.6 5659.08   5
  -7   3  -5 43833.8 8183.84  10
  -7   3  -4 57314.1 6601.36   5
  -7   3  -4 46267.7 8425.66  10
  -7   3  -3 18968.6 6428.20  10
  -7   3  -3 26766.3 4478.04   5
  -7   3  -2 1542.97 1583.66   5
  -7   3  -2 3212.25 3559.20  10
  -7   3  -1 41038.4 10143.5  10
  -7   3   0 71478.0 13381.4  10
  -7   3   1 77815.9 13509.5  10
  -7   3   2 29219.2 7856.83  10
  -7   3   3-8919.46 4834.13  10
  -7   3   4 11430.1 3271.71   6
  -7   3   4 6390.95 2921.50  10
  -7   3   5 22313.8 5581.17  10
  -7   3   5 20230.2 4470.07   6
  -7   3   6 30390.6 5761.69  10
  -7   3   6 28027.9 5124.87   6
  -7   3   7 13108.4 3950.04   6
  -7   3   7 15498.9 4261.21  10
  -7   3   8 3565.96 2940.99   6
  -7   3   8 4396.55 2690.36  10
  -7   3   9-137.174 1483.92  10
  -7   3   9-2127.98 2671.41   6
  -7   3  10 5985.61 3488.48   6
  -7   3  11 5245.15 3501.94   6
  -7   4  -6 2481.76 2876.51  10
  -7   4  -6-2562.42 2156.34   5
  -7   4  -5 4698.60 4242.25  10
  -7   4  -5-1115.60 1983.15   5
  -7   4  -4 11599.4 3130.28   5
  -7   4  -4 9491.88 4637.79  10
  -7   4  -3 37055.4 4823.56   5
  -7   4  -3 32285.7 7791.25  10
  -7   4  -2 40863.8 9294.93  10
  -7   4  -1 3927.86 4352.10  10
  -7   4   0-3358.22 4411.49  10
  -7   4   1 36219.6 9910.01  10
  -7   4   2 73851.9 13411.7  10
  -7   4   3 50193.6 10382.5  10
  -7   4   4 12694.0 4775.40  10
  -7   4   4 6299.31 2386.10   6
  -7   4   5-2343.19 4194.25  10
  -7   4   5 887.723 1797.57   6
  -7   4   6 8667.23 3122.41   6
  -7   4   6 7914.94 3876.89  10
  -7   4   7 19262.8 4431.42   6
  -7   4   7 13281.3 4017.02  10
  -7   4   8 3921.28 2386.15  10
  -7   4   8 7589.66 3110.23   6
  -7   4   9 8407.64 3610.48   6
  -7   4   9 5059.43 2150.12  10
  -7   4  10 4330.38 3431.99   6
  -7   4  11 828.630 2374.03   6
  -7   5  -6 7664.81 4287.72  10
  -7   5  -5-1089.25 2765.53  10
  -7   5  -4 1567.21 3033.14  10
  -7   5  -4 1082.90 1282.38   5
  -7   5  -3 3135.59 3558.96  10
  -7   5  -2 24378.0 7605.46  10
  -7   5  -1 40544.0 10101.4  10
  -7   5   0 49059.3 12731.5  10
  -7   5   1 2136.91 3161.12  10
  -7   5   2 857.654 2313.78  10
  -7   5   3 41091.7 10508.5  10
  -7   5   4 33753.3 8631.24  10
  -7   5   4 46313.0 6188.48   6
  -7   5   5 25545.7 4746.42   6
  -7   5   5 24171.8 6501.38  10
  -7   5   6 1664.25 2384.42   6
  -7   5   6 4077.04 3047.99  10
  -7   5   7 4275.55 2647.75   6
  -7   5   7 5236.81 3132.20  10
  -7   5   8 9666.26 3631.16   6
  -7   5   8 3740.45 2518.36  10
  -7   5   9 4325.37 2680.48   6
  -7   5  10 9656.28 3969.58   6
  -7   6  -5 14261.5 5866.95  10
  -7   6  -4 12819.0 5539.61  10
  -7   6  -3 10023.4 5654.81  10
  -7   6  -2-7549.90 5142.29  10
  -7   6  -1 17868.4 7115.02  10
  -7   6   0 33511.0 10892.7  10
  -7   6   1 13588.4 7608.96  10
  -7   6   2 13403.4 7714.52  10
  -7   6   3-232.842 1742.60  10
  -7   6   4 29107.1 8183.49  10
  -7   6   4 19830.6 4179.29   6
  -7   6   5 41386.6 6089.69   6
  -7   6   5 47485.2 10000.2  10
  -7   6   6 33427.1 5777.35   6
  -7   6   6 34284.3 7924.28  10
  -7   6   7 4343.41 2915.88   6
  -7   6   7 2698.66 2408.13  10
  -7   6   8 3784.91 2992.61   6
  -7   6   8 4985.81 2468.76  10
  -7   6   9-4948.58 3312.17   6
  -7   7  -4 26306.8 7951.51  10
  -7   7  -3 21608.5 8327.40  10
  -7   7  -2 591.997 2243.67  10
  -7   7  -1 11347.5 5834.62  10
  -7   7   0 7781.33 2422.62  10
  -7   7   1 19149.5 10056.4  10
  -7   7   2 9995.35 6395.61  10
  -7   7   3-6616.75 5801.92  10
  -7   7   4 986.895 2102.85   6
  -7   7   4-10536.3 5513.96  10
  -7   7   5-1367.28 1809.00  10
  -7   7   5 5750.19 2785.25   6
  -7   7   6 1426.95 2907.61  10
  -7   7   6 11988.5 3800.42   6
  -7   7   7-5527.90 3216.46  10
  -7   7   7 12837.9 3833.98   6
  -7   8  -1 13523.6 6558.75  10
  -7   8   0-3316.71 3621.90  10
  -7   8   1 8371.57 5992.47  10
  -7   8   2 14968.9 8588.10  10
  -7   8   3 7366.81 5361.92  10
  -7   8   4-8566.87 5419.98  10
  -7   8   4 11376.8 3326.06   6
  -7   8   5 5195.88 3840.99  10
  -7   8   5 885.731 2133.96   6
  -6  -8   0 7833.54 3512.33   5
  -6  -8   0 11683.1 4325.09   8
  -6  -8   1 10297.9 4102.60   8
  -6  -8   1 16486.5 4529.83   5
  -6  -8   2 10702.7 4117.74   8
  -6  -8   3 5399.26 3220.26   8
  -6  -8   4 1264.32 2505.04   8
  -6  -8   5 6008.84 3426.20   8
  -6  -8   6 14667.1 4279.23   8
  -6  -8   6 17634.8 6155.18   2
  -6  -7  -3 14099.4 4721.38   8
  -6  -7  -3 16465.7 4976.11   5
  -6  -7  -2 26504.0 5905.44   8
  -6  -7  -2 16134.8 4765.06   5
  -6  -7  -1 1491.05 2113.27   8
  -6  -7  -1 2589.54 2851.07   5
  -6  -7   0-8827.40 3639.52   8
  -6  -7   0 1426.44 2368.59   5
  -6  -7   1 9589.36 3853.08   8
  -6  -7   1 12691.7 4140.98   5
  -6  -7   2 26328.5 4997.85   5
  -6  -7   2 29955.8 5582.92   8
  -6  -7   3 27405.6 5270.98   8
  -6  -7   4 20622.6 4714.30   8
  -6  -7   4 19369.4 4253.11   2
  -6  -7   5 5781.67 2538.00   8
  -6  -7   5 5269.07 2986.51   2
  -6  -7   6 1273.76 2003.02   8
  -6  -7   6 2167.54 1969.25   2
  -6  -7   7 7575.00 5720.00   2
  -6  -7   7 13318.8 3906.42   8
  -6  -7   8 20431.4 6975.81   2
  -6  -7   9 19344.3 5951.61   2
  -6  -6  -4-760.098 2500.26   5
  -6  -6  -4 4306.86 2950.67   8
  -6  -6  -3 7630.18 3439.29   8
  -6  -6  -3 7476.22 3336.09   5
  -6  -6  -2 21984.1 5167.61   5
  -6  -6  -2 25576.9 5344.94   8
  -6  -6  -1 51206.8 7134.73   5
  -6  -6  -1 53750.2 7195.82   8
  -6  -6   0 23525.6 4693.90   8
  -6  -6   0 34986.7 5989.05   5
  -6  -6   1 1356.94 1867.85   8
  -6  -6   1 4597.13 2724.97   5
  -6  -6   2 14236.9 3759.22   8
  -6  -6   2 11468.4 3536.66   5
  -6  -6   3 62917.1 5928.40   2
  -6  -6   3 52028.7 6584.96   8
  -6  -6   4 59106.8 6829.94   2
  -6  -6   4 58177.0 7024.97   8
  -6  -6   5 27532.0 5130.74   8
  -6  -6   5 26966.0 5459.43   2
  -6  -6   6 1336.45 2107.44   8
  -6  -6   6-15.9548 1987.49   2
  -6  -6   7 789.085 2743.55   2
  -6  -6   8 15925.0 5425.23   2
  -6  -6   9 21316.3 6827.90   2
  -6  -6  10 2400.72 2456.53   2
  -6  -6  10 17854.2 4265.74   6
  -6  -5  -6 16716.8 5049.06   5
  -6  -5  -6 10900.1 4537.01   8
  -6  -5  -5 22902.8 5724.40   5
  -6  -5  -5 13999.0 4573.60   8
  -6  -5  -4 10044.3 3779.42   8
  -6  -5  -4 6039.58 3406.97   5
  -6  -5  -3 525.124 2420.93   5
  -6  -5  -3 2474.03 2721.16   8
  -6  -5  -2 1713.33 1699.84   8
  -6  -5  -2 279.381 2626.70   5
  -6  -5  -1 36136.1 5575.62   8
  -6  -5  -1 36491.9 6002.83   5
  -6  -5   0 70841.5 7969.05   5
  -6  -5   0 70328.0 7410.47   8
  -6  -5   1 62779.9 7304.04   5
  -6  -5   1 59252.2 3574.80   2
  -6  -5   1 63992.9 7036.68   8
  -6  -5   2 32061.4 3366.22   2
  -6  -5   2 36981.4 5420.33   8
  -6  -5   2 27940.6 4868.76   5
  -6  -5   3 1437.57 1809.31   8
  -6  -5   3 198.317 1255.43   2
  -6  -5   3-326.688 1563.18   3
  -6  -5   4 16819.9 3838.97   8
  -6  -5   4 20266.1 5671.88   7
  -6  -5   4 30181.0 4431.65   2
  -6  -5   5 42312.6 5810.64   8
  -6  -5   5 59912.1 7157.60   2
  -6  -5   6 33000.0 6252.51   2
  -6  -5   6 28734.0 4961.04   8
  -6  -5   7 5186.91 3089.31   2
  -6  -5   8 760.661 1467.55   6
  -6  -5   8 1897.62 3630.59   2
  -6  -5   9 6212.85 4249.89   2
  -6  -5   9 5848.05 2533.82   6
  -6  -5  10 5940.62 2747.71   6
  -6  -5  10-5971.56 4265.76   2
  -6  -5  11 3471.46 2243.16   6
  -6  -5  11 5862.29 4151.54   2
  -6  -4  -7-889.826 3032.19   5
  -6  -4  -7-1948.50 2946.31   8
  -6  -4  -6-3221.42 2897.90   8
  -6  -4  -6-1441.13 2649.80   5
  -6  -4  -5 13179.1 4376.52   5
  -6  -4  -5 13777.4 4349.85   8
  -6  -4  -4 33668.4 5722.79   8
  -6  -4  -4 26441.9 5415.16   5
  -6  -4  -3 33882.6 5775.66   5
  -6  -4  -3 27487.5 5278.96   8
  -6  -4  -2 10598.9 3691.41   5
  -6  -4  -2 13254.4 3577.19   8
  -6  -4  -1-1062.80 2402.69   5
  -6  -4  -1-1432.30 2068.43   8
  -6  -4   0 16411.0 3752.03   8
  -6  -4   0 23199.1 4567.77   5
  -6  -4   1 51776.3 6128.23   8
  -6  -4   1 42726.9 5913.58   5
  -6  -4   2 69476.3 7430.89   7
  -6  -4   2 74090.6 7309.59   5
  -6  -4   2 68827.7 6971.59   8
  -6  -4   2 73791.4 4809.39   2
  -6  -4   3 52731.9 4732.52   2
  -6  -4   3 54086.9 6233.83   8
  -6  -4   4 3162.76 2400.49   8
  -6  -4   4 2841.77 1423.73   2
  -6  -4   5 4923.25 2316.75   2
  -6  -4   5 6145.89 2592.47   8
  -6  -4   5 6418.03 1954.56   9
  -6  -4   6 38288.7 6062.49   2
  -6  -4   6 38921.4 4251.53   9
  -6  -4   7 47686.3 7533.98   2
  -6  -4   7 55951.0 6524.77   6
  -6  -4   8 21424.2 4318.63   6
  -6  -4   8 19846.1 5807.71   2
  -6  -4   9 6030.53 2794.18   6
  -6  -4   9 5543.55 3651.97   2
  -6  -4  10 1821.57 2372.71   6
  -6  -4  10 3480.38 2155.19   2
  -6  -4  11 3594.74 3531.39   2
  -6  -4  11 620.609 1754.35   6
  -6  -4  12 6993.70 4373.93   2
  -6  -4  12 4542.99 3031.62   6
  -6  -3  -7 9770.24 4466.01   5
  -6  -3  -7 14605.4 5086.57   8
  -6  -3  -6 3946.01 3036.45   5
  -6  -3  -6 7982.32 3109.93   8
  -6  -3  -5 2179.87 2153.61   8
  -6  -3  -5 1658.82 2086.09   5
  -6  -3  -4 9996.16 3753.17   5
  -6  -3  -4 8581.46 3002.14   8
  -6  -3  -3 42345.5 5779.68   8
  -6  -3  -3 40269.3 6204.44   5
  -6  -3  -2 44474.8 6265.81   5
  -6  -3  -2 58170.6 6570.23   8
  -6  -3  -1 49775.5 5911.50   8
  -6  -3  -1 48740.9 6391.84   5
  -6  -3   0 30979.2 4970.71   5
  -6  -3   0 25484.0 4282.45   8
  -6  -3   1 2464.74 2296.35   8
  -6  -3   1 8600.66 2956.81   5
  -6  -3   2 6825.49 2621.61   8
  -6  -3   2 4658.30 2360.91   5
  -6  -3   3 87779.8 5821.72   2
  -6  -3   3 83132.1 7335.11   8
  -6  -3   4 107269. 7262.94   2
  -6  -3   4 103506. 8198.02   8
  -6  -3   5 78539.7 7010.24   2
  -6  -3   6 4644.21 2527.13   2
  -6  -3   6 5344.59 2589.38   6
  -6  -3   7 15505.5 4318.40   2
  -6  -3   7 18481.9 2526.37   9
  -6  -3   7 17572.9 3862.20   6
  -6  -3   8 50055.2 6268.80   6
  -6  -3   8 49116.7 7796.91   2
  -6  -3   9 40001.7 5988.57   6
  -6  -3   9 32627.3 6950.86   2
  -6  -3  10 14986.7 4053.64   6
  -6  -3  10 13329.9 5170.35   2
  -6  -3  11 3444.04 3628.83   2
  -6  -3  11-4003.28 2541.43   6
  -6  -3  12 2100.58 3599.96   2
  -6  -3  12-2767.04 2241.41   6
  -6  -3  13 6954.55 4030.95   6
  -6  -3  13 3467.92 3208.20   2
  -6  -2  -8-2787.89 2790.31   8
  -6  -2  -8 7302.12 3825.37   5
  -6  -2  -7 6734.49 3920.75   5
  -6  -2  -7 7400.27 3400.65   8
  -6  -2  -6 21435.9 5085.67   5
  -6  -2  -6 20899.3 4745.56   8
  -6  -2  -5 37199.5 5758.66   8
  -6  -2  -5 38696.3 6538.42   5
  -6  -2  -4 17074.7 4201.69   5
  -6  -2  -4 19783.6 4148.84   8
  -6  -2  -3 380.603 2197.36   8
  -6  -2  -3 1450.15 2015.20   5
  -6  -2  -2 52075.8 5761.21   8
  -6  -2  -2 47625.2 6217.89   5
  -6  -2  -1 109941. 8870.60   5
  -6  -2  -1 119358. 8438.86   8
  -6  -2   0 100476. 8486.56   5
  -6  -2   0 91834.6 7323.18   8
  -6  -2   1 27271.2 4232.19   8
  -6  -2   1 18038.6 3640.50   5
  -6  -2   2-165.310 1526.36   5
  -6  -2   2 1183.98 1593.91   8
  -6  -2   3 30995.9 4563.21   8
  -6  -2   4 76568.2 5950.26   2
  -6  -2   5 87115.3 7007.29   2
  -6  -2   5 89912.8 7873.12   6
  -6  -2   6 76660.8 7332.51   6
  -6  -2   6 81343.6 7695.86   2
  -6  -2   7 9082.89 3300.03   2
  -6  -2   7 17314.3 3693.44   6
  -6  -2   8 1081.32 2760.80   2
  -6  -2   8 586.826 1571.58   6
  -6  -2   9 15053.3 4795.68   2
  -6  -2   9 21221.9 4507.06   6
  -6  -2  10 29021.8 5511.64   6
  -6  -2  10 26594.7 6792.59   2
  -6  -2  11 6557.89 3099.94   6
  -6  -2  11 7114.45 4770.63   2
  -6  -2  12 839.155 3565.03   2
  -6  -2  12 5934.46 3170.34   6
  -6  -2  13 3297.62 3073.99   6
  -6  -2  13 465.288 3168.89   2
  -6  -1  -8 8615.04 3589.36   8
  -6  -1  -8 3478.57 3588.03   5
  -6  -1  -7-7180.60 3527.53   5
  -6  -1  -7-3208.54 2529.82   8
  -6  -1  -6 7888.89 3211.80   5
  -6  -1  -6 5626.07 2819.75   8
  -6  -1  -5 25301.3 5311.16   5
  -6  -1  -5 33589.8 6749.70  10
  -6  -1  -5 28243.1 4802.88   8
  -6  -1  -4 65691.7 9787.57  10
  -6  -1  -4 75281.4 7204.93   8
  -6  -1  -4 56026.1 6964.75   5
  -6  -1  -3 61657.1 7015.22   5
  -6  -1  -3 68461.8 6544.65   8
  -6  -1  -3 65276.4 9996.08  10
  -6  -1  -2 22106.9 3711.21   8
  -6  -1  -2 20832.1 4090.65   5
  -6  -1  -2 21381.3 5901.61  10
  -6  -1  -1 3412.18 2524.93   5
  -6  -1  -1 1903.98 2921.91  10
  -6  -1  -1 5536.30 2216.65   8
  -6  -1   0 85870.4 6863.54   8
  -6  -1   0 80361.1 7182.22   5
  -6  -1   0 81741.5 10703.6  10
  -6  -1   1 141553. 13052.3  10
  -6  -1   1 133346. 8944.84   5
  -6  -1   1 149790. 8888.70   8
  -6  -1   2 91010.2 7263.04   8
  -6  -1   2 90159.8 10080.4  10
  -6  -1   4 19287.6 3762.81   6
  -6  -1   5 26059.8 4430.08   6
  -6  -1   5 28457.3 4058.30   2
  -6  -1   6 51749.1 6132.12   6
  -6  -1   6 50175.6 5844.88   2
  -6  -1   7 42350.7 5750.99   2
  -6  -1   7 34820.0 5187.81   6
  -6  -1   8 11724.9 3353.32   6
  -6  -1   8 12747.7 3942.99   2
  -6  -1   9 210.031 1752.35   6
  -6  -1   9 1649.34 2489.91   2
  -6  -1  10 7622.67 3605.20   2
  -6  -1  10 7510.00 3086.34   6
  -6  -1  11 7579.73 4468.23   2
  -6  -1  11 12214.0 4294.59   6
  -6  -1  12 11375.1 4461.46   6
  -6  -1  12 9196.49 4093.08   2
  -6  -1  13 6837.37 4621.27   2
  -6  -1  13 4679.98 3760.41   6
  -6   0  -9 4750.36 3784.45   5
  -6   0  -8 10557.1 4635.80   5
  -6   0  -8 6889.20 2765.60  10
  -6   0  -8 14659.8 4096.51   8
  -6   0  -7 6493.69 3379.21   5
  -6   0  -7 11002.7 3436.27  10
  -6   0  -7 9911.31 3467.72   8
  -6   0  -6 3360.65 2604.12  10
  -6   0  -6 3596.36 2450.87   8
  -6   0  -6 4349.51 2810.32   5
  -6   0  -5 1861.09 1444.64   8
  -6   0  -5 4804.55 2647.35   5
  -6   0  -4 27985.8 4863.31   5
  -6   0  -4 36055.6 4573.31   8
  -6   0  -4 32863.5 3391.03   4
  -6   0  -4 34285.3 7043.52  10
  -6   0  -3 49214.9 5152.87   8
  -6   0  -3 49567.5 6038.84   5
  -6   0  -3 57053.9 9470.17  10
  -6   0  -3 55776.2 4418.92   4
  -6   0  -2 55647.1 5364.38   8
  -6   0  -2 53930.7 6030.95   5
  -6   0  -2 54894.1 9542.21  10
  -6   0  -1 20416.3 6354.85  10
  -6   0  -1 31840.5 4701.53   5
  -6   0  -1 31190.6 4101.83   8
  -6   0   0 360.330 1300.90   8
  -6   0   0 1920.98 2586.02  10
  -6   0   0 329.924 1420.31   5
  -6   0   1 45795.9 7915.13  10
  -6   0   1 44141.0 4998.35   5
  -6   0   1 52644.6 5185.60   8
  -6   0   2 140762. 12814.9  10
  -6   0   3 160831. 12433.3  10
  -6   0   4 48716.2 6516.28  10
  -6   0   4 45589.9 5504.25   6
  -6   0   5 386.919 1660.75  10
  -6   0   5 2224.75 1583.38   6
  -6   0   6 7189.85 2543.56   6
  -6   0   7 45775.7 5903.65   2
  -6   0   7 40017.0 5617.39   6
  -6   0   8 18792.6 4112.99   6
  -6   0   8 20686.5 4473.80   2
  -6   0   9 15618.1 4498.78   2
  -6   0   9 16571.6 4093.91   6
  -6   0  10 3924.00 2952.58   6
  -6   0  10 8811.44 3633.52   2
  -6   0  11-1068.54 2748.09   2
  -6   0  11-1526.50 2489.30   6
  -6   0  12-2843.85 3542.25   2
  -6   0  12 6727.27 3641.13   6
  -6   0  13 5795.81 4164.32   2
  -6   0  13 13975.4 5485.39   6
  -6   1  -9 3518.64 2569.74  10
  -6   1  -9 77.6045 2646.08   5
  -6   1  -8 3616.48 2556.01  10
  -6   1  -8 2824.72 2878.66   5
  -6   1  -7 26024.3 5676.77   5
  -6   1  -7 20658.2 5249.35  10
  -6   1  -7 20219.7 3864.63   8
  -6   1  -6 28271.0 4296.94   8
  -6   1  -6 27059.8 5104.83   5
  -6   1  -6 23943.2 5456.05  10
  -6   1  -5 17784.8 4980.71  10
  -6   1  -5 20308.7 4350.59   5
  -6   1  -5 21113.4 3579.52   8
  -6   1  -4 3140.95 1685.52   8
  -6   1  -4 2575.21 1192.74   4
  -6   1  -4 4304.23 2202.52   5
  -6   1  -3 542.585 1057.43   4
  -6   1  -3 3750.62 1704.98   8
  -6   1  -3 2224.45 1895.34   5
  -6   1  -2 25519.2 3484.33   8
  -6   1  -2 23119.8 3878.99   5
  -6   1  -2 23465.1 3096.39   4
  -6   1  -2 21560.2 6061.31  10
  -6   1  -1 98833.3 6787.39   8
  -6   1  -1 101938. 6485.50   4
  -6   1  -1 81504.3 12080.6  10
  -6   1  -1 93642.1 7375.45   5
  -6   1   0 108258. 7725.58   5
  -6   1   0 104664. 13327.6  10
  -6   1   1 43562.4 8025.35  10
  -6   1   2 576.273 3529.20  10
  -6   1   3 79393.0 9395.10  10
  -6   1   3 75328.8 6888.72   6
  -6   1   4 169428. 12714.4  10
  -6   1   4 155132. 10006.9   6
  -6   1   5 111513. 8746.74   6
  -6   1   5 121306. 9893.11  10
  -6   1   6 43963.8 5831.72  10
  -6   1   6 43251.4 5711.96   6
  -6   1   7 7775.13 2746.94   6
  -6   1   7 6553.11 2233.78  10
  -6   1   8 35222.7 5535.74   6
  -6   1   9 38968.2 6159.60   6
  -6   1  10 24761.2 5105.95   6
  -6   1  11 14731.1 4347.96   6
  -6   1  11 7657.20 4353.22   2
  -6   1  12-3450.49 3123.84   2
  -6   1  12 1765.52 2577.02   6
  -6   1  13-6883.49 4021.33   6
  -6   1  13-1257.08 3096.42   2
  -6   2  -9 7941.07 3216.59  10
  -6   2  -9 9295.70 3733.52   5
  -6   2  -8-5176.42 3189.33   5
  -6   2  -8 3330.37 2995.56  10
  -6   2  -7 3351.13 2701.40  10
  -6   2  -7 6207.88 3151.44   5
  -6   2  -6 24780.3 4871.28   5
  -6   2  -6 31567.3 6362.06  10
  -6   2  -6 40805.0 4559.48   8
  -6   2  -5 56554.9 6587.99   5
  -6   2  -5 58735.7 5254.09   8
  -6   2  -5 60831.6 8917.66  10
  -6   2  -4 36301.1 7331.30  10
  -6   2  -4 30312.8 4638.83   5
  -6   2  -4 27671.1 3675.16   8
  -6   2  -4 28909.9 4006.05   4
  -6   2  -3 4627.09 1991.65   5
  -6   2  -3 1474.58 1214.40   8
  -6   2  -3-805.257 3185.79  10
  -6   2  -3 1873.70 1225.17   4
  -6   2  -2 4897.04 3847.54  10
  -6   2  -2 4201.76 1916.41   5
  -6   2  -2 5601.89 1842.58   4
  -6   2  -1 44339.6 4989.23   5
  -6   2  -1 54526.1 5102.69   4
  -6   2  -1 52821.3 10563.2  10
  -6   2   0 101283. 7096.42   5
  -6   2   0 97561.4 13528.4  10
  -6   2   0 104203. 7067.38   4
  -6   2   1 89826.4 12700.4  10
  -6   2   2 77327.7 10923.1  10
  -6   2   3 6272.02 2540.28   6
  -6   2   3 7102.77 4008.88  10
  -6   2   4 26639.1 5683.34  10
  -6   2   4 21675.0 3915.69   6
  -6   2   5 96841.9 9613.52  10
  -6   2   5 98770.8 8171.51   6
  -6   2   6 106503. 8840.80   6
  -6   2   6 98520.8 8826.07  10
  -6   2   7 29232.2 4872.90   6
  -6   2   7 32345.3 4855.57  10
  -6   2   8-1023.89 1375.77  10
  -6   2   8 2517.52 2318.01   6
  -6   2   9 3050.32 1813.51  10
  -6   2   9 8840.52 3379.63   6
  -6   2  10 15582.0 4389.66   6
  -6   2  11 13821.4 4605.08   6
  -6   2  12 365.744 2856.26   6
  -6   2  13 4174.00 2969.31   6
  -6   3  -9 8858.30 3790.42  10
  -6   3  -9 4618.29 2949.73   5
  -6   3  -8 16639.1 4535.40  10
  -6   3  -8 15893.4 4394.41   5
  -6   3  -7 12275.3 4433.07  10
  -6   3  -7 14561.6 3968.26   5
  -6   3  -6 1096.62 2627.51  10
  -6   3  -6 3176.20 2319.79   5
  -6   3  -5 13676.0 3047.70   5
  -6   3  -5 8495.45 4003.96  10
  -6   3  -4 86757.2 11064.0  10
  -6   3  -4 64197.4 6245.74   5
  -6   3  -3 81113.5 11512.3  10
  -6   3  -3 78981.8 6705.26   5
  -6   3  -2 60067.5 10738.8  10
  -6   3  -2 41739.8 4788.38   5
  -6   3  -1-1178.70 1578.40   5
  -6   3  -1-1599.97 3316.42  10
  -6   3   0 36420.5 4000.27   1
  -6   3   0 39643.8 9427.05  10
  -6   3   1 43332.7 9642.62  10
  -6   3   2 59250.6 10809.3  10
  -6   3   3 54517.8 9584.43  10
  -6   3   3 49814.4 5738.20   6
  -6   3   4 17960.3 5017.35  10
  -6   3   4 10680.6 2978.54   6
  -6   3   5 27.7111 2919.02  10
  -6   3   5 594.593 1730.98   6
  -6   3   6 27176.2 5163.99  10
  -6   3   6 43966.6 5807.60   6
  -6   3   7 76140.6 7826.17   6
  -6   3   7 78742.4 7954.57  10
  -6   3   8 39855.3 5159.54  10
  -6   3   8 34670.3 5636.53   6
  -6   3   9 8165.81 2316.95  10
  -6   3   9 7055.09 2971.72   6
  -6   3  10-994.120 2259.49   6
  -6   3  11 5949.94 3225.22   6
  -6   3  12 1228.95 3154.60   6
  -6   4  -8 12492.8 3865.06   5
  -6   4  -8 7015.30 3831.38  10
  -6   4  -7 11034.9 4269.91  10
  -6   4  -7 17289.8 3987.40   5
  -6   4  -6 5709.75 2447.21   5
  -6   4  -6 8906.53 4136.29  10
  -6   4  -5 4605.75 3276.60  10
  -6   4  -5 2461.31 1657.26   5
  -6   4  -4 3161.60 2078.40   5
  -6   4  -4 1238.06 2347.53  10
  -6   4  -3 37984.3 4424.16   5
  -6   4  -3 31771.3 7618.03  10
  -6   4  -2 117358. 14990.5  10
  -6   4  -2 94064.3 6495.37   5
  -6   4  -1 111281. 15769.0  10
  -6   4  -1 107956. 6903.64   1
  -6   4   0 22912.3 7921.69  10
  -6   4   0 18938.3 2871.04   1
  -6   4   1-7380.66 4611.51  10
  -6   4   2 36270.4 9349.68  10
  -6   4   3 65915.9 11732.4  10
  -6   4   3 60140.8 6249.89   6
  -6   4   4 36029.8 7881.64  10
  -6   4   4 36689.6 5115.52   6
  -6   4   5 15796.4 3658.48   6
  -6   4   5 14140.4 4472.14  10
  -6   4   6 2327.92 2348.10   6
  -6   4   6 7105.44 3527.46  10
  -6   4   7 477.060 1847.80   6
  -6   4   7 6129.06 2744.54  10
  -6   4   8 17512.7 4010.76  10
  -6   4   8 11255.9 3547.98   6
  -6   4   9 11940.2 3803.42   6
  -6   4   9 14447.0 3214.06  10
  -6   4  10 17063.2 4736.02   6
  -6   4  11 2510.72 2970.23   6
  -6   4  12 596.477 2694.62   6
  -6   5  -8-5012.84 3092.78  10
  -6   5  -7 5722.17 3265.09  10
  -6   5  -6 13177.2 2992.77   5
  -6   5  -6 6708.28 4177.96  10
  -6   5  -5 24918.1 3769.17   5
  -6   5  -5 24367.0 6536.37  10
  -6   5  -4 27767.4 6955.09  10
  -6   5  -4 22907.3 3459.52   5
  -6   5  -3 3117.25 3518.61  10
  -6   5  -2 4616.94 4112.08  10
  -6   5  -1 72900.8 5556.57   1
  -6   5  -1 68843.4 12851.3  10
  -6   5   0 94784.5 5955.68   1
  -6   5   0 63244.9 13281.9  10
  -6   5   1 50815.2 12811.7  10
  -6   5   2 4282.24 4396.90  10
  -6   5   3 13716.8 3316.84   6
  -6   5   3 5550.63 5660.82  10
  -6   5   4 83096.3 13081.9  10
  -6   5   4 72181.8 7058.93   6
  -6   5   5 86613.9 12062.3  10
  -6   5   5 84974.7 7870.77   6
  -6   5   6 36000.1 7107.96  10
  -6   5   6 50722.0 6452.63   6
  -6   5   7 14982.1 3890.49   6
  -6   5   7 7240.43 3244.75  10
  -6   5   8-639.526 1779.89  10
  -6   5   8 3481.89 2594.28   6
  -6   5   9 5492.36 2974.30   6
  -6   5   9 4156.64 2657.86  10
  -6   5  10 13660.1 4370.13   6
  -6   5  11 10179.1 4218.30   6
  -6   6  -7 2607.94 2749.08  10
  -6   6  -6-2564.13 3303.48  10
  -6   6  -5 14828.1 5846.20  10
  -6   6  -4 36375.5 8739.96  10
  -6   6  -3 23863.1 7338.28  10
  -6   6  -2 21689.7 7230.84  10
  -6   6  -1-3673.62 3584.03  10
  -6   6  -1 35.2463 871.643   1
  -6   6   0 23494.4 9132.13  10
  -6   6   0 24613.9 2978.92   1
  -6   6   1 56854.4 14635.8  10
  -6   6   2 54354.2 13980.3  10
  -6   6   3 23249.6 8398.55  10
  -6   6   3 22138.8 3969.26   6
  -6   6   4 885.820 1474.82   6
  -6   6   4 423.497 2520.84  10
  -6   6   5 14133.9 6100.59  10
  -6   6   5 20519.8 4138.84   6
  -6   6   6 25127.4 6715.57  10
  -6   6   6 34582.5 5345.95   6
  -6   6   7 19297.9 4348.20   6
  -6   6   7 30278.5 6546.35  10
  -6   6   8 3850.11 2548.73  10
  -6   6   8 8667.69 3153.24   6
  -6   6   9-475.475 2471.63   6
  -6   6  10 4358.54 3220.57   6
  -6   7  -6 7231.51 4287.28  10
  -6   7  -5 5320.41 4350.82  10
  -6   7  -4 15415.3 5936.08  10
  -6   7  -3 21500.9 7206.06  10
  -6   7  -2 7200.26 4805.64  10
  -6   7  -1 3428.50 3938.22  10
  -6   7   0-8901.45 5608.93  10
  -6   7   1-3046.46 3322.40  10
  -6   7   2 8679.44 7561.12  10
  -6   7   3 62157.2 14339.0  10
  -6   7   3 66812.9 6708.88   6
  -6   7   4 34302.5 5120.11   6
  -6   7   4 29995.5 9431.40  10
  -6   7   5 4928.59 3682.63  10
  -6   7   5 5188.71 2591.01   6
  -6   7   6 4756.05 4484.77  10
  -6   7   6-1050.28 2293.25   6
  -6   7   7 7208.90 4066.59  10
  -6   7   7 9244.16 3490.76   6
  -6   7   8 6285.95 3450.49  10
  -6   7   8 13520.8 3950.53   6
  -6   7   9 4291.49 2895.04   6
  -6   8  -5 8222.90 4652.26  10
  -6   8  -4-287.214 3498.65  10
  -6   8  -3-8186.58 5440.64  10
  -6   8  -2 12799.8 5930.16  10
  -6   8  -1 13071.6 6721.06  10
  -6   8   0 1954.55 4063.26  10
  -6   8   1 8846.15 5787.71  10
  -6   8   2-3677.26 5111.50  10
  -6   8   3 5945.92 2416.65   6
  -6   8   3 7718.64 5531.29  10
  -6   8   4 14769.5 3759.71   6
  -6   8   4 11731.1 6097.19  10
  -6   8   5 8873.19 5137.39  10
  -6   8   5 21708.3 4315.43   6
  -6   8   6 4393.05 3437.90  10
  -6   8   6 11050.0 3520.41   6
  -6   8   7 2326.34 2726.80   6
  -6   8   7-2349.24 2762.96  10
  -6   9  -2-8303.85 4597.23  10
  -6   9  -1 9434.21 5470.10  10
  -6   9   0 24174.7 9034.09  10
  -6   9   1 36959.9 12204.4  10
  -6   9   2 18665.3 8321.88  10
  -6   9   3-2625.80 3768.46  10
  -6   9   4 4031.50 4645.55  10
  -6   9   5 5848.05 2539.96   6
  -6   9   5-5890.42 4148.63  10
  -5  -9   0 18369.8 4935.60   8
  -5  -9   0 18863.3 4625.89   5
  -5  -9   1 19452.2 4538.82   5
  -5  -9   1 11169.9 3920.78   8
  -5  -9   2 9300.27 3417.38   8
  -5  -9   3 254.258 2229.77   8
  -5  -9   4 4267.84 3052.07   8
  -5  -9   5 16176.7 4292.74   8
  -5  -9   5 13627.8 6027.61   2
  -5  -9   6-1380.86 3496.34   2
  -5  -9   6 10753.6 3738.54   8
  -5  -8  -3 9346.81 3930.32   8
  -5  -8  -3 8552.54 3649.22   5
  -5  -8  -2 6600.40 3344.16   8
  -5  -8  -2-695.629 2173.60   5
  -5  -8  -1-1800.76 2154.00   5
  -5  -8  -1-282.326 2528.91   8
  -5  -8   0 1136.32 2557.80   8
  -5  -8   0 2233.65 2425.57   5
  -5  -8   1 8210.66 3585.22   8
  -5  -8   1 4071.11 2535.31   5
  -5  -8   2 23951.2 4809.66   8
  -5  -8   2 22326.8 4461.29   5
  -5  -8   3 22217.4 6182.16   2
  -5  -8   3 40852.8 6144.71   8
  -5  -8   4 15518.6 3952.48   8
  -5  -8   4 482.472 3019.51   2
  -5  -8   5 329.363 2145.13   8
  -5  -8   5-6353.64 4562.45   2
  -5  -8   6-126.100 1913.56   8
  -5  -8   6-1384.44 5200.73   2
  -5  -8   7 13827.8 6637.65   2
  -5  -8   7 18822.3 4382.38   8
  -5  -8   8 36950.1 8150.73   2
  -5  -8   9 13949.1 5144.98   2
  -5  -7  -5-672.885 2585.65   5
  -5  -7  -5 223.188 2360.40   8
  -5  -7  -4 2490.94 2590.15   5
  -5  -7  -4 983.375 2461.22   8
  -5  -7  -3 9840.72 3583.49   8
  -5  -7  -3 10169.4 3949.64   5
  -5  -7  -2 21913.1 4831.83   8
  -5  -7  -2 21858.0 4868.44   5
  -5  -7  -1 29379.8 5232.25   5
  -5  -7  -1 36494.9 5811.31   8
  -5  -7   0 18517.9 4227.36   8
  -5  -7   0 16131.8 4120.63   5
  -5  -7   1 1977.38 1960.82   5
  -5  -7   1 452.507 2386.89   8
  -5  -7   1-816.205 1311.65   2
  -5  -7   2 6988.17 2739.28   8
  -5  -7   2 2045.22 2298.22   2
  -5  -7   3 25993.5 5746.38   2
  -5  -7   3 25992.2 4726.08   8
  -5  -7   4 28733.4 7414.30   2
  -5  -7   4 41003.9 5682.19   8
  -5  -7   5 24834.1 7387.03   2
  -5  -7   5 18491.7 4001.80   8
  -5  -7   6 15071.1 5631.22   2
  -5  -7   6 4090.54 2516.18   8
  -5  -7   7 10481.7 4669.65   2
  -5  -7   7 2256.39 2434.50   8
  -5  -7   8 23077.0 6558.57   2
  -5  -7   9 31936.7 7211.99   2
  -5  -7  10 21936.4 6101.91   2
  -5  -7  11-1018.13 2474.41   2
  -5  -6  -6 18283.6 5685.21   5
  -5  -6  -6 11726.4 4458.66   8
  -5  -6  -5 24376.7 6015.90   8
  -5  -6  -5 25582.6 5724.36   5
  -5  -6  -4 19629.0 4765.20   5
  -5  -6  -4 21437.6 4910.48   8
  -5  -6  -3 2259.62 2216.39   5
  -5  -6  -3-1461.40 2258.20   8
  -5  -6  -2 21634.2 4522.60   8
  -5  -6  -2 18382.1 4305.80   5
  -5  -6  -1 54749.1 6593.79   8
  -5  -6  -1 58680.4 7078.97   5
  -5  -6   0 84679.5 4484.50   2
  -5  -6   0 89333.2 8169.66   8
  -5  -6   0 89762.9 8438.63   5
  -5  -6   1 42321.8 5721.87   8
  -5  -6   1 43007.6 5765.82   5
  -5  -6   1 41935.1 5181.52   7
  -5  -6   1 44836.3 4374.57   2
  -5  -6   2 11612.0 3285.66   8
  -5  -6   2 5161.58 2155.87   2
  -5  -6   2 10891.5 3380.19   5
  -5  -6   2 10123.7 2989.09   7
  -5  -6   3 1143.51 2095.30   8
  -5  -6   3 4815.51 2395.58   7
  -5  -6   3 196.547 1906.44   2
  -5  -6   3-2214.24 1697.67   3
  -5  -6   4 24184.5 5526.65   2
  -5  -6   4 32106.7 4511.45   3
  -5  -6   4 32754.7 5533.31   7
  -5  -6   4 24847.6 4296.91   8
  -5  -6   5 41006.6 8302.29   2
  -5  -6   5 47798.0 5361.54   3
  -5  -6   5 58956.2 6524.19   8
  -5  -6   6 52131.6 9829.21   2
  -5  -6   6 42448.8 5601.41   8
  -5  -6   7 17524.1 6117.06   2
  -5  -6   8-989.980 2898.72   2
  -5  -6   9 6854.44 2456.13   6
  -5  -6   9 11798.8 4628.66   2
  -5  -6  10 14959.0 3598.78   6
  -5  -6  10 15015.7 5188.90   2
  -5  -6  11 3829.85 3580.08   2
  -5  -6  11 11794.9 3448.89   6
  -5  -6  12 6975.26 4417.44   2
  -5  -6  12 1138.44 1635.96   6
  -5  -5  -7 2993.18 2657.42   5
  -5  -5  -7 8148.00 3943.18   8
  -5  -5  -6 2127.46 2645.01   5
  -5  -5  -6-5356.88 3375.69   8
  -5  -5  -5 23177.4 5296.89   5
  -5  -5  -5 18341.2 4752.49   8
  -5  -5  -4 46019.6 6552.96   8
  -5  -5  -4 46656.3 6910.18   5
  -5  -5  -3 49890.2 6425.91   8
  -5  -5  -3 65723.8 7707.22   5
  -5  -5  -2 15666.6 4124.16   5
  -5  -5  -2 15629.6 3795.80   8
  -5  -5  -1 1825.12 1944.12   5
  -5  -5  -1 2615.34 1107.45   7
  -5  -5  -1-50.5328 1848.15   8
  -5  -5   0 77932.5 7308.60   8
  -5  -5   0 65428.9 3320.99   2
  -5  -5   0 69249.7 5903.09   7
  -5  -5   0 78434.6 7582.22   5
  -5  -5   1 88824.0 7937.00   5
  -5  -5   1 90677.5 7685.95   8
  -5  -5   1 98719.3 9133.13   3
  -5  -5   1 94805.9 5407.30   2
  -5  -5   1 98517.1 7754.04   7
  -5  -5   2 42140.9 5332.99   8
  -5  -5   2 50734.4 6217.06   3
  -5  -5   2 46728.9 5747.18   7
  -5  -5   2 46021.4 5495.87   5
  -5  -5   2 54274.2 5145.27   2
  -5  -5   3 6029.14 2219.35   3
  -5  -5   3 3062.97 1661.45   9
  -5  -5   3 2346.47 1507.66   2
  -5  -5   3 4234.38 1949.89   7
  -5  -5   3 6279.70 2606.32   8
  -5  -5   4 9217.40 2293.49   9
  -5  -5   4 12023.5 3544.06   7
  -5  -5   4 10763.6 3691.65   2
  -5  -5   4 5204.55 1988.56   3
  -5  -5   4 9765.09 2972.83   8
  -5  -5   5 22719.5 3416.79   9
  -5  -5   5 24637.7 5500.00   7
  -5  -5   5 24820.7 3733.19   3
  -5  -5   5 23596.9 5803.98   2
  -5  -5   5 30146.7 4613.99   8
  -5  -5   6 28258.1 3706.85   9
  -5  -5   6 23759.5 6552.46   2
  -5  -5   6 30823.9 3863.63   3
  -5  -5   6 27056.9 4352.23   8
  -5  -5   7 29607.2 4333.76   6
  -5  -5   7 36598.3 7850.67   2
  -5  -5   7 27645.8 3691.88   9
  -5  -5   8 13673.6 3368.12   6
  -5  -5   8 16919.7 5607.07   2
  -5  -5   8 15226.2 2806.81   9
  -5  -5   9-2082.43 1650.21   6
  -5  -5   9 8808.06 3646.60   2
  -5  -5  10 980.174 2793.42   2
  -5  -5  10-998.452 1528.61   6
  -5  -5  11 2058.27 1933.97   6
  -5  -5  11 4160.79 3199.79   2
  -5  -5  12 2356.31 2253.46   6
  -5  -5  12 11521.2 4382.54   2
  -5  -5  13 4777.96 3392.61   6
  -5  -5  13 2433.06 2971.95   2
  -5  -4  -8 5239.92 2698.86   8
  -5  -4  -8 17845.3 6503.37   5
  -5  -4  -7 15151.7 5155.44   5
  -5  -4  -7 17914.3 5179.15   8
  -5  -4  -6 4075.87 2426.34   8
  -5  -4  -6 2612.57 2318.22   5
  -5  -4  -5-1129.75 2091.62   8
  -5  -4  -5-836.948 2616.86   5
  -5  -4  -4 17257.2 4055.24   8
  -5  -4  -4 16883.9 4032.50   5
  -5  -4  -3 41039.3 2668.44   7
  -5  -4  -3 41809.2 2699.63   7
  -5  -4  -3 46232.7 6313.64   5
  -5  -4  -3 48739.5 6038.48   8
  -5  -4  -2 57546.5 6588.20   5
  -5  -4  -2 62869.6 4057.30   7
  -5  -4  -2 55702.8 6235.06   8
  -5  -4  -1 64457.1 6704.31   5
  -5  -4  -1 59577.4 6129.67   8
  -5  -4  -1 51942.0 4493.70   7
  -5  -4   0 21870.7 4913.60   3
  -5  -4   0 24425.9 4230.27   5
  -5  -4   0 22857.8 3561.66   7
  -5  -4   0 24271.4 4020.48   8
  -5  -4   0 21961.0 1730.46   2
  -5  -4   1 5137.45 1304.44   2
  -5  -4   1 5659.77 2407.76   3
  -5  -4   1 5091.00 2197.34   8
  -5  -4   1 3925.61 1880.81   7
  -5  -4   1 4177.59 2094.64   5
  -5  -4   2 60087.7 6035.18   5
  -5  -4   2 55429.5 5652.63   8
  -5  -4   2 57716.6 4642.93   2
  -5  -4   2 68361.5 8068.94   7
  -5  -4   2 58091.6 5434.51   9
  -5  -4   2 70253.4 7628.10   3
  -5  -4   3 163579. 8614.83   9
  -5  -4   3 189065. 14741.2   7
  -5  -4   3 155456. 9366.90   8
  -5  -4   3 171635. 9454.54   2
  -5  -4   3 172266. 11096.2   3
  -5  -4   4 117014. 9186.35   2
  -5  -4   4 94975.0 7396.07   8
  -5  -4   4 116182. 12248.3   7
  -5  -4   4 91226.1 6182.42   9
  -5  -4   4 100946. 8054.84   3
  -5  -4   5 19341.6 3636.22   8
  -5  -4   5 14482.5 4314.86   7
  -5  -4   5 20239.8 2905.41   9
  -5  -4   5 21743.2 3485.84   3
  -5  -4   5 22702.2 4730.18   2
  -5  -4   6-953.088 1030.23   3
  -5  -4   6 1273.47 1430.54   6
  -5  -4   6 215.104 727.876   9
  -5  -4   7 17704.0 2494.56   3
  -5  -4   7 17216.0 2616.77   9
  -5  -4   7 10970.7 3992.78   2
  -5  -4   7 20275.4 3648.23   6
  -5  -4   8 22126.3 6540.70   2
  -5  -4   8 26928.2 3214.12   9
  -5  -4   8 25620.7 4221.53   6
  -5  -4   9 22695.8 6322.16   2
  -5  -4   9 25025.2 4369.40   6
  -5  -4  10 16456.5 4159.94   6
  -5  -4  10 6636.36 3524.77   2
  -5  -4  11 72.3797 2055.39   2
  -5  -4  11 2497.75 1896.17   6
  -5  -4  12-6131.72 3590.58   2
  -5  -4  12 4450.80 2668.32   6
  -5  -4  13 8305.50 4172.62   2
  -5  -4  13 16469.7 4870.49   6
  -5  -3  -9-4565.95 3674.80   8
  -5  -3  -9 688.219 4944.42   5
  -5  -3  -8 2524.98 3780.82   5
  -5  -3  -8-11961.9 4475.13   8
  -5  -3  -7 12769.5 4297.32   8
  -5  -3  -7 13891.3 4509.44   5
  -5  -3  -6 31637.7 5678.07   8
  -5  -3  -6 34906.3 6325.36   5
  -5  -3  -5 38520.5 6084.75   5
  -5  -3  -5 32155.8 5195.98   8
  -5  -3  -4 10102.4 2974.60   8
  -5  -3  -4 7933.17 2832.67   5
  -5  -3  -3 5608.93 2376.66   8
  -5  -3  -3 3808.92 2345.46   5
  -5  -3  -2 41203.2 5003.28   8
  -5  -3  -2 40065.2 5322.38   5
  -5  -3  -1 73241.1 6370.60   8
  -5  -3  -1 73810.3 7001.38   5
  -5  -3   0 83707.3 10354.1   3
  -5  -3   0 93325.1 7088.72   8
  -5  -3   0 89620.7 4974.15   7
  -5  -3   0 89410.7 7513.37   5
  -5  -3   1 33317.8 4324.70   8
  -5  -3   1 36456.0 4609.12   7
  -5  -3   1 35654.4 2782.29   2
  -5  -3   1 32462.0 4512.52   5
  -5  -3   1 26960.1 5847.06   3
  -5  -3   2 3405.38 2069.41   8
  -5  -3   2-1905.81 2163.43   3
  -5  -3   2 4378.93 2196.58   5
  -5  -3   2-2532.87 1911.47   7
  -5  -3   2 2225.72 1211.60   2
  -5  -3   3 29472.3 5519.05   3
  -5  -3   3 36559.6 3878.91   9
  -5  -3   3 42159.1 7019.20   7
  -5  -3   3 45933.2 5002.25   8
  -5  -3   3 40140.4 4156.70   2
  -5  -3   4 158105. 11532.0   3
  -5  -3   4 162746. 7558.74   9
  -5  -3   4 182788. 16208.9   7
  -5  -3   4 177931. 9827.39   8
  -5  -3   4 180888. 10092.4   2
  -5  -3   5 179400. 7484.32   9
  -5  -3   5 201113. 12174.6   2
  -5  -3   5 181877. 10031.1   8
  -5  -3   5 188014. 10143.6   6
  -5  -3   5 177261. 16079.0   7
  -5  -3   6 108344. 9983.00   2
  -5  -3   6 101595. 11988.0   7
  -5  -3   6 94467.1 7494.15   6
  -5  -3   6 100022. 5298.66   9
  -5  -3   7 1280.69 1748.46   6
  -5  -3   7 2046.52 2190.78   2
  -5  -3   7 4705.04 1253.50   9
  -5  -3   8 14909.6 4802.75   2
  -5  -3   8 20563.7 3886.58   6
  -5  -3   8 21037.9 2441.67   9
  -5  -3   9 36366.3 7832.09   2
  -5  -3   9 37149.9 5451.18   6
  -5  -3   9 45191.0 3611.40   9
  -5  -3  10 41249.9 8358.14   2
  -5  -3  10 30525.1 5195.33   6
  -5  -3  11 10975.1 3732.18   6
  -5  -3  11 7356.16 3771.68   2
  -5  -3  12 2490.66 2964.73   6
  -5  -3  12-395.038 2330.04   2
  -5  -3  13-1676.82 2525.23   2
  -5  -3  13 5333.37 3561.04   6
  -5  -3  14 7375.42 3707.15   6
  -5  -3  14 3991.14 3326.38   2
  -5  -2 -10-3705.59 3270.83   8
  -5  -2 -10 4615.78 4538.19   5
  -5  -2  -9 7754.87 3736.28   8
  -5  -2  -9 8181.90 3247.46   5
  -5  -2  -8 9567.65 3978.95   8
  -5  -2  -8 6136.33 3939.65   5
  -5  -2  -7 574.589 2782.44   5
  -5  -2  -7-666.235 2161.98   8
  -5  -2  -6 25607.7 4817.45   8
  -5  -2  -6 32299.5 5908.47   5
  -5  -2  -5 77184.1 7374.79   8
  -5  -2  -5 91234.8 8873.58   5
  -5  -2  -4 114657. 8362.75   8
  -5  -2  -4 108621. 9070.00   5
  -5  -2  -3 43341.2 5006.37   8
  -5  -2  -3 45224.6 5674.27   5
  -5  -2  -2 1864.57 1775.59   5
  -5  -2  -2-18.9014 1278.88   8
  -5  -2  -1 44074.9 4755.78   8
  -5  -2  -1 38424.8 4936.74   5
  -5  -2   0 146885. 8390.56   8
  -5  -2   0 141008. 8877.62   5
  -5  -2   1 191953. 10133.7   5
  -5  -2   1 190551. 9435.75   8
  -5  -2   2 116423. 5698.93   2
  -5  -2   2 117686. 7568.34   8
  -5  -2   2 107696. 7444.43   5
  -5  -2   3 44121.7 4074.55   2
  -5  -2   3 35984.5 4364.23   8
  -5  -2   4 8839.05 2385.70   8
  -5  -2   4 9673.53 2630.77   6
  -5  -2   4 7782.35 2251.44   2
  -5  -2   5 82383.0 7117.50   2
  -5  -2   5 76940.6 6538.96   6
  -5  -2   5 86482.9 4641.17   9
  -5  -2   6 155694. 5581.12   9
  -5  -2   6 152686. 11022.1   2
  -5  -2   6 149022. 9254.44   6
  -5  -2   7 91335.8 3969.06   9
  -5  -2   7 90126.4 7497.78   6
  -5  -2   7 85849.5 9411.68   2
  -5  -2   8 12557.7 1480.51   9
  -5  -2   8 8361.17 4080.92   2
  -5  -2   8 14138.9 3290.98   6
  -5  -2   9 2850.27 858.093   9
  -5  -2   9 6699.83 2934.25   6
  -5  -2   9 1961.05 2901.58   2
  -5  -2  10 24089.9 4976.80   6
  -5  -2  10 24418.2 6439.66   2
  -5  -2  11 41905.7 8594.19   2
  -5  -2  11 43292.7 6652.42   6
  -5  -2  12 15572.6 5027.45   2
  -5  -2  12 13155.8 4358.41   6
  -5  -2  13 2614.09 2882.34   2
  -5  -2  13 224.344 3296.89   6
  -5  -2  14 3977.26 3015.59   2
  -5  -2  14-1457.34 2630.31   6
  -5  -1 -10-2842.46 2582.25   8
  -5  -1 -10 769.360 3468.06   5
  -5  -1  -9 3999.45 4421.49   5
  -5  -1  -9 12736.3 4061.98   8
  -5  -1  -8 30513.4 6930.79   5
  -5  -1  -8 28637.0 5221.00   8
  -5  -1  -7 25036.1 4844.70   8
  -5  -1  -7 22142.8 5352.94   5
  -5  -1  -6 5141.93 2463.56   8
  -5  -1  -6 3174.19 1994.47   5
  -5  -1  -6 4998.27 2991.86  10
  -5  -1  -5 8737.75 3095.48   5
  -5  -1  -5 7863.22 3229.00  10
  -5  -1  -5 11987.3 2867.02   8
  -5  -1  -5 8309.77 1373.98   4
  -5  -1  -4 90997.3 8147.71   5
  -5  -1  -4 93443.0 4137.39   4
  -5  -1  -4 103744. 11129.5  10
  -5  -1  -4 96268.6 7204.57   8
  -5  -1  -3 154264. 9877.25   5
  -5  -1  -3 155170. 8767.44   8
  -5  -1  -3 151130. 13769.4  10
  -5  -1  -2 71259.0 6466.72   5
  -5  -1  -2 63403.5 9194.36  10
  -5  -1  -2 74783.1 5862.14   8
  -5  -1  -1-140.377 1607.18   5
  -5  -1  -1 557.398 2617.34  10
  -5  -1  -1 101.884 1218.67   8
  -5  -1   0 61269.1 5764.06   5
  -5  -1   0 54806.3 7675.54  10
  -5  -1   0 51890.2 4753.71   8
  -5  -1   1 119542. 7286.68   8
  -5  -1   1 135492. 11268.1  10
  -5  -1   1 109704. 7430.73   5
  -5  -1   2 128042. 10497.2  10
  -5  -1   2 114449. 7311.18   5
  -5  -1   2 112431. 7050.01   8
  -5  -1   3 117025. 7788.30   6
  -5  -1   3 124722. 6594.29   2
  -5  -1   3 115704. 7344.37   8
  -5  -1   4 51054.2 5237.14   6
  -5  -1   4 55812.1 5003.67   2
  -5  -1   5 1535.25 1336.42   6
  -5  -1   5 5763.56 2082.82   2
  -5  -1   6 10540.8 2832.82   6
  -5  -1   6 10758.6 3031.41   2
  -5  -1   7 52629.4 6692.83   2
  -5  -1   7 54214.9 6017.09   6
  -5  -1   8 50262.8 7312.27   2
  -5  -1   8 52052.8 6190.17   6
  -5  -1   9 40498.8 5691.83   6
  -5  -1   9 23661.6 5563.92   2
  -5  -1  10 9135.27 3490.48   6
  -5  -1  10 3373.04 2573.44   2
  -5  -1  10 4219.35 964.680   9
  -5  -1  11-4533.49 3486.29   2
  -5  -1  11 4242.20 2895.06   6
  -5  -1  12 8091.48 4768.33   2
  -5  -1  12 5467.85 3771.27   6
  -5  -1  13 7706.41 4534.72   2
  -5  -1  13 3479.56 3041.86   6
  -5  -1  14 455.320 3390.68   6
  -5  -1  14 6155.50 4064.43   2
  -5   0  -9 2743.91 2179.55  10
  -5   0  -9 3981.32 2478.12   8
  -5   0  -8 20751.9 5679.33   5
  -5   0  -8 12120.3 3377.26  10
  -5   0  -8 20265.4 4284.15   8
  -5   0  -7 33208.9 5700.67  10
  -5   0  -7 41160.0 6935.40   5
  -5   0  -7 35576.2 5050.48   8
  -5   0  -6 33190.1 4469.08   8
  -5   0  -6 29709.7 5590.28  10
  -5   0  -6 35102.1 5630.93   5
  -5   0  -6 31078.6 1911.67   7
  -5   0  -6 33532.4 3583.42   4
  -5   0  -5 40156.2 4731.58   8
  -5   0  -5 36920.2 3396.54   4
  -5   0  -5 42664.0 6913.15  10
  -5   0  -5 38128.8 5417.28   5
  -5   0  -4 874.678 869.530   4
  -5   0  -4 579.673 1356.35   8
  -5   0  -4 1748.42 1388.15   5
  -5   0  -4-1617.47 2370.61  10
  -5   0  -3 39432.8 3237.48   4
  -5   0  -3 34158.2 4625.68   5
  -5   0  -3 36028.3 3965.91   8
  -5   0  -3 45718.0 7789.81  10
  -5   0  -2 173814. 15197.8  10
  -5   0  -2 174181. 9666.00   5
  -5   0  -2 169200. 8214.92   8
  -5   0  -2 173806. 6787.05   4
  -5   0  -1 255812. 10398.4   1
  -5   0  -1 238332. 9544.79   8
  -5   0  -1 238443. 10908.8   5
  -5   0   0 92679.0 6026.02   8
  -5   0   0 106083. 7092.55   5
  -5   0   0 94224.0 10659.7  10
  -5   0   1 1507.89 1300.06   8
  -5   0   1-1496.78 2236.59  10
  -5   0   1 2137.19 1289.40   5
  -5   0   2 24775.4 5019.68  10
  -5   0   3 107389. 9062.05  10
  -5   0   3 92557.9 6869.72   6
  -5   0   4 125000. 9092.56  10
  -5   0   4 127582. 8177.49   6
  -5   0   5 56792.5 5442.50   2
  -5   0   5 52663.9 5456.80   6
  -5   0   5 53704.9 5628.00  10
  -5   0   6 35111.1 4701.54   2
  -5   0   6 34238.2 4653.29   6
  -5   0   7 1691.99 1744.73   6
  -5   0   7 505.182 1739.61   2
  -5   0   8 28817.0 4753.96   6
  -5   0   8 25278.6 5117.80   2
  -5   0   9 71320.2 8779.80   2
  -5   0   9 75108.0 7798.21   6
  -5   0  10 56745.3 8528.20   2
  -5   0  10 63198.2 7766.27   6
  -5   0  11 26274.3 5612.25   6
  -5   0  11 17300.5 5433.97   2
  -5   0  12-1767.20 4007.28   2
  -5   0  12-3665.24 3040.85   6
  -5   0  13 6346.67 3994.92   6
  -5   0  13 734.859 3123.67   2
  -5   0  14 3925.34 3149.70   2
  -5   0  14 8463.51 5466.96   6
  -5   1 -10 9046.72 3038.90  10
  -5   1  -9 6397.80 2639.97  10
  -5   1  -9 7302.76 3949.64   5
  -5   1  -9 6584.15 2575.99   8
  -5   1  -8 265.626 1954.67  10
  -5   1  -8-2004.24 1654.90   8
  -5   1  -7 11514.1 2039.64   7
  -5   1  -7 14846.2 3025.35   8
  -5   1  -7 11327.3 3720.65   5
  -5   1  -7 9333.15 3396.03  10
  -5   1  -7 11874.6 2825.13   4
  -5   1  -6 26874.6 5464.25  10
  -5   1  -6 24258.2 3498.93   4
  -5   1  -6 23007.6 3469.87   8
  -5   1  -6 24249.2 4496.22   5
  -5   1  -6 29483.6 2495.58   7
  -5   1  -5 58413.0 8132.38  10
  -5   1  -5 68469.6 5250.61   4
  -5   1  -5 66963.3 6808.29   5
  -5   1  -5 69337.7 5550.73   8
  -5   1  -4 55315.9 8129.79  10
  -5   1  -4 61067.4 4730.73   4
  -5   1  -4 64055.9 5034.88   8
  -5   1  -4 60294.1 6048.97   5
  -5   1  -3 16260.8 2381.72   4
  -5   1  -3 14444.0 4942.10  10
  -5   1  -3 16726.2 2644.68   8
  -5   1  -3 14997.1 3014.13   5
  -5   1  -2 4946.79 1441.92   4
  -5   1  -2 1830.99 1414.42   5
  -5   1  -2 4443.17 1695.84   1
  -5   1  -2 3799.13 3110.88  10
  -5   1  -2 7650.09 2017.39   8
  -5   1  -1 83551.6 5303.13   4
  -5   1  -1 92771.4 6534.76   5
  -5   1  -1 92891.2 6129.38   1
  -5   1  -1 83035.7 11221.5  10
  -5   1  -1 88851.8 5615.31   8
  -5   1   0 280672. 10110.5   1
  -5   1   0 277993. 10057.0   8
  -5   1   0 280324. 9783.28   4
  -5   1   0 273692. 10951.0   5
  -5   1   1 281789. 10690.2   5
  -5   1   1 295116. 19118.8  10
  -5   1   2 146301. 12532.8  10
  -5   1   2 138957. 8340.53   6
  -5   1   3 43.7390 1513.02   6
  -5   1   3 1184.55 2115.01  10
  -5   1   4 112794. 9280.66  10
  -5   1   4 115584. 7759.56   6
  -5   1   5 144562. 9031.97   6
  -5   1   5 149980. 9723.89  10
  -5   1   6 100603. 7833.13   6
  -5   1   6 108305. 7648.11  10
  -5   1   7 49422.1 4800.27  10
  -5   1   7 56949.6 6361.13   2
  -5   1   7 55527.6 6214.01   6
  -5   1   8 6261.09 2631.05   6
  -5   1   8 7359.77 2959.92   2
  -5   1   9 1327.64 1747.80   6
  -5   1   9 1740.60 2450.79   2
  -5   1  10 14775.5 4173.82   6
  -5   1  10 20125.1 5040.44   2
  -5   1  11 22274.0 5416.06   6
  -5   1  11 24663.0 6302.74   2
  -5   1  12 14463.6 5256.59   2
  -5   1  12 6657.80 4018.01   6
  -5   1  13-544.663 3063.94   2
  -5   1  13 1332.94 3877.03   6
  -5   1  14-1911.75 3540.74   6
  -5   1  14 839.199 3673.60   2
  -5   2 -10 2750.44 2975.11   5
  -5   2 -10 4739.41 2366.95  10
  -5   2  -9 22630.6 4846.35  10
  -5   2  -9 25580.5 6484.16   5
  -5   2  -8 30659.7 4120.77   8
  -5   2  -8 30446.8 5480.68  10
  -5   2  -8 24531.6 3639.17   7
  -5   2  -8 30883.9 5979.55   5
  -5   2  -7 6692.99 1805.05   7
  -5   2  -7 7483.96 3133.66   5
  -5   2  -7 7809.92 3214.88  10
  -5   2  -7 7393.79 1944.69   8
  -5   2  -6 3435.40 2042.10   5
  -5   2  -6 1978.92 2162.74  10
  -5   2  -6 2933.87 1484.01   4
  -5   2  -6 2863.09 1382.24   8
  -5   2  -6 4097.60 1397.75   7
  -5   2  -5 31134.1 6117.83  10
  -5   2  -5 40354.3 4424.10   4
  -5   2  -5 42483.5 3772.79   8
  -5   2  -5 34638.4 4832.64   5
  -5   2  -4 131272. 8357.92   5
  -5   2  -4 161689. 14028.5  10
  -5   2  -4 148066. 8053.98   4
  -5   2  -4 150176. 6957.39   8
  -5   2  -3 108743. 12238.8  10
  -5   2  -3 99505.6 5609.06   8
  -5   2  -3 101396. 6450.53   4
  -5   2  -3 93542.5 6700.75   5
  -5   2  -2 53615.4 9219.51  10
  -5   2  -2 57127.2 4378.40   8
  -5   2  -2 61431.1 4927.98   4
  -5   2  -2 58300.4 5098.74   1
  -5   2  -2 63307.4 5385.32   5
  -5   2  -1 5692.61 1690.36   4
  -5   2  -1 6919.54 1875.42   1
  -5   2  -1 3230.21 3933.55  10
  -5   2  -1 4760.11 1588.69   5
  -5   2   0 24492.7 3254.20   4
  -5   2   0 26614.5 3366.85   5
  -5   2   0 21154.3 6060.43  10
  -5   2   0 25993.5 3076.38   1
  -5   2   1 157628. 8056.38   4
  -5   2   1 138667. 14765.3  10
  -5   2   2 251141. 11088.3   6
  -5   2   2 237287. 17634.2  10
  -5   2   3 156945. 8870.53   6
  -5   2   3 164156. 13700.0  10
  -5   2   4 6697.54 2289.48   6
  -5   2   4 8662.28 3203.57  10
  -5   2   5 28210.4 4807.73  10
  -5   2   5 37904.1 4757.82   6
  -5   2   6 109748. 8383.18  10
  -5   2   6 115647. 8435.92   6
  -5   2   7 151355. 10075.0   6
  -5   2   7 154463. 8997.96  10
  -5   2   8 56719.4 5025.72  10
  -5   2   8 49655.5 6251.09   6
  -5   2   9 3575.57 2577.66   6
  -5   2   9 3566.23 1339.99  10
  -5   2  10 1429.30 2140.95   6
  -5   2  11 5344.09 3233.51   6
  -5   2  12 9777.72 4506.57   6
  -5   2  13 11746.7 5190.59   6
  -5   2  14 6355.41 4921.27   6
  -5   3 -10-3459.10 3042.03   5
  -5   3 -10-1202.44 2066.02  10
  -5   3  -9 2921.92 2543.77  10
  -5   3  -9 3369.44 2538.64   5
  -5   3  -8 30597.7 5632.71   5
  -5   3  -8 30613.5 4217.69   7
  -5   3  -8 31083.3 5955.12  10
  -5   3  -7 60718.2 5345.95   7
  -5   3  -7 59232.1 6751.82   5
  -5   3  -6 25310.3 5606.49  10
  -5   3  -6 22315.4 2442.50   8
  -5   3  -6 24671.7 3233.08   7
  -5   3  -6 25341.4 4200.28   5
  -5   3  -5 1662.25 2205.62  10
  -5   3  -5 182.805 1403.18   5
  -5   3  -4 51458.9 5225.77   4
  -5   3  -4 58755.1 5445.51   5
  -5   3  -4 50972.1 8366.87  10
  -5   3  -3 105866. 7103.90   4
  -5   3  -3 99024.9 6610.85   5
  -5   3  -3 105618. 12400.3  10
  -5   3  -2 111795. 7140.12   4
  -5   3  -2 114827. 7000.38   1
  -5   3  -2 106187. 6590.77   5
  -5   3  -2 101877. 13047.4  10
  -5   3  -1 88738.2 6326.10   4
  -5   3  -1 87010.3 13070.1  10
  -5   3  -1 88954.3 5772.75   5
  -5   3  -1 94393.4 5908.17   1
  -5   3   0 20815.5 2661.28   1
  -5   3   0 20173.8 6622.08  10
  -5   3   0 17742.8 2927.87   4
  -5   3   1-1153.76 2536.43  10
  -5   3   1 1813.24 1260.19   4
  -5   3   2 38695.0 8149.86  10
  -5   3   2 36321.1 4347.96   6
  -5   3   2 42986.4 4564.70   4
  -5   3   3 111639. 7559.96   6
  -5   3   3 115437. 12992.8  10
  -5   3   4 107053. 11243.5  10
  -5   3   4 95774.2 7240.69   6
  -5   3   5 60432.1 7823.00  10
  -5   3   5 60466.6 6044.93   6
  -5   3   6 6628.74 2534.01   6
  -5   3   6 5682.32 2760.66  10
  -5   3   7 8623.85 3073.39   6
  -5   3   7 8037.14 2437.37  10
  -5   3   8 33213.0 5251.23   6
  -5   3   8 34154.1 4315.47  10
  -5   3   9 20866.1 3012.35  10
  -5   3   9 18627.5 1471.17   9
  -5   3   9 21998.0 4492.72   6
  -5   3  10 8141.61 1702.45  10
  -5   3  10 7411.93 3479.51   6
  -5   3  11 5985.52 2701.21   6
  -5   3  12 1624.74 2616.79   6
  -5   3  13-3241.63 3894.83   6
  -5   4 -10 9155.33 4036.73   5
  -5   4 -10 5459.97 2798.84  10
  -5   4  -9 2612.53 2357.21  10
  -5   4  -9 692.217 1651.64   5
  -5   4  -8-177.341 2240.47   5
  -5   4  -8 430.544 1797.19   7
  -5   4  -8-3223.33 2733.70  10
  -5   4  -7 16672.1 4698.75  10
  -5   4  -7 17358.7 3666.65   5
  -5   4  -7 15954.7 3168.52   7
  -5   4  -6 59253.4 8770.28  10
  -5   4  -6 74242.8 5976.63   7
  -5   4  -6 61898.3 5971.54   5
  -5   4  -5 79197.7 6304.85   5
  -5   4  -5 76945.4 10009.7  10
  -5   4  -4 29759.9 3758.82   5
  -5   4  -4 22626.5 6096.63  10
  -5   4  -3 10832.3 2202.47   5
  -5   4  -3 7704.49 3255.12  10
  -5   4  -2 28243.4 3253.40   5
  -5   4  -2 28528.6 3542.18   1
  -5   4  -2 31001.3 7726.23  10
  -5   4  -1 112457. 15013.1  10
  -5   4  -1 111841. 6340.41   1
  -5   4   0 76349.6 4836.71   1
  -5   4   0 68514.6 12588.0  10
  -5   4   1 22427.0 7911.02  10
  -5   4   2 6318.88 2059.67   6
  -5   4   2 1465.41 3132.10  10
  -5   4   3 6883.51 2230.53   6
  -5   4   3 12153.6 5019.66  10
  -5   4   4 54729.7 9000.65  10
  -5   4   4 58346.6 5767.09   6
  -5   4   5 100044. 11199.8  10
  -5   4   5 100650. 7866.28   6
  -5   4   6 100168. 10284.9  10
  -5   4   6 116261. 8661.31   6
  -5   4   7 24459.8 4661.39  10
  -5   4   7 20851.0 4107.57   6
  -5   4   7 20579.0 2155.04   9
  -5   4   8 1071.34 1869.30   6
  -5   4   8 2387.60 1729.80  10
  -5   4   8 586.425 652.567   9
  -5   4   9 14661.1 4290.16   6
  -5   4   9 16721.2 1994.71   9
  -5   4   9 14172.1 2935.13  10
  -5   4  10 19094.7 4947.62   6
  -5   4  11 11433.7 4872.11   6
  -5   4  12-393.263 2556.45   6
  -5   4  13 3253.53 3827.98   6
  -5   5  -9 2669.42 2839.90  10
  -5   5  -9 16363.6 4231.47   7
  -5   5  -8 9139.61 3815.67  10
  -5   5  -8 9344.38 2989.75   5
  -5   5  -8 5071.71 2316.20   7
  -5   5  -7 2793.92 1874.12   7
  -5   5  -7 4362.23 2108.37   5
  -5   5  -6 3726.02 1856.24   7
  -5   5  -6 5493.17 1990.04   5
  -5   5  -6 8410.66 4184.32  10
  -5   5  -5 36300.2 7850.90  10
  -5   5  -5 38136.4 4119.14   5
  -5   5  -4 105687. 13059.1  10
  -5   5  -4 112760. 6401.32   5
  -5   5  -3 73517.1 11208.1  10
  -5   5  -3 81449.0 5032.92   5
  -5   5  -3 98474.3 7210.63   1
  -5   5  -2 25876.3 3415.26   1
  -5   5  -2 25186.4 6878.96  10
  -5   5  -1 11641.0 2117.22   1
  -5   5  -1 2372.82 3210.47  10
  -5   5   0 114458. 5714.59   1
  -5   5   0 92945.8 15527.8  10
  -5   5   1 126010. 18826.9  10
  -5   5   2 83939.4 6602.07   6
  -5   5   2 58141.7 12613.9  10
  -5   5   3 15777.8 6013.42  10
  -5   5   3 29418.9 4145.30   6
  -5   5   4 1440.37 1357.10   6
  -5   5   4-9138.69 4857.35  10
  -5   5   5 1616.09 2556.08  10
  -5   5   5 5727.78 2436.99   6
  -5   5   6 40009.8 7103.57  10
  -5   5   6 41578.3 3713.27   9
  -5   5   6 44377.2 5540.48   6
  -5   5   7 50134.0 6291.27   6
  -5   5   7 42210.1 6782.11  10
  -5   5   7 49503.8 3920.51   9
  -5   5   8 14102.9 3657.84  10
  -5   5   8 18068.5 4098.65   6
  -5   5   8 19663.8 2529.56   9
  -5   5   9 1960.16 2253.35   6
  -5   5   9 478.113 1435.04  10
  -5   5  10 1451.84 2294.00   6
  -5   5  11 9614.52 4574.50   6
  -5   5  12 14575.9 4934.02   6
  -5   6  -9 4410.92 3335.07  10
  -5   6  -9 10747.3 3731.66   7
  -5   6  -8 22522.9 4575.67   7
  -5   6  -8 16591.9 5091.92  10
  -5   6  -7 16134.6 5545.95  10
  -5   6  -7 18748.5 3866.21   7
  -5   6  -6-3194.50 3155.33  10
  -5   6  -5 656.409 972.234   5
  -5   6  -5-2557.82 3104.94  10
  -5   6  -4 10274.8 5067.70  10
  -5   6  -3 59316.6 5574.88   1
  -5   6  -3 45861.8 9315.80  10
  -5   6  -2 62105.7 11123.0  10
  -5   6  -2 71528.3 5459.45   1
  -5   6  -1 65141.2 4681.08   1
  -5   6  -1 64999.0 12368.5  10
  -5   6   0 4648.99 5845.65  10
  -5   6   0 1023.81 966.026   1
  -5   6   1 28667.3 9159.25  10
  -5   6   2 126453. 8132.10   6
  -5   6   2 98154.9 18385.3  10
  -5   6   3 110156. 17669.3  10
  -5   6   3 99679.6 7420.93   6
  -5   6   4 36205.6 9245.86  10
  -5   6   4 32363.8 4541.90   6
  -5   6   5 1935.80 1703.11   6
  -5   6   5 736.099 1192.84   9
  -5   6   6 7445.46 2839.64   6
  -5   6   6 8187.20 3997.80  10
  -5   6   6 6215.42 1798.78   9
  -5   6   7 25184.9 4704.64   6
  -5   6   7 19054.6 5009.94  10
  -5   6   7 27545.5 3381.15   9
  -5   6   8 12118.5 3784.95   6
  -5   6   8 15764.5 2665.55   9
  -5   6   8 9308.71 3635.83  10
  -5   6   9 11442.3 3680.70  10
  -5   6   9 15428.5 4470.45   6
  -5   6  10 1387.90 2867.39   6
  -5   6  11 16.2595 2592.13   6
  -5   7  -8 10512.4 3381.63   7
  -5   7  -8 9444.89 4694.84  10
  -5   7  -7 24111.5 6698.76  10
  -5   7  -6 16810.3 5944.53  10
  -5   7  -5 5575.22 3972.80  10
  -5   7  -4 4554.25 3328.90  10
  -5   7  -3 6030.54 4135.48  10
  -5   7  -2 19880.9 7251.06  10
  -5   7  -2 26963.6 3416.06   1
  -5   7  -1 51754.8 4071.08   1
  -5   7  -1 41359.8 10054.4  10
  -5   7   0 35595.8 10129.3  10
  -5   7   1-4714.79 6478.47  10
  -5   7   2 19.6553 1302.19   6
  -5   7   2-17953.3 8957.44  10
  -5   7   3 14471.1 3030.66   6
  -5   7   3 6478.93 5671.11  10
  -5   7   4 30954.2 9212.14  10
  -5   7   4 41820.5 4690.96   9
  -5   7   4 40552.4 5123.31   6
  -5   7   5 25818.9 3709.26   9
  -5   7   5 33671.2 8347.47  10
  -5   7   5 25986.6 4422.30   6
  -5   7   6-540.169 2852.88  10
  -5   7   6 6667.09 2141.66   9
  -5   7   6 6770.16 2575.29   6
  -5   7   7 754.620 1601.48   6
  -5   7   7-211.717 1076.45   9
  -5   7   8 3505.19 1958.26   6
  -5   7   8 8089.73 2768.58  10
  -5   7   8 2769.99 1299.86   9
  -5   7   9 5360.62 3040.83   6
  -5   7  10 6508.80 3509.78   6
  -5   8  -7-2844.99 3391.16  10
  -5   8  -6 4411.64 3653.74  10
  -5   8  -5 17090.7 6347.99  10
  -5   8  -4 5175.55 3556.35  10
  -5   8  -3 954.406 3433.61  10
  -5   8  -2 11844.1 5679.81  10
  -5   8  -1 7315.90 5376.51  10
  -5   8   0 35636.7 10706.1  10
  -5   8   1 20076.3 8716.33  10
  -5   8   2 36144.3 4495.92   6
  -5   8   2 29503.9 10431.4  10
  -5   8   3 856.207 4016.91  10
  -5   8   3 4433.79 2183.59   6
  -5   8   4 1732.57 4494.98  10
  -5   8   4 4473.47 2278.82   9
  -5   8   4-468.699 1356.82   6
  -5   8   5 20687.0 3738.04   9
  -5   8   5 26894.2 4418.08   6
  -5   8   5 29973.7 8278.38  10
  -5   8   6 26736.3 4681.79   6
  -5   8   6 14638.7 5906.39  10
  -5   8   6 27461.3 4234.07   9
  -5   8   7 18274.5 4213.29   6
  -5   8   7 15593.7 3212.88   9
  -5   8   7 12910.8 5194.49  10
  -5   8   8 464.657 2303.91  10
  -5   8   8 1340.82 2110.48   6
  -5   9  -5-6236.11 4858.18  10
  -5   9  -4 27129.6 7878.70  10
  -5   9  -3 27147.8 8549.47  10
  -5   9  -2 15873.8 6880.32  10
  -5   9  -1 1703.03 4076.52  10
  -5   9   0-10389.9 6239.97  10
  -5   9   1 8840.96 6686.88  10
  -5   9   2 6591.49 6160.94  10
  -5   9   3 11705.6 7088.16  10
  -5   9   3 20185.1 4186.24   9
  -5   9   3 22402.9 3699.10   6
  -5   9   4 3533.55 2507.40   9
  -5   9   4 6045.13 2398.70   6
  -5   9   4 11001.3 6550.35  10
  -5   9   5 2164.47 1783.42   6
  -5   9   5 1734.06 3724.15  10
  -5   9   5 3352.72 2275.48   9
  -5   9   6 4402.60 2223.45   9
  -5   9   6 5606.10 2577.88   6
  -5   9   7 17465.2 5827.12  10
  -5   9   7 14172.6 3825.31   6
  -5  10  -2 29337.1 9259.72  10
  -5  10  -1 14443.9 7555.73  10
  -5  10   0 8162.14 5517.43  10
  -5  10   1 4011.61 4878.60  10
  -5  10   2 7226.27 5030.40  10
  -5  10   3 5522.57 4487.59  10
  -5  10   3 10997.9 3007.04   9
  -4 -10   1 27803.7 5466.88   8
  -4 -10   1 18665.9 4193.71   5
  -4 -10   2 4653.67 2920.60   8
  -4 -10   3 1657.92 2450.40   8
  -4 -10   4 8074.23 3394.38   8
  -4 -10   4 12489.6 6750.58   2
  -4 -10   5 6995.20 4261.73   2
  -4 -10   5 12456.4 3607.22   8
  -4  -9  -3 16701.8 4351.72   5
  -4  -9  -3 15257.7 4652.61   8
  -4  -9  -2 7643.88 3114.51   5
  -4  -9  -2 6662.07 3312.58   8
  -4  -9  -1-1659.15 2229.15   5
  -4  -9  -1 2461.58 2135.69   8
  -4  -9   0 8238.59 3035.77   8
  -4  -9   0 10802.2 3538.22   5
  -4  -9   1 24771.6 4545.17   5
  -4  -9   1 26778.4 4958.39   8
  -4  -9   2 32592.7 5422.32   8
  -4  -9   2 30127.9 8333.95   2
  -4  -9   3 15858.8 4206.06   8
  -4  -9   3 4923.85 4583.62   2
  -4  -9   4-4053.66 4039.75   2
  -4  -9   4 627.381 2083.30   8
  -4  -9   5 2304.16 3989.91   2
  -4  -9   5 3378.99 2324.43   8
  -4  -9   6-3759.30 3654.55   2
  -4  -9   6 6093.53 2886.04   8
  -4  -9   7 14868.7 3771.01   8
  -4  -9   7-3003.35 3645.51   2
  -4  -9   8 8877.55 4733.34   2
  -4  -8  -5 3079.07 2575.54   5
  -4  -8  -5 363.115 2558.70   8
  -4  -8  -4 1554.48 2149.70   5
  -4  -8  -4 613.854 2315.03   8
  -4  -8  -3 18849.9 4679.31   5
  -4  -8  -3 18708.0 4823.43   8
  -4  -8  -2 22891.1 4673.93   5
  -4  -8  -2 26158.5 5452.26   8
  -4  -8  -1 27220.6 4931.19   5
  -4  -8  -1 31934.2 5551.95   8
  -4  -8   0 20214.9 4143.63   5
  -4  -8   0 16663.7 5612.34   2
  -4  -8   0 18515.0 4165.42   8
  -4  -8   1-2567.75 2003.57   5
  -4  -8   1-1748.44 2542.89   2
  -4  -8   1 204.351 2192.63   8
  -4  -8   2 8647.26 2947.89   5
  -4  -8   2 12017.2 3378.57   8
  -4  -8   3 40743.8 5616.03   8
  -4  -8   3 34321.7 8364.31   2
  -4  -8   4 36173.3 5383.56   8
  -4  -8   4 35292.7 8873.65   2
  -4  -8   5 7675.17 2800.46   8
  -4  -8   5 12304.8 5334.85   2
  -4  -8   6 1143.92 1964.59   8
  -4  -8   6-2670.74 3153.08   2
  -4  -8   7 2580.80 1867.94   8
  -4  -8   7 2961.70 3441.92   2
  -4  -8   8 4479.79 3291.96   2
  -4  -8   9 7953.00 4154.03   2
  -4  -8  10 6163.47 3773.00   2
  -4  -7  -7-624.575 2735.62   5
  -4  -7  -7-4806.27 4190.66   8
  -4  -7  -6 16697.8 5378.83   8
  -4  -7  -6 15520.4 4834.70   5
  -4  -7  -5 15524.7 4383.70   5
  -4  -7  -5 17886.2 4989.41   8
  -4  -7  -4 6751.28 3133.43   5
  -4  -7  -4 9754.06 3699.14   8
  -4  -7  -3 916.942 1945.00   5
  -4  -7  -3 1552.20 2542.57   8
  -4  -7  -2 16601.6 4201.63   8
  -4  -7  -2 11672.1 3482.49   5
  -4  -7  -1 38971.3 5430.91   2
  -4  -7  -1 34025.4 5465.94   8
  -4  -7  -1 37904.3 4561.76   7
  -4  -7  -1 42576.5 5882.05   5
  -4  -7   0 76375.6 9235.50   2
  -4  -7   0 77860.3 7446.44   5
  -4  -7   0 77259.0 6553.59   7
  -4  -7   0 71942.8 7232.58   8
  -4  -7   1 64916.2 10554.4   2
  -4  -7   1 64252.8 6083.85   7
  -4  -7   1 56661.2 6287.93   8
  -4  -7   1 52467.0 5873.39   5
  -4  -7   2 19719.6 6233.77   2
  -4  -7   2 20669.7 3975.87   8
  -4  -7   2 13334.5 3209.14   5
  -4  -7   3 3161.77 1955.69   8
  -4  -7   3 1604.81 2761.21   2
  -4  -7   4 70502.9 6777.18   8
  -4  -7   4 65574.6 10977.5   2
  -4  -7   5 110819. 8437.91   8
  -4  -7   5 110085. 7787.63   3
  -4  -7   6 49391.6 9100.51   2
  -4  -7   6 72918.1 6852.08   8
  -4  -7   7 6415.69 3764.15   2
  -4  -7   7 15046.5 3618.57   8
  -4  -7   8-556.808 2591.56   2
  -4  -7   9 9501.22 3949.30   2
  -4  -7   9 15426.8 2977.06   6
  -4  -7  10 13085.9 4445.71   2
  -4  -7  11 9280.13 4221.74   2
  -4  -7  12 91.5231 2252.16   2
  -4  -6  -8 8101.46 4790.06   5
  -4  -6  -8 1455.32 3280.81   8
  -4  -6  -7-275.679 3573.76   5
  -4  -6  -7 3078.41 3436.28   8
  -4  -6  -6-9797.77 4216.65   8
  -4  -6  -6 2002.76 2522.85   5
  -4  -6  -5 37436.1 6516.09   8
  -4  -6  -5 46068.6 7043.77   5
  -4  -6  -4 77718.8 8460.33   8
  -4  -6  -4 69962.1 7934.93   5
  -4  -6  -3 67419.4 7407.52   5
  -4  -6  -3 54985.8 4789.87   7
  -4  -6  -3 61258.4 7091.25   8
  -4  -6  -2 3920.65 2140.55   5
  -4  -6  -2 5291.84 991.437   2
  -4  -6  -2 5764.41 1702.65   7
  -4  -6  -2 6968.17 2645.44   8
  -4  -6  -1 6540.11 2777.36   8
  -4  -6  -1 7217.66 2636.98   5
  -4  -6  -1 11273.2 2296.51   7
  -4  -6  -1 7499.13 2049.72   2
  -4  -6   0 73591.1 5744.23   7
  -4  -6   0 68839.4 7159.08   2
  -4  -6   0 71344.6 6893.94   5
  -4  -6   0 70193.6 6636.61   8
  -4  -6   1 111851. 7302.46   7
  -4  -6   1 106163. 8036.09   8
  -4  -6   1 106169. 8017.44   5
  -4  -6   1 99547.0 10655.3   2
  -4  -6   2 46929.2 8811.92   2
  -4  -6   2 60350.9 5948.66   3
  -4  -6   2 55190.6 5904.81   8
  -4  -6   2 54802.1 5384.69   7
  -4  -6   2 51445.5 5689.55   5
  -4  -6   3 15076.7 3022.57   3
  -4  -6   3 12764.5 3171.27   8
  -4  -6   3 7337.63 4099.64   2
  -4  -6   3 10407.3 2356.31   7
  -4  -6   4 939.553 954.701   3
  -4  -6   4 1710.35 1734.85   8
  -4  -6   4 2048.84 1788.87   7
  -4  -6   5 12995.5 4875.66   2
  -4  -6   5 18203.0 3483.15   8
  -4  -6   6 44336.9 8199.86   2
  -4  -6   6 54003.4 5736.04   8
  -4  -6   6 55767.5 4923.63   3
  -4  -6   7 49303.6 9116.04   2
  -4  -6   7 60417.4 5034.55   3
  -4  -6   8 14553.7 5205.91   2
  -4  -6   8 19808.8 3358.41   6
  -4  -6   9 2562.52 2898.40   2
  -4  -6   9-244.562 1475.23   6
  -4  -6  10 3782.20 1987.86   6
  -4  -6  10 9202.57 4005.59   2
  -4  -6  11 7312.90 2696.00   6
  -4  -6  11 11747.7 5111.63   2
  -4  -6  12 7783.58 2982.45   6
  -4  -6  12 3803.79 2486.46   2
  -4  -5  -9 1193.78 3695.89   5
  -4  -5  -9 10283.5 4852.95   8
  -4  -5  -8 15551.9 5409.01   8
  -4  -5  -8 14800.2 5700.34   5
  -4  -5  -7 11059.0 4575.53   5
  -4  -5  -7 16263.3 5326.20   8
  -4  -5  -6 3099.63 2746.59   8
  -4  -5  -6 3511.27 2993.23   5
  -4  -5  -5 893.297 2285.73   5
  -4  -5  -5 1560.49 1963.54   8
  -4  -5  -4 37685.5 5676.79   8
  -4  -5  -4 38321.0 5780.72   5
  -4  -5  -4 35666.7 3441.33   7
  -4  -5  -3 92268.7 5388.20   7
  -4  -5  -3 89326.2 7941.98   8
  -4  -5  -3 93949.6 8370.94   5
  -4  -5  -2 99889.7 7962.78   8
  -4  -5  -2 98566.2 5595.77   7
  -4  -5  -2 93632.5 7966.36   5
  -4  -5  -1 31009.1 4538.38   5
  -4  -5  -1 26960.1 4201.40   8
  -4  -5  -1 29989.9 2416.61   2
  -4  -5  -1 26654.4 3054.02   7
  -4  -5   0 1618.65 1203.91   2
  -4  -5   0 921.591 1224.05   3
  -4  -5   0-47.4170 1640.38   8
  -4  -5   0 1764.65 969.368   7
  -4  -5   0-815.876 1714.40   5
  -4  -5   1 65230.9 6094.89   5
  -4  -5   1 66236.5 5185.72   7
  -4  -5   1 61358.3 6556.27   2
  -4  -5   1 73111.0 6310.75   8
  -4  -5   1 64613.4 6114.06   3
  -4  -5   1 73809.7 6233.84   9
  -4  -5   2 105304. 7044.11   7
  -4  -5   2 115831. 7589.11   3
  -4  -5   2 106678. 7507.82   8
  -4  -5   2 124376. 7788.19   9
  -4  -5   2 105172. 7468.75   5
  -4  -5   2 103106. 10241.4   2
  -4  -5   3 92438.5 7274.36   7
  -4  -5   3 92555.6 6424.16   3
  -4  -5   3 90498.9 6908.48   8
  -4  -5   3 93589.2 6587.29   9
  -4  -5   3 94021.7 11165.9   2
  -4  -5   4 60032.6 9876.08   2
  -4  -5   4 47956.9 5135.18   8
  -4  -5   4 44495.1 4210.65   3
  -4  -5   4 44248.1 4530.25   9
  -4  -5   4 50752.9 5945.32   7
  -4  -5   5 8381.33 2151.10   9
  -4  -5   5 10536.0 2930.33   8
  -4  -5   5 10977.0 4618.71   2
  -4  -5   5 10970.8 2075.01   3
  -4  -5   5 10255.2 3101.32   7
  -4  -5   6 1322.26 1402.92   6
  -4  -5   6-1141.60 1169.24   9
  -4  -5   6-32.9235 1460.47   8
  -4  -5   6 403.969 751.190   3
  -4  -5   7 9387.50 2250.09   9
  -4  -5   7 7959.66 3721.98   2
  -4  -5   7 8431.75 1781.31   3
  -4  -5   7 7505.44 2215.25   6
  -4  -5   8 28866.4 4067.84   6
  -4  -5   8 33235.4 4128.81   9
  -4  -5   8 28595.9 6502.14   2
  -4  -5   8 29732.7 3075.08   3
  -4  -5   9 30498.6 4114.07   9
  -4  -5   9 29010.0 6353.79   2
  -4  -5   9 30032.9 4308.07   6
  -4  -5  10 7857.67 4320.08   2
  -4  -5  10 14725.0 3341.02   6
  -4  -5  11-2180.83 3237.14   2
  -4  -5  11 3228.98 2174.47   6
  -4  -5  12 2840.49 2312.48   6
  -4  -5  12 5386.29 3447.82   2
  -4  -5  13 13921.2 4722.38   6
  -4  -5  13 9231.08 4016.16   2
  -4  -4 -10 1245.90 3081.55   8
  -4  -4  -9-2544.24 3580.47   8
  -4  -4  -8 3904.42 3009.31   8
  -4  -4  -7 18377.0 3481.58   7
  -4  -4  -7 16994.6 4531.84   8
  -4  -4  -7 24402.5 6071.61   5
  -4  -4  -6 33460.7 6054.49   5
  -4  -4  -6 34787.2 4471.18   7
  -4  -4  -6 30720.4 5578.53   8
  -4  -4  -5 34566.1 5429.12   8
  -4  -4  -5 35572.5 5906.87   5
  -4  -4  -5 36622.4 3189.79   7
  -4  -4  -4 13367.4 3481.36   5
  -4  -4  -4 15182.3 1947.45   7
  -4  -4  -4 13907.5 3547.56   8
  -4  -4  -3 2892.24 942.671   7
  -4  -4  -3 4266.64 1858.94   8
  -4  -4  -3 4457.64 2150.92   5
  -4  -4  -2 62750.6 6231.31   5
  -4  -4  -2 69889.5 3950.44   7
  -4  -4  -2 71413.2 6351.04   8
  -4  -4  -1 157699. 6242.13   7
  -4  -4  -1 176093. 11398.4   3
  -4  -4  -1 160745. 9029.80   8
  -4  -4  -1 176996. 10115.7   5
  -4  -4   0 145798. 8891.91   5
  -4  -4   0 156917. 8889.35   9
  -4  -4   0 158272. 10028.5   3
  -4  -4   0 151257. 6641.84   7
  -4  -4   0 159823. 5786.54   2
  -4  -4   0 153319. 8757.21   8
  -4  -4   1 25718.2 3239.52   2
  -4  -4   1 28587.6 3906.05   8
  -4  -4   1 30190.2 3765.43   9
  -4  -4   1 25809.2 3829.23   5
  -4  -4   1 27243.8 3237.32   7
  -4  -4   1 30584.9 4163.74   3
  -4  -4   2 4230.89 1634.47   7
  -4  -4   2 10149.6 2503.35   5
  -4  -4   2 5492.36 1637.50   9
  -4  -4   2 7276.16 1992.71   3
  -4  -4   2 5500.39 2039.86   2
  -4  -4   2 8488.31 2347.87   8
  -4  -4   3 61641.5 7283.51   2
  -4  -4   3 63793.6 4982.22   9
  -4  -4   3 60962.1 5418.96   8
  -4  -4   3 62142.0 6079.67   7
  -4  -4   3 66973.7 5149.33   3
  -4  -4   4 99045.5 10568.8   2
  -4  -4   4 123886. 9502.49   7
  -4  -4   4 123462. 6652.10   9
  -4  -4   4 127688. 7760.48   8
  -4  -4   4 130353. 6534.46   3
  -4  -4   5 103424. 6044.29   9
  -4  -4   5 110538. 5523.92   3
  -4  -4   5 109673. 6910.70   6
  -4  -4   5 99434.6 11534.3   2
  -4  -4   5 103573. 7135.29   8
  -4  -4   5 117032. 10261.6   7
  -4  -4   6 46700.1 7270.41   7
  -4  -4   6 41915.1 4460.00   6
  -4  -4   6 45282.1 4008.42   9
  -4  -4   6 49341.1 3465.12   3
  -4  -4   6 44719.5 8445.38   2
  -4  -4   7 7011.47 1736.19   9
  -4  -4   7 3849.00 2921.42   2
  -4  -4   7 6983.50 1327.58   3
  -4  -4   7 7046.25 2136.61   6
  -4  -4   8 4326.69 1439.44   9
  -4  -4   8 2116.03 2728.29   2
  -4  -4   8 3741.16 1642.37   6
  -4  -4   8 5301.20 1162.67   3
  -4  -4   9 19452.3 5426.84   2
  -4  -4   9 25932.6 2406.43   3
  -4  -4   9 26534.0 4234.31   6
  -4  -4   9 22742.5 3157.86   9
  -4  -4  10 42020.1 4560.37   9
  -4  -4  10 51004.4 8234.79   2
  -4  -4  10 31115.4 3616.99   3
  -4  -4  10 39867.4 5568.25   6
  -4  -4  11 41719.1 6247.86   6
  -4  -4  11 33519.4 6618.91   2
  -4  -4  12 6962.21 3568.60   2
  -4  -4  12 7354.64 3320.43   6
  -4  -4  13-2179.49 2561.92   2
  -4  -4  13 1747.17 2642.97   6
  -4  -4  14 3916.35 3038.15   2
  -4  -4  14-4979.15 3477.51   6
  -4  -3 -10-1468.47 2950.61   8
  -4  -3  -9 7141.38 4571.67   8
  -4  -3  -8 3995.65 1608.02   7
  -4  -3  -8 2432.68 2800.91   8
  -4  -3  -7 5090.92 2625.35   8
  -4  -3  -7 3351.77 1482.61   7
  -4  -3  -6 22814.2 3136.56   7
  -4  -3  -6 19430.1 4854.13   5
  -4  -3  -6 14947.0 3700.72   8
  -4  -3  -5 54901.3 6856.88   5
  -4  -3  -5 55746.9 6347.83   8
  -4  -3  -5 56196.1 4646.44   7
  -4  -3  -5 58758.6 3410.69   7
  -4  -3  -4 93283.7 8106.71   5
  -4  -3  -4 90165.5 3695.62   7
  -4  -3  -4 93682.5 7517.51   8
  -4  -3  -4 83125.0 5124.98   7
  -4  -3  -3 70683.9 6663.68   5
  -4  -3  -3 70624.5 6107.79   8
  -4  -3  -3 59429.7 2756.84   7
  -4  -3  -2 9183.95 2540.55   5
  -4  -3  -2 8217.87 2291.40   8
  -4  -3  -2 8661.41 1126.39   7
  -4  -3  -2 4727.47 2503.85   3
  -4  -3  -1 40519.1 4334.05   8
  -4  -3  -1 29184.4 4006.33   5
  -4  -3  -1 38791.8 5694.89   3
  -4  -3  -1 38800.5 2738.70   7
  -4  -3   0 256030. 5881.55   2
  -4  -3   0 258065. 8618.31   7
  -4  -3   0 273217. 13967.6   3
  -4  -3   0 242568. 10204.2   8
  -4  -3   0 247447. 10949.3   5
  -4  -3   1 439594. 16140.1   3
  -4  -3   1 426632. 12904.5   9
  -4  -3   1 434042. 13581.9   7
  -4  -3   1 419082. 13307.8   8
  -4  -3   1 421680. 10110.4   2
  -4  -3   1 403491. 13633.9   5
  -4  -3   2 215169. 9844.10   5
  -4  -3   2 239345. 10852.6   3
  -4  -3   2 230935. 9823.59   8
  -4  -3   2 233531. 11887.9   7
  -4  -3   2 215241. 8596.32   9
  -4  -3   2 233151. 9474.64   2
  -4  -3   3 19684.4 3449.83   2
  -4  -3   3 13089.6 2055.04   9
  -4  -3   3 17250.4 2649.16   3
  -4  -3   3 16199.4 2994.92   8
  -4  -3   3 15133.2 3556.93   7
  -4  -3   4 45868.3 6952.71   7
  -4  -3   4 44315.6 5810.93   2
  -4  -3   4 45629.7 3601.08   9
  -4  -3   4 46728.2 4536.14   6
  -4  -3   4 53116.0 4081.00   3
  -4  -3   4 51619.8 4893.47   8
  -4  -3   5 146533. 8295.78   8
  -4  -3   5 153959. 6356.71   9
  -4  -3   5 155081. 8286.65   6
  -4  -3   5 160211. 6051.81   3
  -4  -3   5 156049. 12316.7   2
  -4  -3   5 168985. 13677.1   7
  -4  -3   6 122433. 4456.35   3
  -4  -3   6 115734. 11634.6   7
  -4  -3   6 113006. 11632.3   2
  -4  -3   6 119542. 7489.16   6
  -4  -3   6 121176. 5660.59   9
  -4  -3   7 61599.0 9232.78   2
  -4  -3   7 56054.1 5413.05   6
  -4  -3   7 54406.4 3917.00   9
  -4  -3   7 49616.0 2442.91   3
  -4  -3   7 46518.1 7320.73   7
  -4  -3   8 8397.91 1642.00   9
  -4  -3   8 6840.51 1288.66   3
  -4  -3   8 8138.97 3804.31   2
  -4  -3   8 7522.60 936.522   3
  -4  -3   8 9412.77 2587.56   6
  -4  -3   9 1990.80 2640.92   2
  -4  -3   9 2624.12 695.273   3
  -4  -3   9 2787.43 1141.07   9
  -4  -3   9 3933.72 2329.47   6
  -4  -3   9 3726.34 1027.29   3
  -4  -3  10 14713.4 3820.31   6
  -4  -3  10 15624.1 2578.82   9
  -4  -3  10 14303.5 4565.82   2
  -4  -3  10 17329.1 1774.43   3
  -4  -3  10 18030.2 2277.82   3
  -4  -3  11 21742.7 2713.27   3
  -4  -3  11 29717.3 5648.24   6
  -4  -3  11 23843.5 5483.55   2
  -4  -3  12 19188.9 5477.13   6
  -4  -3  12 23730.5 5616.50   2
  -4  -3  13 1388.45 2402.55   2
  -4  -3  13 5261.64 3901.49   6
  -4  -3  14 1439.66 2604.36   2
  -4  -3  14-7460.23 4713.81   6
  -4  -2 -11-4306.12 3349.90   8
  -4  -2 -10 3747.64 2786.67   8
  -4  -2  -9 18788.8 5212.48   8
  -4  -2  -8 47126.6 4555.96   7
  -4  -2  -8 46478.4 7169.58   8
  -4  -2  -7 29842.7 3494.52   7
  -4  -2  -7 23169.8 4947.40   8
  -4  -2  -7 30494.8 2481.92   4
  -4  -2  -6-166.022 2561.41   8
  -4  -2  -6 904.620 798.076   7
  -4  -2  -6 1012.04 482.278   4
  -4  -2  -5 23128.7 3845.12   8
  -4  -2  -5 20956.0 2476.20   7
  -4  -2  -5 27169.8 4748.40   5
  -4  -2  -4 116121. 4424.80   7
  -4  -2  -4 126933. 8013.70   8
  -4  -2  -4 112368. 8593.55   5
  -4  -2  -3 178759. 8948.29   8
  -4  -2  -3 182024. 10115.5   5
  -4  -2  -2 101183. 6631.12   8
  -4  -2  -2 101695. 6488.70   1
  -4  -2  -2 92147.0 6937.37   5
  -4  -2  -1 31831.8 3640.31   8
  -4  -2   0 19539.6 2811.25   8
  -4  -2   0 17591.5 2081.31   7
  -4  -2   1 168263. 5705.00   2
  -4  -2   1 164806. 7897.35   8
  -4  -2   1 154109. 8663.78   7
  -4  -2   1 147256. 11355.0   3
  -4  -2   2 315223. 10973.1   8
  -4  -2   2 307645. 15166.0   7
  -4  -2   2 334068. 9766.01   2
  -4  -2   3 281394. 10659.5   6
  -4  -2   3 280319. 8204.83   9
  -4  -2   3 287484. 17097.9   7
  -4  -2   3 293456. 10731.4   8
  -4  -2   3 311914. 11193.6   2
  -4  -2   4 63506.0 5200.48   6
  -4  -2   4 75267.7 9358.98   7
  -4  -2   4 65430.5 6047.19   2
  -4  -2   4 62171.9 3550.19   9
  -4  -2   4 67051.8 5362.53   8
  -4  -2   5 10771.4 3015.14   2
  -4  -2   5 14349.2 2743.40   6
  -4  -2   5 13708.0 1637.25   9
  -4  -2   5 9463.05 3388.41   7
  -4  -2   6 126186. 10669.5   2
  -4  -2   6 120128. 4592.01   9
  -4  -2   6 115340. 7419.42   6
  -4  -2   6 120566. 12072.8   7
  -4  -2   7 115885. 7787.27   6
  -4  -2   7 105217. 10798.9   2
  -4  -2   7 118630. 4774.30   9
  -4  -2   8 57646.1 3595.22   9
  -4  -2   8 60772.5 8845.32   2
  -4  -2   8 65192.2 6394.38   6
  -4  -2   9 8686.06 2788.24   6
  -4  -2   9 4463.83 3516.57   2
  -4  -2   9 10876.6 1829.47   9
  -4  -2  10 2368.71 1154.93   9
  -4  -2  10 1306.66 611.377   3
  -4  -2  10 1784.40 2001.00   6
  -4  -2  10-389.042 3710.41   2
  -4  -2  11-1435.13 2386.92   2
  -4  -2  11-1715.10 2301.09   6
  -4  -2  11 691.495 758.448   3
  -4  -2  12 3539.72 3281.48   2
  -4  -2  12 8537.63 4310.01   6
  -4  -2  13 7938.24 3799.22   2
  -4  -2  13 7285.25 4454.21   6
  -4  -2  14 5181.35 3471.63   2
  -4  -2  14 4909.94 5415.96   6
  -4  -1 -11 3106.99 2548.93   8
  -4  -1 -10-1860.04 2393.97   8
  -4  -1  -9 3290.61 1998.38   8
  -4  -1  -9 369.159 1521.79   7
  -4  -1  -8 17676.1 3077.75   7
  -4  -1  -8 19234.6 4387.43   8
  -4  -1  -7 71198.7 7293.63   8
  -4  -1  -7 71145.7 5774.93   7
  -4  -1  -7 78020.7 5130.14   4
  -4  -1  -6 64144.7 3959.15   4
  -4  -1  -6 66130.7 6349.68   8
  -4  -1  -6 62689.3 4669.42   7
  -4  -1  -6 49822.3 6674.20  10
  -4  -1  -5 20793.4 3387.54   8
  -4  -1  -5 17284.4 4340.02  10
  -4  -1  -5 17541.7 1876.30   4
  -4  -1  -5 16470.3 3722.55   5
  -4  -1  -5 17615.5 1824.18   7
  -4  -1  -4 14055.0 3188.63   5
  -4  -1  -4 12331.3 3945.18  10
  -4  -1  -4 13543.3 2621.52   8
  -4  -1  -4 11276.5 1356.47   4
  -4  -1  -3 138702. 7248.34   8
  -4  -1  -3 146285. 8643.73   5
  -4  -1  -3 135351. 7705.91   1
  -4  -1  -3 133925. 4203.60   4
  -4  -1  -3 131808. 11701.7  10
  -4  -1  -2 198856. 9531.83   5
  -4  -1  -2 215400. 9128.03   1
  -4  -1  -2 205436. 8568.89   8
  -4  -1  -2 189673. 13785.5  10
  -4  -1  -1 182027. 7872.15   8
  -4  -1  -1 183509. 8082.48   1
  -4  -1   0 58782.5 4514.93   8
  -4  -1   0 57912.9 6951.04  10
  -4  -1   1 1888.26 1319.99   8
  -4  -1   1-139.394 1683.60  10
  -4  -1   2 24616.8 4001.92  10
  -4  -1   2 22635.4 2964.23   8
  -4  -1   2 25945.9 2637.29   2
  -4  -1   3 57926.2 4757.29   8
  -4  -1   3 62280.6 4610.80   2
  -4  -1   4 118882. 7081.12   6
  -4  -1   4 101986. 6734.90   2
  -4  -1   5 117334. 3386.54   9
  -4  -1   5 126320. 8531.60   2
  -4  -1   5 115872. 7258.27   6
  -4  -1   6 21846.9 1397.31   9
  -4  -1   6 24435.5 3602.80   6
  -4  -1   6 15573.8 3607.92   2
  -4  -1   7 1616.34 1840.02   2
  -4  -1   7 2603.45 630.761   9
  -4  -1   7 3436.99 1660.02   6
  -4  -1   8 39677.1 6804.27   2
  -4  -1   8 50367.7 5709.38   6
  -4  -1   8 50753.4 2806.48   9
  -4  -1   9 52452.5 8335.10   2
  -4  -1   9 59091.5 3616.60   9
  -4  -1   9 65943.3 7058.42   6
  -4  -1  10 25831.7 1926.81   3
  -4  -1  10 32825.9 7239.39   2
  -4  -1  10 27447.9 3021.51   9
  -4  -1  10 29433.3 5270.23   6
  -4  -1  11 6478.31 1359.50   3
  -4  -1  11 4516.73 1765.78   9
  -4  -1  11 11872.8 5082.14   2
  -4  -1  11 8499.13 4239.65   6
  -4  -1  12 3837.66 3749.22   2
  -4  -1  12 1778.92 2420.35   6
  -4  -1  13-4661.12 4400.72   6
  -4  -1  13 4236.49 3209.55   2
  -4  -1  14 8089.13 3773.76   2
  -4   0 -11-169.407 1560.13   8
  -4   0 -10 4715.63 2769.62   8
  -4   0 -10 8474.45 2701.27   7
  -4   0  -9 1277.45 1690.90  10
  -4   0  -9 3667.62 1871.47   8
  -4   0  -9 2817.78 1898.26   7
  -4   0  -8 3427.17 1959.51   4
  -4   0  -8 3694.48 2205.72   8
  -4   0  -8 4641.56 1953.87   7
  -4   0  -8 5757.73 2578.39  10
  -4   0  -7 11490.0 2815.18   8
  -4   0  -7 14174.9 3455.33  10
  -4   0  -7 16143.9 2912.25   7
  -4   0  -7 17076.1 2939.21   4
  -4   0  -6 58361.6 5482.85   8
  -4   0  -6 55475.1 4046.42   7
  -4   0  -6 55472.9 6898.25  10
  -4   0  -6 59265.8 4536.47   4
  -4   0  -5 145859. 9606.40   5
  -4   0  -5 141024. 4905.30   7
  -4   0  -5 142054. 7643.67   8
  -4   0  -5 137093. 11112.2  10
  -4   0  -5 138341. 6168.45   4
  -4   0  -4 118625. 5215.02   4
  -4   0  -4 109639. 6270.67   8
  -4   0  -4 109432. 3166.79   7
  -4   0  -4 119204. 11039.4  10
  -4   0  -4 111637. 7749.09   5
  -4   0  -3 13849.6 2300.37   8
  -4   0  -3 15760.8 2767.52   1
  -4   0  -3 10707.4 1604.31   4
  -4   0  -3 10554.2 4138.84  10
  -4   0  -3 13603.3 2641.67   5
  -4   0  -2 46389.8 4197.88   1
  -4   0  -2 38317.0 6555.57  10
  -4   0  -2 40908.8 2899.37   4
  -4   0  -2 47082.2 4515.32   5
  -4   0  -2 43616.8 3730.63   8
  -4   0  -1 206208. 6503.40   4
  -4   0  -1 193305. 7569.95   8
  -4   0  -1 205236. 9051.00   5
  -4   0  -1 182750. 13977.4  10
  -4   0  -1 194594. 8032.68   1
  -4   0   0 394820. 10807.7   8
  -4   0   0 397663. 12013.8   5
  -4   0   1 136702. 6508.09   8
  -4   0   1 131548. 6776.77   5
  -4   0   1 147022. 10823.5  10
  -4   0   2 46670.0 5619.69  10
  -4   0   3 1831.26 1684.66  10
  -4   0   3 3249.06 1390.07   2
  -4   0   4 60970.2 5003.65   2
  -4   0   4 61866.5 5534.18  10
  -4   0   5 159258. 8817.05   2
  -4   0   5 148279. 7742.85  10
  -4   0   6 162724. 9052.22   6
  -4   0   6 161325. 9989.15   2
  -4   0   7 90217.7 8407.53   2
  -4   0   7 85339.0 6946.07   6
  -4   0   8 24764.5 1980.52   9
  -4   0   8 22486.6 1608.04   9
  -4   0   8 21744.4 4100.87   6
  -4   0   8 22907.4 4816.03   2
  -4   0   9 1982.47 595.555   3
  -4   0   9 1930.31 1022.97   9
  -4   0   9 2763.22 951.173   9
  -4   0   9 2665.04 2040.14   6
  -4   0  10 31142.1 3387.84   9
  -4   0  10 29033.3 5630.03   6
  -4   0  10 27868.5 2335.55   3
  -4   0  10 30361.7 6528.50   2
  -4   0  10 20050.7 2906.85   9
  -4   0  11 30505.9 4060.05   9
  -4   0  11 43520.5 7902.92   2
  -4   0  11 39994.0 7208.55   6
  -4   0  11 37250.6 3284.75   3
  -4   0  12 12530.8 5087.26   2
  -4   0  12 11722.6 2907.15   9
  -4   0  12 11582.2 2243.08   3
  -4   0  13-894.798 2982.16   2
  -4   0  14 710.734 2601.88   2
  -4   1 -11 3172.87 1857.09  10
  -4   1 -10 5666.61 2748.78   7
  -4   1 -10 3522.57 1960.45  10
  -4   1 -10 6276.05 2513.58   8
  -4   1  -9 9858.34 2735.29   8
  -4   1  -9 12960.7 3462.80  10
  -4   1  -9 13469.3 3253.16   7
  -4   1  -8 25329.7 4554.89  10
  -4   1  -8 21814.5 3788.12   8
  -4   1  -8 20767.5 3950.98   4
  -4   1  -8 24621.3 4036.11   7
  -4   1  -7 11204.7 3393.85  10
  -4   1  -7 12869.4 2414.51   7
  -4   1  -7 12877.6 2741.68   8
  -4   1  -7 13295.5 2907.86   4
  -4   1  -6 1441.46 2120.90  10
  -4   1  -6 1118.33 1053.61   7
  -4   1  -6 837.078 1014.36   8
  -4   1  -6 2262.78 1456.31   4
  -4   1  -5 21835.4 3676.16   5
  -4   1  -5 19174.2 2083.17   7
  -4   1  -5 18865.1 4418.23  10
  -4   1  -5 21433.7 2741.43   8
  -4   1  -5 19901.9 2745.03   4
  -4   1  -4 176765. 5207.38   7
  -4   1  -4 171776. 7070.22   8
  -4   1  -4 170827. 9085.77   5
  -4   1  -4 185537. 13618.8  10
  -4   1  -4 193023. 10144.3   1
  -4   1  -4 175553. 7310.64   4
  -4   1  -3 278395. 10950.0   1
  -4   1  -3 267614. 8504.15   8
  -4   1  -3 286923. 17949.5  10
  -4   1  -3 279745. 8800.00   4
  -4   1  -3 251184. 10225.4   5
  -4   1  -2 152876. 7471.83   1
  -4   1  -2 145188. 6172.68   4
  -4   1  -2 137418. 5958.91   8
  -4   1  -2 161929. 14201.3  10
  -4   1  -2 136575. 7164.68   5
  -4   1  -1 1618.60 1070.00   1
  -4   1  -1 2139.50 977.623   4
  -4   1  -1 506.166 771.007   8
  -4   1  -1 1685.21 1187.76   5
  -4   1   0 165985. 6761.72   8
  -4   1   0 170654. 7497.97   5
  -4   1   0 149672. 13352.0  10
  -4   1   0 166157. 6827.87   1
  -4   1   0 175628. 6908.92   4
  -4   1   1 334098. 9886.43   4
  -4   1   1 347051. 18883.7  10
  -4   1   2 234800. 14251.7  10
  -4   1   3 125034. 9464.87  10
  -4   1   4-2287.79 1733.46  10
  -4   1   5 48030.8 4794.59   2
  -4   1   5 52764.1 5051.30  10
  -4   1   6 125994. 6938.42  10
  -4   1   6 129815. 8484.54   2
  -4   1   7 110472. 8048.60   6
  -4   1   7 93623.6 7942.32   2
  -4   1   7 108169. 5721.83  10
  -4   1   8 61236.0 3107.14   9
  -4   1   8 54897.2 2431.13   9
  -4   1   8 59240.5 7036.18   2
  -4   1   8 67008.4 6821.92   6
  -4   1   9 8193.34 1346.46   9
  -4   1   9 6560.59 1238.56   3
  -4   1   9 7880.49 3030.61   6
  -4   1   9 3411.75 2892.24   2
  -4   1  10 3535.89 1170.40   3
  -4   1  10 4577.99 1528.03   9
  -4   1  10 7009.97 3062.59   2
  -4   1  11 14513.9 2688.43   9
  -4   1  11 14910.9 4880.85   2
  -4   1  11 17578.8 2540.75   3
  -4   1  12 13992.5 5129.80   2
  -4   1  12 18975.5 3062.44   3
  -4   1  12 17775.2 3352.07   9
  -4   1  13 6168.26 4367.02   2
  -4   1  14 5606.61 3918.18   2
  -4   2 -11 1453.19 1786.31  10
  -4   2 -10 2396.76 1931.73  10
  -4   2 -10 3360.15 2242.50   7
  -4   2  -9 17978.8 3113.67   8
  -4   2  -9 14957.0 3688.81   7
  -4   2  -9 8616.94 3109.46  10
  -4   2  -8 29540.0 4986.44  10
  -4   2  -8 46247.1 5362.84   7
  -4   2  -8 39554.0 4250.15   8
  -4   2  -7 70040.1 7759.25  10
  -4   2  -7 75651.8 6864.15   4
  -4   2  -7 70727.6 5704.21   7
  -4   2  -7 73641.0 5089.76   8
  -4   2  -6 20051.3 2480.40   8
  -4   2  -6 18496.0 2762.09   7
  -4   2  -6 21949.2 3433.88   4
  -4   2  -6 21356.7 4583.57  10
  -4   2  -5 6887.19 3042.60  10
  -4   2  -5 9937.63 2161.15   4
  -4   2  -5 9058.60 1609.46   8
  -4   2  -5 7851.26 2098.98   5
  -4   2  -5 9355.21 1739.24   7
  -4   2  -4 26138.1 5423.85  10
  -4   2  -4 30683.9 2705.35   7
  -4   2  -4 30462.0 3404.49   4
  -4   2  -4 31080.5 4272.16   1
  -4   2  -4 26869.5 2519.27   8
  -4   2  -4 26061.6 3439.66   5
  -4   2  -3 169372. 14169.1  10
  -4   2  -3 160152. 5895.76   8
  -4   2  -3 179388. 8924.04   1
  -4   2  -3 163909. 7468.95   4
  -4   2  -3 149159. 7437.46   5
  -4   2  -2 341553. 21309.3  10
  -4   2  -2 356752. 10682.0   4
  -4   2  -2 324702. 10485.4   5
  -4   2  -2 325508. 10788.6   1
  -4   2  -2 338888. 8660.31   8
  -4   2  -1 257377. 8761.68   1
  -4   2  -1 247280. 8807.38   5
  -4   2  -1 246045. 19034.0  10
  -4   2  -1 241196. 8752.27   4
  -4   2   0 23707.0 2547.45   1
  -4   2   0 24852.6 2914.57   4
  -4   2   0 19623.1 5635.37  10
  -4   2   0 22695.9 2642.21   5
  -4   2   1 133815. 7188.82   6
  -4   2   1 122203. 6465.41   4
  -4   2   2 296942. 18423.2  10
  -4   2   2 285754. 10484.3   6
  -4   2   2 293309. 10201.9   4
  -4   2   3 367639. 12136.5   6
  -4   2   3 382169. 19126.0  10
  -4   2   4 122964. 9887.43  10
  -4   2   4 118886. 7211.95   6
  -4   2   5 7989.21 2401.41  10
  -4   2   5 4984.94 1936.69   6
  -4   2   6 9773.34 2668.76   6
  -4   2   6 6239.72 681.283   9
  -4   2   6 7933.48 2323.49  10
  -4   2   7 18434.5 2755.32  10
  -4   2   7 18157.4 1344.62   9
  -4   2   7 24753.4 3953.71   6
  -4   2   8 15131.8 3616.71   6
  -4   2   8 20449.6 1777.29   9
  -4   2   8 20023.0 2396.29  10
  -4   2   9 30499.3 5586.82   2
  -4   2   9 30560.1 2554.78   9
  -4   2   9 22739.3 4844.88   6
  -4   2   9 26903.8 2788.64   3
  -4   2  10 5541.07 1559.40   3
  -4   2  10 7888.28 1649.43   9
  -4   2  10 5066.77 3171.56   2
  -4   2  11 2358.00 1535.59   3
  -4   2  11 15.1389 976.441   9
  -4   2  11 1030.82 2433.59   2
  -4   2  12-547.893 3600.17   2
  -4   2  12 2103.22 1591.07   3
  -4   2  12 1176.78 1086.37   9
  -4   2  13 2996.74 3708.82   2
  -4   2  14-5552.83 3997.89   2
  -4   3 -11 14460.5 3753.42  10
  -4   3 -11 6785.96 2830.95   7
  -4   3 -10 8187.71 3286.79   7
  -4   3 -10 4503.71 2338.39  10
  -4   3  -9 244.800 2041.68  10
  -4   3  -9 2088.42 2069.00   7
  -4   3  -8 4463.88 2911.94  10
  -4   3  -8 10380.3 2888.29   7
  -4   3  -8 6725.55 1513.73   8
  -4   3  -7 41820.1 6398.88  10
  -4   3  -7 50645.0 5168.74   7
  -4   3  -7 47631.6 3111.67   8
  -4   3  -6 63746.2 5164.64   7
  -4   3  -6 61739.1 3204.52   8
  -4   3  -6 70239.7 6395.45   4
  -4   3  -6 54413.1 7513.50  10
  -4   3  -6 65924.5 6179.37   5
  -4   3  -5 29017.0 3674.00   5
  -4   3  -5 30598.9 3251.86   7
  -4   3  -5 24199.0 5248.71  10
  -4   3  -5 32615.4 2267.33   8
  -4   3  -4 16721.0 2694.33   5
  -4   3  -4 16309.5 4617.78  10
  -4   3  -4 16275.6 2362.86   7
  -4   3  -4 15614.0 2757.09   4
  -4   3  -4 18757.4 3572.77   1
  -4   3  -3 14993.4 2702.13   1
  -4   3  -3 13741.9 2272.87   5
  -4   3  -3 9628.04 4332.89  10
  -4   3  -3 15843.5 2638.86   4
  -4   3  -2 40488.0 7878.07  10
  -4   3  -2 47116.1 4142.83   1
  -4   3  -2 46104.4 4307.29   4
  -4   3  -2 45836.5 3707.95   5
  -4   3  -1 102355. 6234.76   4
  -4   3  -1 99392.6 12985.9  10
  -4   3  -1 103960. 5332.84   5
  -4   3  -1 94925.1 5273.77   1
  -4   3   0 142810. 5850.15   1
  -4   3   0 146904. 7422.80   4
  -4   3   0 129802. 15326.5  10
  -4   3   1 69671.6 5243.78   4
  -4   3   1 78534.8 3981.15   1
  -4   3   2 3342.17 1414.15   6
  -4   3   2 7077.34 3576.27  10
  -4   3   2 4038.98 1443.80   4
  -4   3   3 50412.2 4605.36   6
  -4   3   3 33173.7 6738.64  10
  -4   3   4 197049. 14475.3  10
  -4   3   4 221153. 9892.33   6
  -4   3   5 106160. 7384.33   6
  -4   3   5 101212. 9429.29  10
  -4   3   5 111338. 4127.68   9
  -4   3   6 29296.6 4566.62  10
  -4   3   6 33683.3 4510.08   6
  -4   3   6 36160.8 2380.57   9
  -4   3   7-624.127 1131.01  10
  -4   3   7-522.757 1760.95   6
  -4   3   7 916.815 697.359   9
  -4   3   8 6250.78 1797.50  10
  -4   3   8 4736.14 1141.52   9
  -4   3   8 4155.78 2228.58   6
  -4   3   9 17165.2 2648.53   3
  -4   3   9 23537.0 2580.40  10
  -4   3   9 20466.8 2430.68   9
  -4   3  10 18694.0 3009.64   3
  -4   3  10 18574.5 2666.45   9
  -4   3  11 11730.6 2728.73   3
  -4   3  11 13679.5 2500.94   9
  -4   3  12 7831.70 2419.06   3
  -4   4 -11 4243.53 2586.08  10
  -4   4 -11 2382.63 2070.07   7
  -4   4 -10 9550.90 3682.13  10
  -4   4 -10 7767.07 3061.33   7
  -4   4  -9 18563.1 4563.35  10
  -4   4  -9 23033.7 4649.27   7
  -4   4  -8 17528.6 3664.07   7
  -4   4  -8 19874.9 4896.91  10
  -4   4  -7 464.841 2079.89  10
  -4   4  -7-424.867 1361.80   5
  -4   4  -7 105.202 1411.64   7
  -4   4  -6 27039.2 5791.08  10
  -4   4  -6 32428.4 4024.78   5
  -4   4  -6 36487.7 4210.37   7
  -4   4  -5 97376.0 6376.00   7
  -4   4  -5 92022.1 6119.70   5
  -4   4  -5 80448.1 9923.30  10
  -4   4  -4 149960. 6946.41   5
  -4   4  -4 161628. 7792.94   7
  -4   4  -4 144542. 13732.2  10
  -4   4  -3 45745.2 4668.47   4
  -4   4  -3 40457.4 7816.75  10
  -4   4  -3 43341.5 3588.34   5
  -4   4  -3 40882.7 4467.86   1
  -4   4  -2 147.029 800.724   5
  -4   4  -2 392.325 1051.29   4
  -4   4  -2 705.001 2614.53  10
  -4   4  -2 481.026 1015.41   1
  -4   4  -1 41545.9 3474.27   1
  -4   4  -1 35893.1 7994.48  10
  -4   4  -1 40318.5 4233.10   4
  -4   4   0 104446. 6710.91   4
  -4   4   0 94065.8 13777.3  10
  -4   4   0 104942. 4910.50   1
  -4   4   1 155644. 5236.35   1
  -4   4   1 136516. 17358.4  10
  -4   4   1 146010. 7555.43   6
  -4   4   1 165848. 8578.41   4
  -4   4   2 126156. 7103.94   6
  -4   4   2 141844. 8008.17   4
  -4   4   3 84290.0 6339.94   4
  -4   4   3 80030.2 4631.79   9
  -4   4   3 75026.9 11422.0  10
  -4   4   3 70750.6 5478.48   6
  -4   4   4 176.909 875.440   9
  -4   4   4 3102.09 1486.25   6
  -4   4   5 30341.5 2695.46   9
  -4   4   5 34315.3 6379.13  10
  -4   4   5 33611.3 4286.39   6
  -4   4   6 92846.9 4648.42   9
  -4   4   6 81144.3 8685.77  10
  -4   4   6 96869.3 7572.62   6
  -4   4   7 77371.7 4447.29   9
  -4   4   7 71521.9 7390.88  10
  -4   4   7 81831.5 7410.31   6
  -4   4   8 21613.2 2579.02   9
  -4   4   8 20725.5 3608.86  10
  -4   4   8 20153.3 4270.72   6
  -4   4   9 173.610 784.566  10
  -4   4   9 688.657 888.184   9
  -4   4  10 12298.0 2733.13   3
  -4   4  10 10876.1 1857.68  10
  -4   4  10 11380.0 2476.95   9
  -4   4  11 11792.7 2981.55   3
  -4   4  11 13849.8 2824.29   9
  -4   4  12 4583.04 2257.01   3
  -4   5 -11-3979.45 2624.61  10
  -4   5 -11-1120.31 2270.75   7
  -4   5 -10 6807.31 3211.35  10
  -4   5 -10-4407.49 2894.03   7
  -4   5  -9 3524.06 2897.97  10
  -4   5  -9 5881.02 2730.41   7
  -4   5  -8 22449.8 5504.39  10
  -4   5  -8 27918.7 4504.91   5
  -4   5  -8 26399.5 4580.25   7
  -4   5  -7 33504.3 4167.53   5
  -4   5  -7 22879.1 5706.30  10
  -4   5  -7 30359.4 4574.96   7
  -4   5  -6 17357.4 5448.14  10
  -4   5  -6 15070.4 2508.51   5
  -4   5  -6 14306.8 2993.92   7
  -4   5  -5 2845.36 1731.35   7
  -4   5  -5 48.0552 2357.55  10
  -4   5  -5 1040.52 1025.16   5
  -4   5  -4 63974.3 9577.74  10
  -4   5  -4 66625.0 5548.69   7
  -4   5  -4 66275.3 4148.75   5
  -4   5  -3 151454. 15003.3  10
  -4   5  -3 173299. 6025.40   5
  -4   5  -2 87011.5 5689.46   1
  -4   5  -2 93808.4 12427.9  10
  -4   5  -1 27975.5 2848.37   1
  -4   5  -1 16427.0 6506.24  10
  -4   5   0 3718.82 3612.47  10
  -4   5   0 8170.21 1464.95   1
  -4   5   1 66509.6 13160.6  10
  -4   5   1 79501.0 3518.77   1
  -4   5   1 76160.1 5494.81   6
  -4   5   2 138210. 7462.54   6
  -4   5   2 103249. 16887.4  10
  -4   5   3 132273. 17344.2  10
  -4   5   3 121479. 6415.48   9
  -4   5   3 120514. 7238.97   6
  -4   5   4 43228.4 3783.21   9
  -4   5   4 43728.3 8835.03  10
  -4   5   4 42755.5 4689.15   6
  -4   5   5 1127.16 2297.71  10
  -4   5   5-133.320 874.094   9
  -4   5   5 729.583 1359.66   6
  -4   5   6 11222.8 3092.23   6
  -4   5   6 10542.2 4016.58  10
  -4   5   6 11441.6 2077.28   9
  -4   5   7 60397.9 6506.71   6
  -4   5   7 54667.9 7200.52  10
  -4   5   7 60143.9 4523.27   9
  -4   5   8 58804.7 4656.65   9
  -4   5   8 50095.9 6312.58  10
  -4   5   8 51996.3 6663.59   6
  -4   5   9 17910.2 3479.24  10
  -4   5   9 27399.5 5423.50   6
  -4   5   9 26051.4 3457.14   9
  -4   5  10-153.868 1315.58   9
  -4   5  11 3471.76 2107.01   3
  -4   5  11-298.982 1176.05   9
  -4   5  12 5993.54 2591.24   3
  -4   6 -10 5658.60 3536.87  10
  -4   6 -10 2975.11 2526.94   7
  -4   6  -9 638.889 2636.10  10
  -4   6  -9-779.306 1949.32   7
  -4   6  -8 8375.91 2173.19   5
  -4   6  -8 5710.93 3669.97  10
  -4   6  -8 3821.63 2306.75   7
  -4   6  -7 23453.9 6148.89  10
  -4   6  -7 29505.5 4710.81   7
  -4   6  -7 28688.3 3463.57   5
  -4   6  -6 49060.6 5709.47   7
  -4   6  -6 52461.7 3971.64   5
  -4   6  -6 40164.9 7684.16  10
  -4   6  -5 38935.7 7779.11  10
  -4   6  -5 38702.7 2941.08   5
  -4   6  -5 43534.4 5152.80   7
  -4   6  -4-10733.0 4756.41  10
  -4   6  -3 59148.2 9882.49  10
  -4   6  -2 149162. 7540.14   1
  -4   6  -2 149284. 16130.2  10
  -4   6  -1 160250. 6706.87   1
  -4   6  -1 174257. 18424.6  10
  -4   6   0 55408.7 3310.70   1
  -4   6   0 47637.1 10761.9  10
  -4   6   1-222.034 1009.01   6
  -4   6   1 702.322 471.723   1
  -4   6   2 47687.4 4602.50   9
  -4   6   2 44442.2 4331.08   6
  -4   6   3 70078.7 5433.78   9
  -4   6   3 66413.9 5518.73   6
  -4   6   3 52511.9 11470.5  10
  -4   6   4 59405.4 4925.46   9
  -4   6   4 49808.0 10337.1  10
  -4   6   4 57680.7 5432.98   6
  -4   6   5 15962.5 2603.02   9
  -4   6   5 10699.2 4480.70  10
  -4   6   5 13434.8 2921.25   6
  -4   6   6 9078.15 3909.40  10
  -4   6   6 4588.00 1576.68   9
  -4   6   6 4232.18 2292.95   6
  -4   6   7 2825.77 2434.34  10
  -4   6   7-47.0616 1501.92   9
  -4   6   7-670.555 1984.79   6
  -4   6   8 10465.6 3499.27   6
  -4   6   8 8195.60 3444.65  10
  -4   6   8 11933.8 2654.28   9
  -4   6   9 9127.18 2937.83  10
  -4   6   9 17452.6 4583.75   6
  -4   6   9 17805.4 3199.97   9
  -4   6  10 5224.62 1899.72   9
  -4   6  12 4549.96 2529.77   3
  -4   7  -9 2778.16 3139.52  10
  -4   7  -9 3256.07 2859.41   7
  -4   7  -8 3192.65 2604.77   7
  -4   7  -8-2092.81 3081.96  10
  -4   7  -7 2727.61 3068.48  10
  -4   7  -7 2743.16 2299.80   7
  -4   7  -6 9583.08 4409.98  10
  -4   7  -6 12636.9 3463.53   7
  -4   7  -5 26842.0 7080.67  10
  -4   7  -4 36625.3 7845.30  10
  -4   7  -3 12345.1 5076.61  10
  -4   7  -2 2160.79 3547.21  10
  -4   7  -1 20125.9 6079.52  10
  -4   7  -1 31050.9 2953.27   1
  -4   7   0 113923. 16322.4  10
  -4   7   0 121568. 4673.76   1
  -4   7   1 80909.8 5723.09   6
  -4   7   1 77391.4 6566.89   9
  -4   7   1 77470.5 14702.2  10
  -4   7   2 11107.3 2451.70   6
  -4   7   2 10386.6 2641.18   9
  -4   7   3 3416.58 1704.15   9
  -4   7   3 3652.49 1757.11   6
  -4   7   3 3204.19 4229.00  10
  -4   7   4 22791.3 3613.87   6
  -4   7   4 15081.1 2914.72   9
  -4   7   4 8900.76 5407.26  10
  -4   7   5 25008.5 3589.25   9
  -4   7   5 30277.4 4390.78   6
  -4   7   6 31571.6 7591.05  10
  -4   7   6 20200.6 3818.78   6
  -4   7   6 23184.4 3535.41   9
  -4   7   7 18955.0 4058.02   6
  -4   7   7 17334.9 5301.92  10
  -4   7   7 17941.7 3143.47   9
  -4   7   8-3004.08 2611.01  10
  -4   7   8 658.954 1501.64   9
  -4   7   8 2049.31 2248.55   6
  -4   7   9-2774.58 2160.67  10
  -4   7   9-1181.35 2651.07   6
  -4   7   9 228.474 1412.77   9
  -4   7  10 4289.38 3383.64   6
  -4   7  10 2631.87 1731.29   9
  -4   7  11 312.093 2913.75   6
  -4   8  -8 9931.08 4198.97   7
  -4   8  -8 3016.16 3497.42  10
  -4   8  -7 2783.39 2942.66   7
  -4   8  -7 400.840 2943.99  10
  -4   8  -6 7914.98 4335.72  10
  -4   8  -5 14147.1 5687.78  10
  -4   8  -4 31087.5 8409.28  10
  -4   8  -3 28658.3 7771.44  10
  -4   8  -2 28005.3 7569.74  10
  -4   8  -1-2139.63 3880.63  10
  -4   8   0 9808.23 5712.47  10
  -4   8   1 51770.4 11389.6  10
  -4   8   1 50866.7 5750.93   9
  -4   8   2 52615.3 12975.3  10
  -4   8   2 67891.7 6457.33   9
  -4   8   2 71602.9 5625.65   6
  -4   8   3 24118.2 8621.35  10
  -4   8   3 35372.6 4197.76   6
  -4   8   3 34245.0 4573.47   9
  -4   8   4 6945.49 2167.05   6
  -4   8   4 4447.70 1955.89   9
  -4   8   4-429.977 4274.56  10
  -4   8   5 3927.38 3513.02  10
  -4   8   5 3021.79 1975.83   6
  -4   8   5 2905.90 1898.92   9
  -4   8   6 14034.9 3137.02   9
  -4   8   6 17854.6 3853.06   6
  -4   8   6 23472.9 6816.19  10
  -4   8   7 21586.7 3859.68   9
  -4   8   7 27685.6 5004.19   6
  -4   8   7 24443.7 6006.86  10
  -4   8   8 10785.2 4248.64  10
  -4   8   8 9174.74 3121.36   6
  -4   8   8 6883.38 2484.03   9
  -4   8   9 5915.36 3139.07   6
  -4   8   9 2068.74 1784.92   9
  -4   9  -7 23056.0 6501.63  10
  -4   9  -6 9085.53 5033.28  10
  -4   9  -5-2868.62 3667.15  10
  -4   9  -4-1130.88 3129.22  10
  -4   9  -3 40384.4 9456.87  10
  -4   9  -2 24756.7 7631.75  10
  -4   9  -1 35045.6 8897.27  10
  -4   9   0 4872.53 4600.81  10
  -4   9   1-17064.0 6723.29  10
  -4   9   1 797.626 1802.55   9
  -4   9   2 11383.3 2290.46   6
  -4   9   2 14352.5 8308.16  10
  -4   9   2 9633.67 2911.71   9
  -4   9   3 31378.9 4805.93   9
  -4   9   3 38074.4 10225.0  10
  -4   9   3 34290.1 4250.26   6
  -4   9   4 30379.0 9011.17  10
  -4   9   4 39005.5 4829.24   6
  -4   9   4 37863.8 5276.27   9
  -4   9   5 14504.8 3513.04   9
  -4   9   5 11175.4 3035.23   6
  -4   9   5 14270.9 6250.03  10
  -4   9   6-609.140 1583.21   9
  -4   9   6 22.0745 3598.07  10
  -4   9   6-189.918 1575.41   6
  -4   9   7 3426.05 2325.42   9
  -4   9   7 2881.35 3309.97  10
  -4   9   7 1307.48 1833.60   6
  -4   9   8 8781.08 3032.23   9
  -4   9   8 15720.4 4158.16   6
  -4  10  -5 10306.7 4962.58  10
  -4  10  -4 7830.02 4617.84  10
  -4  10  -3 5692.17 4581.86  10
  -4  10  -2 19303.6 6980.53  10
  -4  10  -1 13667.9 6818.50  10
  -4  10   0 17318.8 6816.98  10
  -4  10   1 1775.49 3821.37  10
  -4  10   1 1653.96 2040.46   9
  -4  10   2 162.899 1678.83   9
  -4  10   2-6016.08 4651.74  10
  -4  10   3 3741.68 4037.11  10
  -4  10   3 4048.56 2398.52   9
  -4  10   4 7810.94 2732.81   9
  -4  10   4-4925.16 3995.00  10
  -4  10   5 4878.82 3177.02  10
  -4  10   5 10933.0 3257.36   9
  -3 -10  -2-4582.55 2792.60   5
  -3 -10  -2 3327.10 2960.71   8
  -3 -10  -1 2390.56 2150.35   5
  -3 -10  -1-1119.73 2305.14   8
  -3 -10   0 10451.8 3073.37   5
  -3 -10   0 10552.4 3725.04   8
  -3 -10   1 15848.8 3409.24   5
  -3 -10   1 20532.0 4385.57   8
  -3 -10   1 27804.6 6599.58   2
  -3 -10   2 22045.3 5888.84   2
  -3 -10   2 16353.9 4088.08   8
  -3 -10   3 10579.0 4515.87   2
  -3 -10   3 9203.39 3155.28   8
  -3 -10   4 990.418 1995.29   8
  -3 -10   4 734.013 2518.54   2
  -3 -10   5 1715.86 1683.68   8
  -3 -10   5 6321.60 4268.08   2
  -3 -10   6 12282.2 3336.80   8
  -3 -10   6 9736.20 4790.88   2
  -3 -10   7 18987.5 4008.23   8
  -3 -10   7 19330.3 6700.39   2
  -3  -9  -5-9021.64 4270.81   8
  -3  -9  -5-5428.91 3047.57   5
  -3  -9  -4 4634.10 2702.56   5
  -3  -9  -4 3333.96 3029.32   8
  -3  -9  -3 18995.5 4680.93   8
  -3  -9  -3 17479.8 4054.66   5
  -3  -9  -2 31210.9 5094.97   5
  -3  -9  -2 30291.8 5616.41   8
  -3  -9  -1 18355.8 4195.22   8
  -3  -9  -1 21529.5 5274.82   2
  -3  -9  -1 24703.9 4391.64   5
  -3  -9   0-132.198 1723.02   8
  -3  -9   0 2629.24 1699.04   5
  -3  -9   1 3230.92 2447.85   2
  -3  -9   1 1465.17 1981.92   8
  -3  -9   1 2328.90 1908.07   5
  -3  -9   2 18316.6 5111.81   2
  -3  -9   2 17867.8 3922.67   8
  -3  -9   3 31887.3 6766.39   2
  -3  -9   3 25178.1 4293.61   8
  -3  -9   4 14705.6 3297.58   8
  -3  -9   4 15690.4 5210.33   2
  -3  -9   5 4586.34 2359.98   8
  -3  -9   5 5429.71 3461.25   2
  -3  -9   6 2682.97 3320.90   2
  -3  -9   6 795.967 2030.39   8
  -3  -9   7 4025.49 3242.35   2
  -3  -9   7-2304.74 2095.94   8
  -3  -9   8 2319.17 3057.35   2
  -3  -9   9 14484.0 5429.53   2
  -3  -8  -7 6219.10 4141.95   8
  -3  -8  -7 5878.40 4088.83   5
  -3  -8  -6 8356.37 3619.23   5
  -3  -8  -6-4860.36 3296.36   8
  -3  -8  -5 7779.54 3484.68   8
  -3  -8  -5 15473.2 4179.34   5
  -3  -8  -4 6546.87 3044.57   5
  -3  -8  -4 4510.28 3127.39   8
  -3  -8  -3-534.039 2353.51   8
  -3  -8  -3 2531.68 2155.39   5
  -3  -8  -2 8312.45 2932.95   2
  -3  -8  -2 4645.43 2690.77   8
  -3  -8  -2 4607.18 2154.57   5
  -3  -8  -1 33578.6 4913.99   5
  -3  -8  -1 34243.3 5981.78   2
  -3  -8  -1 37086.5 5430.08   8
  -3  -8   0 54211.8 6289.94   8
  -3  -8   0 53734.9 5807.67   5
  -3  -8   0 51677.3 7296.96   2
  -3  -8   1 33572.3 4933.17   8
  -3  -8   1 41404.9 6787.50   2
  -3  -8   1 37887.6 4761.63   5
  -3  -8   2 2347.91 1726.33   5
  -3  -8   2 2816.37 2309.45   2
  -3  -8   2 3256.64 1937.31   8
  -3  -8   3 6761.71 2413.72   8
  -3  -8   3 12089.3 4510.37   2
  -3  -8   4 42766.4 7382.84   2
  -3  -8   4 44552.9 5271.52   8
  -3  -8   5 61435.7 6090.70   8
  -3  -8   5 58153.4 9286.38   2
  -3  -8   6 30057.2 4555.79   8
  -3  -8   6 33520.2 7653.31   2
  -3  -8   7 3796.59 2073.14   8
  -3  -8   7 9073.84 4517.01   2
  -3  -8   8 431.892 2401.63   2
  -3  -8   9-7123.82 4141.12   2
  -3  -8  10 4343.16 3683.10   2
  -3  -8  11 4311.82 3348.79   2
  -3  -7  -8 6405.09 5164.65   8
  -3  -7  -8 9638.59 5493.54   5
  -3  -7  -7 854.911 3883.37   8
  -3  -7  -7 786.968 2582.41   5
  -3  -7  -6 2801.61 2926.87   5
  -3  -7  -6 8398.72 4226.63   8
  -3  -7  -5 26124.2 5088.23   5
  -3  -7  -5 25025.6 5290.62   8
  -3  -7  -4 40783.8 6286.40   8
  -3  -7  -4 40574.1 5798.20   5
  -3  -7  -3 45466.3 5383.57   2
  -3  -7  -3 51642.1 6535.54   8
  -3  -7  -3 42627.9 5678.72   5
  -3  -7  -3 50525.8 5164.70   7
  -3  -7  -2 7960.86 2922.50   8
  -3  -7  -2 12871.7 3213.39   5
  -3  -7  -2 11278.0 3083.04   2
  -3  -7  -2 14925.7 2983.11   7
  -3  -7  -1 2808.94 1917.04   5
  -3  -7  -1 3126.41 1476.21   7
  -3  -7  -1 3633.49 1881.60   2
  -3  -7  -1 3181.32 2049.97   8
  -3  -7   0 60086.3 6167.53   8
  -3  -7   0 71871.8 7927.94   2
  -3  -7   0 60350.5 5903.49   5
  -3  -7   0 65412.9 5880.12   7
  -3  -7   1 144998. 9201.98   8
  -3  -7   1 132768. 8500.64   5
  -3  -7   1 136538. 11560.5   2
  -3  -7   2 130322. 8038.35   5
  -3  -7   2 127953. 8540.25   8
  -3  -7   2 121338. 11400.5   2
  -3  -7   3 38085.2 4851.50   8
  -3  -7   3 30875.1 6294.82   2
  -3  -7   4 3701.83 2004.90   8
  -3  -7   4 4735.21 3283.43   2
  -3  -7   5 72299.0 6322.90   8
  -3  -7   5 66136.5 5835.77   3
  -3  -7   5 63066.5 9529.44   2
  -3  -7   6 83146.2 6752.40   8
  -3  -7   6 82640.9 6501.39   3
  -3  -7   6 80915.1 11177.5   2
  -3  -7   7 35858.2 4385.60   3
  -3  -7   7 34221.2 7510.86   2
  -3  -7   7 38149.8 4762.93   8
  -3  -7   8 5972.27 1713.07   6
  -3  -7   8 3778.57 3311.94   2
  -3  -7   9 1105.16 1001.83   6
  -3  -7   9-37.0525 2200.66   2
  -3  -7  10 5374.89 1806.94   6
  -3  -7  10 8068.55 4278.85   2
  -3  -7  11 2029.41 2905.50   2
  -3  -7  12-6305.01 3807.46   2
  -3  -6  -9 5330.47 4848.17   8
  -3  -6  -8 28818.5 7761.34   8
  -3  -6  -7 24584.4 6584.54   8
  -3  -6  -6 3604.68 3291.70   8
  -3  -6  -6-1361.05 2618.59   5
  -3  -6  -5 6203.68 3030.26   8
  -3  -6  -5 2112.27 1242.85   7
  -3  -6  -5 2856.85 900.523   2
  -3  -6  -5 1945.42 2197.30   5
  -3  -6  -4 38497.6 3626.03   2
  -3  -6  -4 39151.1 5799.93   8
  -3  -6  -4 42918.2 2567.37   2
  -3  -6  -4 44388.6 4496.80   7
  -3  -6  -4 45851.1 5931.69   5
  -3  -6  -3 61807.1 5279.06   2
  -3  -6  -3 81430.0 5895.59   7
  -3  -6  -3 81688.5 7489.21   5
  -3  -6  -3 74677.7 7263.80   8
  -3  -6  -2 64653.9 6069.29   2
  -3  -6  -2 61669.0 5054.33   7
  -3  -6  -2 64879.2 6464.14   8
  -3  -6  -2 65486.1 6332.91   5
  -3  -6  -1 14231.9 3097.12   8
  -3  -6  -1 15811.0 2594.34   7
  -3  -6  -1 16839.9 3256.00   5
  -3  -6  -1 16030.4 3320.55   2
  -3  -6   0 227.131 1418.97   8
  -3  -6   0 103.061 828.318   7
  -3  -6   0 494.498 1280.51   5
  -3  -6   1 28220.9 3846.69   5
  -3  -6   1 26539.1 3768.17   3
  -3  -6   1 32439.0 3816.20   7
  -3  -6   1 26089.8 3851.82   8
  -3  -6   1 36335.3 5718.77   2
  -3  -6   2 115110. 7390.55   3
  -3  -6   2 112426. 7251.21   5
  -3  -6   2 111165. 7334.51   7
  -3  -6   2 122668. 11208.9   2
  -3  -6   2 116496. 7550.40   8
  -3  -6   3 141947. 8531.30   7
  -3  -6   3 135140. 7727.33   3
  -3  -6   3 127296. 7935.58   8
  -3  -6   3 136477. 12551.8   2
  -3  -6   4 61013.2 5912.63   7
  -3  -6   4 61407.8 5461.58   8
  -3  -6   4 66808.8 9461.74   2
  -3  -6   4 60290.3 5063.57   3
  -3  -6   5 2162.67 1299.05   3
  -3  -6   5 3820.06 2990.33   2
  -3  -6   5 473.952 1371.11   8
  -3  -6   6 11879.5 4721.51   2
  -3  -6   6 21966.0 3117.37   3
  -3  -6   6 17573.4 3185.24   8
  -3  -6   7 38908.5 3847.22   6
  -3  -6   7 33666.0 6941.89   2
  -3  -6   7 42260.7 4288.38   3
  -3  -6   8 26550.9 6448.93   2
  -3  -6   8 29257.0 3538.28   6
  -3  -6   8 33285.7 3940.28   3
  -3  -6   9 4265.72 2536.26   2
  -3  -6   9 12870.9 2793.61   3
  -3  -6   9 9722.84 2336.97   6
  -3  -6  10 1605.42 2451.36   2
  -3  -6  10 1707.54 1461.63   6
  -3  -6  11 3708.82 2256.43   6
  -3  -6  11-473.638 2343.19   2
  -3  -6  12 7658.88 2887.26   6
  -3  -6  12 7203.63 3777.15   2
  -3  -6  13 3421.60 2403.74   6
  -3  -6  13 4037.28 2934.15   2
  -3  -5 -10-5459.19 3849.49   8
  -3  -5  -9-18296.3 6268.28   8
  -3  -5  -9 1961.72 2002.02   7
  -3  -5  -8 7431.72 3662.30   8
  -3  -5  -7 37729.3 7010.96   8
  -3  -5  -6 38676.5 4334.45   7
  -3  -5  -6 47718.5 7305.60   8
  -3  -5  -5 21098.7 4599.84   8
  -3  -5  -5 16616.5 2647.77   7
  -3  -5  -5 22754.6 4679.47   5
  -3  -5  -4 1153.32 1904.97   8
  -3  -5  -4-1514.99 942.068   7
  -3  -5  -4 85.6620 1802.95   5
  -3  -5  -3 45550.5 5392.11   5
  -3  -5  -3 39211.1 3678.54   7
  -3  -5  -3 42449.9 5138.91   8
  -3  -5  -3 37546.4 3185.24   2
  -3  -5  -3 36768.4 2016.51   2
  -3  -5  -2 103744. 7598.61   5
  -3  -5  -2 110071. 6801.64   2
  -3  -5  -2 105678. 5794.65   7
  -3  -5  -2 93858.9 7126.39   8
  -3  -5  -1 111155. 7828.37   3
  -3  -5  -1 96495.4 7433.70   2
  -3  -5  -1 102853. 7172.26   8
  -3  -5  -1 100478. 5668.58   7
  -3  -5  -1 113370. 7610.11   5
  -3  -5   0 58360.2 5318.48   9
  -3  -5   0 54829.5 6503.43   2
  -3  -5   0 48148.8 4812.71   5
  -3  -5   0 50579.4 4119.67   7
  -3  -5   0 46805.5 4702.07   8
  -3  -5   0 49644.3 4988.35   3
  -3  -5   1 12261.3 2459.61   3
  -3  -5   1 14787.0 2851.08   8
  -3  -5   1 14307.1 2627.04   9
  -3  -5   1 14894.2 2708.43   5
  -3  -5   1 12964.5 3631.98   2
  -3  -5   1 11425.6 2035.91   7
  -3  -5   2 4882.75 1610.57   9
  -3  -5   2 6245.81 1719.76   3
  -3  -5   2 6215.41 2172.76   8
  -3  -5   2 7341.11 3245.22   2
  -3  -5   2 5136.19 1496.76   7
  -3  -5   2 6582.74 1976.82   5
  -3  -5   3 54739.1 4794.39   9
  -3  -5   3 50167.7 4722.14   8
  -3  -5   3 49049.6 4269.83   3
  -3  -5   3 52156.9 4931.73   7
  -3  -5   3 46026.5 7749.62   2
  -3  -5   4 86214.8 6115.96   8
  -3  -5   4 102781. 6485.10   9
  -3  -5   4 95534.8 11443.1   2
  -3  -5   4 95079.9 5675.04   3
  -3  -5   4 98435.4 7232.97   7
  -3  -5   5 110665. 6779.05   9
  -3  -5   5 103929. 5861.80   6
  -3  -5   5 100910. 6668.94   8
  -3  -5   5 104763. 8113.59   7
  -3  -5   5 113211. 6068.11   3
  -3  -5   5 112903. 12084.1   2
  -3  -5   6 37376.2 3736.23   6
  -3  -5   6 42363.7 3756.77   3
  -3  -5   6 42772.6 4346.67   9
  -3  -5   6 31769.3 6433.40   2
  -3  -5   6 38941.0 4313.63   8
  -3  -5   7 574.977 1013.18   6
  -3  -5   7 1150.07 934.141   3
  -3  -5   7-2328.56 1365.50   9
  -3  -5   7-310.168 1851.96   2
  -3  -5   8 23594.5 3413.94   6
  -3  -5   8 29147.6 3882.69   9
  -3  -5   8 24465.1 3013.37   3
  -3  -5   9 49018.0 4424.62   3
  -3  -5   9 55000.3 5477.59   6
  -3  -5  10 27301.7 4304.28   6
  -3  -5  10 20678.6 5334.89   2
  -3  -5  11 8312.15 2920.41   6
  -3  -5  11 7590.50 3706.04   2
  -3  -5  12-900.937 2294.39   2
  -3  -5  12-4330.28 2748.70   6
  -3  -5  13-6330.65 3490.04   6
  -3  -5  13 315.172 2302.01   2
  -3  -5  14-2564.95 2883.73   6
  -3  -5  14 2039.77 2943.17   2
  -3  -4 -11-6854.45 3802.38   8
  -3  -4 -10 3220.31 3299.62   8
  -3  -4 -10 7813.84 2888.54   7
  -3  -4  -9 1077.83 3455.09   8
  -3  -4  -9 2397.26 1883.33   7
  -3  -4  -8 420.924 2030.29   8
  -3  -4  -8 1100.07 1560.07   7
  -3  -4  -7 4154.24 2702.64   8
  -3  -4  -7 655.219 321.408   4
  -3  -4  -6 27980.7 5293.40   8
  -3  -4  -5 75275.8 7498.44   8
  -3  -4  -4 94849.5 5217.09   7
  -3  -4  -4 92450.3 7631.83   8
  -3  -4  -4 99487.6 6717.54   1
  -3  -4  -4 98328.2 8066.42   5
  -3  -4  -3 34586.0 4985.18   3
  -3  -4  -3 35310.0 4586.91   5
  -3  -4  -3 33293.8 4347.87   8
  -3  -4  -3 31413.8 2851.68   7
  -3  -4  -2 332.073 974.627   9
  -3  -4  -2-493.252 1231.41   8
  -3  -4  -2 768.713 1601.11   5
  -3  -4  -2 1684.22 1295.26   3
  -3  -4  -2 241.339 397.990   2
  -3  -4  -2 424.162 627.846   7
  -3  -4  -1 61601.6 5358.32   9
  -3  -4  -1 58650.3 5202.06   5
  -3  -4  -1 55606.1 5316.50   3
  -3  -4  -1 51529.8 3524.27   7
  -3  -4  -1 59935.8 5086.54   2
  -3  -4  -1 58613.7 5012.41   8
  -3  -4   0 173376. 6685.89   7
  -3  -4   0 187508. 8832.70   5
  -3  -4   0 186806. 11633.0   2
  -3  -4   0 177612. 8415.55   8
  -3  -4   0 181795. 8864.84   3
  -3  -4   0 180556. 8624.79   9
  -3  -4   1 200064. 8861.43   5
  -3  -4   1 199878. 7638.27   7
  -3  -4   1 191182. 8566.51   8
  -3  -4   1 202489. 8714.46   9
  -3  -4   1 198672. 8540.78   3
  -3  -4   1 212193. 15007.1   2
  -3  -4   2 103499. 6405.21   8
  -3  -4   2 110650. 5954.60   3
  -3  -4   2 107538. 6119.10   7
  -3  -4   2 109030. 6183.73   9
  -3  -4   2 108028. 6480.35   5
  -3  -4   2 110426. 11346.5   2
  -3  -4   3 3378.97 1513.61   7
  -3  -4   3 1673.25 2489.13   2
  -3  -4   3 3306.95 1687.06   8
  -3  -4   3 2783.51 1056.19   3
  -3  -4   3 2901.11 1171.57   9
  -3  -4   4 10024.4 1999.24   6
  -3  -4   4 10970.0 2027.26   9
  -3  -4   4 9935.05 2253.36   8
  -3  -4   4 3573.86 2238.46   2
  -3  -4   4 9618.20 2381.17   7
  -3  -4   4 10260.1 1666.39   3
  -3  -4   5 84211.0 7452.97   7
  -3  -4   5 79365.5 5739.17   8
  -3  -4   5 74531.8 4218.44   3
  -3  -4   5 82133.7 5215.72   9
  -3  -4   5 84352.9 5338.47   6
  -3  -4   5 70407.7 9219.06   2
  -3  -4   6 129253. 6663.82   9
  -3  -4   6 125847. 6778.88   6
  -3  -4   6 138243. 10468.5   7
  -3  -4   6 128732. 5507.90   3
  -3  -4   7 95709.0 5947.66   9
  -3  -4   7 95993.1 4863.18   3
  -3  -4   7 89472.6 6146.16   6
  -3  -4   8 19838.4 2975.23   9
  -3  -4   8 19543.6 5109.04   2
  -3  -4   8 22959.9 3487.29   6
  -3  -4   8 22938.5 2602.84   3
  -3  -4   9 1853.81 3083.59   2
  -3  -4   9 1548.74 1528.55   9
  -3  -4   9 2651.73 1933.47   6
  -3  -4  10 31988.9 4965.16   6
  -3  -4  10 34526.4 4589.59   9
  -3  -4  10 28095.6 5942.03   2
  -3  -4  11 38547.2 6198.36   6
  -3  -4  11 31154.1 6473.48   2
  -3  -4  12 10337.7 4053.57   2
  -3  -4  12 11910.1 3091.28   3
  -3  -4  12 13207.3 4551.52   6
  -3  -4  13 1877.18 2709.36   2
  -3  -4  13 1043.52 3194.72   6
  -3  -4  14 4216.65 3334.61   2
  -3  -4  14-9122.51 5183.27   6
  -3  -3 -11-1885.04 2855.07   8
  -3  -3 -10 8319.10 2874.45   7
  -3  -3 -10 4389.18 3032.01   8
  -3  -3  -9 11256.9 3143.47   7
  -3  -3  -9 9414.67 4847.18   8
  -3  -3  -8 20000.9 2781.41   4
  -3  -3  -8 19953.0 3935.88   7
  -3  -3  -8 21936.9 5404.49   8
  -3  -3  -7 19153.6 4743.44   8
  -3  -3  -7 14321.0 1878.24   4
  -3  -3  -7 15404.4 2136.41   4
  -3  -3  -7 11350.7 2964.48   7
  -3  -3  -6-1447.99 2228.72   8
  -3  -3  -6 539.778 395.879   4
  -3  -3  -6-296.885 1777.87   7
  -3  -3  -6 431.455 449.933   4
  -3  -3  -5 19422.9 3675.49   8
  -3  -3  -4 115220. 7016.55   1
  -3  -3  -4 111732. 9976.25   3
  -3  -3  -4 109848. 7594.27   8
  -3  -3  -3 308882. 15103.6   3
  -3  -3  -3 298953. 10702.1   1
  -3  -3  -3 270315. 6988.10   7
  -3  -3  -3 304555. 11559.3   8
  -3  -3  -2 192094. 10903.1   3
  -3  -3  -2 193554. 5494.95   7
  -3  -3  -2 194708. 8745.36   8
  -3  -3  -1 43307.7 4115.75   8
  -3  -3  -1 42534.3 2054.51   2
  -3  -3  -1 52488.9 5187.54   3
  -3  -3  -1 41172.6 2579.87   7
  -3  -3  -1 51093.7 4613.80   9
  -3  -3   0 88125.2 6039.45   3
  -3  -3   0 92838.7 4989.25   2
  -3  -3   0 85521.6 5503.93   9
  -3  -3   0 83881.0 5389.11   8
  -3  -3   0 78474.9 3921.23   7
  -3  -3   1 419558. 10177.0   7
  -3  -3   1 416491. 14203.3   2
  -3  -3   1 443575. 11608.8   9
  -3  -3   1 435350. 11998.7   3
  -3  -3   1 450844. 12251.0   8
  -3  -3   1 442394. 12602.1   5
  -3  -3   2 543460. 11973.5   3
  -3  -3   2 542286. 13701.1   5
  -3  -3   2 562551. 12412.0   9
  -3  -3   2 561129. 13598.3   7
  -3  -3   2 568052. 13774.5   8
  -3  -3   3 222450. 10034.6   7
  -3  -3   3 210511. 6648.16   3
  -3  -3   3 214712. 8491.52   8
  -3  -3   3 225532. 7525.63   9
  -3  -3   3 229808. 8386.91   6
  -3  -3   3 218719. 14604.8   2
  -3  -3   4 2874.35 1173.99   6
  -3  -3   4 2238.99 969.231   9
  -3  -3   4 3102.98 1525.08   8
  -3  -3   4 4434.97 1720.79   7
  -3  -3   4 2773.63 2657.54   2
  -3  -3   4 3547.53 907.065   3
  -3  -3   5 58070.9 3843.04   9
  -3  -3   5 66255.2 7022.29   7
  -3  -3   5 57779.6 3014.02   3
  -3  -3   5 66260.0 8771.40   2
  -3  -3   5 68352.4 4856.92   6
  -3  -3   6 182660. 14465.6   2
  -3  -3   6 176151. 8187.89   6
  -3  -3   6 174290. 6821.74   9
  -3  -3   6 174841. 5223.47   3
  -3  -3   6 182359. 13247.1   7
  -3  -3   7 112149. 11057.7   7
  -3  -3   7 125225. 7402.01   6
  -3  -3   7 117047. 11470.4   2
  -3  -3   7 122584. 4611.99   3
  -3  -3   7 121330. 6006.60   9
  -3  -3   8 66458.8 8725.69   2
  -3  -3   8 59803.0 4599.46   9
  -3  -3   8 59825.5 5646.94   6
  -3  -3   9 17453.5 3804.64   6
  -3  -3   9 13087.4 4091.29   2
  -3  -3   9 21040.2 3160.05   9
  -3  -3  10-1215.21 2050.74   2
  -3  -3  10 415.432 1318.82   3
  -3  -3  10 3110.82 1693.57   9
  -3  -3  10-2239.12 2628.69   6
  -3  -3  11 11549.1 3988.52   2
  -3  -3  11 4874.24 1776.42   3
  -3  -3  11 5609.61 2687.47   9
  -3  -3  12 12351.9 2704.54   3
  -3  -3  12 13882.2 4297.15   2
  -3  -3  13 9392.07 3887.07   2
  -3  -3  14 4474.29 2805.79   2
  -3  -2 -12 5669.15 2967.57   8
  -3  -2 -11 4519.37 2063.79   7
  -3  -2 -11 3681.31 3213.85   8
  -3  -2 -10-3782.29 3137.98   8
  -3  -2 -10 1250.18 1729.38   7
  -3  -2  -9 4792.86 2564.12   8
  -3  -2  -9 9792.56 2864.00   7
  -3  -2  -8 38784.0 4598.86   4
  -3  -2  -8 41590.8 4948.22   7
  -3  -2  -8 39095.0 6746.10   8
  -3  -2  -7 65669.7 4973.94   4
  -3  -2  -7 63867.3 5966.92   7
  -3  -2  -7 70941.3 7900.79   8
  -3  -2  -6 45894.7 3313.61   4
  -3  -2  -6 47291.8 5828.96   8
  -3  -2  -6 41645.9 4643.78   7
  -3  -2  -5 3361.72 750.606   4
  -3  -2  -5 3715.49 1878.20   8
  -3  -2  -5 3140.66 1559.49   1
  -3  -2  -5 510.160 1090.72   7
  -3  -2  -4 6170.20 1702.57   7
  -3  -2  -4 4663.54 1638.24   1
  -3  -2  -4 1917.01 2173.99   3
  -3  -2  -4 4468.20 2009.59   8
  -3  -2  -3 93780.0 9138.47   3
  -3  -2  -3 99742.4 6141.00   8
  -3  -2  -3 102234. 6078.07   1
  -3  -2  -2 188110. 7889.23   8
  -3  -2  -2 176705. 3889.73   7
  -3  -2  -2 194156. 7896.23   1
  -3  -2  -1 264381. 4964.29   7
  -3  -2  -1 279294. 9222.28   8
  -3  -2   0 129306. 3893.88   2
  -3  -2   0 140036. 6435.02   8
  -3  -2   0 136120. 4644.47   7
  -3  -2   0 148277. 8479.32   3
  -3  -2   1 3704.35 1102.44   9
  -3  -2   1 3695.27 1349.84   8
  -3  -2   1 4703.22 1261.46   2
  -3  -2   1 4148.38 1220.32   7
  -3  -2   1 6322.99 1646.87   3
  -3  -2   2 179836. 6036.52   9
  -3  -2   2 174478. 7184.88   8
  -3  -2   2 184960. 6987.72   3
  -3  -2   2 186745. 8300.02   2
  -3  -2   2 185087. 9395.79   7
  -3  -2   3 447650. 11568.3   6
  -3  -2   3 442768. 11675.5   8
  -3  -2   3 449682. 8890.89   3
  -3  -2   3 426421. 8713.85   9
  -3  -2   3 474695. 18104.0   7
  -3  -2   3 445552. 15560.8   2
  -3  -2   4 186021. 5620.56   9
  -3  -2   4 207985. 13352.2   7
  -3  -2   4 187166. 7925.38   8
  -3  -2   4 181508. 11402.7   2
  -3  -2   4 201321. 7975.06   6
  -3  -2   4 186538. 4480.71   3
  -3  -2   5 54989.7 7337.84   7
  -3  -2   5 62549.3 3337.65   9
  -3  -2   5 60527.5 2173.14   3
  -3  -2   5 63702.1 4805.46   6
  -3  -2   5 73431.5 8311.05   2
  -3  -2   6 7434.33 1312.62   9
  -3  -2   6 7005.63 831.554   3
  -3  -2   6 10857.4 4105.34   2
  -3  -2   6 9136.61 3302.04   7
  -3  -2   6 9672.99 2178.56   6
  -3  -2   7 38942.8 3409.45   3
  -3  -2   7 44225.8 3300.84   9
  -3  -2   7 34933.4 6222.36   7
  -3  -2   7 39310.4 4416.02   6
  -3  -2   8 52103.7 7557.51   2
  -3  -2   8 50641.4 4206.16   3
  -3  -2   8 44263.9 3729.61   9
  -3  -2   8 47575.7 5441.29   6
  -3  -2   9 30069.5 5913.80   2
  -3  -2   9 35339.8 3785.68   3
  -3  -2   9 31029.1 3634.06   9
  -3  -2  10 5554.05 1747.72   3
  -3  -2  10 12046.7 2681.57   9
  -3  -2  10 8519.07 3793.94   2
  -3  -2  11-1532.95 1247.90   3
  -3  -2  11-2724.30 1678.79   9
  -3  -2  11-280.436 2592.29   2
  -3  -2  12 1986.77 1640.91   3
  -3  -2  12 4123.54 2715.62   2
  -3  -2  13 4214.80 1953.10   3
  -3  -2  13 2134.20 3057.36   2
  -3  -2  14 3480.92 2815.99   2
  -3  -2  15 711.078 2209.72   2
  -3  -1 -12 1315.67 2065.93   8
  -3  -1 -12 8399.32 2556.58   7
  -3  -1 -11 5114.18 2797.62   8
  -3  -1 -11 7438.00 2561.22   7
  -3  -1 -10 12704.7 3933.73   8
  -3  -1 -10 16426.5 3456.53   7
  -3  -1  -9 3266.52 1886.47   4
  -3  -1  -9 2362.99 1657.20   7
  -3  -1  -9-1547.73 3102.61   8
  -3  -1  -8 1394.72 1563.22   8
  -3  -1  -8 1091.77 1550.85   4
  -3  -1  -8 346.854 1274.43   7
  -3  -1  -7 58997.6 5177.69   4
  -3  -1  -7 65232.4 6971.60   8
  -3  -1  -7 53023.5 5143.55   7
  -3  -1  -6 127056. 8558.82   8
  -3  -1  -6 109660. 8806.42  10
  -3  -1  -6 131790. 6407.50   4
  -3  -1  -6 105410. 6854.72   7
  -3  -1  -5 87595.6 8372.39  10
  -3  -1  -5 105498. 7468.03   1
  -3  -1  -5 105482. 6920.53   8
  -3  -1  -5 89566.0 5893.73   7
  -3  -1  -5 100757. 4562.61   4
  -3  -1  -4 27625.2 3467.97   1
  -3  -1  -4 21347.7 4394.63  10
  -3  -1  -4 24244.3 1837.91   4
  -3  -1  -4 21244.4 2584.65   7
  -3  -1  -4 27452.6 3245.99   8
  -3  -1  -3 2355.38 2019.10  10
  -3  -1  -3 4014.76 702.055   4
  -3  -1  -3 3997.43 887.241   7
  -3  -1  -3 4586.58 1535.61   1
  -3  -1  -3 3908.09 1321.92   8
  -3  -1  -2 124134. 6107.43   1
  -3  -1  -2 115737. 9348.93  10
  -3  -1  -2 114241. 5596.75   8
  -3  -1  -2 111706. 3018.91   4
  -3  -1  -1 126135. 5825.02   1
  -3  -1  -1 123371. 9132.29  10
  -3  -1  -1 126429. 5708.66   8
  -3  -1   0 393096. 15089.1  10
  -3  -1   0 360091. 9537.92   8
  -3  -1   1 218007. 6040.87   2
  -3  -1   1 225086. 7536.25   8
  -3  -1   1 237268. 10767.3  10
  -3  -1   2 50885.8 3612.30   2
  -3  -1   2 55547.0 3908.31   8
  -3  -1   2 57011.4 3054.86   9
  -3  -1   3 51058.9 2394.20   9
  -3  -1   3 58735.8 4583.87   2
  -3  -1   4 289821. 11964.6   2
  -3  -1   4 278607. 9467.60   6
  -3  -1   4 270527. 4981.61   9
  -3  -1   5 292757. 5515.42   9
  -3  -1   5 278695. 13339.2   2
  -3  -1   5 287187. 10199.9   6
  -3  -1   6 193550. 5152.30   9
  -3  -1   6 180541. 12167.9   2
  -3  -1   6 185754. 8861.11   6
  -3  -1   7 18607.6 3219.66   6
  -3  -1   7 14165.6 3856.06   2
  -3  -1   7 17200.1 1674.87   3
  -3  -1   7 14635.1 1829.86   9
  -3  -1   8 58.9799 728.228   3
  -3  -1   8-1636.86 2844.00   2
  -3  -1   8 1201.56 836.580   9
  -3  -1   9 23372.0 3383.13   9
  -3  -1   9 22253.7 5488.07   2
  -3  -1   9 17069.0 2651.61   3
  -3  -1  10 27659.7 4400.55   9
  -3  -1  10 27887.2 3689.39  11
  -3  -1  10 29002.2 3947.27   3
  -3  -1  10 27425.3 6045.28   2
  -3  -1  11 16961.3 5238.93   2
  -3  -1  11 17314.0 3613.40  11
  -3  -1  11 22673.0 3733.11   3
  -3  -1  11 7901.08 3022.63   9
  -3  -1  12 8660.32 3714.60   2
  -3  -1  12 6362.75 2705.11   9
  -3  -1  12 12417.3 2933.24   3
  -3  -1  13 1072.98 1488.20   3
  -3  -1  13 363.208 2550.92   2
  -3  -1  14-427.988 2065.43   2
  -3  -1  15 2717.69 2557.90   2
  -3   0 -12-802.222 1568.50   8
  -3   0 -12-947.991 1601.22   7
  -3   0 -11 1838.94 1675.44   8
  -3   0 -11 2627.49 2030.47   7
  -3   0 -10 5409.49 2489.98   8
  -3   0 -10 15545.5 3433.65   7
  -3   0  -9 25517.6 3954.72  10
  -3   0  -9 18075.3 4160.59   8
  -3   0  -9 28306.3 4730.28   4
  -3   0  -9 20213.8 3785.20   7
  -3   0  -8 21203.9 3743.65   7
  -3   0  -8 26428.2 4608.27   8
  -3   0  -8 21095.1 3837.86   4
  -3   0  -8 19975.8 3558.60  10
  -3   0  -7 6131.64 2276.76  10
  -3   0  -7 6344.99 1982.64   4
  -3   0  -7 5234.81 1949.06   8
  -3   0  -7 3821.70 1969.82   7
  -3   0  -6 9554.34 2858.49  10
  -3   0  -6 12217.2 2617.61   7
  -3   0  -6 12835.2 2615.03   8
  -3   0  -6 9225.66 2033.62   4
  -3   0  -5 101723. 7735.83   1
  -3   0  -5 90434.3 5499.09   7
  -3   0  -5 85310.6 4844.58   4
  -3   0  -5 92570.0 5731.61   8
  -3   0  -5 80447.2 7754.33  10
  -3   0  -4 149769. 6557.87   8
  -3   0  -4 150704. 5538.27   4
  -3   0  -4 151959. 8297.75   1
  -3   0  -4 161178. 5498.90   7
  -3   0  -4 150745. 11271.1  10
  -3   0  -3 158215. 6211.57   8
  -3   0  -3 152240. 4980.16   4
  -3   0  -3 149801. 7284.54   1
  -3   0  -3 158098. 11738.9  10
  -3   0  -3 148391. 3663.00   7
  -3   0  -3 157195. 7763.43   5
  -3   0  -2 30985.4 2145.11   4
  -3   0  -2 29863.1 3014.73   1
  -3   0  -2 29603.8 2603.25   8
  -3   0  -2 34912.7 5764.35  10
  -3   0  -2 30016.7 3187.80   5
  -3   0  -1-172.612 741.157   8
  -3   0  -1 253.814 577.761   1
  -3   0  -1-98.9640 1624.19  10
  -3   0  -1 417.862 442.710   4
  -3   0  -1 271.899 801.528   5
  -3   0   0 67852.7 3354.33   4
  -3   0   0 69227.2 3862.81   8
  -3   0   0 68999.9 3929.67   1
  -3   0   0 71334.9 7150.99  10
  -3   0   1 278063. 7984.50   8
  -3   0   1 282643. 12827.0  10
  -3   0   2 358289. 8899.58   2
  -3   0   2 368832. 13212.0  10
  -3   0   3 332093. 11247.9  10
  -3   0   3 316614. 9571.75   2
  -3   0   4 28522.7 3488.85   2
  -3   0   4 33182.7 3236.41  10
  -3   0   5 29718.5 3970.97   2
  -3   0   6 314109. 6110.05   9
  -3   0   6 303949. 4795.06   3
  -3   0   7 234827. 5692.69   3
  -3   0   7 205499. 12696.9   2
  -3   0   8 85114.0 4427.50   3
  -3   0   8 72773.5 8402.08   2
  -3   0   8 85713.6 5714.39  11
  -3   0   9 1349.76 2570.24   2
  -3   0   9 3755.80 1638.91  11
  -3   0   9 663.352 854.652   3
  -3   0  10 18016.1 5119.90   2
  -3   0  10 18524.8 2976.45   3
  -3   0  10 17037.6 3384.94  11
  -3   0  11 28141.5 6070.70   2
  -3   0  11 20385.7 3584.36   3
  -3   0  11 23459.0 4413.74  11
  -3   0  12 27469.6 6101.17   2
  -3   0  12 14269.9 3948.89  11
  -3   0  12 20876.8 4043.37   3
  -3   0  13 13973.0 3757.64   3
  -3   0  13 14882.9 4635.62   2
  -3   0  14 103.807 2877.51   2
  -3   0  14-3467.56 1886.66   9
  -3   0  15 3079.65 2779.76   2
  -3   1 -12 1799.56 1720.64   8
  -3   1 -12 4108.91 1998.32   7
  -3   1 -11 391.086 1151.47  10
  -3   1 -11 240.195 1431.05   8
  -3   1 -11 2210.63 1865.44   7
  -3   1 -10 2766.61 1573.54  10
  -3   1 -10 1271.41 1678.41   7
  -3   1 -10 1673.96 1761.60   8
  -3   1  -9 13918.8 3255.12   8
  -3   1  -9 12526.8 3347.93   7
  -3   1  -9 6311.83 2770.27   4
  -3   1  -9 13855.3 3087.48  10
  -3   1  -8 28073.9 4427.15  10
  -3   1  -8 35455.6 5153.27   4
  -3   1  -8 37654.0 4821.93   8
  -3   1  -8 38062.9 5239.59   7
  -3   1  -7 113838. 7234.14   8
  -3   1  -7 120076. 8386.68   7
  -3   1  -7 112142. 8070.90   4
  -3   1  -7 108893. 8484.79  10
  -3   1  -6 44298.8 4406.80   7
  -3   1  -6 46298.4 4055.75   8
  -3   1  -6 37040.5 5280.49  10
  -3   1  -6 48032.5 4594.28   4
  -3   1  -5 916.739 1919.57  10
  -3   1  -5 1369.98 916.230   8
  -3   1  -5 688.697 868.501   4
  -3   1  -5 558.327 829.072   7
  -3   1  -4 155993. 8792.47   1
  -3   1  -4 137162. 5452.28   8
  -3   1  -4 135159. 5099.64   7
  -3   1  -4 152359. 11272.2  10
  -3   1  -4 139848. 6115.98   4
  -3   1  -3 460215. 10129.3   4
  -3   1  -3 484906. 13413.1   1
  -3   1  -3 471728. 9309.41   8
  -3   1  -3 475050. 12378.7   5
  -3   1  -3 457893. 20676.8  10
  -3   1  -3 453117. 7858.96   7
  -3   1  -2 514560. 12072.7   5
  -3   1  -2 549640. 10612.5   4
  -3   1  -2 543679. 9763.74   8
  -3   1  -2 545052. 7590.26   7
  -3   1  -2 557083. 12588.0   1
  -3   1  -1 216147. 7094.96   1
  -3   1  -1 192270. 14007.7  10
  -3   1  -1 204040. 7106.07   5
  -3   1  -1 214834. 6508.36   4
  -3   1  -1 199451. 5927.69   8
  -3   1   0 2431.82 1044.72   5
  -3   1   0 1523.76 719.937   8
  -3   1   0 1561.16 2356.54  10
  -3   1   0 2068.72 831.889   4
  -3   1   0 1662.21 760.123   1
  -3   1   1 348090. 16892.6  10
  -3   1   1 375832. 9263.87   4
  -3   1   2 434301. 17184.3  10
  -3   1   3 485805. 16019.1  10
  -3   1   4 204568. 9109.65  10
  -3   1   4 197778. 8295.85   2
  -3   1   5 27088.0 2900.56  10
  -3   1   5 23068.1 1135.27   9
  -3   1   5 25316.2 3478.71   2
  -3   1   6 16525.7 1429.02   9
  -3   1   6 18632.5 2574.50  11
  -3   1   6 18980.0 1665.01   3
  -3   1   6 20111.4 2190.93  10
  -3   1   6 14782.1 2917.12   2
  -3   1   7 155265. 7732.51  11
  -3   1   7 146292. 5501.17   9
  -3   1   7 135793. 9613.94   2
  -3   1   7 137146. 5075.93   3
  -3   1   8 94911.5 5545.07   9
  -3   1   8 103808. 5246.75   3
  -3   1   8 110689. 7301.31  11
  -3   1   9 66987.8 5537.66   9
  -3   1   9 72980.8 8385.72   2
  -3   1   9 79347.5 5336.95   3
  -3   1   9 85228.3 7137.05  11
  -3   1  10 6943.97 3420.96   2
  -3   1  10 4490.70 2059.19   9
  -3   1  10 3748.83 1876.88  11
  -3   1  10 5169.10 1905.53   3
  -3   1  11 804.449 2576.74   2
  -3   1  11-693.551 1748.66   3
  -3   1  11 4338.83 1564.00  11
  -3   1  11 1060.50 1694.12   9
  -3   1  12 1779.43 1807.40   3
  -3   1  12 10.2999 1397.99   9
  -3   1  13 7033.17 2864.68   3
  -3   1  13 5839.24 3250.02   2
  -3   1  13 7723.62 2879.75   9
  -3   1  14 3635.18 2976.74   2
  -3   1  14 138.212 1323.85   9
  -3   1  15 2051.79 3094.10   2
  -3   2 -13 4773.70 2826.33   7
  -3   2 -12 14457.4 3717.17   7
  -3   2 -11 14720.4 3313.01  10
  -3   2 -11 8189.59 2440.33   8
  -3   2 -11 12868.4 3833.77   7
  -3   2 -10 4389.01 2224.95  10
  -3   2 -10 3779.23 1732.99   8
  -3   2 -10 2012.85 2546.26   7
  -3   2  -9-855.770 1597.24  10
  -3   2  -9 635.579 1646.29   7
  -3   2  -9-243.425 1208.56   8
  -3   2  -8 7153.81 1933.43   8
  -3   2  -8 8183.26 2613.29  10
  -3   2  -8 14712.2 3659.00   4
  -3   2  -8 7219.18 2336.38   7
  -3   2  -7 48720.7 6173.76  10
  -3   2  -7 43355.4 5318.90   4
  -3   2  -7 49457.1 4074.59   8
  -3   2  -7 45947.9 5073.40   7
  -3   2  -6 86409.0 8257.70  10
  -3   2  -6 96877.6 4764.43   8
  -3   2  -6 99292.5 6398.77   7
  -3   2  -6 100763. 7082.58   4
  -3   2  -5 96800.1 5469.46   7
  -3   2  -5 98814.9 6240.22   4
  -3   2  -5 98122.7 9168.75  10
  -3   2  -5 97589.1 4139.36   8
  -3   2  -4 30673.5 5470.83  10
  -3   2  -4 32839.7 2210.97   8
  -3   2  -4 31307.6 2781.93   7
  -3   2  -4 37694.2 3571.08   4
  -3   2  -3 8130.94 1352.60   7
  -3   2  -3 8950.83 1125.53   8
  -3   2  -3 9452.07 1731.80   5
  -3   2  -3 11433.8 3632.78  10
  -3   2  -3 9376.79 1746.56   4
  -3   2  -2 280182. 17528.3  10
  -3   2  -2 285963. 8186.74   5
  -3   2  -2 285718. 6205.74   8
  -3   2  -2 283136. 7064.68   7
  -3   2  -2 283105. 9145.27   1
  -3   2  -2 299912. 8828.87   4
  -3   2  -1 533848. 10567.9   5
  -3   2  -1 494004. 10558.4   1
  -3   2  -1 523050. 11564.6   4
  -3   2  -1 491907. 24775.8  10
  -3   2   0 414971. 8613.32   1
  -3   2   0 388552. 10017.3   4
  -3   2   0 402411. 8786.30   5
  -3   2   1 52185.6 3888.92   6
  -3   2   1 51127.6 2749.21   1
  -3   2   1 50518.4 3758.63   4
  -3   2   2 62033.6 8069.22  10
  -3   2   2 72722.5 4568.21   6
  -3   2   3 211100. 13154.9  10
  -3   2   3 222306. 4878.02   9
  -3   2   4 262607. 5008.64   9
  -3   2   4 229754. 12340.7  10
  -3   2   5 120474. 7741.68  10
  -3   2   5 122595. 6514.86  11
  -3   2   5 124965. 3798.19   9
  -3   2   6 28261.5 3257.54  10
  -3   2   6 30152.8 2572.34   3
  -3   2   6 28258.3 2148.12   9
  -3   2   6 34758.1 3781.44  11
  -3   2   7 1598.21 944.411  10
  -3   2   7 1592.10 1012.56   3
  -3   2   7 710.090 932.662  11
  -3   2   7 903.703 1813.54   2
  -3   2   7 2093.06 844.452   9
  -3   2   8 12035.3 3390.65   2
  -3   2   8 9289.31 1173.98  10
  -3   2   8 7772.05 1724.23   3
  -3   2   8 12267.6 2901.34  11
  -3   2   8 8828.49 1710.73   9
  -3   2   9 33457.0 5849.91   2
  -3   2   9 31884.0 3664.34   3
  -3   2   9 39874.0 5374.40  11
  -3   2   9 36585.9 3984.04   9
  -3   2  10 35069.7 6266.39   2
  -3   2  10 32346.0 4155.18   9
  -3   2  10 36699.2 4367.70   3
  -3   2  11 16295.0 4943.80   2
  -3   2  11 18903.8 3876.72   3
  -3   2  11 9038.15 2731.86   9
  -3   2  12 4402.42 2882.46   2
  -3   2  12 3984.72 2075.75   9
  -3   2  12 4202.20 2541.82   3
  -3   2  13-754.061 1511.05   9
  -3   2  13 1290.18 2082.29   3
  -3   2  13-2456.33 2866.71   2
  -3   2  14-2608.51 3103.19   2
  -3   3 -12 3849.53 1959.52  10
  -3   3 -12 2813.65 2104.08   7
  -3   3 -11 23434.0 5308.56   7
  -3   3 -11 15226.8 3665.46  10
  -3   3 -10 36702.5 6434.33   7
  -3   3 -10 24867.0 4438.73  10
  -3   3 -10 24214.1 3430.84   8
  -3   3  -9 18573.1 2694.83   8
  -3   3  -9 12738.3 3445.52  10
  -3   3  -9 15449.4 3829.02   7
  -3   3  -8 1016.92 1582.14  10
  -3   3  -8-227.426 1004.12   8
  -3   3  -8 987.077 1469.22   7
  -3   3  -7 17060.1 4425.30  10
  -3   3  -7 19187.9 1868.51   8
  -3   3  -7 20004.5 3513.22   7
  -3   3  -6 78248.5 2978.67   8
  -3   3  -6 70989.4 8157.22  10
  -3   3  -6 90556.6 7169.13   4
  -3   3  -6 82285.6 6009.84   7
  -3   3  -5 84300.9 8987.35  10
  -3   3  -5 91311.9 6492.39   4
  -3   3  -5 89324.3 5665.43   7
  -3   3  -4 131520. 7119.62   4
  -3   3  -4 125848. 6076.78   5
  -3   3  -4 123749. 11111.7  10
  -3   3  -4 128847. 6199.11   7
  -3   3  -3 75251.5 4183.36   5
  -3   3  -3 73884.6 9017.99  10
  -3   3  -3 76604.4 5161.80   4
  -3   3  -3 75235.0 4502.34   7
  -3   3  -2 10124.6 1726.63   7
  -3   3  -2 4757.23 3204.81  10
  -3   3  -2 6140.90 1483.97   4
  -3   3  -2 8334.69 1361.91   5
  -3   3  -1 72646.7 4083.37   1
  -3   3  -1 70674.5 3530.36   5
  -3   3  -1 76771.5 4935.11   4
  -3   3  -1 82803.5 10232.7  10
  -3   3   0 328670. 7472.14   1
  -3   3   0 336030. 22816.2  10
  -3   3   1 426718. 25909.5  10
  -3   3   1 450566. 7576.72   1
  -3   3   1 478764. 11609.4   6
  -3   3   2 141985. 6498.42   6
  -3   3   2 138113. 5183.99   9
  -3   3   3 13079.3 1581.67   9
  -3   3   3 10831.8 2077.57   6
  -3   3   4 70793.1 8058.27  10
  -3   3   4 62808.8 3251.11   9
  -3   3   4 56920.3 4702.22   6
  -3   3   5 136228. 7866.49   6
  -3   3   5 126015. 9553.60  10
  -3   3   5 140794. 7582.77  11
  -3   3   5 127342. 4824.27   9
  -3   3   6 110541. 7953.11  10
  -3   3   6 111269. 5637.79   3
  -3   3   6 130640. 7804.76  11
  -3   3   6 119482. 5072.11   9
  -3   3   7 48650.3 4642.52  10
  -3   3   7 58637.1 5753.63  11
  -3   3   7 54781.2 4212.24   3
  -3   3   7 53104.6 3742.85   9
  -3   3   8 11086.6 2255.42   3
  -3   3   8 6697.63 1652.83   9
  -3   3   8 8009.50 1675.07  10
  -3   3   9 111.318 408.123  10
  -3   3   9 1237.42 1236.08   3
  -3   3   9-434.404 1243.95   9
  -3   3  10 4978.89 2022.81   9
  -3   3  10 8314.08 2473.34   3
  -3   3  11 11969.0 3101.81   3
  -3   3  11 5819.07 2149.87   9
  -3   3  12 13647.8 3787.06   3
  -3   3  12 11352.3 3114.79   9
  -3   3  13 9918.03 3238.97   9
  -3   3  13 2011.37 2237.17   3
  -3   4 -12 2529.43 2171.45  10
  -3   4 -12 6141.77 3411.26   7
  -3   4 -11-1165.05 1866.62  10
  -3   4 -11 1634.60 2694.77   7
  -3   4 -10 6461.02 2878.52  10
  -3   4 -10 5794.51 3059.03   7
  -3   4  -9 18442.6 4207.04  10
  -3   4  -9 24568.3 4811.69   7
  -3   4  -8 32515.1 5898.88  10
  -3   4  -8 41716.5 5624.24   7
  -3   4  -7 19557.9 4662.45  10
  -3   4  -7 21054.8 3733.69   7
  -3   4  -6-2157.36 2165.56  10
  -3   4  -6-278.038 1466.74   7
  -3   4  -5 21992.3 3434.37   4
  -3   4  -5 23148.4 3170.62   7
  -3   4  -5 21990.0 5027.94  10
  -3   4  -4 55645.8 3631.17   5
  -3   4  -4 74040.9 5755.11   4
  -3   4  -4 54566.1 7902.97  10
  -3   4  -4 68557.6 5040.25   7
  -3   4  -3 124848. 4786.01   5
  -3   4  -3 125341. 7182.84   4
  -3   4  -3 115912. 6249.21   7
  -3   4  -3 131280. 12152.1  10
  -3   4  -2 195310. 8737.07   4
  -3   4  -2 191819. 5278.52   5
  -3   4  -2 207704. 15964.7  10
  -3   4  -1 101247. 11927.5  10
  -3   4   0 8682.09 1711.29   6
  -3   4   0 5013.15 3806.16  10
  -3   4   0 7794.23 1219.74   1
  -3   4   1 110913. 5671.16   6
  -3   4   1 109469. 5603.09   9
  -3   4   1 108055. 3401.60   1
  -3   4   1 121120. 15693.8  10
  -3   4   2 349701. 9482.31   9
  -3   4   2 339471. 26361.0  10
  -3   4   2 349106. 10269.0   6
  -3   4   3 349013. 9226.66   9
  -3   4   3 358965. 11076.6   6
  -3   4   3 349478. 24472.2  10
  -3   4   4 163214. 8364.26  11
  -3   4   4 159799. 6239.72   9
  -3   4   4 148263. 7749.34   6
  -3   4   5 1842.51 2348.15  10
  -3   4   5 1395.15 1455.24   6
  -3   4   5 2644.13 1060.53   9
  -3   4   5 4722.65 1773.00  11
  -3   4   6 74491.3 4662.63   9
  -3   4   6 88449.8 6928.45  11
  -3   4   6 93091.4 8460.93  10
  -3   4   6 79185.0 5355.71   3
  -3   4   7 114331. 6172.06   9
  -3   4   7 107190. 6622.67   3
  -3   4   7 116183. 8514.77  10
  -3   4   8 77397.0 5478.34   9
  -3   4   8 73433.4 5773.02   3
  -3   4   8 79728.5 6229.82  10
  -3   4   9 18194.4 2648.79  10
  -3   4   9 24732.0 3452.43   9
  -3   4  10 3413.25 1851.54   3
  -3   4  10 2644.79 1538.44   9
  -3   4  10 195.885 451.749  10
  -3   4  11 5147.84 2658.72   3
  -3   4  11 2021.83 1681.57   9
  -3   4  12 14941.9 4198.33   3
  -3   4  12 3929.02 2157.27   9
  -3   4  13 13013.9 3984.84   3
  -3   4  13 8704.55 3470.69   9
  -3   5 -12 252.956 2669.33   7
  -3   5 -12-2917.61 2336.04  10
  -3   5 -11 2989.10 2960.12  10
  -3   5 -11 7996.38 3554.93   7
  -3   5 -10 1544.20 2306.23  10
  -3   5 -10 2868.77 2792.26   7
  -3   5  -9 193.332 1721.22   7
  -3   5  -9 4038.43 2638.79  10
  -3   5  -8 33098.8 5237.81   7
  -3   5  -8 28259.1 5685.70  10
  -3   5  -7 89972.5 10210.9  10
  -3   5  -7 106825. 8282.66   7
  -3   5  -6 64152.5 8660.02  10
  -3   5  -6 78590.0 6652.12   7
  -3   5  -5 21316.6 2336.67   5
  -3   5  -5 19982.3 3256.47   7
  -3   5  -5 25167.1 5486.78  10
  -3   5  -4 2727.27 2392.60  10
  -3   5  -4 4278.94 1035.10   5
  -3   5  -4 4283.43 1622.51   7
  -3   5  -3 84831.8 3082.63   5
  -3   5  -3 86836.8 10500.0  10
  -3   5  -3 100382. 6899.48   4
  -3   5  -3 92393.8 6175.29   7
  -3   5  -2 198226. 9426.04   4
  -3   5  -2 214757. 16807.0  10
  -3   5  -1 264466. 19640.4  10
  -3   5   0 81579.7 11653.8  10
  -3   5   0 74795.3 5346.35   9
  -3   5   0 71380.8 3391.61   1
  -3   5   0 79032.9 4716.52   6
  -3   5   1 4810.23 4058.80  10
  -3   5   1 2579.20 1129.56   6
  -3   5   1 3795.22 1455.40   9
  -3   5   1 2828.46 571.228   1
  -3   5   2 51456.0 10319.4  10
  -3   5   2 50229.9 4149.02   9
  -3   5   2 51573.8 4770.19   4
  -3   5   2 53015.6 4135.31   6
  -3   5   3 160649. 7195.54   9
  -3   5   3 158939. 7643.78   6
  -3   5   3 172403. 8843.49   4
  -3   5   4 227547. 18088.3  10
  -3   5   4 238762. 10008.3   6
  -3   5   4 244102. 10764.0   4
  -3   5   4 237342. 8713.81   9
  -3   5   5 98035.3 7051.43   6
  -3   5   5 93653.1 5586.92   9
  -3   5   5 96235.6 10641.5  10
  -3   5   6 2377.87 1404.23   9
  -3   5   6 5030.61 2732.30  10
  -3   5   7 20692.6 4390.73  10
  -3   5   7 18753.9 2862.26   9
  -3   5   7 19598.7 3220.66   3
  -3   5   8 39824.7 4325.34   9
  -3   5   8 31781.7 4779.03  10
  -3   5   8 40002.6 4806.23   3
  -3   5   9 32083.3 4273.14   9
  -3   5   9 23857.5 4050.62   3
  -3   5   9 28065.9 3896.81  10
  -3   5  10 9923.56 3047.26   3
  -3   5  10 10032.4 2743.22   9
  -3   5  11 912.307 1900.23   3
  -3   5  11-658.388 1536.00   9
  -3   5  12 2370.70 2179.19   3
  -3   5  12 1201.60 1929.83   9
  -3   5  13-929.559 2037.80   3
  -3   6 -11 11908.4 4139.46  10
  -3   6 -11 2657.81 2996.26   7
  -3   6 -10 8334.50 3862.08  10
  -3   6 -10 11095.1 3956.38   7
  -3   6  -9 5374.51 2897.49   7
  -3   6  -9 10415.4 4217.97  10
  -3   6  -8 214.486 1857.85   7
  -3   6  -8-8423.35 3849.63  10
  -3   6  -7 5729.36 3176.16  10
  -3   6  -7 11642.1 3009.47   7
  -3   6  -6 70464.5 4078.98   5
  -3   6  -6 70707.4 9440.67  10
  -3   6  -6 66068.7 6603.35   7
  -3   6  -5 107074. 3901.34   5
  -3   6  -5 103551. 11463.2  10
  -3   6  -5 107619. 7831.54   7
  -3   6  -4 83598.3 10345.6  10
  -3   6  -4 76375.4 6479.88   7
  -3   6  -3 5512.08 1945.33   7
  -3   6  -3 8444.75 4187.35  10
  -3   6  -2 42194.4 7833.03  10
  -3   6  -1 173786. 15958.3  10
  -3   6   0 148541. 15477.4  10
  -3   6   0 133626. 7731.22   9
  -3   6   1 101533. 6559.77   9
  -3   6   1 110390. 14251.9  10
  -3   6   1 87435.6 2500.61   1
  -3   6   1 94863.1 5354.28   6
  -3   6   2 19271.2 2630.25   6
  -3   6   2 17060.6 2690.20   9
  -3   6   2 13910.5 6027.63  10
  -3   6   3 3106.63 1708.44   9
  -3   6   3 1747.85 1281.06   6
  -3   6   3 3885.64 3809.44  10
  -3   6   4 39373.5 8125.08  10
  -3   6   4 37306.0 3920.41   9
  -3   6   4 39777.5 4314.40   6
  -3   6   5 84751.8 10515.6  10
  -3   6   5 81835.1 5892.49   9
  -3   6   5 84956.1 6678.53   6
  -3   6   6 45861.1 4519.81   9
  -3   6   6 52263.8 7802.56  10
  -3   6   7 15036.6 2876.77   9
  -3   6   7 14098.1 3941.94  10
  -3   6   8 4860.67 2173.43   3
  -3   6   8 3949.81 2128.45  10
  -3   6   8 1034.65 1242.77   9
  -3   6   9 3524.61 1988.82   3
  -3   6   9 6480.76 2551.81  10
  -3   6   9 3157.56 1954.80   9
  -3   6  10 10430.9 3252.23   3
  -3   6  10 10394.3 2850.71   9
  -3   6  11 10235.6 3464.19   9
  -3   6  11 4328.10 2620.25   3
  -3   6  12-6433.65 3097.28   3
  -3   6  12 6342.42 2637.64   9
  -3   7 -10 6361.29 4172.28  10
  -3   7 -10 5770.60 3455.56   7
  -3   7  -9 11366.2 4286.74  10
  -3   7  -9 18636.2 4632.05   7
  -3   7  -8 6977.62 3627.95  10
  -3   7  -8 7830.64 3087.92   7
  -3   7  -7 3937.36 2309.78   7
  -3   7  -7 5161.55 2622.79  10
  -3   7  -6 1000.89 1515.64   7
  -3   7  -6-163.577 3272.96  10
  -3   7  -5 5686.67 2460.65   7
  -3   7  -5 11891.7 4920.84  10
  -3   7  -4 74778.9 10272.8  10
  -3   7  -4 73156.2 6679.60   7
  -3   7  -3 96112.5 11564.8  10
  -3   7  -2 40641.7 8020.40  10
  -3   7  -1 1659.28 2995.63  10
  -3   7  -1 787.437 1352.36   9
  -3   7   0 46332.4 4979.48   9
  -3   7   0 62333.9 10908.6  10
  -3   7   1 75137.5 6237.34   9
  -3   7   1 76444.1 4839.95   6
  -3   7   2 86476.6 5469.33   6
  -3   7   2 89925.9 6660.89   9
  -3   7   2 79919.0 13296.8  10
  -3   7   3 27111.4 3745.99   9
  -3   7   3 25816.9 3322.27   6
  -3   7   4 1113.74 1257.47   9
  -3   7   4 2084.80 1597.61   6
  -3   7   4 2534.39 2594.28  10
  -3   7   5 5603.31 2039.80   9
  -3   7   5 9431.69 4008.55  10
  -3   7   5 4734.34 2022.62   6
  -3   7   6 16978.5 5196.43  10
  -3   7   6 15394.0 3075.65   9
  -3   7   6 13534.7 3143.62   6
  -3   7   7 20951.6 3697.94   9
  -3   7   7 12622.7 4009.30  10
  -3   7   8 18632.6 4574.77  10
  -3   7   8 11263.1 2907.54   9
  -3   7   9 3698.80 2034.86   9
  -3   7   9 9933.59 3272.07   3
  -3   7   9 7456.17 2822.27  10
  -3   7  10 2874.99 2169.04   3
  -3   7  10-6132.44 2454.53   9
  -3   7  11 6201.59 2983.49   3
  -3   7  11 1672.95 2465.45   9
  -3   8  -9-1113.40 3089.32  10
  -3   8  -9 4309.28 3067.29   7
  -3   8  -8 10494.3 4459.51  10
  -3   8  -8 13284.8 3993.68   7
  -3   8  -7 12938.8 3862.71   7
  -3   8  -7 11380.7 4871.63  10
  -3   8  -6 13946.6 5261.25  10
  -3   8  -6 10227.2 3197.18   7
  -3   8  -5 5570.44 2584.06   7
  -3   8  -5 4496.68 3427.67  10
  -3   8  -4-17.8760 3407.33  10
  -3   8  -3 29428.2 7007.53  10
  -3   8  -2 95919.9 12341.3  10
  -3   8  -1 100808. 8012.50   9
  -3   8  -1 105383. 13382.5  10
  -3   8   0 39074.1 5081.85   9
  -3   8   0 38032.2 8449.82  10
  -3   8   1 1653.34 1565.46   9
  -3   8   1 1060.74 852.524   6
  -3   8   2 64923.8 6215.64   9
  -3   8   2 65023.7 4828.94   6
  -3   8   2 62599.0 11866.1  10
  -3   8   3 88353.1 7285.62   9
  -3   8   3 75306.8 12264.1  10
  -3   8   3 86446.0 5977.24   6
  -3   8   4 58101.5 5319.82   6
  -3   8   4 53410.4 5788.45   9
  -3   8   4 58649.4 10513.8  10
  -3   8   5 13019.1 2922.24   9
  -3   8   5 13169.4 2886.91   6
  -3   8   5 14191.5 4918.77  10
  -3   8   6 5119.19 3566.93  10
  -3   8   6 2535.90 2167.03   6
  -3   8   6 699.488 1588.14   9
  -3   8   7 8319.41 3589.87  10
  -3   8   7 7862.79 2608.85   9
  -3   8   7 9138.75 3009.67   6
  -3   8   8 19020.2 4004.60   9
  -3   8   8 14620.6 4205.09  10
  -3   8   9 11603.4 3426.58   9
  -3   8  10 7267.95 2878.25   9
  -3   9  -8 5328.58 3359.13   7
  -3   9  -8 5908.74 4082.00  10
  -3   9  -7 12853.4 4195.79   7
  -3   9  -7 16914.6 5918.78  10
  -3   9  -6 19678.6 6203.03  10
  -3   9  -6 24592.0 5086.63   7
  -3   9  -5 14670.6 5455.19  10
  -3   9  -4 6030.67 4552.03  10
  -3   9  -3 2583.53 2601.58  10
  -3   9  -2 14826.0 5680.01  10
  -3   9  -1 45825.2 9646.36  10
  -3   9  -1 41726.6 5772.20   9
  -3   9   0 55999.0 6569.21   9
  -3   9   0 56738.2 10334.1  10
  -3   9   1 28662.4 8201.52  10
  -3   9   1 31520.8 4823.04   9
  -3   9   2-8.49584 1806.22   9
  -3   9   2 995.614 971.666   6
  -3   9   3 24316.4 3305.40   6
  -3   9   3 25505.7 4469.36   9
  -3   9   4 31534.0 8059.56  10
  -3   9   4 33183.5 4938.58   9
  -3   9   4 27036.1 3813.85   6
  -3   9   5 27028.4 4126.44   6
  -3   9   5 31434.0 4783.26   9
  -3   9   5 32110.6 7661.39  10
  -3   9   6 3691.66 2132.93   9
  -3   9   6 6243.60 3814.10  10
  -3   9   6 4034.87 2185.21   6
  -3   9   7 774.386 1708.47   6
  -3   9   7 38.1357 1418.79   9
  -3   9   7 4890.70 3130.57  10
  -3   9   8 5484.97 2615.55   9
  -3   9   8-921.450 2118.28   6
  -3   9   8 2337.82 2184.66  10
  -3  10  -6 9455.70 4658.90  10
  -3  10  -5 18825.3 6444.47  10
  -3  10  -4 18728.7 6679.22  10
  -3  10  -3 15100.0 6213.66  10
  -3  10  -2-1617.76 2914.70  10
  -3  10  -1 9491.01 5613.69  10
  -3  10  -1 1269.58 2033.99   9
  -3  10   0 11332.8 5230.35  10
  -3  10   0 19102.0 4184.73   9
  -3  10   1 35499.0 9242.32  10
  -3  10   1 29357.4 5109.78   9
  -3  10   2 20609.3 4295.97   9
  -3  10   2 14858.9 7332.88  10
  -3  10   3-1853.14 1926.17   9
  -3  10   3 2614.29 3356.98  10
  -3  10   4 408.388 1742.30   9
  -3  10   4-6216.03 4413.09  10
  -3  10   5 8906.17 3220.77   9
  -3  10   5 13622.3 5360.53  10
  -3  10   6 23804.7 6200.54  10
  -3  10   6 11238.3 3458.68   9
  -3  11  -3 18189.4 6744.25  10
  -3  11  -2 22590.2 7187.50  10
  -3  11  -1 2109.26 2270.81   9
  -3  11  -1 8449.99 5653.34  10
  -3  11   0 2297.85 2731.61   9
  -3  11   0-4301.60 3906.24  10
  -3  11   1 8811.66 4982.04  10
  -3  11   1 4630.93 2878.81   9
  -3  11   2 12322.3 3632.21   9
  -3  11   2 5583.09 4321.50  10
  -2 -11   0 12948.5 4293.42   2
  -2 -11   0 7388.37 3312.40   8
  -2 -11   1 14398.2 4656.77   2
  -2 -11   1 17258.6 4068.05   8
  -2 -11   2 17350.1 5258.95   2
  -2 -11   2 27500.4 4919.08   8
  -2 -11   3 7408.58 3718.64   2
  -2 -11   3 10917.7 3327.19   8
  -2 -11   4-289.811 2952.80   2
  -2 -11   4-798.221 2158.17   8
  -2 -10  -4 11556.8 3556.33   5
  -2 -10  -4 10662.1 3897.36   8
  -2 -10  -3 21011.3 4331.90   5
  -2 -10  -3 18164.3 4773.60   8
  -2 -10  -2 17973.0 3829.45   5
  -2 -10  -2 19557.6 4513.76   8
  -2 -10  -2 28498.0 5394.39   2
  -2 -10  -1 8221.75 3393.26   2
  -2 -10  -1 3394.95 1967.97   5
  -2 -10  -1 8833.85 3374.78   8
  -2 -10   0 457.623 1406.26   5
  -2 -10   0 300.298 1777.21   2
  -2 -10   0 1299.48 2001.43   8
  -2 -10   1-632.270 1610.31   5
  -2 -10   1 3700.16 2348.84   2
  -2 -10   1 8000.64 2903.29   8
  -2 -10   2 11812.6 3945.32   2
  -2 -10   2 12636.2 3296.28   8
  -2 -10   3 18747.3 5047.15   2
  -2 -10   3 25807.4 4434.02   8
  -2 -10   4 12813.6 4853.75   2
  -2 -10   4 16058.7 3429.10   8
  -2 -10   5 4485.22 2093.04   8
  -2 -10   5 2272.31 2707.96   2
  -2 -10   6-2264.88 2314.10   8
  -2 -10   6-923.723 2647.21   2
  -2 -10   7 11731.0 2986.97   8
  -2 -10   7 10694.3 4518.63   2
  -2 -10   8 17149.5 5759.90   2
  -2  -9  -6 10874.3 4123.27   5
  -2  -9  -6 17006.6 5416.84   8
  -2  -9  -5 8070.47 3231.49   5
  -2  -9  -5 9302.46 3842.23   8
  -2  -9  -4 1152.14 1866.93   5
  -2  -9  -4 1718.89 2424.10   8
  -2  -9  -3 2031.07 2092.46   8
  -2  -9  -3 6523.38 2790.10   2
  -2  -9  -3 1714.84 1822.79   5
  -2  -9  -2 21950.0 3992.18   5
  -2  -9  -2 20783.1 4230.03   2
  -2  -9  -2 14593.0 3818.68   8
  -2  -9  -1 25471.6 4540.49   8
  -2  -9  -1 26453.9 4151.03   5
  -2  -9  -1 29804.8 5045.50   2
  -2  -9   0 17068.1 3214.45   5
  -2  -9   0 19246.6 4412.65   2
  -2  -9   0 19964.6 4032.52   8
  -2  -9   1 5271.99 2457.38   2
  -2  -9   1 8991.93 2879.74   8
  -2  -9   1 6497.32 2060.95   5
  -2  -9   2 453.709 1912.54   2
  -2  -9   2-173.265 1811.05   8
  -2  -9   3 2866.62 2671.81   2
  -2  -9   3-346.265 2113.74   8
  -2  -9   4 12514.6 3982.90   2
  -2  -9   4 13354.6 3097.98   8
  -2  -9   5 24792.4 3950.01   8
  -2  -9   5 29413.0 6159.65   2
  -2  -9   6 21122.7 3647.25   8
  -2  -9   6 23451.1 5906.95   2
  -2  -9   7 6386.79 2316.43   8
  -2  -9   7 8759.72 4160.89   2
  -2  -9   8 4241.98 3322.79   2
  -2  -9   9 8452.09 4777.81   2
  -2  -9  10 12769.1 5554.42   2
  -2  -8  -8 1198.96 3723.51   8
  -2  -8  -7 1582.99 3150.88   8
  -2  -8  -7 1075.91 3204.45   5
  -2  -8  -6 3706.45 2931.87   5
  -2  -8  -6 4681.69 3634.11   8
  -2  -8  -5 18794.8 4446.58   5
  -2  -8  -5 23191.1 5425.23   8
  -2  -8  -4 42729.2 4754.44   4
  -2  -8  -4 37708.4 5469.66   5
  -2  -8  -4 38838.2 6192.65   8
  -2  -8  -3 25559.3 3901.28   4
  -2  -8  -3 22520.9 4549.24   8
  -2  -8  -3 23789.6 4134.77   5
  -2  -8  -2 5091.68 2233.85   2
  -2  -8  -2 1254.23 1500.68   5
  -2  -8  -2 1938.68 2091.59   8
  -2  -8  -1 13076.9 3141.93   2
  -2  -8  -1 7710.04 2279.71   5
  -2  -8  -1 10769.9 2938.50   8
  -2  -8   0 59218.6 6041.11   8
  -2  -8   0 57123.4 5383.01   5
  -2  -8   0 57949.8 6364.57   2
  -2  -8   1 90909.6 6417.83   5
  -2  -8   1 88004.5 7010.36   8
  -2  -8   1 98462.8 8553.23   2
  -2  -8   2 49476.4 6311.56   2
  -2  -8   2 49919.1 5296.21   8
  -2  -8   3 1513.90 1469.34   8
  -2  -8   3 4020.16 2316.14   2
  -2  -8   4 3164.32 2121.10   2
  -2  -8   4 5106.98 2141.41   8
  -2  -8   5 20720.2 3347.83   8
  -2  -8   5 20744.6 4959.61   2
  -2  -8   6 51103.6 8100.37   2
  -2  -8   6 53245.4 5253.34   8
  -2  -8   7 46617.1 8201.93   2
  -2  -8   7 40110.2 4653.19   8
  -2  -8   8 7983.61 3076.96   2
  -2  -8   9 681.114 2633.79   2
  -2  -8  10 503.647 2541.27   2
  -2  -8  11 7679.78 4330.06   2
  -2  -7  -9-3978.07 4073.23   8
  -2  -7  -8-2116.69 3236.66   8
  -2  -7  -7 10458.5 5198.40   8
  -2  -7  -6 2995.08 3055.02   8
  -2  -7  -5 4309.30 2851.56   8
  -2  -7  -5 6764.40 1727.74   4
  -2  -7  -5 2396.41 2205.86   5
  -2  -7  -4 47809.7 5865.13   5
  -2  -7  -4 52715.3 6689.78   8
  -2  -7  -4 52219.3 4428.72   4
  -2  -7  -4 45298.6 3807.03   2
  -2  -7  -3 88760.4 7354.91   5
  -2  -7  -3 93019.1 6041.17   4
  -2  -7  -3 92673.9 8078.44   8
  -2  -7  -2 95382.9 6447.77   4
  -2  -7  -2 91026.9 7574.72   8
  -2  -7  -2 89146.2 7026.82   5
  -2  -7  -1 33776.8 4211.26   5
  -2  -7  -1 36251.7 4721.40   8
  -2  -7  -1 35617.8 4308.42   2
  -2  -7   0 4478.45 1707.66   2
  -2  -7   0 4798.49 1761.17   5
  -2  -7   0 6841.68 2353.67   8
  -2  -7   1 76191.8 5704.73   5
  -2  -7   1 79520.3 6983.49   2
  -2  -7   1 66709.4 5791.20   8
  -2  -7   2 162846. 10473.3   2
  -2  -7   2 149653. 7538.00   5
  -2  -7   2 164076. 8807.57   8
  -2  -7   3 109475. 7061.89   8
  -2  -7   3 103211. 8983.45   2
  -2  -7   4 23712.3 4627.30   2
  -2  -7   4 24225.5 3492.59   8
  -2  -7   5 80.0618 1194.90   8
  -2  -7   5 2666.04 2205.67   2
  -2  -7   6 27075.0 5782.43   2
  -2  -7   6 23116.7 3455.03   8
  -2  -7   7 46200.5 7821.87   2
  -2  -7   8 27818.1 2863.79   6
  -2  -7   8 21446.1 5752.58   2
  -2  -7   9 14587.2 2422.59   6
  -2  -7   9 1634.91 3068.24   2
  -2  -7  10 3697.33 1657.14   6
  -2  -7  10-2270.52 3547.52   2
  -2  -7  11 268.692 2656.78   2
  -2  -7  12 2567.13 2959.92   2
  -2  -6 -10-13957.2 5900.10   8
  -2  -6  -9-749.209 3884.65   8
  -2  -6  -8 6398.39 3917.10   8
  -2  -6  -7 43538.2 3624.88   4
  -2  -6  -7 46225.9 8324.52   8
  -2  -6  -6 40086.3 7033.65   8
  -2  -6  -6 38828.2 3280.64   4
  -2  -6  -5 6207.97 1406.15   2
  -2  -6  -5 1466.16 2221.73   8
  -2  -6  -5 5220.99 1242.25   4
  -2  -6  -5 1567.26 1306.24   7
  -2  -6  -4 4387.95 2086.89   5
  -2  -6  -4 4794.95 1660.93   7
  -2  -6  -4 6179.62 2968.01   8
  -2  -6  -4 1853.03 909.501   4
  -2  -6  -4 4221.39 1159.36   2
  -2  -6  -3 41994.1 4890.07   5
  -2  -6  -3 44815.7 5396.28   8
  -2  -6  -3 51007.5 4719.16   7
  -2  -6  -3 50279.4 3735.07   4
  -2  -6  -2 97083.4 7018.13   5
  -2  -6  -2 98781.6 5582.73   4
  -2  -6  -2 98431.4 7299.17   8
  -2  -6  -2 99819.3 6415.10   7
  -2  -6  -1 152994. 7855.79   2
  -2  -6  -1 151887. 8200.91   5
  -2  -6  -1 150168. 7751.82   7
  -2  -6  -1 143934. 8348.81   8
  -2  -6   0 54239.8 5166.39   3
  -2  -6   0 48626.1 4492.27   5
  -2  -6   0 48485.4 4700.67   2
  -2  -6   0 52943.6 4969.88   8
  -2  -6   0 52193.0 4724.46   7
  -2  -6   1 853.545 1033.75   5
  -2  -6   1 1164.33 1018.47   3
  -2  -6   1 355.856 898.723   7
  -2  -6   1-499.361 1284.02   8
  -2  -6   1 464.267 1175.99   2
  -2  -6   2 60580.9 5998.16   2
  -2  -6   2 53159.0 4376.93   5
  -2  -6   2 55122.5 5092.77   9
  -2  -6   2 49508.5 4625.22   8
  -2  -6   2 56750.0 5051.26   7
  -2  -6   2 55938.8 4948.82   3
  -2  -6   3 155428. 10258.0   2
  -2  -6   3 150952. 8404.07   9
  -2  -6   3 159804. 8857.51   7
  -2  -6   3 140150. 7434.30   8
  -2  -6   3 153127. 8028.69   3
  -2  -6   4 145054. 7560.76   8
  -2  -6   4 164418. 8195.53   3
  -2  -6   4 165920. 9352.16   7
  -2  -6   4 166351. 8907.19   9
  -2  -6   4 154535. 11071.3   2
  -2  -6   5 65410.3 5320.88   3
  -2  -6   5 61027.0 4988.00   8
  -2  -6   5 57182.6 7418.67   2
  -2  -6   6 4265.26 1579.72   3
  -2  -6   6 1438.12 815.712   6
  -2  -6   6 1657.03 1442.79   8
  -2  -6   6 5051.64 2975.06   2
  -2  -6   7 26060.8 2753.83   6
  -2  -6   7 22209.6 5671.83   2
  -2  -6   7 25132.9 3514.91   3
  -2  -6   8 22400.6 6164.74   2
  -2  -6   8 24418.4 2993.41   6
  -2  -6   9 30424.3 6776.56   2
  -2  -6   9 24149.1 3336.20   6
  -2  -6  10 5882.03 3607.83   2
  -2  -6  10 13170.5 2941.42   6
  -2  -6  11-4459.24 3424.65   2
  -2  -6  11 4955.48 2284.46   6
  -2  -6  12-5995.69 2740.84   6
  -2  -6  12-5739.86 3888.04   2
  -2  -6  13 2552.49 2361.55   6
  -2  -6  13 405.853 2361.38   2
  -2  -5 -11 9049.00 4071.33   7
  -2  -5 -11 14011.9 5695.77   8
  -2  -5 -10 3134.61 2219.96   7
  -2  -5 -10 4065.91 3164.92   8
  -2  -5  -9-267.262 2937.08   8
  -2  -5  -8 977.304 1162.64   4
  -2  -5  -8-2880.67 3537.68   8
  -2  -5  -7 23849.2 5838.22   8
  -2  -5  -7 19275.1 2392.31   4
  -2  -5  -7 19265.3 2872.56   2
  -2  -5  -6 90977.1 5126.43   2
  -2  -5  -6 101822. 10126.2   8
  -2  -5  -6 86483.8 4332.52   4
  -2  -5  -5 79750.2 8187.15   8
  -2  -5  -5 76564.4 4168.34   2
  -2  -5  -5 69218.9 3572.89   4
  -2  -5  -5 63772.0 5266.11   1
  -2  -5  -4 34657.5 2467.51   4
  -2  -5  -4 32205.1 3542.26   7
  -2  -5  -4 32140.3 2525.43   2
  -2  -5  -4 36814.8 5022.66   8
  -2  -5  -3 680.950 610.714   4
  -2  -5  -3 822.480 1443.53   5
  -2  -5  -3 671.910 757.849   7
  -2  -5  -3 225.160 1381.16   8
  -2  -5  -2 12474.9 2597.05   9
  -2  -5  -2 11952.3 2593.52   8
  -2  -5  -2 9191.91 2256.81   5
  -2  -5  -2 14104.9 2831.79   3
  -2  -5  -2 13824.4 1790.28   4
  -2  -5  -2 12118.2 2042.09   7
  -2  -5  -1 46257.6 3792.68   2
  -2  -5  -1 39078.5 3562.10   7
  -2  -5  -1 46288.8 4611.53   9
  -2  -5  -1 36763.2 4055.40   8
  -2  -5  -1 40361.4 4337.59   3
  -2  -5  -1 41812.1 4133.69   5
  -2  -5   0 105274. 6174.83   5
  -2  -5   0 111478. 6717.90   3
  -2  -5   0 100602. 6300.96   8
  -2  -5   0 102458. 6593.99   9
  -2  -5   0 110194. 6369.71   2
  -2  -5   0 108033. 5907.28   7
  -2  -5   1 91287.1 5655.30   5
  -2  -5   1 99997.2 5884.87   7
  -2  -5   1 96854.0 6210.37   9
  -2  -5   1 90009.8 5830.53   3
  -2  -5   1 92429.4 5808.52   8
  -2  -5   1 88579.9 6232.35   2
  -2  -5   2 145259. 7468.17   9
  -2  -5   2 143216. 7067.65   8
  -2  -5   2 130100. 6473.39   5
  -2  -5   2 150227. 8858.72   2
  -2  -5   2 151100. 7516.89   7
  -2  -5   2 149970. 7183.93   3
  -2  -5   3 17390.6 2727.20   9
  -2  -5   3 19805.7 2620.23   3
  -2  -5   3 14745.0 3066.99   2
  -2  -5   3 17311.0 2603.11   8
  -2  -5   3 22876.4 3154.65   7
  -2  -5   4 21097.4 2678.98   3
  -2  -5   4 21417.9 2912.14   8
  -2  -5   4 25188.9 4477.16   2
  -2  -5   4 20412.3 3155.30   7
  -2  -5   4 22124.0 2957.40   9
  -2  -5   5 145941. 6891.72   3
  -2  -5   5 161002. 8057.80   9
  -2  -5   5 147368. 7154.15   8
  -2  -5   5 152716. 9171.49   7
  -2  -5   5 130947. 10985.9   2
  -2  -5   5 146533. 5756.27   6
  -2  -5   6 174773. 13633.0   2
  -2  -5   6 182852. 8826.48   9
  -2  -5   6 174271. 6825.08   6
  -2  -5   6 190440. 8006.16   3
  -2  -5   7 97100.9 6722.32   9
  -2  -5   7 82836.5 5166.84   6
  -2  -5   7 80968.5 9972.55   2
  -2  -5   8 1644.53 1254.67   6
  -2  -5   8 721.058 2027.10   2
  -2  -5   9 5341.02 2124.64   6
  -2  -5   9 1704.85 1918.39   2
  -2  -5  10 39402.4 5400.96   6
  -2  -5  10 27099.9 6037.36   2
  -2  -5  11 11579.8 4663.73   2
  -2  -5  12 7134.40 3426.37   2
  -2  -5  13 1920.49 2779.55   2
  -2  -5  14 920.440 2808.60   2
  -2  -4 -12 5130.46 2816.62   8
  -2  -4 -12-7813.08 3469.37   7
  -2  -4 -11 527.435 2359.79   8
  -2  -4 -11-4775.95 2924.97   7
  -2  -4 -10 7603.47 4075.19   8
  -2  -4 -10 5333.68 3093.35   7
  -2  -4  -9 15101.6 5573.43   8
  -2  -4  -9 18189.9 4641.58   7
  -2  -4  -9 20727.2 3268.36   4
  -2  -4  -8 21029.5 2985.98   4
  -2  -4  -8 24879.4 6474.12   8
  -2  -4  -8 20996.1 3032.00   2
  -2  -4  -7 7125.80 3670.32   8
  -2  -4  -7 9551.65 2012.24   2
  -2  -4  -7 14509.2 2159.72   4
  -2  -4  -6 2085.56 1135.42   2
  -2  -4  -6-682.456 883.472   4
  -2  -4  -6 2775.73 1688.80   1
  -2  -4  -6 858.747 2016.23   8
  -2  -4  -5 54765.0 6417.41   8
  -2  -4  -5 50341.5 2747.66   4
  -2  -4  -5 46236.1 4417.87   1
  -2  -4  -5 50423.8 3359.21   2
  -2  -4  -4 141270. 3971.08   4
  -2  -4  -4 151318. 9255.78   8
  -2  -4  -4 132466. 6861.44   1
  -2  -4  -4 142813. 4675.09   2
  -2  -4  -4 151030. 9687.32   3
  -2  -4  -3 217660. 4754.53   4
  -2  -4  -3 205131. 7487.14   7
  -2  -4  -3 224333. 10219.9   8
  -2  -4  -3 217756. 5272.28   2
  -2  -4  -3 228869. 10981.9   3
  -2  -4  -2 64228.1 5112.58   5
  -2  -4  -2 64412.9 5115.58   8
  -2  -4  -2 59531.7 3907.20   7
  -2  -4  -2 67590.4 5555.48   3
  -2  -4  -2 64139.1 2933.81   4
  -2  -4  -1 2452.84 934.970   2
  -2  -4  -1 2692.82 1268.17   3
  -2  -4  -1 1514.93 1106.42   8
  -2  -4  -1 2193.18 1343.39   5
  -2  -4  -1 4541.77 1169.25   7
  -2  -4   0 137772. 6916.05   9
  -2  -4   0 133530. 6607.60   8
  -2  -4   0 134638. 6542.93   5
  -2  -4   0 131839. 6640.66   3
  -2  -4   0 123101. 5550.40   7
  -2  -4   0 126110. 6205.58   2
  -2  -4   1 218118. 8324.60   9
  -2  -4   1 207828. 7804.29   3
  -2  -4   1 220744. 9417.48   2
  -2  -4   1 200533. 7859.53   8
  -2  -4   1 198629. 7695.55   5
  -2  -4   1 203105. 7448.04   7
  -2  -4   2 313197. 9694.24   8
  -2  -4   2 310277. 9797.39   7
  -2  -4   2 323536. 9332.11   3
  -2  -4   2 336568. 13309.8   2
  -2  -4   2 306166. 9354.91   5
  -2  -4   2 319698. 9864.13   9
  -2  -4   3 247416. 7881.57   3
  -2  -4   3 254622. 8738.35   9
  -2  -4   3 271349. 13497.8   2
  -2  -4   3 260533. 8775.80   8
  -2  -4   3 255945. 9584.42   7
  -2  -4   4 44959.9 3753.36   8
  -2  -4   4 49881.0 4686.56   7
  -2  -4   4 56030.5 4201.40   9
  -2  -4   4 47106.4 3245.72   6
  -2  -4   4 54928.8 6899.58   2
  -2  -4   4 47757.1 3492.73   3
  -2  -4   5 8607.89 1559.16   6
  -2  -4   5 8903.77 1591.21   3
  -2  -4   5 6034.45 1712.06   8
  -2  -4   5 9995.12 1886.15   9
  -2  -4   5 6535.08 3143.27   2
  -2  -4   5 8982.10 2318.89   7
  -2  -4   6 153733. 7361.74   9
  -2  -4   6 154705. 12906.9   2
  -2  -4   6 148570. 9860.22   7
  -2  -4   6 151597. 6670.29   6
  -2  -4   7 241613. 9796.83   9
  -2  -4   7 240409. 9393.24   6
  -2  -4   8 108763. 7212.07   9
  -2  -4   8 104633. 7126.90   6
  -2  -4   9 25998.7 4206.45   9
  -2  -4   9 15852.2 4570.41   2
  -2  -4  10 5656.14 3220.75   2
  -2  -4  11 26831.2 5818.59   2
  -2  -4  12 11412.2 3383.60   3
  -2  -4  12 10371.0 4183.82   2
  -2  -4  13 11456.6 4555.53   2
  -2  -4  13 7966.77 3084.12   3
  -2  -4  14 4534.93 3240.69   2
  -2  -3 -12 6415.44 3029.60   8
  -2  -3 -12 6452.95 2957.39   7
  -2  -3 -11 3775.42 2102.97   7
  -2  -3 -11 8525.47 3495.80   8
  -2  -3 -10-497.667 1967.68   7
  -2  -3 -10-3442.29 3256.94   8
  -2  -3  -9 11679.7 2286.34   2
  -2  -3  -9 6599.18 3410.30   8
  -2  -3  -9 13707.9 3835.36   7
  -2  -3  -8 58705.7 4655.84   2
  -2  -3  -8 55695.3 6983.33   7
  -2  -3  -8 48860.5 8167.90   8
  -2  -3  -7 92575.6 10051.3   8
  -2  -3  -7 107744. 6122.17   4
  -2  -3  -7 86755.2 7749.25   7
  -2  -3  -7 92979.6 5712.67   2
  -2  -3  -6 90824.7 4676.57   4
  -2  -3  -6 102676. 7153.29   1
  -2  -3  -6 84807.8 5264.68   2
  -2  -3  -6 103526. 9314.75   8
  -2  -3  -5 5857.18 2343.87   8
  -2  -3  -5 9483.26 1334.38   4
  -2  -3  -5 9075.74 2173.39   1
  -2  -3  -5 7902.03 1592.18   2
  -2  -3  -5 8033.10 2504.15   3
  -2  -3  -4 16971.5 1283.86   4
  -2  -3  -4 17221.1 2528.92   1
  -2  -3  -4 18238.0 3168.68   8
  -2  -3  -4 18410.2 1808.19   2
  -2  -3  -3 296282. 10791.2   8
  -2  -3  -3 276733. 8994.03   1
  -2  -3  -3 249917. 4887.81   2
  -2  -3  -2 470428. 6974.63   2
  -2  -3  -2 464422. 11009.2   1
  -2  -3  -2 472731. 12466.2   8
  -2  -3  -2 455728. 9150.50   7
  -2  -3  -1 351189. 7692.76   7
  -2  -3  -1 353310. 10530.6   5
  -2  -3  -1 335075. 9865.02   8
  -2  -3  -1 365766. 8105.36   2
  -2  -3  -1 355484. 10943.9   3
  -2  -3   0 71212.4 4455.88   3
  -2  -3   0 66763.0 4348.34   9
  -2  -3   0 66087.6 4362.95   5
  -2  -3   0 61539.5 4141.13   8
  -2  -3   0 65689.7 3443.50   7
  -2  -3   0 72554.9 4714.60   2
  -2  -3   1 62321.3 4110.25   5
  -2  -3   1 66563.9 4214.37   8
  -2  -3   1 67005.8 3915.57   3
  -2  -3   1 69231.7 3815.21   7
  -2  -3   1 68175.0 4125.61   9
  -2  -3   1 69493.9 5799.18   2
  -2  -3   2 185707. 6531.52   9
  -2  -3   2 178768. 5940.90   3
  -2  -3   2 181926. 6838.16   8
  -2  -3   2 165880. 6464.96   5
  -2  -3   2 184785. 6881.07   7
  -2  -3   2 197999. 11355.4   2
  -2  -3   3 470290. 9785.49   6
  -2  -3   3 473216. 10353.2   9
  -2  -3   3 460016. 10877.1   8
  -2  -3   3 466853. 9092.07   3
  -2  -3   3 448029. 12231.2   7
  -2  -3   3 488294. 20099.3   2
  -2  -3   4 194638. 6803.23   9
  -2  -3   4 200394. 7421.37   8
  -2  -3   4 194035. 9205.45   7
  -2  -3   4 200803. 13648.5   2
  -2  -3   4 194707. 5769.26   3
  -2  -3   4 197564. 6681.40   6
  -2  -3   5 99549.0 5035.41   9
  -2  -3   5 93141.6 7278.83   7
  -2  -3   5 88852.7 4859.88   6
  -2  -3   5 78099.9 8646.79   2
  -2  -3   6 1683.75 1058.07   9
  -2  -3   6 800.581 2097.74   2
  -2  -3   6 2993.09 1712.08   7
  -2  -3   6 2294.79 1236.62   6
  -2  -3   7 35202.5 5911.96   2
  -2  -3   7 38419.0 6011.54   7
  -2  -3   7 41421.3 3876.51   9
  -2  -3   8 110262. 7090.23   9
  -2  -3   8 93220.8 9735.30   2
  -2  -3   9 94960.8 7631.48   9
  -2  -3   9 55880.6 7616.20   2
  -2  -3  10 41359.5 6722.46   2
  -2  -3  10 48456.9 6479.76   9
  -2  -3  11 2272.64 2773.06   2
  -2  -3  11 547.099 1382.21   3
  -2  -3  11 925.343 638.952  11
  -2  -3  12 5749.67 2394.14   3
  -2  -3  12 5124.31 2597.96   2
  -2  -3  13 9355.49 2974.03   3
  -2  -3  13 8257.98 3591.40   2
  -2  -3  14 8823.40 3307.02   2
  -2  -3  14 3029.90 2046.99   3
  -2  -3  15-1440.05 2767.01   2
  -2  -2 -13 2129.67 2046.19   7
  -2  -2 -13 1573.59 2045.51   8
  -2  -2 -12 13553.4 4078.85   8
  -2  -2 -12 10752.7 3503.26   7
  -2  -2 -11 15561.1 4353.04   8
  -2  -2 -11 8331.76 3212.74   7
  -2  -2 -10 11370.2 3365.94   7
  -2  -2 -10 11946.2 3926.89   8
  -2  -2  -9 1579.18 1233.19   2
  -2  -2  -9 1163.83 1678.78   7
  -2  -2  -8 8889.95 1960.69   2
  -2  -2  -8 4317.08 2643.79   8
  -2  -2  -8 4270.97 2420.08   7
  -2  -2  -7 42491.7 6634.60   8
  -2  -2  -7 44824.3 5694.57   7
  -2  -2  -7 48821.7 4132.52   2
  -2  -2  -6 158492. 9387.54   1
  -2  -2  -6 129614. 11593.3   3
  -2  -2  -6 150610. 10558.5   8
  -2  -2  -6 124842. 8754.50   7
  -2  -2  -6 124847. 6149.53   2
  -2  -2  -5 146356. 7887.98   1
  -2  -2  -5 146295. 9123.00   8
  -2  -2  -5 126937. 5679.95   2
  -2  -2  -4 35472.8 3919.80   8
  -2  -2  -4 33078.3 3445.68   1
  -2  -2  -4 28464.4 2331.03   2
  -2  -2  -3 16743.3 2225.52   1
  -2  -2  -3 14142.9 2329.82   8
  -2  -2  -2 397844. 10316.7   8
  -2  -2  -2 385615. 9551.24   1
  -2  -2  -1 584268. 13961.2   3
  -2  -2  -1 564608. 7543.17   7
  -2  -2  -1 559850. 10899.2   1
  -2  -2  -1 584423. 11668.8   8
  -2  -2   0 509076. 10551.6   8
  -2  -2   0 480877. 7488.72   7
  -2  -2   0 491922. 12365.1   2
  -2  -2   0 508805. 11148.4   3
  -2  -2   0 503893. 10549.8   9
  -2  -2   1 121504. 4640.65   3
  -2  -2   1 119739. 4663.47   9
  -2  -2   1 115882. 5030.35   8
  -2  -2   1 119710. 8006.40   2
  -2  -2   1 121662. 4473.37   7
  -2  -2   2 2350.65 717.829   9
  -2  -2   2 2305.20 846.004   6
  -2  -2   2 4101.89 831.468   3
  -2  -2   2 1914.45 925.597   8
  -2  -2   2 2057.53 1789.30   2
  -2  -2   2 3503.29 1050.28   7
  -2  -2   3 201941. 5592.26   9
  -2  -2   3 187150. 6679.81   8
  -2  -2   3 211536. 8982.19   7
  -2  -2   3 184730. 12719.0   2
  -2  -2   3 203663. 4632.88   3
  -2  -2   3 195466. 6356.60   6
  -2  -2   4 297268. 7003.31   9
  -2  -2   4 316542. 13195.1   7
  -2  -2   4 275357. 15571.9   2
  -2  -2   4 298379. 8410.87   6
  -2  -2   4 293531. 5525.44   3
  -2  -2   5 147182. 5430.05   9
  -2  -2   5 152563. 6726.21   6
  -2  -2   5 158808. 11026.5   7
  -2  -2   5 134920. 11156.3   2
  -2  -2   6 75490.1 4376.02   9
  -2  -2   6 79149.8 8345.89   7
  -2  -2   7 8338.43 1862.82   9
  -2  -2   7 8964.17 3275.90   2
  -2  -2   7 3387.05 1304.89   7
  -2  -2   8 216.704 528.497  11
  -2  -2   8 721.611 1054.85   9
  -2  -2   8-1937.10 1540.18   3
  -2  -2   8 2049.48 1785.02   7
  -2  -2   8 2702.77 2557.19   2
  -2  -2   9 19754.8 2471.93  11
  -2  -2   9 16978.7 3572.04   9
  -2  -2   9 16132.5 4450.34   2
  -2  -2   9 16738.6 3190.19   3
  -2  -2  10 48777.9 6645.21   9
  -2  -2  10 36601.8 4629.75   3
  -2  -2  10 49480.0 6972.71   2
  -2  -2  10 50836.7 4733.41  11
  -2  -2  11 25858.2 5108.00   2
  -2  -2  11 20324.5 3463.23  11
  -2  -2  11 20638.3 3863.41   3
  -2  -2  11 18839.9 4617.56   9
  -2  -2  12 8369.87 2677.84   3
  -2  -2  12 5420.76 2631.71   2
  -2  -2  13-1849.17 1706.08   3
  -2  -2  13-833.635 2490.95   2
  -2  -2  14 2632.38 2779.80   2
  -2  -2  14 6198.22 2756.97   3
  -2  -2  15 2787.56 2682.99   2
  -2  -1 -13 2235.11 1737.09   8
  -2  -1 -13-1244.94 1819.57   7
  -2  -1 -12 4077.57 2645.08   8
  -2  -1 -12 345.462 1636.79   7
  -2  -1 -11 13669.1 3581.46   7
  -2  -1 -11 15344.8 4082.25   8
  -2  -1 -10 51802.2 5170.35   2
  -2  -1 -10 50317.3 7070.67   8
  -2  -1 -10 57178.1 6338.64   7
  -2  -1  -9 49214.9 5769.95   7
  -2  -1  -9 40721.6 4508.95   2
  -2  -1  -8 11218.2 2449.71   2
  -2  -1  -8 11204.0 4221.16   8
  -2  -1  -8 11769.2 2929.46   7
  -2  -1  -7 8264.80 2529.71   7
  -2  -1  -7 4034.09 2062.49   8
  -2  -1  -7 5044.77 1586.52   2
  -2  -1  -6 35577.8 4533.12   7
  -2  -1  -6 48254.1 5639.35   8
  -2  -1  -6 38892.9 4033.58   2
  -2  -1  -5 123808. 7620.54   8
  -2  -1  -5 110089. 8064.54  10
  -2  -1  -5 120038. 7670.22   1
  -2  -1  -5 106700. 5726.34   2
  -2  -1  -5 115540. 7608.02   7
  -2  -1  -4 143205. 9087.26  10
  -2  -1  -4 128216. 6643.92   8
  -2  -1  -4 129508. 5207.86   4
  -2  -1  -4 121053. 7171.07   7
  -2  -1  -4 135845. 4802.78   2
  -2  -1  -4 138950. 7065.62   1
  -2  -1  -3 172942. 9806.95  10
  -2  -1  -3 184163. 4259.17   4
  -2  -1  -3 179879. 6838.28   8
  -2  -1  -3 177907. 7339.23   7
  -2  -1  -3 185972. 7149.65   1
  -2  -1  -2 69541.8 3957.96   1
  -2  -1  -2 62548.8 1747.88   4
  -2  -1  -2 69674.3 3843.25   8
  -2  -1  -2 68940.4 5987.93  10
  -2  -1  -1 4788.33 1851.94  10
  -2  -1  -1 2481.20 1295.86   3
  -2  -1  -1 3175.95 943.290   8
  -2  -1  -1 5125.20 1078.94   1
  -2  -1   0 120239. 6393.63   3
  -2  -1   0 120170. 3359.33   7
  -2  -1   0 120408. 3053.47   2
  -2  -1   0 119156. 4597.71   8
  -2  -1   0 129636. 6993.70  10
  -2  -1   1 459821. 9756.28   3
  -2  -1   1 473979. 7782.92   9
  -2  -1   1 457166. 8868.35   2
  -2  -1   1 486722. 12066.9   7
  -2  -1   1 482581. 9283.16   8
  -2  -1   2 605515. 7622.22   3
  -2  -1   2 611680. 7472.54   9
  -2  -1   2 628316. 18256.6   7
  -2  -1   2 622324. 13654.7   2
  -2  -1   2 633071. 11022.6   8
  -2  -1   3 348892. 5484.52   9
  -2  -1   3 339575. 15161.1   7
  -2  -1   3 350374. 12605.7   2
  -2  -1   4 3435.56 1809.91   7
  -2  -1   4 8164.09 1581.88   6
  -2  -1   4 8030.02 999.767   9
  -2  -1   4 7487.87 2561.56   2
  -2  -1   5 70694.2 4573.05   3
  -2  -1   5 71481.7 3447.82   9
  -2  -1   5 67717.6 7667.35   7
  -2  -1   5 69998.6 7384.89   2
  -2  -1   6 268473. 10090.7   3
  -2  -1   6 283399. 15975.9   7
  -2  -1   6 258144. 6599.44  11
  -2  -1   7 200817. 9549.42   3
  -2  -1   7 220196. 14338.4   2
  -2  -1   7 193489. 6684.71  11
  -2  -1   8 81112.9 6444.37   3
  -2  -1   8 82294.2 5187.48  11
  -2  -1   8 89976.9 9327.11   2
  -2  -1   9 4302.10 2539.27   2
  -2  -1   9 6212.61 2027.06  11
  -2  -1   9 2841.17 1856.21   3
  -2  -1  10 5791.06 3025.74   2
  -2  -1  10 7116.18 2373.25  11
  -2  -1  10 2761.02 1447.74   3
  -2  -1  11 31110.8 5857.81   2
  -2  -1  11 37374.7 4994.89   3
  -2  -1  11 25252.6 4308.31  11
  -2  -1  12 6871.07 3403.14   2
  -2  -1  12 9759.54 2825.46   3
  -2  -1  12 8499.19 2635.98  11
  -2  -1  13 15211.3 4536.01   2
  -2  -1  13 22679.8 4299.13   3
  -2  -1  14 901.247 2144.13   2
  -2  -1  14 139.599 1344.11   3
  -2  -1  15 6578.34 2984.46   2
  -2   0 -13 6870.64 2544.55   8
  -2   0 -13 1475.00 1875.37   7
  -2   0 -12 3232.70 2011.51   8
  -2   0 -12 6564.44 2646.96   7
  -2   0 -11 6405.55 2881.14   7
  -2   0 -10-2032.86 1423.87   4
  -2   0 -10 2421.65 1608.71   2
  -2   0 -10-159.658 1640.50   7
  -2   0  -9 32316.1 3877.82  10
  -2   0  -9 27953.3 4014.89   2
  -2   0  -9 31859.3 4756.19   7
  -2   0  -9 34750.9 4881.53   4
  -2   0  -8 66093.7 6770.95   4
  -2   0  -8 70381.5 6326.46   2
  -2   0  -8 89437.8 7468.61   7
  -2   0  -8 76849.0 5986.95  10
  -2   0  -7 62832.9 6174.43   7
  -2   0  -7 63569.4 6424.64   4
  -2   0  -7 64842.3 5738.09  10
  -2   0  -7 71196.8 6211.99   2
  -2   0  -6 17651.5 3257.90  10
  -2   0  -6 19643.5 3004.03   2
  -2   0  -6 17044.9 3052.55   4
  -2   0  -6 16102.2 3029.77   8
  -2   0  -6 11814.5 2682.40   7
  -2   0  -5 51889.0 4515.95   8
  -2   0  -5 44098.3 5109.11  10
  -2   0  -5 39769.2 4410.28   7
  -2   0  -5 45654.9 4097.33   4
  -2   0  -4 211169. 11499.6  10
  -2   0  -4 199780. 6878.68   4
  -2   0  -4 214746. 7493.55   8
  -2   0  -4 197370. 8649.25   7
  -2   0  -3 298669. 13708.8  10
  -2   0  -3 313954. 9653.01   1
  -2   0  -3 301766. 7783.03   7
  -2   0  -3 307621. 6754.12   4
  -2   0  -3 297751. 7475.75   8
  -2   0  -2 323826. 14037.6  10
  -2   0  -2 329314. 8416.59   1
  -2   0  -2 348183. 5986.18   4
  -2   0  -2 331013. 7068.46   8
  -2   0  -2 323189. 4903.34   7
  -2   0  -1 171654. 4004.22   4
  -2   0  -1 182777. 5044.00   8
  -2   0  -1 177524. 5523.33   1
  -2   0   0 182195. 9120.92  10
  -2   0   0 172516. 4248.23   4
  -2   0   0 164343. 4821.28   1
  -2   0   0 171723. 4905.15   8
  -2   0   1 18698.8 1764.05   8
  -2   0   1 15708.3 2577.55  10
  -2   0   1 17133.2 1552.91   2
  -2   0   2 554828. 12493.7  10
  -2   0   2 543593. 10334.5   2
  -2   0   3 857085. 13262.7  10
  -2   0   3 799835. 15082.0   2
  -2   0   4 447672. 5288.76   3
  -2   0   4 488550. 13910.1   2
  -2   0   5 38023.0 2357.23   3
  -2   0   5 36878.9 4631.17   2
  -2   0   5 35540.3 2669.66  11
  -2   0   6 38049.1 5130.71   2
  -2   0   6 36696.2 3092.71   3
  -2   0   6 42466.5 3307.65  11
  -2   0   7 216318. 13275.8   2
  -2   0   7 207730. 8842.15   3
  -2   0   7 234236. 8832.79  11
  -2   0   8 161513. 12357.5   2
  -2   0   8 174243. 8945.84  11
  -2   0   9 53454.4 5854.85   3
  -2   0   9 55033.4 7705.63   2
  -2   0   9 58419.3 6051.14  11
  -2   0  10 1225.52 2503.87   2
  -2   0  10 1855.79 1372.84  11
  -2   0  10 3221.13 2341.22   3
  -2   0  11 1023.08 2341.07   2
  -2   0  11-3146.01 1963.89  11
  -2   0  12 3569.65 1668.00   3
  -2   0  12 4463.85 1598.07  11
  -2   0  13 9140.22 3202.38   3
  -2   0  13 7329.56 3508.25   2
  -2   0  14 9005.50 3200.76   3
  -2   0  14 7784.27 3358.86   2
  -2   0  15-6666.75 3195.96   2
  -2   0  15 4997.31 2383.39   9
  -2   1 -13 7393.88 2884.96   7
  -2   1 -13 10741.2 2780.15   8
  -2   1 -12 10555.8 3362.61   7
  -2   1 -11 22209.5 3149.77  10
  -2   1 -11 23491.9 4566.54   7
  -2   1 -10 8387.18 2273.56  10
  -2   1 -10 10283.6 3118.78   7
  -2   1  -9-513.587 1387.33  10
  -2   1  -9-1501.74 1681.30   4
  -2   1  -9-2056.20 1919.58   7
  -2   1  -8 19953.4 3363.17  10
  -2   1  -8 18539.0 3878.79   4
  -2   1  -8 18649.4 3665.51   7
  -2   1  -7 145961. 8821.70  10
  -2   1  -7 140869. 9809.04   4
  -2   1  -7 124868. 9160.19   7
  -2   1  -6 239360. 11666.6  10
  -2   1  -6 253350. 10420.8   8
  -2   1  -6 251492. 11518.1   4
  -2   1  -6 252861. 11804.8   7
  -2   1  -5 243832. 12217.9  10
  -2   1  -5 263808. 10016.4   4
  -2   1  -5 254343. 8455.23   8
  -2   1  -5 252477. 9876.75   7
  -2   1  -4 407.629 1630.72  10
  -2   1  -4-13.3655 758.540   4
  -2   1  -4-309.207 702.196   8
  -2   1  -4 222.591 707.191   7
  -2   1  -3 143483. 10139.1  10
  -2   1  -3 146443. 4209.44   8
  -2   1  -3 139543. 4831.60   7
  -2   1  -3 135475. 5185.98   4
  -2   1  -2 431048. 6576.26   8
  -2   1  -2 406003. 8128.96   4
  -2   1  -2 433842. 6892.65   7
  -2   1  -2 409331. 18060.9  10
  -2   1  -1 439948. 18831.8  10
  -2   1  -1 458806. 8503.44   5
  -2   1  -1 483150. 6465.61   7
  -2   1  -1 468432. 8757.08   1
  -2   1  -1 486383. 6839.13   8
  -2   1  -1 491649. 8403.98   4
  -2   1   0 307577. 6588.04   5
  -2   1   0 303768. 6105.81   1
  -2   1   1 42697.3 5449.51  10
  -2   1   2 9554.20 2264.23  10
  -2   1   3 268746. 3683.63   9
  -2   1   3 259000. 8036.27   2
  -2   1   4 429076. 10368.0  10
  -2   1   4 408674. 6309.60   9
  -2   1   4 403049. 6880.78   3
  -2   1   4 432414. 11787.8   2
  -2   1   4 408887. 9448.62  11
  -2   1   5 386069. 10068.8  11
  -2   1   5 381382. 8219.94   9
  -2   1   5 368281. 7734.28   3
  -2   1   5 393511. 12772.1   2
  -2   1   5 380723. 7647.14  10
  -2   1   6 179869. 6530.67   3
  -2   1   6 177601. 7117.84   9
  -2   1   6 194053. 8049.49  11
  -2   1   6 180199. 9764.62   2
  -2   1   7 1844.26 1004.99   9
  -2   1   7 2916.60 1342.06   3
  -2   1   7 1782.04 1624.20   2
  -2   1   7 2788.58 1229.40  11
  -2   1   8 68012.8 6102.80   9
  -2   1   8 68847.3 5553.70   3
  -2   1   8 55969.0 7065.43   2
  -2   1   9 80972.0 6801.16   3
  -2   1   9 77134.3 7380.17   9
  -2   1   9 70074.0 8466.49   2
  -2   1   9 84334.0 7975.84  11
  -2   1  10 42523.0 6984.27   2
  -2   1  10 39299.1 5667.72   9
  -2   1  10 37818.9 5172.04   3
  -2   1  10 40374.0 6305.41  11
  -2   1  11 6019.57 3329.28   2
  -2   1  11 2292.02 1905.03   9
  -2   1  11 4278.16 2339.34  11
  -2   1  11 6071.34 2831.88   3
  -2   1  12-590.007 2427.16   2
  -2   1  12-3956.17 2303.29   9
  -2   1  12 590.793 1607.62   3
  -2   1  13 3891.79 3155.59   2
  -2   1  13 46.8283 1540.80   3
  -2   1  14 6227.30 2621.04   9
  -2   1  14 6541.42 2980.82   3
  -2   1  14 3829.23 2917.25   2
  -2   1  15-3203.03 3001.67   2
  -2   1  15 2771.78 2280.89   9
  -2   1  15-5738.86 2693.69   3
  -2   2 -13 445.714 2230.77   7
  -2   2 -12 274.634 985.557  10
  -2   2 -12 2029.83 2357.09   7
  -2   2 -11 9760.00 2536.37  10
  -2   2 -11 12816.6 3814.21   7
  -2   2 -10 32279.3 4256.49  10
  -2   2 -10 30403.5 5360.86   7
  -2   2  -9 21009.6 3605.18  10
  -2   2  -9 20792.6 4577.40   7
  -2   2  -8 2073.98 1331.46  10
  -2   2  -8 4024.84 2355.26   4
  -2   2  -8 4623.06 2304.71   7
  -2   2  -7 13282.9 3056.00  10
  -2   2  -7 18428.1 3758.97   4
  -2   2  -7 14806.7 3198.28   7
  -2   2  -6 164132. 6851.46   8
  -2   2  -6 145219. 9895.99  10
  -2   2  -6 152490. 8580.00   7
  -2   2  -6 170095. 9547.87   4
  -2   2  -5 387893. 12644.9   4
  -2   2  -5 391418. 8092.90   8
  -2   2  -5 381265. 11641.5   7
  -2   2  -4 234152. 8552.09   4
  -2   2  -4 236616. 4705.43   8
  -2   2  -4 241080. 7964.84   7
  -2   2  -4 221994. 12653.1  10
  -2   2  -3 58344.5 1867.84   8
  -2   2  -3 56907.3 3414.71   7
  -2   2  -3 61077.7 3960.80   4
  -2   2  -3 63810.2 7056.95  10
  -2   2  -2 27858.0 2098.52   5
  -2   2  -2 31373.4 2631.06   4
  -2   2  -2 24765.0 2075.37   7
  -2   2  -2 29809.5 5161.10  10
  -2   2  -1 309760. 6928.61   7
  -2   2  -1 289126. 5913.93   5
  -2   2   0 415314. 8722.43   6
  -2   2   0 406304. 6732.40   1
  -2   2   0 433231. 20998.2  10
  -2   2   1 244501. 6693.49   6
  -2   2   1 237527. 15468.0  10
  -2   2   1 246721. 5767.43   9
  -2   2   1 247178. 4295.99   1
  -2   2   2 40782.4 2152.66   9
  -2   2   2 35195.5 2759.86   6
  -2   2   2 30424.3 5283.88  10
  -2   2   3 5171.47 2204.21  10
  -2   2   3 4767.07 831.674   9
  -2   2   3 5374.14 1274.59  11
  -2   2   4 9904.28 1400.28   3
  -2   2   4 10051.4 1291.11   9
  -2   2   4 9146.49 1709.30  11
  -2   2   4 11641.0 2579.23  10
  -2   2   5 85794.6 5606.02  10
  -2   2   5 79472.8 3918.39   9
  -2   2   5 80162.7 4197.47   3
  -2   2   5 85058.0 5382.29  11
  -2   2   6 102779. 5103.15  10
  -2   2   6 108622. 6696.66  11
  -2   2   6 106719. 7127.86   2
  -2   2   6 108614. 5476.26   3
  -2   2   6 110417. 5434.26   9
  -2   2   7 66473.8 2863.48  10
  -2   2   7 86306.2 5607.11   9
  -2   2   7 84942.2 5484.94   3
  -2   2   7 86316.8 7146.90   2
  -2   2   7 95496.5 7110.60  11
  -2   2   8 8171.37 2982.96   2
  -2   2   8 6177.21 1962.74   3
  -2   2   8 8407.01 2166.63   9
  -2   2   8 5449.41 2100.34  11
  -2   2   9 1498.91 1645.83   3
  -2   2   9 2796.88 2384.82   2
  -2   2   9 1054.41 1308.39  11
  -2   2  10 15719.7 3453.92   3
  -2   2  10 16844.5 4479.38   2
  -2   2  10 16142.3 3686.14   9
  -2   2  11 15828.0 3814.09   9
  -2   2  11 14432.4 4606.24   2
  -2   2  11 10129.0 3028.31   3
  -2   2  12 3074.74 2137.73   9
  -2   2  12 3833.44 3071.82   2
  -2   2  12 8590.60 3464.47   3
  -2   2  13-632.530 2003.93   9
  -2   2  13 5247.86 3565.40   2
  -2   2  13-1727.52 2527.64   3
  -2   2  14-1858.64 2916.29   2
  -2   2  14-901.582 2058.15   3
  -2   2  14-4646.14 2854.91   9
  -2   3 -13 12759.1 4043.13   7
  -2   3 -12-118.977 1503.59  10
  -2   3 -12 3395.62 2356.90   7
  -2   3 -11 3307.71 1839.16  10
  -2   3 -11-1643.86 2253.82   7
  -2   3 -10 21474.6 3849.49  10
  -2   3 -10 21993.0 4974.79   7
  -2   3  -9 19181.7 3836.04  10
  -2   3  -9 21947.4 4461.59   7
  -2   3  -8 35464.9 5342.77  10
  -2   3  -8 41029.8 5776.34   7
  -2   3  -7 25395.4 4453.42  10
  -2   3  -7 29460.6 2854.08   8
  -2   3  -7 30709.2 4801.60   4
  -2   3  -7 23650.8 3942.10   7
  -2   3  -6 1434.82 601.700   8
  -2   3  -6 1713.67 1514.34   7
  -2   3  -6 2785.53 1783.11   4
  -2   3  -6 842.114 1595.19  10
  -2   3  -5 16696.5 3975.99  10
  -2   3  -5 19274.5 2854.39   7
  -2   3  -5 19363.9 3008.57   4
  -2   3  -4 194048. 12393.7  10
  -2   3  -4 213837. 8812.53   4
  -2   3  -4 204346. 7943.34   7
  -2   3  -3 155944. 6924.38   4
  -2   3  -3 152410. 6276.69   7
  -2   3  -3 151497. 11121.4  10
  -2   3  -2 240865. 7531.58   7
  -2   3  -2 257994. 5246.21   5
  -2   3  -1 22882.4 4878.86  10
  -2   3   0 46749.4 3242.25   9
  -2   3   0 45264.2 2900.62   6
  -2   3   1 195982. 6086.84   6
  -2   3   1 192708. 6035.74   9
  -2   3   1 193843. 3345.09   1
  -2   3   2 343125. 20007.5  10
  -2   3   2 346887. 7781.37   9
  -2   3   2 339239. 9581.23  11
  -2   3   2 348477. 8892.78   6
  -2   3   3 321359. 7686.71   9
  -2   3   3 332155. 10049.8  11
  -2   3   4 66926.0 4132.22   3
  -2   3   4 73385.6 3925.79   9
  -2   3   4 71706.0 5001.17  11
  -2   3   4 80415.2 8001.94  10
  -2   3   5 16763.9 2693.77  11
  -2   3   5 12624.7 1995.32   3
  -2   3   5 13416.3 1925.19   9
  -2   3   5 18947.4 3438.74  10
  -2   3   6 56692.3 4385.63   3
  -2   3   6 51321.9 5053.66  11
  -2   3   6 51633.5 3974.30   9
  -2   3   7 101993. 5902.43  10
  -2   3   7 102614. 6197.12   9
  -2   3   7 100829. 6375.07   3
  -2   3   7 108967. 8212.67  11
  -2   3   8 79713.5 4293.62  10
  -2   3   8 91499.8 6598.64   9
  -2   3   8 99198.1 8686.40  11
  -2   3   8 92542.8 6765.75   3
  -2   3   9 45074.3 5198.18   9
  -2   3   9 44863.0 5261.00   3
  -2   3  10-1058.41 2396.81   3
  -2   3  10 6167.96 2627.70   9
  -2   3  11-499.994 1342.90   9
  -2   3  11 3481.04 2414.34   3
  -2   3  12 10717.8 3456.52   9
  -2   3  12 6644.07 2946.31   3
  -2   3  13 11662.2 4242.32   3
  -2   3  13 7303.68 3268.93   9
  -2   3  14 3699.49 2776.38   3
  -2   3  14 3859.88 3420.37   9
  -2   4 -13 248.113 2272.60   7
  -2   4 -12 6093.06 2660.61  10
  -2   4 -12 4736.90 2950.80   7
  -2   4 -11 7381.69 3027.59  10
  -2   4 -11 8606.57 3958.97   7
  -2   4 -10-373.976 1015.25   8
  -2   4 -10 95.8567 2353.96   7
  -2   4 -10-1270.71 2237.97  10
  -2   4  -9 17193.7 3973.70  10
  -2   4  -9 17396.6 2291.69   8
  -2   4  -9 16883.5 2304.95   8
  -2   4  -9 21009.7 4674.17   7
  -2   4  -8 46602.8 2822.43   8
  -2   4  -8 38846.8 5896.46  10
  -2   4  -8 43585.9 2958.04   8
  -2   4  -8 40700.6 5655.21   7
  -2   4  -7 69144.3 7726.45  10
  -2   4  -7 79396.6 2417.78   8
  -2   4  -7 85085.8 7297.19   7
  -2   4  -6 45191.0 6285.79  10
  -2   4  -6 64108.8 6171.95   4
  -2   4  -6 59470.9 5594.50   7
  -2   4  -5 36507.4 4299.19   4
  -2   4  -5 32377.5 3764.53   7
  -2   4  -5 38911.4 5907.71  10
  -2   4  -4 2911.39 2377.60  10
  -2   4  -4 2454.70 1407.69   4
  -2   4  -4 1184.75 1029.07   7
  -2   4  -3 31384.4 1862.11   5
  -2   4  -3 33393.2 3375.19   7
  -2   4  -2 242506. 14714.6  10
  -2   4  -2 233449. 8420.07   7
  -2   4  -1 466215. 21026.9  10
  -2   4  -1 420592. 11347.2   9
  -2   4   0 227757. 6438.10   6
  -2   4   0 227557. 7898.52   9
  -2   4   1 11321.7 798.821   1
  -2   4   1 11582.9 1841.17   9
  -2   4   1 10924.4 1590.59   6
  -2   4   2 119551. 5440.18   9
  -2   4   2 121930. 6379.93  11
  -2   4   2 118739. 5387.57   6
  -2   4   3 329162. 10973.5  11
  -2   4   3 321257. 9039.59   9
  -2   4   3 332729. 10628.5   4
  -2   4   4 194315. 7324.51   9
  -2   4   4 195912. 8946.83  11
  -2   4   4 196337. 7882.41   3
  -2   4   5 87217.4 5190.71   9
  -2   4   5 94708.7 6775.42  11
  -2   4   5 80191.2 5332.57   3
  -2   4   6 525.049 1064.02  11
  -2   4   6 749.482 1034.20   3
  -2   4   6 929.961 853.007   9
  -2   4   7 24164.5 3603.55  10
  -2   4   7 25679.1 3393.08   9
  -2   4   7 25768.7 3580.84   3
  -2   4   8 58265.6 5455.01   9
  -2   4   8 48789.2 5266.94   3
  -2   4   8 60132.4 4995.01  10
  -2   4   9 38536.4 5056.14   9
  -2   4   9 33189.1 3281.61  10
  -2   4   9 40240.9 5277.95   3
  -2   4  10 6221.19 1059.11  10
  -2   4  10 11267.8 3181.95   3
  -2   4  11-435.982 2137.75   3
  -2   4  11-1758.69 2504.77   9
  -2   4  12-7129.46 3117.49   9
  -2   4  12-13.4412 1968.89   3
  -2   4  13 1416.77 2967.03   3
  -2   4  13 8474.71 3644.07   9
  -2   5 -12 7061.70 4155.35   7
  -2   5 -12 3467.56 2746.04  10
  -2   5 -11 13275.7 3986.01  10
  -2   5 -11 17243.3 5476.24   7
  -2   5 -10 32509.1 6240.04   7
  -2   5 -10 37417.3 6171.45  10
  -2   5  -9 12723.7 3885.46   7
  -2   5  -9 7983.35 3289.48  10
  -2   5  -8 4361.08 2448.70   7
  -2   5  -8 71.1495 1933.76  10
  -2   5  -7 63572.2 6533.53   7
  -2   5  -7 60698.4 7746.39  10
  -2   5  -6 101535. 7496.27   7
  -2   5  -6 97159.9 9640.35  10
  -2   5  -5 96544.4 9448.37  10
  -2   5  -5 91951.2 6656.79   7
  -2   5  -4 25745.4 5185.07  10
  -2   5  -4 23744.4 3403.66   7
  -2   5  -4 24156.7 3472.29   4
  -2   5  -3 13532.3 4051.89  10
  -2   5  -3 8999.14 2168.57   7
  -2   5  -2 15483.8 2694.04   7
  -2   5  -1 210585. 8747.21   9
  -2   5   0 259300. 6885.73   6
  -2   5   0 241421. 9035.05   9
  -2   5   1 292933. 10375.4   4
  -2   5   1 285415. 9662.70   9
  -2   5   1 276523. 9946.08  11
  -2   5   1 272222. 7486.39   6
  -2   5   2 50573.1 3650.55   6
  -2   5   2 56184.8 4293.14   9
  -2   5   2 59925.9 4891.41  11
  -2   5   2 51592.8 4460.97   4
  -2   5   3 30084.8 3481.04   4
  -2   5   3 26342.9 3070.75   9
  -2   5   3 30882.5 3744.49  11
  -2   5   4 163703. 7593.67   9
  -2   5   4 186649. 9448.47  11
  -2   5   4 165287. 8289.46   4
  -2   5   4 162008. 7987.41   3
  -2   5   5 160560. 7833.00   9
  -2   5   5 164856. 8373.26   3
  -2   5   6 125947. 7323.87   9
  -2   5   6 120420. 7539.51   3
  -2   5   7 1581.00 1491.32   3
  -2   5   7 1974.57 1300.88   9
  -2   5   8 757.893 1360.84   3
  -2   5   8 2107.23 1568.80  10
  -2   5   8 1011.99 1377.17   9
  -2   5   9 15365.7 2828.36  10
  -2   5   9 20476.8 4223.41   3
  -2   5   9 19822.9 3874.48   9
  -2   5  10 12674.5 3723.49   3
  -2   5  10 18546.9 4019.56   9
  -2   5  11 1176.60 1663.74   3
  -2   5  11 3947.06 2779.50   9
  -2   5  12-6077.75 2846.60   9
  -2   5  12 1297.28 2113.91   3
  -2   5  13-9121.72 4100.50   3
  -2   5  13-585.306 1937.47   9
  -2   6 -12-3719.63 2524.27  10
  -2   6 -12-6385.18 3799.70   7
  -2   6 -11 1212.97 3011.63   7
  -2   6 -11 605.120 2222.90  10
  -2   6 -10 13589.7 4484.58  10
  -2   6 -10 7884.86 3602.90   7
  -2   6  -9 34214.5 6324.80  10
  -2   6  -9 40267.4 6517.80   7
  -2   6  -8 25504.9 5766.55  10
  -2   6  -8 34528.4 5500.81   7
  -2   6  -7 6900.19 3337.93  10
  -2   6  -7 8348.62 2749.55   7
  -2   6  -6 26817.8 5561.98  10
  -2   6  -6 23761.3 4000.26   7
  -2   6  -5 84242.3 9466.33  10
  -2   6  -5 98199.9 7434.32   7
  -2   6  -4 124766. 11189.2  10
  -2   6  -4 128384. 8060.49   7
  -2   6  -3 50636.6 5000.92   7
  -2   6  -2 5162.51 1908.77   9
  -2   6  -1 14824.8 2722.98   9
  -2   6  -1 12754.7 2507.71   4
  -2   6   0 61528.9 5100.14   9
  -2   6   0 65625.8 5350.74   4
  -2   6   0 65755.3 3468.26   6
  -2   6   1 59293.3 5075.16   4
  -2   6   1 59359.7 4959.60   9
  -2   6   1 57117.7 4897.78  11
  -2   6   1 57532.6 3551.62   6
  -2   6   2 60935.9 4986.45   9
  -2   6   2 60105.6 5190.82   4
  -2   6   2 65291.3 5509.81  11
  -2   6   2 58440.8 4050.36   6
  -2   6   3 29682.5 3660.23   4
  -2   6   3 25008.0 3303.25   9
  -2   6   4 2775.19 1528.50   9
  -2   6   4 2007.41 1076.90   4
  -2   6   5 11082.4 2718.71   3
  -2   6   5 11591.8 2556.89   9
  -2   6   6 58899.3 5497.22   9
  -2   6   6 60106.5 5863.96   3
  -2   6   7 41433.6 4906.92   9
  -2   6   7 38385.4 4981.08   3
  -2   6   8 13127.4 3318.26   3
  -2   6   8 8427.31 2557.34   9
  -2   6   9 2425.70 2277.64   3
  -2   6   9 5329.11 2121.72  10
  -2   6   9 1812.54 1906.18   9
  -2   6  10-4216.94 2639.73   3
  -2   6  10-1794.34 1857.97   9
  -2   6  11-356.751 1834.56   9
  -2   6  11 6976.77 3405.62   3
  -2   6  12 1956.91 1849.23   9
  -2   6  12 419.535 2009.96   3
  -2   7 -11-4911.41 3024.61  10
  -2   7 -11-4769.17 3973.18   7
  -2   7 -10-92.7291 2741.86  10
  -2   7 -10-653.214 2372.79   7
  -2   7  -9 4118.09 3401.03  10
  -2   7  -9 7503.01 3085.03   7
  -2   7  -8 18452.5 5233.45  10
  -2   7  -8 23296.3 4777.22   7
  -2   7  -7 27020.5 5938.92  10
  -2   7  -7 24381.5 4598.80   7
  -2   7  -6 3793.96 600.762   5
  -2   7  -6 6116.67 2612.69   7
  -2   7  -6 7549.17 3671.44  10
  -2   7  -5 5637.91 2196.88   7
  -2   7  -5 4681.56 3457.24  10
  -2   7  -4 39340.1 5016.38   7
  -2   7  -3 82673.0 6894.33   7
  -2   7  -2 95896.3 7216.74   9
  -2   7  -1 64362.4 5823.77   9
  -2   7   0-308.140 471.904   6
  -2   7   0-901.332 1348.05   9
  -2   7   1 6026.06 2091.82   9
  -2   7   1 5195.96 1175.63   6
  -2   7   2 50637.6 5045.89   9
  -2   7   2 47314.2 3742.02   6
  -2   7   3 77607.0 6226.52   9
  -2   7   3 70957.7 5134.84   6
  -2   7   4 59466.3 5571.91   9
  -2   7   5 26263.9 3896.23   9
  -2   7   6-1786.63 1542.83   3
  -2   7   6-1464.25 1924.32   9
  -2   7   7 23310.5 4251.81   3
  -2   7   7 17873.7 3537.20   9
  -2   7   8 19009.2 4280.48   3
  -2   7   8 15922.6 3700.43   9
  -2   7   9 21024.3 4729.14   3
  -2   7   9 35949.0 5873.36   9
  -2   7  10 3387.97 2452.68   3
  -2   7  10 9039.93 3478.91   9
  -2   7  11 3866.21 2432.77   9
  -2   7  11-983.264 2500.69   3
  -2   8 -10 5198.73 3147.17   7
  -2   8 -10 815.200 2683.74  10
  -2   8  -9 3888.79 3074.04  10
  -2   8  -9 2516.35 2432.13   7
  -2   8  -8 2443.72 3168.50  10
  -2   8  -8 2817.92 2230.99   7
  -2   8  -7 11756.6 4267.15  10
  -2   8  -7 13319.8 3954.47   7
  -2   8  -6 34538.9 7242.01  10
  -2   8  -6 48658.8 6322.27   7
  -2   8  -5 31611.3 6516.59  10
  -2   8  -5 38240.2 5478.17   7
  -2   8  -4 18928.3 3941.84   7
  -2   8  -3 4135.22 2233.65   9
  -2   8  -2 54443.6 5960.60   9
  -2   8  -1 103509. 7983.05   9
  -2   8   0 66325.2 6355.82   9
  -2   8   1 12874.4 1740.30   6
  -2   8   1 12646.3 3004.11   9
  -2   8   1 11826.5 965.778   1
  -2   8   2-320.809 1492.59   9
  -2   8   2 1232.35 969.356   6
  -2   8   3 34865.7 4603.01   9
  -2   8   3 38450.9 3862.58   6
  -2   8   4 61818.5 6216.99   9
  -2   8   5 50447.6 5758.66   9
  -2   8   6 13731.4 3499.00   9
  -2   8   7 867.116 1778.08   9
  -2   8   7 790.656 1880.52   3
  -2   8   8 5045.75 2407.46   3
  -2   8   8 4367.54 2592.17   9
  -2   8   9 6515.86 2723.09   9
  -2   8   9 8554.16 3577.37   3
  -2   8  10 9432.66 3839.66   3
  -2   8  10 10845.1 3719.04   9
  -2   9  -9 14218.7 5265.02  10
  -2   9  -9 3741.79 2828.84   7
  -2   9  -8-5219.83 2983.41  10
  -2   9  -8 1702.32 2111.87   7
  -2   9  -7 5649.10 3960.65  10
  -2   9  -7 585.318 2341.48   7
  -2   9  -6 12271.0 3970.97   7
  -2   9  -6 16130.7 5128.79  10
  -2   9  -5 25821.6 6541.11  10
  -2   9  -5 31619.9 5443.62   7
  -2   9  -3 25936.3 4484.08   9
  -2   9  -2-638.295 1709.29   9
  -2   9  -1 19844.2 4080.20   9
  -2   9   0 67458.0 6902.25   9
  -2   9   1 61190.6 6475.32   9
  -2   9   1 65043.8 3553.85   6
  -2   9   2 36615.3 5277.94   9
  -2   9   2 36561.0 3246.70   6
  -2   9   3-1993.61 1938.44   9
  -2   9   3-772.646 976.257   6
  -2   9   4 9697.80 2367.87   6
  -2   9   4 7294.54 2773.09   9
  -2   9   5 25751.8 4627.06   9
  -2   9   6 24416.5 4658.23   9
  -2   9   7 4557.04 2698.85   9
  -2   9   8-1657.13 1902.60   9
  -2  10  -7 6097.03 3106.21   7
  -2  10  -7 4667.19 3254.45  10
  -2  10  -6 971.861 3897.13  10
  -2  10  -6 7369.76 3410.51   7
  -2  10  -5 4443.20 3108.86  10
  -2  10  -3 8329.63 3214.40   9
  -2  10  -2 10058.9 3013.04   9
  -2  10  -1 2040.32 2055.82   9
  -2  10   0-685.038 1681.98   9
  -2  10   1 9525.09 3231.22   9
  -2  10   2 29255.0 5073.22   9
  -2  10   3 25508.1 4766.46   9
  -2  10   4 3434.82 2054.30   9
  -2  10   5 62.5577 1587.85   9
  -2  10   6 4066.37 2661.22   9
  -2  11  -3 4262.49 2564.64   9
  -2  11  -2 7911.46 3464.49   9
  -2  11  -1 14606.1 3995.21   9
  -2  11   0 7863.45 3316.37   9
  -2  11   1 1727.68 2430.55   9
  -2  11   2 698.720 1796.18   9
  -2  11   3 11834.2 3695.98   9
  -1 -11  -2 19837.0 4937.02   2
  -1 -11  -2 11938.4 3775.35   8
  -1 -11  -1 10067.7 3738.82   2
  -1 -11  -1 7565.30 2759.87   8
  -1 -11   0 4548.72 2894.03   2
  -1 -11   0 2868.29 2060.61   8
  -1 -11   1 9525.48 3576.43   2
  -1 -11   1 7207.99 2824.38   8
  -1 -11   2 29833.0 4907.84   8
  -1 -11   2 26632.1 5834.26   2
  -1 -11   3 23395.6 4155.06   8
  -1 -11   3 30721.5 6161.97   2
  -1 -11   4 4611.41 2976.87   2
  -1 -11   4 8284.49 2702.99   8
  -1 -11   5-8479.06 3757.99   2
  -1 -11   5 1267.78 1767.53   8
  -1 -10  -5 5404.42 2784.30   5
  -1 -10  -5 10502.6 4084.87   8
  -1 -10  -4 3315.87 2702.67   8
  -1 -10  -4 1495.82 1892.53   5
  -1 -10  -3 4878.00 2137.18   4
  -1 -10  -3 7291.11 3147.16   8
  -1 -10  -3 4313.37 2111.18   5
  -1 -10  -2 17106.8 4074.93   4
  -1 -10  -2 21315.8 4386.23   8
  -1 -10  -2 22455.1 3759.49   5
  -1 -10  -1 29563.4 4810.90   8
  -1 -10  -1 33774.9 4235.56   5
  -1 -10  -1 38017.9 5855.40   4
  -1 -10  -1 33628.9 5487.33   2
  -1 -10   0 19595.0 4418.08   2
  -1 -10   0 18750.1 3865.22   8
  -1 -10   1 2304.88 1911.88   2
  -1 -10   1 1906.17 1733.25   8
  -1 -10   2-2796.76 2301.37   2
  -1 -10   2-191.676 1848.19   8
  -1 -10   3 19373.8 4704.63   2
  -1 -10   3 15350.8 3205.91   8
  -1 -10   4 21616.3 5051.94   2
  -1 -10   4 31816.4 4389.33   8
  -1 -10   5 23056.1 3623.32   8
  -1 -10   5 26523.4 5773.13   2
  -1 -10   6 10023.9 2660.71   8
  -1 -10   6 200.979 2340.12   2
  -1 -10   7 1106.47 2675.58   2
  -1 -10   8 6566.15 3593.39   2
  -1  -9  -7 37.8769 3605.26   8
  -1  -9  -6 14037.4 5175.85   8
  -1  -9  -6 11453.5 3714.83   5
  -1  -9  -5 17615.4 4098.08   5
  -1  -9  -5 16959.2 4769.19   8
  -1  -9  -4 18975.5 3828.43   5
  -1  -9  -4 19523.5 3640.28   4
  -1  -9  -4 22585.0 5080.11   8
  -1  -9  -3 7365.50 2430.43   5
  -1  -9  -3 3879.14 1970.55   4
  -1  -9  -3 4333.47 2414.18   8
  -1  -9  -2-444.368 1811.60   4
  -1  -9  -2 3595.26 2448.83   8
  -1  -9  -2 487.756 1301.64   5
  -1  -9  -1 5632.74 1887.44   5
  -1  -9  -1 4167.42 1673.22   4
  -1  -9  -1 7115.18 2479.91   8
  -1  -9   0 18464.6 3849.86   4
  -1  -9   0 24630.2 3338.12   5
  -1  -9   0 30227.1 4860.51   2
  -1  -9   0 24925.2 7130.98  11
  -1  -9   0 21697.6 3735.55   8
  -1  -9   1 33763.4 3621.32   5
  -1  -9   1 36575.5 5343.45   2
  -1  -9   1 34197.3 4511.76   8
  -1  -9   1 31432.4 8944.21  11
  -1  -9   2 21639.9 3591.99   8
  -1  -9   2 11265.9 5791.77  11
  -1  -9   3 6125.88 3868.57  11
  -1  -9   3 7972.72 2303.87   8
  -1  -9   3 3573.76 2406.02   2
  -1  -9   4 5236.18 2056.52   8
  -1  -9   4 2817.85 2357.24  11
  -1  -9   4 879.638 1951.76   2
  -1  -9   5 19927.2 4844.12   2
  -1  -9   5 17705.6 3060.89   8
  -1  -9   6 53755.5 7753.92   2
  -1  -9   6 41481.7 4573.32   8
  -1  -9   7 27826.2 6183.34   2
  -1  -9   8 8929.23 4542.97   2
  -1  -9   9 2443.00 2620.51   2
  -1  -9  10 2667.94 3236.28   2
  -1  -8  -9 1396.35 4029.83   8
  -1  -8  -8 12439.2 5584.36   8
  -1  -8  -7 5897.67 3812.82   8
  -1  -8  -6 1888.41 1649.72   4
  -1  -8  -6 716.044 2553.01   8
  -1  -8  -5 9154.99 4009.56   8
  -1  -8  -5 7421.18 2131.41   4
  -1  -8  -4 58505.7 7196.78   8
  -1  -8  -4 53918.9 5912.84   5
  -1  -8  -4 60968.5 5486.25   4
  -1  -8  -3 96548.5 7343.13   5
  -1  -8  -3 95181.1 6808.98   4
  -1  -8  -3 99979.0 8498.10   8
  -1  -8  -2 47450.3 4914.30   4
  -1  -8  -2 52118.0 5076.77   5
  -1  -8  -2 53970.5 5985.04   8
  -1  -8  -1 16459.7 2806.34   5
  -1  -8  -1 6885.37 4192.88  11
  -1  -8  -1 7176.27 2193.45   4
  -1  -8  -1 6338.90 2117.73   8
  -1  -8   0 6237.80 4452.14  11
  -1  -8   0 7756.93 1901.34   5
  -1  -8   0 5005.77 1911.60   4
  -1  -8   0 10025.0 2422.64   8
  -1  -8   1 41739.5 8688.62  11
  -1  -8   1 55957.5 5976.32   2
  -1  -8   1 49608.2 5008.41   8
  -1  -8   1 45307.4 4007.89   5
  -1  -8   2 75300.7 5927.10   8
  -1  -8   2 65825.2 10655.0  11
  -1  -8   2 82910.7 7417.30   2
  -1  -8   3 89853.6 6347.64   8
  -1  -8   3 68686.6 9976.62  11
  -1  -8   3 85898.9 7954.15   2
  -1  -8   4 33366.6 6103.43  11
  -1  -8   4 36808.8 5669.25   2
  -1  -8   4 37368.7 4057.25   8
  -1  -8   5 860.729 1680.98   2
  -1  -8   5 1300.85 1418.41  11
  -1  -8   5-480.917 1253.77   8
  -1  -8   6 3715.59 1557.08   8
  -1  -8   6 8291.23 3711.63   2
  -1  -8   7 52362.2 7797.47   2
  -1  -8   8 40838.7 7468.27   2
  -1  -8   9 15266.9 5001.53   2
  -1  -8  10-6561.51 4146.31   2
  -1  -8  11-2967.48 3394.83   2
  -1  -7 -10 1229.05 3763.65   8
  -1  -7  -9-3958.92 4395.05   8
  -1  -7  -8 9659.10 4841.74   8
  -1  -7  -7 31372.2 3909.53   4
  -1  -7  -7 20408.3 6336.03   8
  -1  -7  -6 42597.9 4327.86   4
  -1  -7  -6 45270.7 7687.71   8
  -1  -7  -6 42354.5 4284.43   2
  -1  -7  -5 23034.5 2990.12   2
  -1  -7  -5 30692.8 3518.89   4
  -1  -7  -5 28620.0 5610.66   8
  -1  -7  -4 809.685 2163.37   8
  -1  -7  -4 521.651 994.080   4
  -1  -7  -3 62940.9 4953.83   4
  -1  -7  -3 62646.4 5702.49   5
  -1  -7  -3 57860.8 6119.01   8
  -1  -7  -2 145562. 8057.47   5
  -1  -7  -2 150204. 7609.33   4
  -1  -7  -2 120798. 12744.4  11
  -1  -7  -2 142092. 8950.85   8
  -1  -7  -1 160648. 7869.27   5
  -1  -7  -1 154409. 7889.19   4
  -1  -7  -1 160360. 8938.18   8
  -1  -7  -1 142712. 13647.0  11
  -1  -7   0 34628.0 3513.79   5
  -1  -7   0 29997.8 3805.32   4
  -1  -7   0 30286.2 3731.41   8
  -1  -7   0 32914.0 6822.08  11
  -1  -7   1 12939.6 4295.01  11
  -1  -7   1 10918.1 2602.14   4
  -1  -7   1 13169.6 2157.20   5
  -1  -7   1 14400.7 2747.42   8
  -1  -7   1 20023.8 3413.74   2
  -1  -7   2 93803.4 6055.08   8
  -1  -7   2 99548.6 11466.9  11
  -1  -7   2 98718.0 7459.11   2
  -1  -7   3 121913. 8721.94   2
  -1  -7   3 115699. 6624.62   8
  -1  -7   3 106481. 11423.8  11
  -1  -7   4 80520.8 7452.08   2
  -1  -7   4 82299.7 8187.49  11
  -1  -7   4 82452.8 5487.00   8
  -1  -7   5 8151.57 2401.21  11
  -1  -7   5 10300.5 3562.16   2
  -1  -7   5 9550.76 2108.31   8
  -1  -7   6 7238.85 3193.10   2
  -1  -7   6 10144.0 2186.25   8
  -1  -7   7 2623.95 685.982   6
  -1  -7   7 3121.83 2589.81   2
  -1  -7   8 12435.5 1765.92   6
  -1  -7   8 13765.7 4562.07   2
  -1  -7   9 27187.0 6407.44   2
  -1  -7   9 27857.5 3134.37   6
  -1  -7  10 13435.6 2711.45   6
  -1  -7  10 21709.9 6144.15   2
  -1  -7  11-3580.83 3762.76   2
  -1  -7  12-666.815 2696.58   2
  -1  -6 -11 5681.00 3793.86   8
  -1  -6 -10 778.389 2997.29   8
  -1  -6  -9-8538.72 5071.91   8
  -1  -6  -9 731.027 1600.98   4
  -1  -6  -8 1322.00 4413.89   8
  -1  -6  -8 1320.58 1367.70   4
  -1  -6  -7 23527.5 3202.17   2
  -1  -6  -7 23341.7 3332.59   1
  -1  -6  -7 22166.7 6184.04   8
  -1  -6  -7 22283.0 3219.76   4
  -1  -6  -6 75921.8 5196.15   4
  -1  -6  -6 70191.2 9133.28   8
  -1  -6  -6 69613.6 5043.96   2
  -1  -6  -5 90909.7 9247.46   8
  -1  -6  -5 75263.5 5056.11   2
  -1  -6  -5 77192.4 4970.47   4
  -1  -6  -4 31444.1 3904.49   7
  -1  -6  -4 30186.9 3071.61   4
  -1  -6  -4 29662.2 4821.33   8
  -1  -6  -3 875.778 1412.62   8
  -1  -6  -3 1057.13 907.329   4
  -1  -6  -3 227.590 723.250   7
  -1  -6  -2 30389.2 6180.26  11
  -1  -6  -2 45309.4 4326.13   5
  -1  -6  -2 40616.9 4557.41   8
  -1  -6  -2 41354.9 3584.35   4
  -1  -6  -2 38995.8 4136.96   7
  -1  -6  -1 109101. 6134.26   5
  -1  -6  -1 112005. 11023.9  11
  -1  -6  -1 105518. 7163.72   9
  -1  -6  -1 118377. 6958.49   7
  -1  -6  -1 104824. 6712.57   8
  -1  -6  -1 105024. 5761.73   4
  -1  -6  -1 116941. 7413.69   3
  -1  -6   0 242722. 10454.9   9
  -1  -6   0 224424. 8219.42   5
  -1  -6   0 245081. 10409.6   3
  -1  -6   0 238879. 9104.88   4
  -1  -6   0 229316. 9383.43   8
  -1  -6   0 243676. 15782.5  11
  -1  -6   0 244507. 10000.7   7
  -1  -6   1 131411. 11433.1  11
  -1  -6   1 135249. 7722.79   9
  -1  -6   1 124252. 7044.56   4
  -1  -6   1 125758. 6650.67   8
  -1  -6   1 131923. 7413.18   2
  -1  -6   1 123667. 5864.90   5
  -1  -6   1 130260. 7316.84   7
  -1  -6   1 132567. 7489.57   3
  -1  -6   2 24814.8 3406.32   9
  -1  -6   2 22134.8 3341.18   2
  -1  -6   2 24005.0 4847.58  11
  -1  -6   2 19627.8 2648.62   8
  -1  -6   2 24613.3 3293.23   3
  -1  -6   2 21910.6 3246.35   7
  -1  -6   3 11984.1 3619.31  11
  -1  -6   3 12780.4 2413.77   3
  -1  -6   3 12001.6 2089.44   8
  -1  -6   3 15600.0 2789.51   7
  -1  -6   3 16193.3 2805.32   9
  -1  -6   3 12636.5 2662.43   2
  -1  -6   4 77075.4 5971.79   9
  -1  -6   4 67944.1 5920.32   7
  -1  -6   4 67845.0 6543.65   2
  -1  -6   4 68302.8 4624.91   8
  -1  -6   4 70283.3 5432.19   3
  -1  -6   4 58027.3 6144.29  11
  -1  -6   5 65933.1 4571.10   8
  -1  -6   5 64679.9 6871.19   2
  -1  -6   5 66688.8 5366.29   3
  -1  -6   5 62609.5 4946.60  11
  -1  -6   6 36478.1 2431.51   6
  -1  -6   6 40675.7 6073.83   2
  -1  -6   7 25955.5 5095.46   2
  -1  -6   7 18142.5 2106.19   6
  -1  -6   8 614.966 771.334   6
  -1  -6   8 14.0117 2839.32   2
  -1  -6   9 1834.84 2998.90   2
  -1  -6   9 1586.78 1182.91   6
  -1  -6  10 8251.72 4095.76   2
  -1  -6  11 19929.6 6160.62   2
  -1  -6  12 3929.42 3494.56   2
  -1  -6  13 1292.37 3009.86   2
  -1  -5 -12 4002.45 3523.58   8
  -1  -5 -12 3215.73 3024.58   7
  -1  -5 -11-3537.22 3066.22   7
  -1  -5 -11 4450.50 2989.73   8
  -1  -5 -10 10907.2 5138.00   8
  -1  -5 -10 10230.8 2965.01   4
  -1  -5  -9 16327.5 5846.12   8
  -1  -5  -9 18111.1 3427.13   4
  -1  -5  -8 9960.54 4913.00   8
  -1  -5  -8 13971.2 2737.23   2
  -1  -5  -8 13150.2 2556.39   4
  -1  -5  -7 6470.93 2209.59   1
  -1  -5  -7 7016.63 1850.73   2
  -1  -5  -7 3756.60 3512.65   8
  -1  -5  -7 5792.64 1700.58   4
  -1  -5  -6 1351.74 982.248   4
  -1  -5  -6-507.907 862.782   2
  -1  -5  -6 117.797 2878.44   8
  -1  -5  -6 1275.20 1096.71   1
  -1  -5  -5 25199.9 2746.18   2
  -1  -5  -5 32951.8 3010.97   4
  -1  -5  -5 28181.6 3116.34   1
  -1  -5  -5 21651.0 4353.00   8
  -1  -5  -4 82531.3 4435.30   4
  -1  -5  -4 85230.0 4643.19   2
  -1  -5  -4 83075.0 7383.51   8
  -1  -5  -3 89846.4 4445.31   4
  -1  -5  -3 96248.7 6689.81   9
  -1  -5  -3 92276.6 5769.23   7
  -1  -5  -3 90394.2 6875.13   8
  -1  -5  -2 48189.5 4060.57   7
  -1  -5  -2 39269.5 6277.24  11
  -1  -5  -2 42652.9 4354.36   8
  -1  -5  -2 47980.3 3309.43   4
  -1  -5  -1 3700.66 1137.39   4
  -1  -5  -1 5167.12 1677.05   8
  -1  -5  -1 3424.36 1305.29   7
  -1  -5  -1 4295.67 1326.82   5
  -1  -5  -1 5422.87 2592.75  11
  -1  -5   0 67764.9 4311.33   4
  -1  -5   0 69831.9 5031.30   3
  -1  -5   0 70252.1 4806.63   8
  -1  -5   0 80597.9 5131.92   7
  -1  -5   0 70307.1 7853.23  11
  -1  -5   0 73988.4 4420.91   5
  -1  -5   1 196731. 6873.98   5
  -1  -5   1 189784. 7832.90   4
  -1  -5   1 198809. 8252.21   3
  -1  -5   1 188514. 7422.65   8
  -1  -5   1 198385. 8203.40   7
  -1  -5   1 191334. 8058.17   2
  -1  -5   1 195324. 12389.7  11
  -1  -5   2 258682. 13765.8  11
  -1  -5   2 244394. 8180.52   8
  -1  -5   2 236988. 9648.18   2
  -1  -5   2 258275. 9670.69   7
  -1  -5   2 276170. 9495.31   3
  -1  -5   3 176344. 7656.72   3
  -1  -5   3 169504. 10818.1  11
  -1  -5   3 166961. 6648.25   8
  -1  -5   3 179128. 8148.85   9
  -1  -5   3 174607. 8307.65   7
  -1  -5   3 170199. 8925.32   2
  -1  -5   4 14125.7 2255.04   3
  -1  -5   4 16208.5 3148.91   2
  -1  -5   4 16500.9 2627.23   9
  -1  -5   4 14243.5 2067.72   8
  -1  -5   4 13941.9 1260.71   6
  -1  -5   4 13639.1 2502.67  11
  -1  -5   4 15103.3 2669.44   7
  -1  -5   5 33315.8 3721.87   9
  -1  -5   5 27659.0 2836.63   8
  -1  -5   5 31187.1 4018.89   7
  -1  -5   5 25925.5 4370.72   2
  -1  -5   5 26020.8 2447.04  11
  -1  -5   5 27070.5 2062.24   6
  -1  -5   6 84266.9 4281.17   6
  -1  -5   6 89904.8 6410.18   9
  -1  -5   6 78516.3 7994.96   2
  -1  -5   7 139038. 11666.6   2
  -1  -5   7 155785. 8911.48   9
  -1  -5   8 25450.3 5540.82   2
  -1  -5   9 13209.4 4349.31   2
  -1  -5  10 723.883 2990.51   2
  -1  -5  11 7799.23 3695.96   2
  -1  -5  12 8719.36 4059.23   2
  -1  -5  13 3309.40 3004.70   2
  -1  -5  14 4459.11 3731.02   2
  -1  -5  14 3434.95 2550.13   3
  -1  -4 -12-814.219 2336.51   7
  -1  -4 -11 3137.53 2799.41   7
  -1  -4 -11-6680.87 2874.36   4
  -1  -4 -10-5122.62 3003.06   7
  -1  -4 -10-3648.93 2138.86   4
  -1  -4  -9 12626.3 3139.77   4
  -1  -4  -9 10525.0 2760.03   2
  -1  -4  -8 67700.9 6621.18   1
  -1  -4  -8 64806.3 5790.10   4
  -1  -4  -8 56160.3 5595.96   2
  -1  -4  -7 77735.2 6241.74   1
  -1  -4  -7 81020.9 5689.49   4
  -1  -4  -7 79950.6 5868.90   2
  -1  -4  -6 53722.9 4056.26   4
  -1  -4  -6 51390.1 4545.07   1
  -1  -4  -6 51314.0 4131.10   2
  -1  -4  -5 50.7127 683.529   2
  -1  -4  -5 1964.32 1310.86   3
  -1  -4  -5 157.697 739.196   4
  -1  -4  -5-214.758 822.900   1
  -1  -4  -4 57563.6 3354.09   4
  -1  -4  -4 68244.7 6505.86   8
  -1  -4  -4 61976.7 3629.90   2
  -1  -4  -4 58510.4 3979.14   1
  -1  -4  -3 178723. 5432.37   4
  -1  -4  -3 182987. 9078.65   8
  -1  -4  -2 307632. 10610.9   8
  -1  -4  -2 322478. 7181.62   4
  -1  -4  -2 303333. 9008.47   7
  -1  -4  -1 266519. 8896.07   8
  -1  -4  -1 280221. 8573.19   5
  -1  -4  -1 270524. 6843.67   4
  -1  -4  -1 249924. 14112.6  11
  -1  -4  -1 277484. 8407.46   7
  -1  -4   0 120533. 5242.32   5
  -1  -4   0 126846. 5789.61   8
  -1  -4   0 120346. 5532.28   7
  -1  -4   0 126149. 9495.48  11
  -1  -4   0 128180. 5101.19   4
  -1  -4   1 13424.2 1975.41   3
  -1  -4   1 12647.6 1714.28   5
  -1  -4   1 17770.9 2343.43   2
  -1  -4   1 15965.5 1994.01   8
  -1  -4   1 15343.8 2088.41   7
  -1  -4   2 152859. 9437.68  11
  -1  -4   2 137401. 6837.51   2
  -1  -4   2 143552. 5703.24   8
  -1  -4   2 144655. 6488.95   7
  -1  -4   2 141893. 6017.43   3
  -1  -4   3 409005. 14039.5  11
  -1  -4   3 394232. 10684.6   9
  -1  -4   3 385835. 9229.02   8
  -1  -4   3 377738. 6339.77   6
  -1  -4   3 387302. 11424.0   7
  -1  -4   3 391135. 12749.3   2
  -1  -4   3 373588. 9748.41   3
  -1  -4   4 286158. 9364.99   9
  -1  -4   4 273942. 7862.75   8
  -1  -4   4 293710. 10652.3   7
  -1  -4   4 268761. 7843.35  11
  -1  -4   4 276178. 12056.4   2
  -1  -4   4 285378. 6250.38   6
  -1  -4   5 75084.4 5079.35   9
  -1  -4   5 74896.1 5950.03   7
  -1  -4   5 66383.5 3642.94   6
  -1  -4   5 79329.8 7257.48   2
  -1  -4   6 4722.03 1716.85   9
  -1  -4   6 2893.43 1602.22   7
  -1  -4   6 3880.07 2567.22   2
  -1  -4   7 80420.5 6340.07   9
  -1  -4   7 86802.0 7837.31   7
  -1  -4   7 68816.9 8360.20   2
  -1  -4   8 144937. 12595.7   2
  -1  -4   8 175018. 10276.0   9
  -1  -4   9 34401.6 6412.62   2
  -1  -4  10 13871.7 4191.67   2
  -1  -4  10 9228.85 1467.45  11
  -1  -4  11 2429.20 2417.15   2
  -1  -4  12 1706.24 2736.27   2
  -1  -4  13 6530.69 3576.22   2
  -1  -4  13 5990.49 2999.65   3
  -1  -4  14 2702.17 2315.39   3
  -1  -4  14 3425.54 2749.40   2
  -1  -3 -13-398.335 1709.26   7
  -1  -3 -12-853.519 1956.91   7
  -1  -3 -11 11965.3 4178.33   7
  -1  -3 -10 13525.9 4469.55   7
  -1  -3 -10 8715.83 2683.92   2
  -1  -3  -9 18156.4 3500.30   2
  -1  -3  -9 16231.1 4364.64   7
  -1  -3  -8-538.433 1672.22   2
  -1  -3  -8-1710.76 1858.54   1
  -1  -3  -7 68508.1 6241.03   1
  -1  -3  -7 53772.8 5153.81   2
  -1  -3  -6 239292. 12819.2   3
  -1  -3  -6 219012. 9809.40   1
  -1  -3  -6 233927. 8619.19   4
  -1  -3  -6 200851. 8544.86   2
  -1  -3  -5 237899. 8830.51   1
  -1  -3  -5 237414. 7500.99   4
  -1  -3  -5 236775. 7762.38   2
  -1  -3  -4 33029.6 2432.48   4
  -1  -3  -4 30879.9 2866.75   1
  -1  -3  -4 31994.6 2467.84   2
  -1  -3  -3 118013. 3900.74   4
  -1  -3  -3 122176. 7008.50   8
  -1  -3  -3 121183. 4126.87   2
  -1  -3  -3 119346. 5016.20   1
  -1  -3  -2 352741. 10287.7   8
  -1  -3  -2 360255. 6265.00   4
  -1  -3  -2 366962. 8167.96   1
  -1  -3  -1 632915. 8414.96   4
  -1  -3  -1 632223. 12239.0   8
  -1  -3  -1 627193. 10754.5   7
  -1  -3   0 244840. 6787.03   5
  -1  -3   0 254072. 6062.66   4
  -1  -3   0 238046. 7002.13   8
  -1  -3   0 237760. 6529.88   7
  -1  -3   1 22350.4 3689.78  11
  -1  -3   1 28393.8 2567.89   2
  -1  -3   1 26548.0 2293.37   8
  -1  -3   1 27874.1 2386.08   7
  -1  -3   1 26776.4 2217.53   5
  -1  -3   1 28244.5 2359.33   3
  -1  -3   2 3475.67 919.374   3
  -1  -3   2 3624.26 1215.95   2
  -1  -3   2 3686.74 977.699   8
  -1  -3   2 4003.54 1042.59   7
  -1  -3   3 98893.8 4665.95   9
  -1  -3   3 96732.9 3434.01   6
  -1  -3   3 96535.5 5301.77   7
  -1  -3   3 94610.3 4214.70   8
  -1  -3   3 98935.1 6379.55   2
  -1  -3   4 221410. 7396.55   9
  -1  -3   4 222768. 6159.62   6
  -1  -3   4 220702. 6792.85   8
  -1  -3   4 216949. 8949.24   7
  -1  -3   4 220072. 10958.7   2
  -1  -3   5 225462. 8119.51   9
  -1  -3   5 223145. 10239.7   7
  -1  -3   5 209902. 12280.1   2
  -1  -3   6 123973. 6858.50   9
  -1  -3   6 135525. 9129.55   7
  -1  -3   6 123115. 10385.4   2
  -1  -3   7 7690.38 2227.01   9
  -1  -3   7 9725.55 3312.61   2
  -1  -3   7 7579.16 2931.21   7
  -1  -3   7 7972.43 1214.16  11
  -1  -3   8 20658.6 4812.98   2
  -1  -3   8 20256.1 2405.48  11
  -1  -3   9 15303.1 4208.72   2
  -1  -3   9 20505.2 2622.32  11
  -1  -3  10 34858.4 3522.28  11
  -1  -3  10 30781.8 5769.36   2
  -1  -3  11 8273.68 3531.97   2
  -1  -3  11 890.695 1847.83   3
  -1  -3  11 6985.06 1727.39  11
  -1  -3  12-151.896 2206.13   2
  -1  -3  12 1819.86 1752.83   3
  -1  -3  13-517.924 2237.18   2
  -1  -3  13-2083.78 2022.69   3
  -1  -3  14 2467.81 2647.84   2
  -1  -3  14-110.520 1876.44   3
  -1  -2 -13 2410.31 2217.54   7
  -1  -2 -12 1672.01 2060.02   7
  -1  -2 -11 17528.7 4363.04   7
  -1  -2 -10 27519.1 5351.56   7
  -1  -2 -10 35991.7 4638.16   2
  -1  -2  -9 24176.1 4951.76   7
  -1  -2  -9 27998.9 4121.50   2
  -1  -2  -8 8679.80 3086.78   7
  -1  -2  -8 9769.43 2522.08   2
  -1  -2  -7 398.436 1644.77   3
  -1  -2  -7 5261.49 1961.27   2
  -1  -2  -7 4304.72 2270.19   7
  -1  -2  -6 62334.0 5423.97   2
  -1  -2  -6 79611.7 7846.18   3
  -1  -2  -5 277527. 10116.2   1
  -1  -2  -5 253172. 9295.24   2
  -1  -2  -4 338339. 9562.12   1
  -1  -2  -4 344309. 8533.65   2
  -1  -2  -3 184430. 6139.56   1
  -1  -2  -3 190804. 4667.53   4
  -1  -2  -3 189252. 4912.29   2
  -1  -2  -2 3467.90 877.516   1
  -1  -2  -2 3422.89 569.181   4
  -1  -2  -2 3977.93 1137.40   8
  -1  -2  -2 3830.65 616.422   2
  -1  -2  -1 249614. 3685.59   4
  -1  -2  -1 248553. 5814.78   1
  -1  -2  -1 240997. 5298.46   7
  -1  -2  -1 234976. 6540.68   8
  -1  -2   0 559265. 7861.80   2
  -1  -2   0 552774. 9184.55   8
  -1  -2   0 566092. 8095.35   7
  -1  -2   1 226867. 5656.68   8
  -1  -2   1 214901. 5586.98   5
  -1  -2   1 222137. 5624.42   7
  -1  -2   1 228226. 6749.93   2
  -1  -2   1 226737. 5346.20   3
  -1  -2   2 2536.22 618.479   3
  -1  -2   2 2471.33 590.493   6
  -1  -2   2 1788.03 728.875   8
  -1  -2   2 1740.58 583.399   9
  -1  -2   2 3464.20 931.080   7
  -1  -2   2 3452.45 1195.57   2
  -1  -2   3 578.231 498.793   9
  -1  -2   3 1116.46 679.463   8
  -1  -2   3 855.483 587.048   7
  -1  -2   3 1657.51 1299.91   2
  -1  -2   3 1440.74 626.544   6
  -1  -2   4 10057.1 1494.99   9
  -1  -2   4 10448.4 3019.39   2
  -1  -2   4 9450.67 2032.72   7
  -1  -2   5 32425.1 1640.83  11
  -1  -2   5 31857.8 2979.02   9
  -1  -2   5 33124.8 5247.02   2
  -1  -2   5 33198.2 4446.45   7
  -1  -2   6 117748. 6725.84   9
  -1  -2   6 116738. 4830.53  11
  -1  -2   6 127157. 9984.68   7
  -1  -2   7 122584. 10393.1   7
  -1  -2   7 122451. 6486.03  11
  -1  -2   7 107106. 9335.65   2
  -1  -2   8 53916.3 4719.39  11
  -1  -2   8 60407.7 7751.17   7
  -1  -2   8 54539.0 6882.50   2
  -1  -2   9-669.212 2371.28   2
  -1  -2   9-1192.82 1814.56   3
  -1  -2   9 212.777 990.765  11
  -1  -2  10 1520.97 2715.99   2
  -1  -2  10 3461.74 2273.41   3
  -1  -2  10 4119.66 1479.43  11
  -1  -2  11 51412.9 4922.99  11
  -1  -2  11 49678.1 6255.79   3
  -1  -2  11 44859.1 6545.84   2
  -1  -2  12 17320.4 4306.85   2
  -1  -2  12 15470.7 3841.82   3
  -1  -2  13 9500.22 3669.36   2
  -1  -2  13 6340.99 2705.95   3
  -1  -2  14-1143.09 2202.33   2
  -1  -2  14-1321.72 1737.96   3
  -1  -2  15 8899.69 3055.56   3
  -1  -2  15 1972.38 2313.77   2
  -1  -1 -14-22.7555 1710.75   7
  -1  -1 -13 7046.48 3125.74   7
  -1  -1 -12 3133.15 2362.78   7
  -1  -1 -11-816.450 1701.39   7
  -1  -1 -10 4366.03 1808.81   2
  -1  -1 -10 2651.21 2193.24   7
  -1  -1  -9 10449.2 2526.03   2
  -1  -1  -9 12433.9 3506.16   7
  -1  -1  -8 76709.7 7666.70   7
  -1  -1  -8 76831.3 6431.56   2
  -1  -1  -7 29921.5 4827.76   7
  -1  -1  -7 30902.8 3994.32   2
  -1  -1  -6 8261.61 2050.02   2
  -1  -1  -6 5723.93 2365.53   7
  -1  -1  -5 10286.1 2551.98   7
  -1  -1  -5 12555.7 2453.77   2
  -1  -1  -4 114619. 6819.17   7
  -1  -1  -4 135294. 6982.03   2
  -1  -1  -3 328182. 9340.03   2
  -1  -1  -2 453446. 8268.49   1
  -1  -1  -2 466237. 9229.67   8
  -1  -1  -2 445408. 7607.84   2
  -1  -1  -1 565540. 8451.94   8
  -1  -1  -1 574209. 8063.79   1
  -1  -1   0 78865.8 2889.71   8
  -1  -1   0 77862.1 2076.32   7
  -1  -1   1 128877. 3702.70   8
  -1  -1   1 117322. 3641.48   7
  -1  -1   1 137509. 7394.24   2
  -1  -1   2 658456. 9120.59   8
  -1  -1   2 641040. 12442.9   7
  -1  -1   2 643090. 7208.32   9
  -1  -1   3 542517. 8069.31   9
  -1  -1   3 580125. 16063.1   7
  -1  -1   4 172357. 10336.9   7
  -1  -1   4 173683. 4061.15  11
  -1  -1   5 916.375 2325.10   2
  -1  -1   5 1090.86 1196.46   7
  -1  -1   5 4248.69 1023.03  11
  -1  -1   6 20210.3 4211.17   2
  -1  -1   6 16520.1 3113.01   3
  -1  -1   6 15835.9 3828.60   7
  -1  -1   6 20449.4 2591.65  11
  -1  -1   7 63353.9 7589.73   7
  -1  -1   7 60127.2 6079.24   3
  -1  -1   7 67470.5 5688.61  11
  -1  -1   7 60427.7 7240.36   2
  -1  -1   8 48100.8 5122.65  11
  -1  -1   8 59614.2 6862.42   2
  -1  -1   8 55915.2 5962.03   3
  -1  -1   9 55197.8 6144.17   3
  -1  -1   9 48046.0 5192.69  11
  -1  -1   9 61560.3 7214.39   2
  -1  -1  10 19095.3 4311.91   2
  -1  -1  10 19517.9 4006.54   3
  -1  -1  10 19224.8 3340.34  11
  -1  -1  11-242.144 1872.19   3
  -1  -1  11 3314.13 1699.27  11
  -1  -1  11 84.8261 1998.84   2
  -1  -1  12 16045.4 4234.47   2
  -1  -1  12 13490.8 3542.61   3
  -1  -1  12 15499.5 3161.13  11
  -1  -1  13 14812.2 3940.54   3
  -1  -1  13 10253.8 3594.51   2
  -1  -1  14 7389.99 3372.92   2
  -1  -1  14 8167.20 2999.59   3
  -1  -1  15-162.301 1861.28   2
  -1  -1  15-3498.47 2242.33   3
  -1   0 -14 1962.04 2450.61   7
  -1   0 -13 5706.44 2928.55   7
  -1   0 -12 9629.32 2953.95   7
  -1   0 -11 10014.6 3313.51   7
  -1   0 -10 3021.61 1904.44   2
  -1   0 -10 4181.50 2261.35   7
  -1   0  -9 3128.31 1671.80   2
  -1   0  -9 2466.67 1787.29   7
  -1   0  -8 38571.7 3507.23  10
  -1   0  -8 48260.1 5857.33   7
  -1   0  -8 36555.5 4539.65   2
  -1   0  -7 142283. 6973.80  10
  -1   0  -7 158842. 10005.8   7
  -1   0  -7 146259. 8718.01   2
  -1   0  -6 110145. 6313.53  10
  -1   0  -6 110011. 8085.66   7
  -1   0  -6 111065. 7422.26   2
  -1   0  -5 148779. 7631.85  10
  -1   0  -5 129844. 7701.61   2
  -1   0  -5 139129. 8676.54   7
  -1   0  -4 34728.6 3666.08   2
  -1   0  -4 30436.8 3926.81   7
  -1   0  -4 43111.2 4340.35  10
  -1   0  -3 58819.8 3688.90   2
  -1   0  -3 62001.9 5011.61  10
  -1   0  -3 57857.0 4806.42   7
  -1   0  -2 452683. 12795.8  10
  -1   0  -2 459475. 7271.74   4
  -1   0  -2 474597. 6760.73   2
  -1   0  -2 448088. 7377.86   8
  -1   0  -1 589989. 7886.47   1
  -1   0  -1 599232. 6564.36   8
  -1   0   2 36901.5 1857.14  10
  -1   0   2 35324.6 2647.99   2
  -1   0   2 30387.2 1528.84  11
  -1   0   3 686243. 9915.83   3
  -1   0   3 673140. 14493.2   2
  -1   0   3 652599. 8479.27  11
  -1   0   4 766055. 14594.1   3
  -1   0   4 758264. 18415.5   2
  -1   0   4 784560. 11860.1  11
  -1   0   5 234980. 9943.90   3
  -1   0   5 272962. 8810.91  11
  -1   0   5 250327. 12186.4   2
  -1   0   6 17157.9 3802.44   2
  -1   0   6 15305.2 3068.67   3
  -1   0   6 16700.0 2658.64  11
  -1   0   7 36466.1 5534.75   2
  -1   0   7 29440.5 4395.96   3
  -1   0   7 25251.0 3802.99  11
  -1   0   8 85296.1 7781.48   3
  -1   0   8 87069.3 8701.55   2
  -1   0   8 77172.3 7272.92  11
  -1   0   9 94029.1 8373.02   3
  -1   0   9 92672.8 9043.51   2
  -1   0   9 80831.5 7279.07  11
  -1   0  10 42981.9 5343.50  11
  -1   0  10 56208.5 7040.67   2
  -1   0  10 52382.7 6381.69   3
  -1   0  11 16540.5 4173.79   2
  -1   0  11 19235.3 4118.52   3
  -1   0  11 11106.8 2737.09  11
  -1   0  12-673.997 2059.16   2
  -1   0  12 4006.47 2248.88   3
  -1   0  13 5518.54 3045.43   2
  -1   0  13 938.083 1794.02   3
  -1   0  14 3789.88 2767.81   2
  -1   0  14 5529.97 2750.90   3
  -1   0  15 2860.14 2576.61   2
  -1   0  15 7522.17 3110.35   3
  -1   1 -14 89.5246 2119.18   7
  -1   1 -13 1984.83 2132.41   7
  -1   1 -12 20.4096 1579.89   7
  -1   1 -11 11008.5 1837.30  10
  -1   1 -11 13354.9 3681.21   7
  -1   1 -10 43467.4 3754.33  10
  -1   1 -10 40672.4 5766.39   7
  -1   1  -9 50397.5 4179.22  10
  -1   1  -9 44656.5 5899.37   7
  -1   1  -9 39889.9 5174.41   2
  -1   1  -8 3983.26 1446.50  10
  -1   1  -8 4419.53 1719.07   2
  -1   1  -8 419.327 1686.96   7
  -1   1  -7 109665. 6645.45  10
  -1   1  -7 99460.1 8427.41   7
  -1   1  -7 103293. 8089.70   2
  -1   1  -6 176763. 8714.59  10
  -1   1  -6 201934. 10910.8   2
  -1   1  -6 178628. 10645.5   7
  -1   1  -5 438261. 14427.2   2
  -1   1  -5 426705. 13805.5  10
  -1   1  -5 449568. 15309.9   7
  -1   1  -4 233519. 10455.4  10
  -1   1  -4 256486. 9474.76   7
  -1   1  -4 263865. 9213.85   2
  -1   1  -3 28648.5 3800.47  10
  -1   1  -3 24040.6 2332.29   7
  -1   1  -3 23601.7 2343.69   4
  -1   1  -2 98764.9 6890.01  10
  -1   1  -2 101220. 2325.73   8
  -1   1  -2 93400.6 3488.24   7
  -1   1  -1 498561. 15502.9  10
  -1   1   0 906380. 21045.2  10
  -1   1   0 982789. 7407.30   1
  -1   1   1 296767. 5526.16  11
  -1   1   1 278999. 3829.40   9
  -1   1   1 307582. 11612.3  10
  -1   1   2 579995. 8665.86  11
  -1   1   2 594530. 7228.50   3
  -1   1   2 594597. 6505.92   9
  -1   1   3 89505.6 3419.43   9
  -1   1   3 91840.0 4645.86  10
  -1   1   3 89594.7 3420.17   3
  -1   1   3 88216.2 4349.25   2
  -1   1   3 93354.3 4075.60  11
  -1   1   4 225629. 7581.21  11
  -1   1   4 218167. 6625.93   3
  -1   1   4 208216. 7963.93   2
  -1   1   4 209159. 6815.02   9
  -1   1   5 240192. 8497.58   3
  -1   1   5 243118. 9947.53   2
  -1   1   5 237940. 9303.51  11
  -1   1   6 101796. 7465.98   2
  -1   1   6 101410. 7119.57  11
  -1   1   6 95975.5 6364.74   3
  -1   1   7 23830.4 4158.31   2
  -1   1   7 22500.3 3662.47   3
  -1   1   7 26624.0 4203.47  11
  -1   1   8-1776.05 1926.38   2
  -1   1   8 1504.77 1508.66   3
  -1   1   8-1512.66 1619.32  11
  -1   1   9 11474.0 3944.04   2
  -1   1   9 7781.17 2446.26  11
  -1   1   9 11272.7 3218.10   3
  -1   1  10 31968.2 6188.35   2
  -1   1  10 27561.5 5201.71   3
  -1   1  10 33164.0 5075.25  11
  -1   1  11 15502.2 4815.78   2
  -1   1  11 15319.2 4016.54   3
  -1   1  12 5180.01 2925.97   2
  -1   1  12 4905.53 2697.61   3
  -1   1  12 1985.73 2116.60   9
  -1   1  13 1210.23 2239.49   2
  -1   1  13 978.710 1935.91   3
  -1   1  13-1137.42 2021.56   9
  -1   1  14-12.7098 2540.94   2
  -1   1  14 4941.69 2675.53   3
  -1   1  14-3641.18 2310.51   9
  -1   2 -14 2585.82 2163.87   7
  -1   2 -13 1189.02 2201.59   7
  -1   2 -12 1889.08 1192.84  10
  -1   2 -12-210.560 2070.45   7
  -1   2 -11-423.533 1037.90  10
  -1   2 -11 1253.71 1669.00   7
  -1   2 -10 22384.9 3224.70  10
  -1   2 -10 20253.0 4484.55   7
  -1   2  -9 55155.0 6500.82   2
  -1   2  -9 60987.5 5332.00  10
  -1   2  -9 56472.8 7089.22   7
  -1   2  -8 76882.2 6227.73  10
  -1   2  -8 97488.3 9028.39   7
  -1   2  -8 75989.5 7677.70   2
  -1   2  -7 42297.5 4696.44  10
  -1   2  -7 41232.4 5916.24   4
  -1   2  -7 48718.4 6021.47   7
  -1   2  -7 41651.7 5537.63   2
  -1   2  -6 16177.2 3037.74  10
  -1   2  -6 21326.4 3678.33   2
  -1   2  -6 18177.5 3632.78   4
  -1   2  -6 16384.1 3304.09   7
  -1   2  -5 143175. 8557.08  10
  -1   2  -5 153982. 8712.28   4
  -1   2  -5 160076. 8150.67   7
  -1   2  -4 585925. 14291.7   4
  -1   2  -4 574127. 17108.2  10
  -1   2  -4 617752. 13551.8   7
  -1   2  -3 123444. 7794.00  10
  -1   2  -3 104862. 4788.04   7
  -1   2  -2 59805.4 5347.67  10
  -1   2   0 156194. 4509.61   9
  -1   2   0 158832. 3732.61   6
  -1   2   1 174861. 5212.01  11
  -1   2   1 156928. 4277.26   9
  -1   2   2 117016. 3932.98   9
  -1   2   2 118280. 4703.08  11
  -1   2   2 124677. 4339.92   3
  -1   2   3 347865. 7926.77   3
  -1   2   3 338965. 7455.54   9
  -1   2   3 351606. 9248.19  11
  -1   2   4 1912.78 890.961   3
  -1   2   4 1433.00 812.269   9
  -1   2   4 1938.65 1031.20  11
  -1   2   5 1199.35 1043.69   2
  -1   2   5 112.319 815.518   3
  -1   2   5 1209.59 990.997   9
  -1   2   5 2415.25 1295.27  11
  -1   2   6 98197.4 6231.97   9
  -1   2   6 99673.9 6279.77   3
  -1   2   6 105389. 6885.65   2
  -1   2   6 108790. 7923.20  11
  -1   2   7 145272. 3586.03  10
  -1   2   7 184182. 9766.36   9
  -1   2   7 169641. 9854.71   2
  -1   2   7 176148. 9421.62   3
  -1   2   7 168730. 11330.6  11
  -1   2   8 98803.4 8144.02   9
  -1   2   8 105334. 8289.53   3
  -1   2   8 84607.3 7818.70   2
  -1   2   8 86374.6 8951.57  11
  -1   2   9 17846.4 4190.68   2
  -1   2   9 14540.2 3926.88   9
  -1   2   9 15278.9 3697.34   3
  -1   2   9 22312.0 4941.58  11
  -1   2  10-281.299 2071.84   2
  -1   2  10-152.938 1716.42   9
  -1   2  10-4915.05 2601.10   3
  -1   2  11 6720.44 3202.61   2
  -1   2  11 9817.88 3645.64   3
  -1   2  11 5275.39 3168.30   9
  -1   2  12 13179.3 4495.21   2
  -1   2  12 10614.3 3780.92   3
  -1   2  12 15805.1 4625.39   9
  -1   2  13 3701.51 3149.35   2
  -1   2  13 9688.98 4061.99   3
  -1   2  13 4687.31 3331.84   9
  -1   2  14 5479.65 3117.98   2
  -1   2  14 4610.95 2938.56   9
  -1   2  14-1682.06 2387.36   3
  -1   3 -14 4767.95 2882.85   7
  -1   3 -13 676.545 1933.00   7
  -1   3 -12 5998.06 1894.98  10
  -1   3 -12 2664.21 2877.53   7
  -1   3 -11 3194.06 1730.99  10
  -1   3 -11 252.245 2671.14   7
  -1   3 -10 14.3951 1255.44  10
  -1   3 -10 1573.84 1964.24   7
  -1   3  -9 10170.2 2843.47  10
  -1   3  -9 7358.55 3411.02   7
  -1   3  -8 36060.7 4940.45  10
  -1   3  -8 47222.3 6436.86   7
  -1   3  -7 88185.7 7317.42  10
  -1   3  -7 101965. 9091.44   4
  -1   3  -7 97918.0 8068.80   7
  -1   3  -6 126309. 9006.30   4
  -1   3  -6 138063. 8415.30   7
  -1   3  -6 110627. 8129.88  10
  -1   3  -5 87552.1 7194.27  10
  -1   3  -5 87662.0 3257.26   8
  -1   3  -5 87215.6 5919.29   7
  -1   3  -4 77489.8 6634.60  10
  -1   3  -4 66067.6 2108.56   8
  -1   3  -4 74640.1 4896.40   7
  -1   3  -3 395699. 10212.6   7
  -1   3  -1 492186. 10245.8   9
  -1   3   0 53797.6 3225.79   9
  -1   3   0 56455.5 3254.96  11
  -1   3   0 57184.7 2297.70   6
  -1   3   1 58789.7 3310.32   9
  -1   3   1 59448.6 3572.85  11
  -1   3   2 33079.0 2623.14   9
  -1   3   2 34837.6 2990.73  11
  -1   3   2 29493.9 2576.76   4
  -1   3   2 33002.1 2742.32   3
  -1   3   3 283752. 7954.34   9
  -1   3   3 297389. 9568.67  11
  -1   3   3 278829. 8173.27   4
  -1   3   3 286692. 8355.97   3
  -1   3   4 67483.3 5180.67  11
  -1   3   4 60938.8 4026.49   9
  -1   3   4 58744.6 4153.07   3
  -1   3   5 131416. 6695.16   3
  -1   3   5 146892. 8597.26  11
  -1   3   5 136281. 6609.24   9
  -1   3   6 16579.2 2803.64   3
  -1   3   6 19618.6 3078.06   9
  -1   3   6 20854.0 3745.41  11
  -1   3   7 13492.8 2775.36   3
  -1   3   7 15135.0 2960.30   9
  -1   3   7 14203.3 3592.07  11
  -1   3   8 88139.4 3754.37  10
  -1   3   8 82101.1 7216.42   9
  -1   3   8 89268.7 7612.28   3
  -1   3   9 59085.0 2816.70  10
  -1   3   9 61065.3 2965.69  10
  -1   3   9 60642.7 7055.21   9
  -1   3   9 71149.4 7553.23   3
  -1   3  10 33714.3 5884.73   3
  -1   3  10 29081.9 5368.59   9
  -1   3  11-79.1777 1972.99   3
  -1   3  11-3392.02 2582.88   9
  -1   3  12 1232.99 2296.16   9
  -1   3  12-1526.22 3091.68   3
  -1   3  13 7116.42 2452.43   3
  -1   3  13 1573.53 2627.73   9
  -1   3  14 1365.71 2143.07   3
  -1   3  14 4486.50 3239.19   9
  -1   4 -13 4646.93 3050.61   7
  -1   4 -12 7305.23 2476.92  10
  -1   4 -12 7728.93 3771.62   7
  -1   4 -11 11745.6 3242.11  10
  -1   4 -11 14241.2 4484.20   7
  -1   4 -10 18041.0 3711.61  10
  -1   4 -10 20896.8 3407.77   8
  -1   4 -10 20635.5 5121.85   7
  -1   4  -9 822.073 1798.90  10
  -1   4  -9 4548.35 1583.53   8
  -1   4  -9 665.306 2409.54   7
  -1   4  -8 1920.47 1829.85  10
  -1   4  -8 341.442 662.784   8
  -1   4  -8 1538.46 2125.13   7
  -1   4  -7 29024.2 4716.88  10
  -1   4  -7 34349.0 2574.63   8
  -1   4  -7 38438.3 5132.67   7
  -1   4  -6 100044. 8155.28  10
  -1   4  -6 122119. 8813.26   4
  -1   4  -6 107676. 3748.77   8
  -1   4  -6 106918. 7462.09   7
  -1   4  -5 116840. 8724.67  10
  -1   4  -5 117275. 3285.09   8
  -1   4  -5 117653. 7100.61   7
  -1   4  -4 102685. 2911.16   8
  -1   4  -4 98644.2 6053.96   7
  -1   4  -2 92923.6 5341.30   9
  -1   4  -1 560787. 12286.5   9
  -1   4   0 605653. 12100.5  11
  -1   4   0 580474. 7615.54   6
  -1   4   1 199881. 7060.18   9
  -1   4   1 202188. 7435.13  11
  -1   4   1 197702. 7059.91   4
  -1   4   2 1549.47 996.499   3
  -1   4   2 838.818 994.964   9
  -1   4   2 647.627 563.792   4
  -1   4   2 2951.39 1180.53  11
  -1   4   3 113283. 5701.25   4
  -1   4   3 114520. 5765.25   9
  -1   4   3 115780. 6029.08   3
  -1   4   3 112400. 6528.42  11
  -1   4   4 384953. 11142.8   9
  -1   4   4 372634. 11518.7   3
  -1   4   5 115779. 6576.15   9
  -1   4   5 125597. 7100.61   3
  -1   4   5 129544. 8676.11  11
  -1   4   6 162603. 8438.68   9
  -1   4   6 152516. 8493.19   3
  -1   4   6 160008. 10648.7  11
  -1   4   7 6694.02 2319.31   3
  -1   4   7 7830.62 2335.41   9
  -1   4   8 2202.57 1628.43   3
  -1   4   8 594.051 1531.74   9
  -1   4   9 22391.1 2296.81  10
  -1   4   9 19186.6 4259.68   9
  -1   4   9 18472.7 4246.07   3
  -1   4  10 30378.8 5642.25   3
  -1   4  10 32095.5 5719.86   9
  -1   4  11 11728.2 4161.88   3
  -1   4  11 20185.6 5003.57   9
  -1   4  12 1170.25 2462.42   3
  -1   4  12 1767.17 2317.71   9
  -1   4  13 2121.44 3009.08   3
  -1   4  13 1888.24 2660.79   9
  -1   5 -13 4629.32 3236.28   7
  -1   5 -12-391.822 1689.52  10
  -1   5 -12 977.782 2591.23   7
  -1   5 -11 9558.03 3369.75  10
  -1   5 -11 15870.3 4731.88   7
  -1   5 -10 28806.4 5238.32  10
  -1   5 -10 30196.7 6477.05   7
  -1   5  -9 46217.1 6361.19  10
  -1   5  -9 55210.6 3824.45   8
  -1   5  -9 53123.4 7405.53   7
  -1   5  -8 25520.5 4866.81  10
  -1   5  -8 27283.4 2342.57   8
  -1   5  -8 21498.4 4339.35   7
  -1   5  -7 1324.86 2451.40  10
  -1   5  -7 456.273 549.234   8
  -1   5  -7-121.684 1556.11   7
  -1   5  -6 38267.2 5603.82  10
  -1   5  -6 36405.5 2143.23   8
  -1   5  -6 33688.2 4469.01   7
  -1   5  -5 226185. 10910.4   4
  -1   5  -5 212831. 5214.21   8
  -1   5  -5 211566. 10071.5   7
  -1   5  -4 361994. 12454.9   7
  -1   5  -3 214319. 9121.60   9
  -1   5  -2 42647.4 3985.17   9
  -1   5  -1 50785.9 4240.66   9
  -1   5  -1 45581.0 3912.82   4
  -1   5   0 248137. 8808.83   4
  -1   5   0 248549. 5170.82   6
  -1   5   0 260829. 8830.50  11
  -1   5   0 249960. 8997.99   9
  -1   5   1 290055. 9795.00  11
  -1   5   1 300239. 9793.51   9
  -1   5   1 300660. 9727.63   4
  -1   5   2 158349. 7352.05   9
  -1   5   2 152695. 3178.89   1
  -1   5   2 167771. 7302.59   4
  -1   5   2 170703. 7825.90   3
  -1   5   2 175346. 8102.99  11
  -1   5   3 20507.9 2866.95   9
  -1   5   3 24679.1 2958.74   4
  -1   5   3 24306.7 3204.81   3
  -1   5   3 19955.3 3105.42  11
  -1   5   4 48508.6 4457.03   9
  -1   5   4 53307.7 4391.32   4
  -1   5   4 50856.9 4678.30   3
  -1   5   4 50082.7 5159.26  11
  -1   5   5 58540.7 5084.15   9
  -1   5   5 57228.2 5249.63   3
  -1   5   6 96993.1 6985.56   9
  -1   5   6 103732. 7489.23   3
  -1   5   7 48295.9 5529.95   3
  -1   5   7 51667.1 5462.72   9
  -1   5   8 7003.63 2638.81   3
  -1   5   8 7601.33 2480.98   9
  -1   5   9-1574.18 1923.60   9
  -1   5   9-73.6878 1629.37   3
  -1   5  10 2646.03 2014.45   9
  -1   5  10 1988.18 2379.29   3
  -1   5  11 2887.79 2676.08   3
  -1   5  11 4129.12 2998.67   9
  -1   5  12 3514.81 3059.13   3
  -1   5  12 1447.79 2257.27   9
  -1   5  13 2516.90 2561.84   3
  -1   5  13-4376.58 2994.81   9
  -1   6 -13 7472.98 4288.58   7
  -1   6 -12 10901.2 3827.38  10
  -1   6 -12 11175.9 5531.70   7
  -1   6 -11 1588.49 2302.99  10
  -1   6 -11 4937.31 3139.24   7
  -1   6 -10 3872.52 3247.95   7
  -1   6 -10 3229.20 2633.30  10
  -1   6  -9 34680.6 6088.10  10
  -1   6  -9 35828.2 6040.33   7
  -1   6  -8 56824.0 7444.57  10
  -1   6  -8 58716.6 3235.18   8
  -1   6  -8 56919.2 6885.98   7
  -1   6  -7 26467.2 2165.22   8
  -1   6  -7 21320.1 4684.71  10
  -1   6  -7 26260.0 4496.69   7
  -1   6  -6 1641.31 1596.29   7
  -1   6  -6 3129.06 908.530   8
  -1   6  -5 28081.3 2049.37   5
  -1   6  -5 29623.5 4109.90   7
  -1   6  -4 74784.7 2294.24   5
  -1   6  -4 87804.8 6672.50   7
  -1   6  -3 124650. 7584.20   9
  -1   6  -3 119922. 7338.87   4
  -1   6  -3 113643. 7306.46   7
  -1   6  -2 62857.0 5130.48   4
  -1   6  -2 62547.9 5195.77   9
  -1   6  -2 59562.9 5171.01   7
  -1   6  -1 70241.3 5378.42   9
  -1   6  -1 62797.3 5012.03   4
  -1   6  -1 57166.7 4369.43  11
  -1   6   0 909.814 1221.49   9
  -1   6   0 4.71733 1041.54   4
  -1   6   0 321.146 864.778  11
  -1   6   0 320.653 346.776   6
  -1   6   1 38839.0 4049.11   9
  -1   6   1 40731.8 3927.52   4
  -1   6   1 44737.4 4309.32  11
  -1   6   2 133593. 3415.60   1
  -1   6   2 143012. 7698.47   9
  -1   6   2 139499. 7259.48   4
  -1   6   2 135124. 7706.36  11
  -1   6   3 130226. 7544.73   9
  -1   6   3 142285. 7526.87   4
  -1   6   3 146293. 8589.29  11
  -1   6   3 146952. 8242.36   3
  -1   6   4 69720.9 5796.03   9
  -1   6   4 71735.5 5448.21   4
  -1   6   4 74372.8 6080.62   3
  -1   6   5 6132.60 2425.35   3
  -1   6   5 7280.49 2376.65   9
  -1   6   6 736.590 1816.14   3
  -1   6   6 421.502 1334.05   9
  -1   6   7 42499.1 5377.32   9
  -1   6   7 40313.3 5490.04   3
  -1   6   8 17848.1 4074.62   3
  -1   6   8 18768.0 4050.27   9
  -1   6   9 23299.4 4991.71   3
  -1   6   9 18602.7 4413.22   9
  -1   6  10 4554.64 2963.63   3
  -1   6  10 5484.66 2699.65   9
  -1   6  11 1236.78 2277.93   9
  -1   6  11-3393.80 2742.65   3
  -1   6  12-3515.74 2891.65   3
  -1   6  12 2725.70 2835.50   9
  -1   7 -12 115.279 2409.71  10
  -1   7 -12-2532.87 3101.07   7
  -1   7 -11 14836.3 4527.97  10
  -1   7 -11 9037.63 4065.73   7
  -1   7 -10 8338.69 3891.21  10
  -1   7 -10 14297.4 4722.88   7
  -1   7  -9 2082.87 2985.18  10
  -1   7  -9 1288.60 2179.01   7
  -1   7  -8 16400.5 4692.39  10
  -1   7  -8 13221.8 3903.83   7
  -1   7  -7 76582.9 7730.14   7
  -1   7  -6 124299. 4535.19   5
  -1   7  -6 120299. 9054.72   7
  -1   7  -5 57501.9 2020.86   5
  -1   7  -5 69849.7 6723.09   7
  -1   7  -4-380.421 1484.77   9
  -1   7  -4-1041.11 1522.98   7
  -1   7  -3 26385.7 3883.25   9
  -1   7  -3 26351.3 3958.13   7
  -1   7  -2 61753.8 5660.70   9
  -1   7  -1 80033.5 5585.17  11
  -1   7  -1 86247.5 6580.14   9
  -1   7   0 68195.9 5800.18   9
  -1   7   0 69904.2 2734.81   6
  -1   7   0 74914.2 5819.38   4
  -1   7   0 80728.5 5916.85  11
  -1   7   1 26970.7 3744.29   9
  -1   7   1 25201.8 1899.40   1
  -1   7   1 29253.6 3836.63  11
  -1   7   1 24592.8 3352.98   4
  -1   7   1 27396.3 2318.90   6
  -1   7   2 238.302 411.828   1
  -1   7   2 934.315 1263.81   9
  -1   7   2 1927.21 1182.13   4
  -1   7   3 35857.9 4451.04   9
  -1   7   3 41832.1 4471.80   4
  -1   7   4 91134.6 6634.59   4
  -1   7   4 97192.7 7434.02   9
  -1   7   4 101744. 7678.85   3
  -1   7   5 76595.0 6813.49   9
  -1   7   5 82657.8 7257.16   3
  -1   7   6 35130.7 4905.33   9
  -1   7   6 43603.7 5554.59   3
  -1   7   7 1592.41 1624.41   3
  -1   7   7 3649.15 2327.36   9
  -1   7   8 12332.8 3588.33   3
  -1   7   8 8970.86 3337.88   9
  -1   7   9 13491.6 4376.60   3
  -1   7   9 12115.3 3650.40   9
  -1   7  10 15790.6 4602.00   3
  -1   7  10 11724.2 4011.60   9
  -1   7  11 1764.22 2546.90   3
  -1   7  11 9403.81 3452.90   9
  -1   8 -11 6708.85 3954.05  10
  -1   8 -11-4931.45 4036.68   7
  -1   8 -10 6172.41 3678.32  10
  -1   8 -10 1813.19 2781.73   7
  -1   8  -9 10348.5 3728.18  10
  -1   8  -9 6599.02 3592.85   7
  -1   8  -8 6746.96 3918.61  10
  -1   8  -8 1607.64 2454.93   7
  -1   8  -7-1312.24 2205.35   7
  -1   8  -6 30459.6 5066.46   7
  -1   8  -5 101781. 8563.21   7
  -1   8  -4 109011. 8401.44   9
  -1   8  -4 102774. 8391.15   7
  -1   8  -3 26457.3 4223.24   9
  -1   8  -3 30029.5 4603.54   7
  -1   8  -2 2026.72 1759.11   9
  -1   8  -1 68965.3 6440.09   9
  -1   8   0 136940. 8869.18   9
  -1   8   0 87441.7 2369.64   6
  -1   8   1 82113.6 6923.98   9
  -1   8   1 77402.5 3493.64   1
  -1   8   1 83166.9 3912.72   6
  -1   8   2 32306.6 4457.72   9
  -1   8   2 32645.2 2043.70   1
  -1   8   3 3820.14 2118.52   9
  -1   8   4 3382.91 1991.37   9
  -1   8   5 27847.6 4825.14   3
  -1   8   5 23159.4 4253.57   9
  -1   8   6 28526.6 4959.52   3
  -1   8   6 35640.5 5494.87   9
  -1   8   7 30214.0 5385.62   3
  -1   8   7 23619.8 4603.09   9
  -1   8   8-4477.21 2716.89   3
  -1   8   8 582.312 1989.91   9
  -1   8   9-741.032 2050.49   3
  -1   8   9 1869.73 2271.82   9
  -1   8  10 11240.1 4090.44   3
  -1   8  10 11781.9 3945.65   9
  -1   9 -10 2412.45 3198.14  10
  -1   9 -10 1408.37 3242.64   7
  -1   9  -9 18216.0 5732.87  10
  -1   9  -9 19665.6 5243.29   7
  -1   9  -8 28959.6 6920.19  10
  -1   9  -8 22747.8 4973.78   7
  -1   9  -7 18854.0 4704.45   7
  -1   9  -6-1753.24 1805.67   7
  -1   9  -5 9959.06 3276.56   7
  -1   9  -4 54082.3 6470.56   9
  -1   9  -4 53122.0 6484.29   7
  -1   9  -3 66268.4 6964.23   9
  -1   9  -2 44296.9 5640.78   9
  -1   9  -1 83.8639 1924.35   9
  -1   9   0 24049.7 4340.70   9
  -1   9   1 71004.2 7009.17   9
  -1   9   1 60671.0 3235.59   1
  -1   9   1 61418.1 3114.98   6
  -1   9   2 58480.8 6363.29   9
  -1   9   2 60946.4 4084.93   6
  -1   9   3 25886.6 4437.98   9
  -1   9   4 1207.45 1787.30   9
  -1   9   5-559.043 1916.81   9
  -1   9   6 4466.97 2593.21   9
  -1   9   6 13948.3 3914.56   3
  -1   9   7 10442.2 3799.52   3
  -1   9   7 12177.1 3798.54   9
  -1   9   8 12968.0 4528.90   3
  -1   9   8 3533.12 2602.81   9
  -1  10  -8 11888.2 4861.09  10
  -1  10  -8 13951.8 4441.56   7
  -1  10  -7 17542.1 4687.96   7
  -1  10  -6 8901.43 3556.70   7
  -1  10  -5-799.342 1887.91   7
  -1  10  -4 2595.48 2418.60   9
  -1  10  -3 20317.1 4448.92   9
  -1  10  -2 34227.4 5388.97   9
  -1  10  -1 37092.5 5691.91   9
  -1  10   0 14082.7 3935.99   9
  -1  10   1 2744.26 2472.41   9
  -1  10   2 1630.28 2367.10   9
  -1  10   3 12372.5 3348.48   9
  -1  10   4 17704.1 4311.15   9
  -1  10   5 9242.78 3552.71   9
  -1  10   6 1918.28 2171.64   9
  -1  11  -4 8060.75 3506.86   9
  -1  11  -3 3228.84 2508.35   9
  -1  11  -2 2026.99 2554.32   9
  -1  11  -1 24484.7 5320.89   9
  -1  11   0 18282.9 4301.52   9
  -1  11   1 22081.1 4729.27   9
  -1  11   2 2182.94 2285.74   9
  -1  11   3 950.066 2189.44   9
   0 -11  -3 4824.16 4838.39  11
   0 -11  -3 11219.8 3326.11   4
   0 -11  -3 7101.94 2796.88   8
   0 -11  -2 12174.2 5830.91  11
   0 -11  -2 25175.3 4772.87   4
   0 -11  -2 21432.9 4509.28   8
   0 -11  -1 18658.5 6750.71  11
   0 -11  -1 25610.9 5028.23   4
   0 -11  -1 23867.8 4494.92   8
   0 -11   0 11167.0 3634.65   2
   0 -11   0 13282.3 3986.17   4
   0 -11   0 8615.09 2901.92   8
   0 -11   0 4218.82 4270.78  11
   0 -11   1 5735.45 2924.11   2
   0 -11   1 1962.38 1801.34   8
   0 -11   2 10618.2 3696.78   2
   0 -11   2 11125.9 2901.74   8
   0 -11   2 4132.39 4211.06  11
   0 -11   3 26650.7 5507.93   2
   0 -11   3 23511.8 3727.66   8
   0 -11   4 14572.1 4377.23   2
   0 -11   5 10486.7 4152.89   2
   0 -11   6 1857.19 2444.36   2
   0 -10  -6 8411.83 3054.28   5
   0 -10  -6 5964.55 3871.44   8
   0 -10  -5 1152.75 3152.98  11
   0 -10  -5 9160.87 2859.66   5
   0 -10  -5 12809.2 4004.33   8
   0 -10  -5 10440.1 3169.51   4
   0 -10  -4 13138.9 3219.28   5
   0 -10  -4 12424.2 5382.31  11
   0 -10  -4 11710.2 3801.47   8
   0 -10  -4 12613.2 3286.02   4
   0 -10  -3 149.360 1558.06  11
   0 -10  -3 3549.48 2332.94   4
   0 -10  -2-5049.58 4110.90  11
   0 -10  -2-810.811 1811.00   4
   0 -10  -2 139.560 1721.97   8
   0 -10  -1 7046.05 2526.51   4
   0 -10  -1 7332.95 2617.64   8
   0 -10  -1-164.409 3364.89  11
   0 -10   0 25378.7 7128.77  11
   0 -10   0 27099.6 4795.60   4
   0 -10   0 24023.8 4038.85   8
   0 -10   1 35835.5 8003.80  11
   0 -10   1 44306.3 5106.52   8
   0 -10   1 40110.1 5875.11   4
   0 -10   1 41552.6 6056.16   2
   0 -10   2 8786.18 3183.95   2
   0 -10   2 8327.44 2442.11   8
   0 -10   2 5284.94 4200.98  11
   0 -10   3 101.245 1845.09   2
   0 -10   3 639.678 1309.81   8
   0 -10   3-3296.97 3388.06  11
   0 -10   4 14887.2 2881.20   8
   0 -10   4 14044.1 4071.84   2
   0 -10   4 5416.59 3341.42  11
   0 -10   5 17395.6 4516.97   2
   0 -10   5 15517.3 2807.69   8
   0 -10   6 14799.5 4779.33   2
   0 -10   7 511.606 2217.94   2
   0 -10   8 844.259 3196.67   2
   0  -9  -8-3997.85 4210.87   8
   0  -9  -7 3808.80 3861.82   8
   0  -9  -6-1842.90 3433.41   8
   0  -9  -6 922.267 1528.87   4
   0  -9  -5-316.727 3133.04  11
   0  -9  -5 5748.47 3204.47   8
   0  -9  -5 8981.44 2788.43   4
   0  -9  -4 20155.8 3640.06   5
   0  -9  -4 22633.7 4717.06   8
   0  -9  -4 22230.0 3815.67   4
   0  -9  -4 15219.5 4771.22  11
   0  -9  -3 27900.7 3830.41   5
   0  -9  -3 15719.4 4895.34  11
   0  -9  -3 23972.2 4538.84   8
   0  -9  -3 25137.4 3958.81   4
   0  -9  -2 11230.2 3157.86   8
   0  -9  -2 8117.67 2019.46   5
   0  -9  -2 8182.80 2571.44   4
   0  -9  -2 6235.67 3774.69  11
   0  -9  -1-178.393 2800.52  11
   0  -9  -1 751.253 1012.38   5
   0  -9  -1 239.209 1209.23   4
   0  -9  -1 1669.97 1496.47   8
   0  -9   0 2077.91 1056.23   5
   0  -9   0 1160.57 1428.51   4
   0  -9   0 2171.38 1626.99   8
   0  -9   0-1872.54 2753.96  11
   0  -9   1 45755.0 8042.06  11
   0  -9   1 33599.8 4179.24   8
   0  -9   1 33401.6 4915.91   4
   0  -9   2 75959.9 9891.96  11
   0  -9   2 70227.0 7281.28   4
   0  -9   2 67327.9 7040.66   2
   0  -9   2 69403.8 5610.76   8
   0  -9   3 78966.6 10210.4  11
   0  -9   3 79540.3 5800.88   8
   0  -9   3 77860.4 7920.90   2
   0  -9   4 19733.8 4275.70   2
   0  -9   4 19706.7 2993.24   8
   0  -9   4 22836.9 5856.73  11
   0  -9   5 2280.34 2186.70   2
   0  -9   5 897.649 1884.19  11
   0  -9   5 1872.14 1325.11   8
   0  -9   6 17661.6 3728.42  11
   0  -9   6 26902.3 5432.61   2
   0  -9   6 26685.3 3198.59   8
   0  -9   7 28529.2 5915.06   2
   0  -9   8 4504.41 3172.22   2
   0  -9   9 7027.71 3677.49   2
   0  -9  10 3058.78 3305.79   2
   0  -8  -9-5570.57 4613.08   8
   0  -8  -8-1532.31 4037.14   8
   0  -8  -8 9130.76 2782.11   4
   0  -8  -7 21947.1 5571.66   8
   0  -8  -7 21809.0 3764.86   4
   0  -8  -6 32147.4 4544.33   4
   0  -8  -6 14620.9 5055.28  11
   0  -8  -6 27238.0 6080.48   8
   0  -8  -5 9323.11 3562.10   8
   0  -8  -5 10624.3 2569.53   4
   0  -8  -5 7057.80 4304.46  11
   0  -8  -4 517.378 2418.11  11
   0  -8  -4-1257.11 2423.05   8
   0  -8  -4-408.789 1311.32   4
   0  -8  -3 32930.2 6468.00  11
   0  -8  -3 36695.7 4201.50   5
   0  -8  -3 31465.3 4051.17   4
   0  -8  -3 31920.6 4779.46   8
   0  -8  -2 90494.5 6687.76   4
   0  -8  -2 91079.2 7242.57   8
   0  -8  -2 76218.1 5452.81   5
   0  -8  -2 84325.0 9689.16  11
   0  -8  -1 91566.9 5421.40   5
   0  -8  -1 89790.7 9672.78  11
   0  -8  -1 94030.4 6899.64   4
   0  -8  -1 88487.1 6722.22   8
   0  -8   0 27781.6 2797.51   5
   0  -8   0 27803.7 5614.19  11
   0  -8   0 27417.6 3893.48   4
   0  -8   0 25193.1 3550.36   8
   0  -8   1-186.363 2016.33  11
   0  -8   1-2543.04 1778.29   4
   0  -8   1 254.540 1408.27   8
   0  -8   2 41194.2 6278.28  11
   0  -8   2 39371.1 5124.39   2
   0  -8   2 34364.5 4651.59   4
   0  -8   2 41466.2 4154.74   8
   0  -8   3 70719.8 5123.88   8
   0  -8   3 66251.9 6708.90   2
   0  -8   4 106438. 6019.73   8
   0  -8   4 128105. 10761.2  11
   0  -8   4 110782. 9052.91   2
   0  -8   5 21727.6 2910.72   8
   0  -8   5 26571.7 4958.40   2
   0  -8   5 32100.6 5564.55  11
   0  -8   6-584.092 1502.16  11
   0  -8   6-1102.50 2328.25   2
   0  -8   6 1267.17 1079.52   8
   0  -8   7 19419.0 4614.59   2
   0  -8   7 12026.1 2718.21  11
   0  -8   8 41716.0 7326.39   2
   0  -8   9 33449.9 6978.25   2
   0  -8  10 7007.56 4457.98   2
   0  -8  11-10929.1 5093.52   2
   0  -7 -10 8645.78 4867.66   8
   0  -7  -9-13769.8 6345.41   8
   0  -7  -9 3494.09 2136.16   4
   0  -7  -8-8874.28 5141.58   8
   0  -7  -8 681.716 1559.85   4
   0  -7  -7 24849.4 6677.92   8
   0  -7  -7 29668.9 4099.92   4
   0  -7  -6 38828.9 7499.48  11
   0  -7  -6 53826.2 5171.67   2
   0  -7  -6 53701.0 8101.70   8
   0  -7  -6 50102.0 5055.77   4
   0  -7  -5 59525.3 8512.93  11
   0  -7  -5 68379.1 5549.56   4
   0  -7  -5 66606.6 5558.98   2
   0  -7  -5 65164.4 7939.15   8
   0  -7  -4 16659.4 4535.11  11
   0  -7  -4 9681.94 3347.78   8
   0  -7  -4 11359.0 2400.82   4
   0  -7  -3 7455.25 3118.59  11
   0  -7  -3 6747.70 2410.17   8
   0  -7  -3 7059.93 2024.73   4
   0  -7  -2 91037.8 5647.83   5
   0  -7  -2 91153.2 6171.68   4
   0  -7  -2 81244.3 6468.57   8
   0  -7  -2 90327.9 8958.20  11
   0  -7  -1 153145. 6698.73   5
   0  -7  -1 161297. 8158.04   4
   0  -7  -1 139928. 7805.36   8
   0  -7  -1 152414. 11070.5  11
   0  -7   0 142569. 5826.18   5
   0  -7   0 139279. 7387.91   8
   0  -7   0 132964. 7599.27   4
   0  -7   1 41086.2 2897.36   5
   0  -7   1 46538.9 4768.99   4
   0  -7   1 44821.4 4006.22   8
   0  -7   1 49998.3 5957.55  11
   0  -7   2-753.027 1578.69   4
   0  -7   2 1571.89 1067.88   8
   0  -7   3 19381.8 3676.45  11
   0  -7   3 18146.5 3283.87   2
   0  -7   3 16710.0 2371.50   8
   0  -7   4 62052.9 6351.67   2
   0  -7   4 59946.3 4220.74   8
   0  -7   5 62192.8 6046.02  11
   0  -7   5 53282.1 3888.95   8
   0  -7   5 53095.2 6233.19   2
   0  -7   6 24931.8 4798.37   2
   0  -7   6 25385.6 3765.31  11
   0  -7   7 4328.56 763.241   6
   0  -7   7 6857.79 2671.09   2
   0  -7   7 6773.59 2015.36  11
   0  -7   8 1519.89 998.617  11
   0  -7   8 2294.87 965.479   6
   0  -7   8 1134.92 1731.19   2
   0  -7   9 15539.6 4964.11   2
   0  -7  10 13963.7 5341.78   2
   0  -7  11 5428.43 3850.35   2
   0  -7  12 5760.58 3759.34   2
   0  -6 -11 3437.13 2860.89   4
   0  -6 -10 15044.2 3546.86   4
   0  -6  -9 9037.54 2843.08   4
   0  -6  -8 9004.59 2466.78   2
   0  -6  -8 3690.50 1740.24   4
   0  -6  -8 9587.65 2191.77   1
   0  -6  -7 1706.81 1075.25   2
   0  -6  -7 1210.95 1020.97   1
   0  -6  -7 824.456 1393.54   4
   0  -6  -6 2213.86 3019.60  11
   0  -6  -6 2342.65 1311.86   2
   0  -6  -6 6640.83 2045.11   4
   0  -6  -5 26483.3 5484.95  11
   0  -6  -5 29148.9 3415.49   4
   0  -6  -5 39504.3 3934.30   2
   0  -6  -5 37132.2 6090.86   8
   0  -6  -4 118478. 6411.50   4
   0  -6  -4 137833. 9960.77   8
   0  -6  -4 134536. 11102.2  11
   0  -6  -3 104105. 9253.37  11
   0  -6  -3 106102. 5918.63   4
   0  -6  -3 113983. 8107.35   8
   0  -6  -3 94926.0 6578.47   7
   0  -6  -2 11749.4 2364.96   3
   0  -6  -2 15487.9 3669.29  11
   0  -6  -2 12516.4 2645.01   8
   0  -6  -2 12423.3 2145.86   4
   0  -6  -2 12441.6 2542.58   9
   0  -6  -2 16759.6 2738.31   7
   0  -6  -1 18560.0 2242.40   5
   0  -6  -1 22091.0 3149.98   3
   0  -6  -1 23270.8 3239.25   9
   0  -6  -1 21418.8 2811.86   4
   0  -6  -1 18076.1 2785.87   8
   0  -6  -1 20544.9 3727.35  11
   0  -6  -1 20832.2 2983.30   7
   0  -6   0 134477. 5226.66   5
   0  -6   0 142943. 7748.14   3
   0  -6   0 132536. 6846.81   4
   0  -6   0 139182. 6743.44   8
   0  -6   0 141285. 7611.59   7
   0  -6   0 138963. 8924.86  11
   0  -6   1 177289. 5484.72   5
   0  -6   1 174619. 8149.40   4
   0  -6   1 174275. 7125.31   8
   0  -6   1 201583. 9134.83   7
   0  -6   1 183090. 8698.77   3
   0  -6   1 188170. 9749.50  11
   0  -6   2 94624.5 6404.28   4
   0  -6   2 86880.3 4789.68   8
   0  -6   2 88254.7 6400.93  11
   0  -6   2 91205.6 6281.71   7
   0  -6   2 89873.1 6136.62   3
   0  -6   3 16038.0 2705.96   3
   0  -6   3 19428.5 3034.74   9
   0  -6   3 16251.2 3128.60   2
   0  -6   3 15715.2 2071.97   8
   0  -6   3 13974.5 2549.10  11
   0  -6   3 18639.9 3082.42   7
   0  -6   4 1139.32 1413.05   2
   0  -6   4 588.293 1056.98   9
   0  -6   4 336.176 777.612   8
   0  -6   4 1118.82 1195.98  11
   0  -6   5 49285.7 5745.55   2
   0  -6   5 49396.2 4206.47  11
   0  -6   5 47820.5 3349.97   8
   0  -6   6 54952.7 4228.83  11
   0  -6   6 41457.5 2501.96   6
   0  -6   6 46049.8 5789.11   2
   0  -6   7 103286. 5576.07  11
   0  -6   7 95184.4 9137.66   2
   0  -6   8 34633.5 6135.80   2
   0  -6   8 39174.6 3371.62  11
   0  -6   9 6056.02 3592.72   2
   0  -6   9 5470.14 1354.72  11
   0  -6  10-5788.87 3675.82   2
   0  -6  11-1577.20 2594.23   2
   0  -6  12 10675.9 4883.14   2
   0  -6  13 38.4080 2300.49   2
   0  -5 -12-2100.07 2809.63   7
   0  -5 -12 4010.63 2575.09   4
   0  -5 -11 1880.28 2166.72   4
   0  -5 -10 2283.11 1900.35   4
   0  -5  -9 15231.8 3363.21   2
   0  -5  -9 17244.2 3622.24   1
   0  -5  -9 15566.8 3480.06   4
   0  -5  -8 21848.0 3383.59   1
   0  -5  -8 25393.9 3760.27   2
   0  -5  -8 27055.8 4114.89   4
   0  -5  -7 20644.3 2819.01   1
   0  -5  -7 18164.6 2958.62   2
   0  -5  -7 20825.5 3288.02   4
   0  -5  -6 740.449 947.768   2
   0  -5  -6 2085.49 1268.59   4
   0  -5  -6 1889.04 2298.76  11
   0  -5  -6 3024.69 1121.24   1
   0  -5  -5 853.865 2300.84  11
   0  -5  -5 1565.38 1344.31   9
   0  -5  -5 1681.02 843.332   1
   0  -5  -5 2796.70 1294.22   4
   0  -5  -5 1635.39 1090.40   2
   0  -5  -4 43179.5 4463.04   9
   0  -5  -4 37168.5 3423.87   4
   0  -5  -4 43091.5 5902.24  11
   0  -5  -4 37175.6 4231.35   3
   0  -5  -3 111524. 8776.57  11
   0  -5  -3 103942. 5347.98   4
   0  -5  -3 118491. 7992.32   8
   0  -5  -3 110429. 6749.61   9
   0  -5  -2 264926. 8362.32   4
   0  -5  -2 272977. 10455.0   8
   0  -5  -2 270440. 9758.70   7
   0  -5  -2 271513. 12451.5  11
   0  -5  -1 256895. 11259.0  11
   0  -5  -1 247007. 8174.00   4
   0  -5  -1 231036. 8633.65   8
   0  -5  -1 258556. 9347.43   7
   0  -5   0 58167.7 3172.17   5
   0  -5   0 55080.9 4032.84   4
   0  -5   0 59962.7 4034.84   8
   0  -5   0 61884.1 5206.71  11
   0  -5   0 59542.1 4457.11   7
   0  -5   1 70665.6 5159.05  11
   0  -5   1 64594.7 4550.14   4
   0  -5   1 63316.7 3869.81   8
   0  -5   1 72542.9 3226.16   5
   0  -5   1 80019.3 5181.00   7
   0  -5   2 271632. 9844.63   4
   0  -5   2 274585. 7522.06   8
   0  -5   2 294668. 10147.0   7
   0  -5   2 281635. 9486.77  11
   0  -5   3 303776. 11129.9   2
   0  -5   3 299149. 7649.30   8
   0  -5   3 310884. 9272.23  11
   0  -5   3 315678. 10996.7   7
   0  -5   4 74962.5 4249.48  11
   0  -5   4 67515.4 5413.06   7
   0  -5   4 61790.9 3451.55   8
   0  -5   4 72135.2 5942.68   2
   0  -5   5 159.535 1570.95   2
   0  -5   5 3035.60 1500.08   9
   0  -5   5 1887.48 856.054  11
   0  -5   5 2489.86 1344.56   7
   0  -5   6 18127.0 1949.61  11
   0  -5   6 16090.1 2975.96   9
   0  -5   6 14312.8 3416.31   2
   0  -5   7 34820.6 2720.04  11
   0  -5   7 34891.9 5540.68   2
   0  -5   8 62007.0 3792.87  11
   0  -5   8 57611.3 7523.23   2
   0  -5   9 30426.8 6314.38   2
   0  -5  10 12820.6 4572.47   2
   0  -5  11 4563.94 3512.15   2
   0  -5  12 7833.69 4074.68   2
   0  -5  13 7763.62 3627.08   2
   0  -5  14 1348.33 3275.84   2
   0  -5  14 7777.26 3829.04   3
   0  -4 -13-1087.88 2621.46   7
   0  -4 -13 1790.65 2300.64   4
   0  -4 -12 1935.47 3022.36   7
   0  -4 -12 1718.53 2129.75   4
   0  -4 -11 13349.4 5021.43   7
   0  -4 -11 8970.56 3737.22   4
   0  -4 -10 8526.37 3186.28   4
   0  -4  -9 1610.02 1712.96   1
   0  -4  -9-894.499 2068.45   2
   0  -4  -9 1560.78 1751.39   4
   0  -4  -8 1891.91 1332.33   2
   0  -4  -8 3859.07 1704.62   4
   0  -4  -7 70977.1 5742.80   4
   0  -4  -7 66576.9 5269.52   1
   0  -4  -7 62971.6 5238.99   2
   0  -4  -6 145852. 6722.26   1
   0  -4  -6 129723. 6933.75   4
   0  -4  -6 143099. 8884.42   3
   0  -4  -6 141687. 7072.99   2
   0  -4  -5 89720.4 4552.56   1
   0  -4  -5 88559.2 6325.98   9
   0  -4  -5 93245.3 5342.55   4
   0  -4  -5 90221.3 5253.32   2
   0  -4  -5 93779.1 6688.99   3
   0  -4  -4 54342.7 4643.30   9
   0  -4  -4 58120.4 3913.98   4
   0  -4  -4 60977.8 3976.20   2
   0  -4  -4 55123.4 3161.84   1
   0  -4  -3 61462.2 4630.05   9
   0  -4  -3 60651.4 3751.22   4
   0  -4  -2 127709. 5145.20   4
   0  -4  -1 503364. 13747.4  11
   0  -4  -1 498555. 10144.8   4
   0  -4  -1 476757. 11325.1   8
   0  -4  -1 474772. 11188.5   7
   0  -4   0 525733. 8500.86   5
   0  -4   0 531647. 10787.2   4
   0  -4   0 550090. 13007.6  11
   0  -4   0 517860. 11587.2   7
   0  -4   1 169056. 4360.05   5
   0  -4   1 160780. 6309.99   4
   0  -4   1 158938. 5333.43   8
   0  -4   1 170803. 6731.86   7
   0  -4   1 161079. 6417.17  11
   0  -4   2 15183.1 1916.19  11
   0  -4   2 14397.7 1578.82   8
   0  -4   2 14019.0 2096.26   4
   0  -4   2 13588.6 2037.20   7
   0  -4   3 388123. 7693.24   8
   0  -4   3 409382. 11951.8   2
   0  -4   3 418700. 11591.2   7
   0  -4   3 408208. 8392.65  11
   0  -4   4 828533. 11009.4  11
   0  -4   4 806765. 11277.2   8
   0  -4   4 814540. 17360.3   7
   0  -4   4 797033. 18300.3   2
   0  -4   5 375926. 12062.1   9
   0  -4   5 351081. 12424.2   7
   0  -4   5 369583. 7338.49  11
   0  -4   5 359090. 13693.5   2
   0  -4   6 36208.8 4281.29   9
   0  -4   6 37954.9 4586.80   7
   0  -4   6 36351.5 4956.45   2
   0  -4   7 1188.92 1434.06   9
   0  -4   7 2309.47 1800.36   7
   0  -4   7 3593.50 2489.16   2
   0  -4   8 62758.3 7938.64   2
   0  -4   9 25120.3 5618.79   2
   0  -4   9 24320.4 2936.88  11
   0  -4  10 17556.0 2495.15  11
   0  -4  10 23883.0 5436.94   2
   0  -4  11 5284.59 3448.65   2
   0  -4  12 1377.88 2509.62   2
   0  -4  13-5257.36 3633.42   2
   0  -4  13 1438.11 2477.61   3
   0  -4  14-1481.81 2534.44   2
   0  -4  14 1861.21 2435.59   3
   0  -3 -13 710.173 2544.11   7
   0  -3 -12-1274.96 2510.05   7
   0  -3 -11 17965.7 5121.87   7
   0  -3 -10 28496.9 4817.03   2
   0  -3 -10 23786.3 5596.18   7
   0  -3  -9 26734.3 5277.88   7
   0  -3  -9 41647.3 5621.05   2
   0  -3  -8 1515.81 1265.77   2
   0  -3  -7 22632.2 3346.68   2
   0  -3  -7 25102.5 4387.92   3
   0  -3  -6 165225. 7929.93   4
   0  -3  -6 166279. 7700.27   2
   0  -3  -5 260965. 10616.1   3
   0  -3  -5 262375. 8822.12   4
   0  -3  -5 250762. 8193.11   1
   0  -3  -5 265904. 8649.32   2
   0  -3  -4 422848. 8825.30   1
   0  -3  -4 403771. 11755.2   9
   0  -3  -4 413910. 9859.66   4
   0  -3  -4 402664. 9652.62   2
   0  -3  -3 29745.4 2401.44   4
   0  -3  -3 30652.7 2049.80   1
   0  -3  -2 7579.87 1230.67   4
   0  -3  -1 255549. 6246.10   4
   0  -3  -1 265090. 7739.66   8
   0  -3  -1 263630. 7150.58   7
   0  -3   0 374083. 6233.27   5
   0  -3   0 390608. 7881.48   4
   0  -3   0 369371. 7668.11   8
   0  -3   0 385571. 8506.04   7
   0  -3   0 358624. 8853.70  11
   0  -3   1 233846. 6175.44  11
   0  -3   1 232889. 5425.80   8
   0  -3   1 230543. 6595.38   4
   0  -3   1 232897. 6766.52   7
   0  -3   1 229061. 4331.45   5
   0  -3   2 80777.6 4426.28   2
   0  -3   2 84775.8 4527.17   4
   0  -3   2 86884.8 3150.74   8
   0  -3   2 83599.4 4353.73   7
   0  -3   2 82630.5 3203.69  11
   0  -3   3 2933.99 1212.51   2
   0  -3   3 1750.06 621.219   8
   0  -3   3 2513.33 1042.41   7
   0  -3   3 1589.08 542.888  11
   0  -3   4 91391.5 5548.50   7
   0  -3   4 91028.0 5996.79   2
   0  -3   5 152502. 7559.13   9
   0  -3   5 155711. 8139.58   7
   0  -3   6 195939. 9807.37   9
   0  -3   6 193452. 10321.8   7
   0  -3   6 172459. 10795.9   2
   0  -3   7 78005.4 7537.44   7
   0  -3   7 66350.9 7409.59   2
   0  -3   8 3462.77 1249.84  11
   0  -3   8 4014.37 1971.05   2
   0  -3   8 5351.24 2612.75   7
   0  -3   9 14468.2 4045.53   2
   0  -3   9 19839.1 2815.83  11
   0  -3  10 24896.2 3186.97  11
   0  -3  10 15681.8 4378.31   2
   0  -3  11 19094.7 2828.26  11
   0  -3  11 17274.5 4515.50   2
   0  -3  11 11706.8 3826.55   3
   0  -3  12 5239.40 2837.34   2
   0  -3  12 12639.3 4000.21   3
   0  -3  13 2802.63 2059.10   2
   0  -3  13 4758.29 2866.08   3
   0  -3  14 64.6470 1665.74   3
   0  -3  14 514.981 2142.18   2
   0  -2 -14 5668.56 3254.55   7
   0  -2 -13 4402.92 2982.19   7
   0  -2 -12 620.711 2074.63   7
   0  -2 -11 398.059 2560.65   7
   0  -2 -10 18191.0 4183.42   2
   0  -2 -10 17878.4 4722.07   7
   0  -2  -9 30192.2 4937.60   2
   0  -2  -9 35571.4 6125.95   7
   0  -2  -8 71694.7 8124.43   3
   0  -2  -8 78735.8 8320.01   7
   0  -2  -8 78237.6 7287.17   2
   0  -2  -7 53920.3 6240.66   3
   0  -2  -7 44319.2 4919.69   2
   0  -2  -6 1662.51 1138.19   2
   0  -2  -6 507.158 1030.30   3
   0  -2  -5 104204. 6704.66   3
   0  -2  -5 111006. 5766.60   2
   0  -2  -4 318417. 8367.20   2
   0  -2  -3 650736. 10490.4   4
   0  -2  -3 666988. 10496.2   2
   0  -2  -2 8235.66 1101.56   4
   0  -2  -2 7998.40 884.174   1
   0  -2  -1 163184. 4055.93   4
   0  -2   0 198706. 4600.60   8
   0  -2   0 197716. 4928.86   7
   0  -2   0 197156. 4558.28   4
   0  -2   1 451489. 7790.99   4
   0  -2   1 444812. 5860.93   8
   0  -2   1 460185. 7894.15   7
   0  -2   1 439182. 6193.78  11
   0  -2   2 866157. 8169.38   8
   0  -2   2 834470. 7498.68  11
   0  -2   2 821720. 12041.2   7
   0  -2   2 791190. 12407.2   2
   0  -2   3 597691. 11833.1   7
   0  -2   3 581244. 12761.4   2
   0  -2   4 153201. 7168.93   7
   0  -2   4 154743. 7976.62   2
   0  -2   5 1540.03 1298.54   7
   0  -2   5 890.629 1593.00   2
   0  -2   6 12788.0 3362.38   2
   0  -2   6 14620.1 3240.57   7
   0  -2   7 149573. 11102.6   7
   0  -2   7 141397. 10652.5   2
   0  -2   7 143525. 7700.09  11
   0  -2   8 101132. 9114.51   2
   0  -2   8 113929. 7030.33  11
   0  -2   9 31946.1 5505.52   2
   0  -2   9 20855.3 4458.10   3
   0  -2   9 34939.8 3948.05  11
   0  -2  10 2511.68 1317.35  11
   0  -2  10 3085.01 2056.36   2
   0  -2  10 66.3480 2145.28   3
   0  -2  11 2530.40 1249.73  11
   0  -2  11 2153.44 2098.05   2
   0  -2  11 2881.97 2198.63   3
   0  -2  12 5428.71 3034.27   2
   0  -2  12 5861.05 2929.79   3
   0  -2  13 6158.06 3107.90   2
   0  -2  13 9012.53 3135.26   3
   0  -2  14 3891.12 2991.23   2
   0  -2  14 4450.00 2609.56   3
   0  -1 -14 602.456 1884.54   7
   0  -1 -13 7752.21 3207.42   7
   0  -1 -12 12054.5 3907.39   7
   0  -1 -11 4363.49 2274.99   7
   0  -1 -10 206.148 2068.80   7
   0  -1 -10 2912.72 1816.40   2
   0  -1  -9 7445.67 3240.47   7
   0  -1  -9 10034.1 2910.00   2
   0  -1  -8 24377.6 4270.49   2
   0  -1  -8 18649.4 4311.03   7
   0  -1  -7 105978. 9133.30   7
   0  -1  -7 103826. 8192.38   2
   0  -1  -6 193563. 11701.9   3
   0  -1  -6 212311. 11927.8   7
   0  -1  -6 212239. 10758.8   2
   0  -1  -5 198126. 10291.9   3
   0  -1  -5 204912. 9301.44   2
   0  -1  -4 13211.9 2372.53   3
   0  -1  -4 15078.4 2260.65   2
   0  -1  -3 325073. 7706.32   2
   0  -1   2 122304. 4397.21   7
   0  -1   2 135230. 5145.58   2
   0  -1   3 247791. 8536.98   7
   0  -1   3 264639. 9696.00   2
   0  -1   4 251634. 11212.0   7
   0  -1   4 282718. 12382.8   2
   0  -1   5 186041. 8705.81  11
   0  -1   5 204695. 11099.6   2
   0  -1   6 53078.8 6394.23   7
   0  -1   6 49569.6 5781.48   2
   0  -1   6 62183.7 5272.46  11
   0  -1   7 21982.0 3333.93  11
   0  -1   7 15324.6 3630.85   2
   0  -1   7 20327.1 4249.32   3
   0  -1   7 25986.8 4632.67   7
   0  -1   8 115569. 9426.63   3
   0  -1   8 102777. 8531.96   2
   0  -1   8 98018.2 6882.16  11
   0  -1   9 93305.8 8732.37   3
   0  -1   9 111639. 9116.10   2
   0  -1   9 104169. 7261.28  11
   0  -1  10 43804.9 6221.08   3
   0  -1  10 49954.7 6339.05   2
   0  -1  10 40796.1 4664.96  11
   0  -1  11 12115.5 2695.60  11
   0  -1  11 19958.9 4192.59   2
   0  -1  11 14841.1 3979.23   3
   0  -1  12 1400.60 1806.19   2
   0  -1  12-2829.33 2183.50   3
   0  -1  13 1908.68 1999.87   2
   0  -1  13 3271.32 2237.95   3
   0  -1  14 6818.13 2958.88   2
   0  -1  14 5323.43 2773.45   3
   0   0 -14 5134.50 3163.22   7
   0   0 -13-1258.03 1912.15   7
   0   0 -12 10565.5 3579.18   7
   0   0 -11 28023.8 5070.24   7
   0   0 -10 36519.7 5647.89   7
   0   0  -9 7373.98 2493.04   2
   0   0  -9 7423.83 2929.40   7
   0   0  -8 6791.64 2721.08   7
   0   0  -8 7447.86 2541.06   2
   0   0  -7 43478.0 2689.52  10
   0   0  -7 48354.5 6135.01   7
   0   0  -7 47198.0 5598.88   2
   0   0  -6 152507. 10381.1   7
   0   0  -6 139150. 4978.36  10
   0   0  -6 154522. 9783.21   2
   0   0  -5 358981. 8146.60  10
   0   0  -5 353139. 15315.7   7
   0   0  -5 371893. 14485.9   2
   0   0  -4 478480. 9038.77  10
   0   0  -4 500764. 15927.3   2
   0   0  -3 254271. 6142.81  10
   0   0   2 133739. 6740.53   3
   0   0   2 146372. 7230.81   7
   0   0   2 139719. 6364.88   2
   0   0   2 149297. 6962.86  11
   0   0   3 260967. 6530.63  10
   0   0   3 253836. 11043.3   3
   0   0   3 277490. 10696.2   2
   0   0   3 274235. 10750.4  11
   0   0   4 486999. 16926.2   3
   0   0   4 496804. 9758.30  10
   0   0   4 505757. 16210.3   2
   0   0   4 469699. 14868.4  11
   0   0   5 365487. 8347.58  10
   0   0   5 356088. 14855.1   2
   0   0   5 338844. 13102.5  11
   0   0   6 163195. 10863.1   3
   0   0   6 153146. 9954.07   2
   0   0   6 144193. 8783.64  11
   0   0   7 50305.8 6340.16   3
   0   0   7 43029.7 4860.59  11
   0   0   7 55275.1 6100.89   2
   0   0   8 5253.97 2287.90   2
   0   0   8 6962.50 2984.23   3
   0   0   8 5385.16 2012.44  11
   0   0   9 4148.35 1721.07  11
   0   0   9 8600.46 2829.57   2
   0   0   9 2615.36 2450.61   3
   0   0  10 32035.6 5339.22   2
   0   0  10 32989.0 4527.31  11
   0   0  10 36571.7 5557.90   3
   0   0  11 32262.8 5243.57   2
   0   0  11 36608.3 5774.79   3
   0   0  12 10517.9 3438.54   2
   0   0  12 14899.3 3842.92   3
   0   0  13 1974.60 1894.98   3
   0   0  13 74.2827 1995.48   2
   0   0  14 3381.05 2836.50   2
   0   0  14 190.488 1729.16   3
   0   1 -14 924.400 2264.18   7
   0   1 -13 6337.26 3077.44   7
   0   1 -12 1827.14 2036.00   7
   0   1 -11 18773.9 4219.67   7
   0   1 -10 44341.6 2717.11  10
   0   1 -10 39235.9 5825.86   7
   0   1  -9 109790. 4788.18  10
   0   1  -9 128274. 9427.28   2
   0   1  -9 109774. 9292.62   7
   0   1  -8 102390. 4977.97  10
   0   1  -8 111436. 8582.10   2
   0   1  -8 96351.4 8586.56   7
   0   1  -7 23824.9 3930.54   2
   0   1  -7 22197.1 2497.23  10
   0   1  -7 22517.8 4288.11   7
   0   1  -6 64659.0 4264.84  10
   0   1  -6 60072.9 6555.16   7
   0   1  -6 54192.9 5840.79   2
   0   1  -5 212875. 7526.20  10
   0   1  -5 222458. 11412.2   2
   0   1  -4 258604. 7837.07  10
   0   1   1 676004. 7733.61   9
   0   1   2 335756. 7147.40   9
   0   1   2 337008. 5926.82   2
   0   1   2 350589. 9650.04  11
   0   1   2 349675. 7408.09   3
   0   1   3 293659. 10966.8  11
   0   1   3 312479. 7598.68   2
   0   1   3 314653. 8916.09   3
   0   1   4 14992.1 3048.20  11
   0   1   4 13875.6 1372.60  10
   0   1   4 13111.0 2009.78   2
   0   1   4 11946.7 2247.16   3
   0   1   5 184866. 9754.10   3
   0   1   5 201377. 5737.65  10
   0   1   5 190301. 8758.36   2
   0   1   5 208859. 11610.5  11
   0   1   6 194265. 6244.69  10
   0   1   6 178873. 10863.1   3
   0   1   6 211968. 11693.2  11
   0   1   6 187138. 9934.67   2
   0   1   7 106048. 9127.28   3
   0   1   7 102481. 4443.99  10
   0   1   7 95849.2 7922.42  11
   0   1   7 101973. 8175.81   2
   0   1   8 26516.8 2104.92  10
   0   1   8 27978.7 4864.97   2
   0   1   8 24436.0 4989.52   3
   0   1   8 26191.5 4198.02  11
   0   1   9 8885.36 2691.69  11
   0   1   9 10701.4 3424.38   2
   0   1   9 9693.32 3474.94   3
   0   1  10 2906.45 2551.77   2
   0   1  10 244.683 1735.63   3
   0   1  11 378.155 2124.18   3
   0   1  11 5645.54 2827.31   2
   0   1  12 8931.09 3363.80   2
   0   1  12 16770.0 4583.81   3
   0   1  13 5910.75 2692.31   2
   0   1  13 13079.8 3835.71   3
   0   1  13 12268.4 4029.58   9
   0   1  14 427.086 1603.32   2
   0   1  14 4370.52 2863.47   3
   0   1  14 3913.34 2717.04   9
   0   2 -14 11509.5 3937.20   7
   0   2 -13 6444.48 3107.11   7
   0   2 -12 9415.06 3502.63   7
   0   2 -11 3972.22 1202.33  10
   0   2 -11 2178.47 2322.35   7
   0   2 -10 3043.04 1271.43  10
   0   2 -10 3980.89 2547.94   7
   0   2  -9 22393.8 3041.83  10
   0   2  -9 33016.8 5499.21   7
   0   2  -8 109341. 6512.98  10
   0   2  -8 119030. 10054.4   7
   0   2  -8 119676. 9417.63   2
   0   2  -7 160244. 11239.2   7
   0   2  -7 144710. 10366.6   2
   0   2  -7 153151. 7643.53  10
   0   2  -6 9271.34 1990.23  10
   0   2  -6 16328.4 3427.13   2
   0   2  -6 11128.8 2961.19   7
   0   2  -3 560321. 7633.59   8
   0   2  -2 805841. 11470.1   9
   0   2  -2 820251. 8141.62   8
   0   2  -1 453905. 5057.39   5
   0   2  -1 449420. 7644.51   9
   0   2  -1 460701. 6068.72   8
   0   2  -1 437715. 5909.56  11
   0   2   0 200003. 5024.24   9
   0   2   0 203006. 4888.89  11
   0   2   0 192796. 4911.19   3
   0   2   1 172890. 5013.59   9
   0   2   1 165127. 4067.10   4
   0   2   1 164312. 3176.17   1
   0   2   1 167405. 4985.82   3
   0   2   1 171381. 5645.95  11
   0   2   2 3522.60 1141.30  11
   0   2   2 4750.58 1078.86   3
   0   2   2 4203.91 1016.85   9
   0   2   2 4575.55 813.119   4
   0   2   3 655017. 12428.7   9
   0   2   3 618596. 12412.4   3
   0   2   4 304408. 9807.24   9
   0   2   4 305689. 13146.4  11
   0   2   4 314913. 10202.9   3
   0   2   5 105920. 6791.49   9
   0   2   5 117377. 5898.61   2
   0   2   5 110292. 6967.94   3
   0   2   6-1822.20 1610.27  11
   0   2   6 428.736 567.266  10
   0   2   6 478.500 1276.66   3
   0   2   6-1983.40 1694.95   9
   0   2   6 1592.63 1400.26   2
   0   2   7 46060.2 3197.24  10
   0   2   7 41842.8 5609.79   9
   0   2   7 43680.8 5573.42   3
   0   2   7 49040.1 5141.94   2
   0   2   7 43630.1 6089.35  11
   0   2   8 71427.1 4165.28  10
   0   2   8 76386.2 8392.07   9
   0   2   8 69499.2 6962.87   2
   0   2   8 82269.8 8085.07  11
   0   2   8 82779.5 8464.24   3
   0   2   9 29018.1 2500.06  10
   0   2   9 33666.6 5144.11   2
   0   2   9 22811.1 4986.75   9
   0   2   9 31132.7 5741.30   3
   0   2  10 17326.1 1368.93  10
   0   2  10 22612.5 4714.98   2
   0   2  10 13564.8 4372.84   9
   0   2  10 26813.0 5744.66   3
   0   2  11-3261.59 2543.85   2
   0   2  11-2378.22 2237.18   3
   0   2  11 822.075 1899.48   9
   0   2  12-74.1467 2108.95   2
   0   2  12 6871.79 3212.81   3
   0   2  12 2535.93 2637.05   9
   0   2  13 2272.77 2423.99   2
   0   2  13 7209.64 3343.05   3
   0   2  13 1877.94 2498.33   9
   0   2  14-136.445 1963.01   2
   0   2  14 5139.12 3239.19   9
   0   2  14 1112.35 2242.24   3
   0   3 -14-891.825 2561.09   7
   0   3 -13 5452.65 2994.60   7
   0   3 -12 7779.01 1933.74  10
   0   3 -12 8087.86 3146.04   7
   0   3 -11 17460.4 2977.24  10
   0   3 -11 15714.0 4510.15   7
   0   3 -10 19087.3 3229.21  10
   0   3 -10 16638.3 4730.73   7
   0   3  -9 13351.9 2808.03  10
   0   3  -9 15799.2 4324.07   7
   0   3  -8 7213.73 2254.64  10
   0   3  -8 4134.93 2142.29   2
   0   3  -8 6056.13 2730.17   7
   0   3  -7 70716.9 5754.24  10
   0   3  -7 77603.8 5306.92   8
   0   3  -7 73487.1 7436.88   7
   0   3  -7 76297.7 7966.52   2
   0   3  -6 197442. 7118.55   8
   0   3  -5 135171. 4992.96   8
   0   3  -4 92303.2 3646.83   8
   0   3  -3-57.7213 724.279   9
   0   3  -3 405.186 448.674   8
   0   3  -2 77227.7 2755.24   5
   0   3  -2 82171.0 3118.12   8
   0   3  -2 80689.8 4151.19   9
   0   3  -1 248777. 4519.93   5
   0   3  -1 253486. 6920.01   9
   0   3  -1 251886. 5908.16   8
   0   3  -1 255768. 5785.73  11
   0   3   0 403077. 8738.97   9
   0   3   0 395986. 7792.20   4
   0   3   0 388460. 8235.50  11
   0   3   0 394084. 8677.86   3
   0   3   1 252191. 7306.19   9
   0   3   1 251569. 7793.61  11
   0   3   1 255001. 6185.94   4
   0   3   1 247453. 4666.87   1
   0   3   1 265546. 7449.67   3
   0   3   2 10705.5 1754.41   3
   0   3   2 10295.9 1057.50   1
   0   3   2 8819.23 1621.50   9
   0   3   2 9763.39 1342.85   4
   0   3   2 12620.5 2101.17  11
   0   3   3 27747.5 2880.54   9
   0   3   3 30205.1 3052.06   3
   0   3   3 25269.3 3493.90  11
   0   3   4 444548. 12227.3   9
   0   3   4 433268. 12393.9   3
   0   3   4 432605. 16166.0  11
   0   3   5 271053. 10873.6   3
   0   3   5 261294. 10395.8   9
   0   3   5 233830. 13321.7  11
   0   3   6 177689. 9558.47   9
   0   3   6 150044. 11602.9  11
   0   3   6 172371. 9726.40   3
   0   3   7 20010.3 4729.72  11
   0   3   7 27443.0 4492.58   3
   0   3   7 28327.5 4436.84   9
   0   3   7 24115.1 2522.93  10
   0   3   8 1565.54 919.021  10
   0   3   8 3754.22 2240.94   3
   0   3   8 2086.45 1945.23   9
   0   3   9 26829.5 5325.61   9
   0   3   9 26368.8 2787.68  10
   0   3   9 22706.6 4932.56   3
   0   3  10 27625.1 2801.94  10
   0   3  10 32968.1 6205.68   3
   0   3  10 25476.2 5528.96   9
   0   3  11 30170.0 6287.04   3
   0   3  11 13592.7 4753.99   9
   0   3  12-491.364 2659.64   3
   0   3  12 3232.23 2204.96   9
   0   3  13-8311.79 3837.38   3
   0   3  13 1260.65 2403.90   9
   0   4 -14 1711.51 2615.63   7
   0   4 -13-1326.84 2510.37   7
   0   4 -12-876.671 1550.13  10
   0   4 -12-58.6454 2209.98   7
   0   4 -11 6479.15 2553.39  10
   0   4 -11 8063.38 2644.27   8
   0   4 -11 7242.28 3880.94   7
   0   4 -10 20877.9 3840.20  10
   0   4 -10 25006.5 4129.75   8
   0   4  -9 28000.2 4381.53  10
   0   4  -9 35594.7 4228.85   8
   0   4  -9 31279.2 6117.65   7
   0   4  -8 58010.0 5925.77  10
   0   4  -8 63566.8 4866.57   8
   0   4  -8 58243.7 7061.38   7
   0   4  -7 2250.38 1139.70   8
   0   4  -7 1745.11 2027.15   4
   0   4  -7 1976.45 1959.28   7
   0   4  -6 35743.3 2861.87   8
   0   4  -5 368447. 8239.21   8
   0   4  -4 781063. 11333.9   8
   0   4  -3 428892. 11208.7   9
   0   4  -3 394211. 7353.71   5
   0   4  -3 414147. 8155.37   8
   0   4  -2 15836.6 1368.54   5
   0   4  -2 14668.1 2156.86   9
   0   4  -2 15760.2 2169.08   4
   0   4  -2 15152.0 1704.64   8
   0   4  -2 18251.7 1750.15  11
   0   4  -1 155396. 5985.39   4
   0   4  -1 173207. 5724.55  11
   0   4  -1 175643. 6656.28   9
   0   4   0 499328. 11381.2   9
   0   4   0 514047. 10930.3  11
   0   4   1 488672. 11580.5   9
   0   4   1 485761. 9942.99   4
   0   4   1 488567. 7565.96   1
   0   4   1 480973. 11877.4  11
   0   4   1 493473. 11620.2   3
   0   4   2 141353. 4119.84   1
   0   4   2 134245. 6422.60   9
   0   4   2 136696. 5376.02   4
   0   4   2 140686. 6624.53   3
   0   4   2 148787. 7553.91  11
   0   4   3 67384.3 4822.53   9
   0   4   3 72646.6 5083.07   3
   0   4   3 70498.6 4017.05   4
   0   4   3 72290.2 6075.28  11
   0   4   4 63210.0 5015.63   9
   0   4   4 63443.1 5134.47   3
   0   4   4 57776.9 6124.52  11
   0   4   5 106157. 7140.27   3
   0   4   5 93621.8 6564.64   9
   0   4   5 82702.7 8102.27  11
   0   4   6 125507. 10947.9  11
   0   4   6 144447. 8808.18   9
   0   4   6 127446. 8558.06   3
   0   4   7 60991.8 6444.92   9
   0   4   7 66170.7 6899.44   3
   0   4   8 4751.07 1420.12  10
   0   4   8 5166.60 2283.15   3
   0   4   9 3189.49 1445.49  10
   0   4   9 310.165 2886.93   3
   0   4   9 4078.49 2836.08   9
   0   4  10 4800.27 2954.06   3
   0   4  10 6475.40 3250.12   9
   0   4  11 17773.3 5054.39   3
   0   4  11 18548.0 5425.32   9
   0   4  12-2397.34 2882.92   3
   0   4  12 9137.69 4123.09   9
   0   4  13 5704.41 3518.09   9
   0   4  13 789.502 2202.48   3
   0   5 -14 1775.85 2735.51   7
   0   5 -13 5462.41 3587.29   7
   0   5 -12 5563.55 2644.26  10
   0   5 -12 5168.32 3307.55   7
   0   5 -11 2470.45 2329.64  10
   0   5 -11 1394.67 2255.15   7
   0   5 -10 10247.5 3123.68  10
   0   5 -10 11865.0 2597.52   8
   0   5 -10 8012.31 3563.17   7
   0   5  -9 31851.0 4937.90  10
   0   5  -9 36978.1 3930.08   8
   0   5  -9 31298.2 5778.70   7
   0   5  -8 64445.3 4610.82   8
   0   5  -8 68715.8 7511.75   7
   0   5  -7 32848.9 3001.47   8
   0   5  -7 32671.4 4903.66   7
   0   5  -6 15650.9 3162.53   7
   0   5  -6 16501.0 2027.17   8
   0   5  -5 806.118 626.832   8
   0   5  -5 1145.94 1176.57   4
   0   5  -4 66615.2 3506.89   5
   0   5  -4 74329.2 5725.40   4
   0   5  -4 68311.9 3785.97   8
   0   5  -4 67596.6 5217.35   9
   0   5  -3 315053. 6776.84   5
   0   5  -3 299939. 10283.2   9
   0   5  -3 308930. 8313.49   8
   0   5  -3 332240. 11094.8   4
   0   5  -2 284553. 9776.30   9
   0   5  -2 289716. 9647.25   4
   0   5  -2 274911. 8383.90   8
   0   5  -2 285734. 7745.11  11
   0   5  -1 65919.5 4696.26   9
   0   5  -1 66245.1 4411.59   4
   0   5  -1 71588.3 4215.22  11
   0   5   0 58207.0 4477.28   9
   0   5   0 57122.0 3939.75   4
   0   5   0 55567.3 4069.27  11
   0   5   1 239133. 9114.29   9
   0   5   1 250927. 9411.48  11
   0   5   1 247293. 8020.81   4
   0   5   1 250609. 6136.24   1
   0   5   1 260308. 9492.31   3
   0   5   2 271213. 10068.5   9
   0   5   2 268309. 6207.69   1
   0   5   2 259494. 8354.40   4
   0   5   2 266949. 10097.9   3
   0   5   2 278245. 10987.1  11
   0   5   3 117873. 7000.53   9
   0   5   3 127008. 8344.05  11
   0   5   3 113692. 5683.09   4
   0   5   3 116298. 6988.83   3
   0   5   4 37347.4 4178.79   9
   0   5   4 43855.6 5560.47  11
   0   5   4 37363.0 4287.80   3
   0   5   5 1273.57 1566.02   3
   0   5   5 426.100 1180.44   9
   0   5   6 1814.94 1982.38   3
   0   5   6 1909.41 1580.72   9
   0   5   7 13719.0 3566.97   3
   0   5   7 12141.6 3166.81   9
   0   5   8 28367.1 5162.36   3
   0   5   8 19351.0 4212.76   9
   0   5   9 11538.4 3986.96   9
   0   5   9 7890.61 3149.72   3
   0   5  10 3219.76 2505.35   3
   0   5  10 2103.68 2670.01   9
   0   5  11-742.843 2106.00   9
   0   5  11-6999.65 3734.96   3
   0   5  12 3350.32 3460.97   3
   0   5  12-5375.45 3350.14   9
   0   6 -13 5385.90 4068.20   7
   0   6 -12 9070.10 3344.30  10
   0   6 -12 11998.1 5104.65   7
   0   6 -11 10550.8 3668.59  10
   0   6 -11 4675.01 3068.29   7
   0   6 -10 1368.54 2710.15   7
   0   6 -10-543.418 2090.65  10
   0   6  -9 4959.83 1606.87   8
   0   6  -9 5803.32 3057.73   7
   0   6  -8 38755.7 3561.14   8
   0   6  -8 37212.4 5824.87   7
   0   6  -7 95971.4 5260.12   8
   0   6  -7 93890.3 8165.16   7
   0   6  -6 38983.1 3302.73   8
   0   6  -6 37212.9 4888.74   7
   0   6  -5 48383.1 5068.79   9
   0   6  -5 49037.9 3316.24   5
   0   6  -5 47686.7 3621.61   8
   0   6  -5 43611.6 4911.22   7
   0   6  -4 584.610 604.884   5
   0   6  -4 1404.33 1493.08   9
   0   6  -4 1531.99 971.660   8
   0   6  -4 252.508 912.662   4
   0   6  -4 959.802 1280.92   7
   0   6  -3 16627.4 1673.39   5
   0   6  -3 15799.7 2806.09   9
   0   6  -3 16534.2 2360.09   8
   0   6  -3 16971.3 2704.68   4
   0   6  -3 18815.4 3133.17   7
   0   6  -2 91502.3 6196.51   9
   0   6  -2 99240.3 6170.21   4
   0   6  -2 88312.2 6206.17   7
   0   6  -2 95481.4 5054.08  11
   0   6  -1 159241. 8024.08   9
   0   6  -1 170787. 7719.35   4
   0   6  -1 160588. 7031.54  11
   0   6   0 136318. 6919.58  11
   0   6   0 133638. 6610.55   4
   0   6   0 135279. 7465.10   9
   0   6   1 22163.5 3157.66   9
   0   6   1 19996.7 2637.28   4
   0   6   1 21082.9 1993.10   1
   0   6   1 16377.4 2752.91  11
   0   6   1 20347.1 3096.28   3
   0   6   2 12276.2 2580.19   3
   0   6   2 12417.2 2469.57   9
   0   6   2 12610.1 2593.69  11
   0   6   2 9655.01 1371.41   1
   0   6   2 11016.3 2111.87   4
   0   6   3 111936. 7378.51   9
   0   6   3 115716. 8281.62  11
   0   6   3 103476. 5985.27   4
   0   6   3 109426. 7365.98   3
   0   6   4 127008. 8219.52   9
   0   6   4 111426. 7856.13   3
   0   6   5 29634.5 4358.80   9
   0   6   5 31138.9 4520.58   3
   0   6   6 5503.27 2181.31   9
   0   6   6 6134.53 2618.78   3
   0   6   7-234.095 1934.69   3
   0   6   7 1632.28 1842.66   9
   0   6   8 5796.93 2748.39   3
   0   6   8 13926.2 3786.78   9
   0   6   9 10955.7 3881.03   3
   0   6   9 11350.2 3902.12   9
   0   6  10 11156.5 4724.40   3
   0   6  10 9867.37 4130.83   9
   0   6  11 3636.36 2988.00   9
   0   6  11 3344.78 3083.94   3
   0   7 -12 8112.26 3491.87  10
   0   7 -12-7353.70 4257.28   7
   0   7 -11 7455.36 3071.28  10
   0   7 -11 14225.4 5141.67   7
   0   7 -10 20557.8 4819.90  10
   0   7 -10 21310.9 5437.89   7
   0   7  -9 7956.22 3354.03   7
   0   7  -8 4322.93 2771.18   7
   0   7  -7 5420.82 1535.66   5
   0   7  -7 8415.47 1934.54   8
   0   7  -7 4014.74 2183.10   7
   0   7  -6 22708.1 2496.61   5
   0   7  -6 27194.4 3119.24   8
   0   7  -6 19590.4 3860.08   7
   0   7  -5 62169.7 3623.88   5
   0   7  -5 58628.5 5960.42   9
   0   7  -5 61759.0 4828.81   8
   0   7  -5 53442.2 5872.31   7
   0   7  -4 65698.3 3435.23   5
   0   7  -4 61305.9 5788.82   9
   0   7  -4 66585.6 6236.00   7
   0   7  -3 15756.9 3244.24   7
   0   7  -3 19330.2 3303.47   9
   0   7  -2 1621.93 1429.48   7
   0   7  -2 1338.43 1518.48   9
   0   7  -2 494.453 1161.46   4
   0   7  -2-271.392 852.288  11
   0   7  -1 39073.4 3823.11  11
   0   7  -1 40433.1 4149.50   4
   0   7  -1 38395.4 4536.58   9
   0   7   0 150024. 8540.07   9
   0   7   0 145108. 7588.60   4
   0   7   0 136825. 7565.54  11
   0   7   1 145083. 8652.91   9
   0   7   1 146288. 7536.58   4
   0   7   1 162189. 8703.99  11
   0   7   1 159485. 5773.93   1
   0   7   2 96354.5 7195.98   9
   0   7   2 93781.8 6101.03   4
   0   7   2 91707.5 7028.62   3
   0   7   2 92535.9 4303.58   1
   0   7   3 6219.71 2417.87   3
   0   7   3 4846.78 2075.20   9
   0   7   3 4938.45 1595.67   4
   0   7   4 14964.0 3385.97   3
   0   7   4 15502.4 3463.81   9
   0   7   4 14839.1 2610.47   4
   0   7   5 68249.7 6855.35   9
   0   7   5 64149.6 6747.55   3
   0   7   6 54858.3 6471.78   9
   0   7   6 58082.9 6820.75   3
   0   7   7 36837.3 5871.51   3
   0   7   7 36129.3 5531.29   9
   0   7   8 4258.18 2820.61   3
   0   7   8 636.081 2298.35   9
   0   7   9 5874.68 3111.98   3
   0   7   9 4305.00 2546.73   9
   0   7  10 4651.76 3142.42   3
   0   7  10 9377.96 3626.76   9
   0   8 -11 2951.77 2490.61  10
   0   8 -11 2120.64 2653.68   7
   0   8 -10 3254.68 3001.59   7
   0   8 -10 8220.10 3547.56  10
   0   8  -9 23212.7 5349.23   7
   0   8  -8 34421.4 5913.95   7
   0   8  -7 20628.8 4410.91   7
   0   8  -6 246.846 591.248   5
   0   8  -6 1199.57 1693.73   7
   0   8  -5 19329.6 3870.67   9
   0   8  -5 18339.7 3853.17   7
   0   8  -4 126204. 8813.80   9
   0   8  -4 120642. 8959.47   7
   0   8  -3 66310.6 6405.04   9
   0   8  -3 64607.8 6464.63   7
   0   8  -2 43486.2 5212.30   9
   0   8  -2 43969.5 4190.09  11
   0   8  -1-306.532 1828.33   9
   0   8  -1 1127.64 1161.53  11
   0   8   0 33431.0 4598.65   9
   0   8   0 24151.7 1554.01   6
   0   8   1 94387.3 7570.68   9
   0   8   1 93116.7 4693.95   1
   0   8   2 88406.8 4448.72   1
   0   8   2 87299.5 7487.08   9
   0   8   2 82746.2 6206.03   4
   0   8   3 31400.3 4744.85   3
   0   8   3 32196.2 4777.94   9
   0   8   3 26698.8 3587.34   4
   0   8   4 1494.72 1983.89   3
   0   8   4 910.366 2009.86   9
   0   8   4 825.801 1363.80   4
   0   8   5 10900.7 3051.64   3
   0   8   5 13274.9 3490.22   9
   0   8   6 21506.2 4454.82   3
   0   8   6 24682.0 4826.24   9
   0   8   7 24672.1 5282.88   3
   0   8   7 34444.7 6015.07   9
   0   8   8 12343.1 4466.48   3
   0   8   8 15269.9 4367.81   9
   0   8   9-607.271 2457.33   3
   0   8   9 4300.44 2875.58   9
   0   9 -10-4264.13 3419.21   7
   0   9  -9 2955.06 2849.40   7
   0   9  -8 10364.5 3809.05   7
   0   9  -7 32382.0 5768.90   7
   0   9  -6 22197.6 4622.95   7
   0   9  -5 1736.81 1845.98   7
   0   9  -5 5611.07 2596.87   9
   0   9  -4 16302.0 3950.79   9
   0   9  -4 21165.1 4358.62   7
   0   9  -3 70803.1 7104.25   9
   0   9  -2 77434.9 7292.77   9
   0   9  -1 48493.3 5804.68   9
   0   9   0 2954.41 1882.51   9
   0   9   0 2554.94 1164.01   1
   0   9   1 4643.87 1314.52   1
   0   9   1 332.651 1855.94   9
   0   9   2 13084.3 1919.11   1
   0   9   2 10413.8 3038.98   9
   0   9   3 27384.3 4870.28   9
   0   9   4 15430.4 3856.95   9
   0   9   4 18551.9 4093.17   3
   0   9   5 4844.69 2884.50   3
   0   9   5 4251.67 2355.08   9
   0   9   6 354.868 2030.28   3
   0   9   6-2267.02 2287.54   9
   0   9   7 2519.51 2147.35   3
   0   9   7-1362.29 2939.45   9
   0   9   8 4323.36 3072.34   3
   0   9   8 3620.30 2667.15   9
   0  10  -8-1825.30 2192.40   7
   0  10  -7 7267.02 3252.98   7
   0  10  -6 16342.0 4395.82   7
   0  10  -5 14868.6 3916.57   9
   0  10  -5 19053.4 4403.78   7
   0  10  -4 20189.6 4298.95   9
   0  10  -3 552.953 1774.17   9
   0  10  -2 3950.00 2285.55   9
   0  10  -1 39043.0 5722.88   9
   0  10   0 34432.3 5400.15   9
   0  10   1 4948.90 2625.78   9
   0  10   2 671.052 1950.63   9
   0  10   3 9928.57 3441.02   9
   0  10   4 10803.6 3648.15   9
   0  10   5 9646.83 3681.71   9
   0  10   6 10302.1 3942.60   3
   0  10   6 11716.2 3850.88   9
   0  11  -6 3118.81 2588.75   7
   0  11  -5 9192.08 3555.56   9
   0  11  -4 14134.4 4156.83   9
   0  11  -3 18416.5 4352.12   9
   0  11  -2 7602.21 2890.14   9
   0  11  -1 1054.68 1797.56   9
   0  11   0 13280.0 4148.77   9
   0  11   1 24568.9 5143.08   9
   0  11   2 28805.7 5556.93   9
   0  11   3 7131.14 2973.11   9
   1 -11  -3-261.735 2319.18   4
   1 -11  -3 3534.15 2937.56   8
   1 -11  -3 8192.91 4595.97  11
   1 -11  -2 1924.72 1917.43   4
   1 -11  -2 3241.08 2241.00   8
   1 -11  -1 23749.7 6275.60  11
   1 -11  -1 22812.5 4766.85   4
   1 -11  -1 16177.8 3504.33   8
   1 -11   0 16589.0 5527.18  11
   1 -11   0 17430.5 4131.21   4
   1 -11   0 21433.1 3801.27   8
   1 -11   1 22377.0 4839.25   4
   1 -11   1 19207.1 3492.71   8
   1 -11   1 21007.8 6104.08  11
   1 -11   2 5442.15 3277.90   4
   1 -11   2-2051.23 2888.79  11
   1 -11   2 794.166 1496.11   8
   1 -11   2 4551.84 2583.82   2
   1 -11   3 3765.34 3408.27  11
   1 -11   3 515.355 1770.39   2
   1 -11   4 6168.60 2928.32   2
   1 -11   5 11334.8 4340.65   2
   1 -10  -6 3759.18 3352.36  11
   1 -10  -6 881.429 2462.93   8
   1 -10  -6 7955.29 3010.41   4
   1 -10  -5 2376.26 2722.76   8
   1 -10  -5 6609.40 2825.13   4
   1 -10  -4 14682.1 5041.66  11
   1 -10  -4 19011.0 4541.30   8
   1 -10  -4 11483.7 3284.91   4
   1 -10  -3 10414.4 2983.02   8
   1 -10  -3 16132.3 3704.47   4
   1 -10  -3 8199.18 4234.99  11
   1 -10  -2 451.173 2573.77  11
   1 -10  -2 4278.31 2303.71   8
   1 -10  -2-743.098 1661.35   4
   1 -10  -1 3665.95 2236.00   4
   1 -10  -1 2656.62 1777.83   8
   1 -10  -1 1061.93 2542.84  11
   1 -10   0 14852.4 4595.55  11
   1 -10   0 13841.8 3722.06   4
   1 -10   0 8294.88 2496.45   8
   1 -10   1 38259.1 6932.22  11
   1 -10   1 36244.1 4415.15   8
   1 -10   1 32892.7 5355.35   4
   1 -10   2 32008.7 3871.36   8
   1 -10   2 34848.8 6730.28  11
   1 -10   2 28116.6 5044.21   4
   1 -10   3 16176.4 4677.36  11
   1 -10   3 15811.5 4082.84   4
   1 -10   3 20647.1 4356.91   2
   1 -10   3 13149.8 2537.90   8
   1 -10   4 1672.63 2135.62  11
   1 -10   4 11.5889 1894.78   2
   1 -10   4 2005.43 1085.97   8
   1 -10   5 4141.25 3083.29  11
   1 -10   5 534.273 2180.09   2
   1 -10   6 9825.35 3864.21   2
   1 -10   7 10681.6 4254.56   2
   1 -10   8 2797.72 3198.16   2
   1  -9  -8 9129.26 4404.54  11
   1  -9  -8 4739.67 4547.94   8
   1  -9  -8 3973.32 2277.05   4
   1  -9  -7 8288.63 4515.11   8
   1  -9  -7 5091.98 2388.75   4
   1  -9  -7 8783.67 4745.88  11
   1  -9  -6 7699.32 3799.08   8
   1  -9  -6 14183.4 3493.09   4
   1  -9  -6 4626.59 3307.15  11
   1  -9  -5-392.953 2749.88  11
   1  -9  -5 1399.76 2533.29   8
   1  -9  -5 1675.22 1818.57   4
   1  -9  -4-917.658 2432.86  11
   1  -9  -4-1490.73 2311.47   8
   1  -9  -4 789.699 1408.40   4
   1  -9  -3 19537.3 5234.32  11
   1  -9  -3 22201.4 3181.91   5
   1  -9  -3 16417.3 3743.31   8
   1  -9  -3 22383.6 3915.25   4
   1  -9  -2 52790.9 4129.58   5
   1  -9  -2 55245.8 5855.10   4
   1  -9  -2 39148.3 6557.42  11
   1  -9  -2 56115.6 5888.24   8
   1  -9  -1 70216.7 4008.72   5
   1  -9  -1 77581.4 8831.94  11
   1  -9  -1 55114.5 6041.20   4
   1  -9  -1 60753.1 5680.90   8
   1  -9   0 31815.8 5759.44  11
   1  -9   0 21622.1 3923.74   4
   1  -9   0 24445.5 3449.27   8
   1  -9   1-3809.60 2122.59   4
   1  -9   1-1220.93 1775.14   8
   1  -9   2 40932.8 5606.10   4
   1  -9   2 45281.4 4190.07   8
   1  -9   2 47338.3 6752.07  11
   1  -9   3 68973.5 7325.48   2
   1  -9   3 65400.6 7704.96  11
   1  -9   3 65996.3 7211.73   4
   1  -9   3 65694.6 4770.88   8
   1  -9   4 58922.7 7062.02   2
   1  -9   4 52835.7 4116.30   8
   1  -9   4 54878.1 7092.03  11
   1  -9   5 6725.02 2893.64   2
   1  -9   5 9443.25 1749.23   8
   1  -9   5 12157.0 3776.98  11
   1  -9   6-2180.35 2450.89   2
   1  -9   6 3199.14 2308.14  11
   1  -9   7 18919.0 4915.13   2
   1  -9   8 28242.2 6260.17   2
   1  -9   9 10232.6 4601.71   2
   1  -9  10 5513.63 4597.87   2
   1  -8 -10 12069.0 3549.38   4
   1  -8  -9-8638.79 4778.63  11
   1  -8  -9 814.928 1768.99   4
   1  -8  -8-5223.29 3923.54  11
   1  -8  -8 865.799 1631.98   4
   1  -8  -7 17269.2 5555.52  11
   1  -8  -7 27703.2 7143.30   8
   1  -8  -7 20383.1 4170.37   4
   1  -8  -6 32435.1 6640.70  11
   1  -8  -6 36343.3 4856.32   4
   1  -8  -6 37890.3 7266.54   8
   1  -8  -5 29916.0 6155.05  11
   1  -8  -5 30048.4 5853.15   8
   1  -8  -5 29808.2 4249.70   4
   1  -8  -4 8947.15 3512.02  11
   1  -8  -4 4375.36 2930.41   8
   1  -8  -4 2240.28 1742.35   4
   1  -8  -3-882.342 2057.15   8
   1  -8  -3 2519.09 1720.14   4
   1  -8  -3 1933.71 2279.54  11
   1  -8  -2 37412.7 3402.44   5
   1  -8  -2 29059.5 4057.44   4
   1  -8  -2 32412.1 4215.77   8
   1  -8  -2 31667.1 5279.99  11
   1  -8  -1 77295.7 4102.55   5
   1  -8  -1 80752.9 6538.95   4
   1  -8  -1 81795.4 6100.06   8
   1  -8  -1 81721.4 8068.34  11
   1  -8   0 115517. 4051.55   5
   1  -8   0 135137. 8538.91   4
   1  -8   0 140722. 7496.00   8
   1  -8   0 128618. 9823.02  11
   1  -8   1 68656.3 6491.90   4
   1  -8   1 63754.6 4786.70   8
   1  -8   1 62003.9 6678.07  11
   1  -8   2 1004.81 1606.49   4
   1  -8   2 3377.74 1381.58   8
   1  -8   2 283.937 1672.62  11
   1  -8   3 23003.8 2706.28   8
   1  -8   3 22934.4 3894.05   4
   1  -8   3 27904.7 4485.53  11
   1  -8   4 100338. 8532.49   2
   1  -8   4 96491.3 4950.32   8
   1  -8   4 107407. 8345.06  11
   1  -8   5 96443.6 4561.48   8
   1  -8   5 100972. 8013.57  11
   1  -8   5 93116.9 8518.15   2
   1  -8   6 20721.8 4709.04   2
   1  -8   6 30718.2 4591.38  11
   1  -8   7-1122.86 2736.51   2
   1  -8   7-1522.97 1566.57  11
   1  -8   8 8717.26 3870.04   2
   1  -8   9 5538.00 2889.22   2
   1  -8  10 10517.4 4081.03   2
   1  -8  11 1631.21 2847.68   2
   1  -7 -11 897.971 2233.26   4
   1  -7 -10 15604.8 4141.95   4
   1  -7  -9 6234.07 4077.20  11
   1  -7  -9 12443.9 3608.64   4
   1  -7  -8 7082.72 2838.31   4
   1  -7  -8 6409.31 3986.46  11
   1  -7  -7 6270.24 3875.06  11
   1  -7  -7 415.624 1611.12   4
   1  -7  -6 34719.1 6409.54  11
   1  -7  -6 34792.1 4496.05   4
   1  -7  -5 84225.1 8965.15  11
   1  -7  -5 78705.9 6293.76   4
   1  -7  -4 92511.5 6562.84   4
   1  -7  -4 101737. 9281.33  11
   1  -7  -3 41931.8 4502.62   4
   1  -7  -3 38462.3 4999.14   8
   1  -7  -3 39689.7 5689.49  11
   1  -7  -2 1035.26 1441.51   8
   1  -7  -2 179.675 1215.73   4
   1  -7  -2 698.588 1321.01  11
   1  -7  -1 28091.1 2393.46   5
   1  -7  -1 25290.9 3335.13   8
   1  -7  -1 24009.1 3509.37   4
   1  -7  -1 27124.6 4284.48  11
   1  -7   0 76290.4 5921.75   4
   1  -7   0 75835.1 5112.45   8
   1  -7   0 71328.7 3097.79   5
   1  -7   0 77963.4 6754.09  11
   1  -7   1 82254.5 6313.67   4
   1  -7   1 72873.5 4650.38   8
   1  -7   1 79526.8 6613.27  11
   1  -7   2 65988.7 5828.31  11
   1  -7   2 64180.7 5772.08   4
   1  -7   2 63592.9 4091.62   8
   1  -7   3 30317.9 3928.05  11
   1  -7   3 22372.7 2406.21   8
   1  -7   3 27702.6 4149.45   4
   1  -7   4-745.753 2045.28   4
   1  -7   4 1620.41 1751.83   2
   1  -7   4 125.926 725.796   8
   1  -7   4 3400.47 1659.79  11
   1  -7   5 77364.9 5967.41  11
   1  -7   5 72360.0 7069.89   2
   1  -7   6 125697. 9796.81   2
   1  -7   6 127296. 7675.95  11
   1  -7   7 76156.2 8207.17   2
   1  -7   7 81371.0 6222.90  11
   1  -7   8 15259.2 4531.01   2
   1  -7   8 14681.9 2892.29  11
   1  -7   9 1495.97 1604.07  11
   1  -7   9-1358.78 2219.28   2
   1  -7  10 8390.20 4293.87   2
   1  -7  11 11681.4 4439.95   2
   1  -7  12-767.495 2286.09   2
   1  -6 -12-615.626 1972.78   4
   1  -6 -11 2000.47 2281.89   4
   1  -6 -10 4978.65 2606.44   4
   1  -6  -9 22510.8 5628.11  11
   1  -6  -9 22932.8 4372.83   4
   1  -6  -8 28233.6 6057.36  11
   1  -6  -8 22978.6 4156.15   4
   1  -6  -8 21444.2 2595.37   1
   1  -6  -7 33141.2 6251.56  11
   1  -6  -7 35316.8 2847.75   1
   1  -6  -7 33502.0 4441.85   4
   1  -6  -6 4055.59 2708.64  11
   1  -6  -6 4568.59 1972.72   2
   1  -6  -6 4953.45 2105.05   4
   1  -6  -5 5492.09 1823.84   2
   1  -6  -5 3373.56 1665.34   4
   1  -6  -5 2716.70 1948.49  11
   1  -6  -4 75663.8 6061.10   9
   1  -6  -4 74349.0 7225.83  11
   1  -6  -4 70435.6 5467.67   4
   1  -6  -3 143332. 7475.43   4
   1  -6  -3 145311. 8076.12   9
   1  -6  -3 136751. 9208.75  11
   1  -6  -2 145089. 7800.64   9
   1  -6  -2 145008. 7384.02   4
   1  -6  -2 137836. 7706.17   3
   1  -6  -2 144855. 8006.11   7
   1  -6  -2 140521. 8767.95  11
   1  -6  -1 35593.9 3899.67   9
   1  -6  -1 36942.4 4058.34   3
   1  -6  -1 35334.1 3751.93   4
   1  -6  -1 36083.0 3668.23   8
   1  -6  -1 38125.8 4399.34  11
   1  -6  -1 36721.5 4025.50   7
   1  -6   0 241.583 358.207   5
   1  -6   0 773.742 958.349   9
   1  -6   0-418.282 940.646   7
   1  -6   0 1030.64 914.182   8
   1  -6   0 474.469 1179.02   4
   1  -6   0 1135.00 1088.86  11
   1  -6   1 63767.3 5186.11   9
   1  -6   1 61677.5 5053.96   4
   1  -6   1 56745.0 3673.26   8
   1  -6   1 62243.3 5082.94  11
   1  -6   1 66382.3 5249.81   7
   1  -6   2 73340.8 5657.99   9
   1  -6   2 63811.2 5311.78   4
   1  -6   2 65525.4 3652.52   8
   1  -6   2 70536.3 5182.34  11
   1  -6   2 79609.9 5850.21   7
   1  -6   2 70337.0 5513.84   3
   1  -6   3 115340. 7189.56   9
   1  -6   3 114952. 7517.11   4
   1  -6   3 120501. 4569.28   8
   1  -6   3 122972. 6591.18  11
   1  -6   3 124762. 7491.19   7
   1  -6   4 86442.0 6757.93   2
   1  -6   4 80752.0 6732.34   4
   1  -6   4 77075.5 3412.85   8
   1  -6   4 81021.1 5263.21  11
   1  -6   5 23498.1 1708.49   6
   1  -6   5 30402.7 4477.06   2
   1  -6   5 29546.7 3255.26  11
   1  -6   6 124.699 1622.66   2
   1  -6   6 545.772 1179.18  11
   1  -6   7 17504.9 3964.37   2
   1  -6   7 26541.9 3280.83  11
   1  -6   8 44209.2 6682.73   2
   1  -6   8 60380.1 5090.27  11
   1  -6   9 36591.7 6775.44   2
   1  -6  10 1718.62 2570.52   2
   1  -6  11-8581.14 4374.96   2
   1  -6  12 4832.99 4149.83   2
   1  -6  13 6488.53 4224.29   2
   1  -5 -13 1980.82 3282.57   7
   1  -5 -13 2658.59 2571.90   4
   1  -5 -12 5819.83 3830.26   7
   1  -5 -12 7497.18 3520.61   4
   1  -5 -11 10898.7 4065.67   4
   1  -5 -10 780.361 1873.41   1
   1  -5 -10 2796.37 2231.72   4
   1  -5  -9 91.9308 1265.51   1
   1  -5  -9-2068.95 3699.70  11
   1  -5  -9-776.592 2555.48   4
   1  -5  -8 8008.69 2044.70   1
   1  -5  -8 4196.37 3033.44  11
   1  -5  -8 8291.81 2480.99   4
   1  -5  -7 39374.4 6194.92  11
   1  -5  -7 46985.2 5096.91   4
   1  -5  -7 42713.4 4628.19   2
   1  -5  -7 43764.8 3431.87   1
   1  -5  -6 101310. 7102.01   9
   1  -5  -6 91415.7 6542.80   4
   1  -5  -6 104053. 6651.63   2
   1  -5  -6 94974.0 4235.90   1
   1  -5  -6 90360.4 8539.40  11
   1  -5  -5 66012.5 5428.70   9
   1  -5  -5 59534.8 2850.66   1
   1  -5  -5 62539.9 5038.67   4
   1  -5  -5 66967.3 5070.96   2
   1  -5  -5 63329.1 5438.98   3
   1  -5  -5 61848.0 6456.54  11
   1  -5  -4 49308.2 4597.85   3
   1  -5  -4 47730.4 4408.54   9
   1  -5  -4 41965.6 3941.98   4
   1  -5  -3 27023.2 3251.49   9
   1  -5  -3 25082.2 2943.84   4
   1  -5  -3 28542.5 3357.95   3
   1  -5  -2 172169. 7644.80   9
   1  -5  -2 168750. 7286.17   4
   1  -5  -2 159319. 7655.62   7
   1  -5  -2 158104. 8383.86  11
   1  -5  -1 302949. 9989.28   9
   1  -5  -1 292362. 9494.64   4
   1  -5  -1 274426. 10347.6  11
   1  -5  -1 312845. 10386.8   7
   1  -5   0 240194. 4602.93   5
   1  -5   0 251458. 7696.83   8
   1  -5   0 252082. 8932.00   4
   1  -5   0 269264. 9540.16   7
   1  -5   0 254929. 9362.50  11
   1  -5   1 49771.4 3049.73   8
   1  -5   1 48614.2 4079.09   4
   1  -5   1 43240.4 3882.40   7
   1  -5   1 43586.6 3739.45  11
   1  -5   2 43970.2 4110.44   4
   1  -5   2 36443.3 2354.70   8
   1  -5   2 39378.7 3764.97   7
   1  -5   2 36359.8 3282.01  11
   1  -5   3 231519. 9712.81   4
   1  -5   3 233670. 5369.15   8
   1  -5   3 234023. 9417.03   7
   1  -5   3 227100. 7794.96  11
   1  -5   4 339315. 6022.30   8
   1  -5   4 353437. 12133.7   7
   1  -5   4 331321. 12306.7   2
   1  -5   4 348715. 9729.75  11
   1  -5   5 188651. 9933.59   2
   1  -5   5 204064. 9739.40   7
   1  -5   5 195741. 7328.96  11
   1  -5   6 36911.1 4925.45   2
   1  -5   7-2473.42 2688.79   2
   1  -5   8 26361.5 5017.21   2
   1  -5   9 43128.4 7054.75   2
   1  -5  10 33581.0 6603.78   2
   1  -5  11 9599.26 4349.50   2
   1  -5  12-1114.24 2722.20   2
   1  -5  13-3310.77 3122.84   2
   1  -4 -13-1181.60 2804.38   7
   1  -4 -13-261.830 1814.61   4
   1  -4 -12-1459.39 2812.42   7
   1  -4 -12 1173.76 2253.43   4
   1  -4 -11 20040.6 5515.13   7
   1  -4 -11 16541.1 4454.26   4
   1  -4 -10 30812.9 5450.79   4
   1  -4  -9 13742.9 4090.34  11
   1  -4  -9 19979.2 4167.21   4
   1  -4  -8 2275.87 2383.74  11
   1  -4  -8 467.075 1193.28   2
   1  -4  -8 76.3089 1832.09   4
   1  -4  -7 3660.60 2253.30  11
   1  -4  -7 4021.09 1794.65   3
   1  -4  -7 6917.99 2021.87   2
   1  -4  -7 6424.10 1714.47   1
   1  -4  -7 5878.10 1982.24   4
   1  -4  -6 147217. 5924.53   1
   1  -4  -6 147280. 8271.45   3
   1  -4  -6 147211. 7958.29   4
   1  -4  -6 153050. 7789.54   2
   1  -4  -6 150280. 10099.3  11
   1  -4  -5 124083. 4406.26   1
   1  -4  -5 129434. 6969.26   9
   1  -4  -5 125999. 6804.82   4
   1  -4  -5 123335. 6597.31   2
   1  -4  -5 126945. 7120.70   3
   1  -4  -4 400653. 11483.9   9
   1  -4  -4 383665. 11597.2   3
   1  -4  -4 381088. 10943.4   4
   1  -4  -4 367487. 6032.19   1
   1  -4  -3 107573. 5654.82   9
   1  -4  -3 108022. 5589.54   4
   1  -4  -3 99309.3 5549.19   3
   1  -4  -2 883.124 650.472   9
   1  -4  -2-115.632 860.747   4
   1  -4  -1 182135. 6819.61   9
   1  -4  -1 181813. 6737.83   4
   1  -4  -1 185296. 7158.93   7
   1  -4  -1 187623. 7535.31  11
   1  -4   0 593903. 12226.8   4
   1  -4   0 614868. 12784.6   7
   1  -4   0 610295. 12607.2  11
   1  -4   1 556188. 12266.3   4
   1  -4   1 560439. 8653.31   8
   1  -4   1 593058. 12563.3   7
   1  -4   1 581779. 11564.0  11
   1  -4   2 101130. 5531.17   4
   1  -4   2 98006.4 3066.40   8
   1  -4   2 103298. 5410.33   7
   1  -4   2 90782.0 4560.58  11
   1  -4   2 94761.7 2603.50   6
   1  -4   3 11647.3 994.234   8
   1  -4   3 12152.2 2339.71   4
   1  -4   3 12330.2 1694.54  11
   1  -4   3 12938.9 2162.87   7
   1  -4   4 95779.5 5898.07   7
   1  -4   4 91506.0 6080.65   2
   1  -4   5 116474. 7366.60   2
   1  -4   5 110748. 6852.88   7
   1  -4   6 126243. 8676.76   9
   1  -4   6 107259. 7817.46   2
   1  -4   6 110650. 7526.53   7
   1  -4   7 36184.8 4969.31   7
   1  -4   7 31305.2 4945.14   2
   1  -4   8 3720.65 2434.90   2
   1  -4   9 1447.24 2149.47   2
   1  -4  10 14978.4 4810.70   2
   1  -4  11 11952.7 4468.28   2
   1  -4  12 7880.42 3578.07   2
   1  -4  13 3891.15 3120.50   3
   1  -4  13-5228.56 3362.18   2
   1  -3 -14 1192.08 3276.98   7
   1  -3 -13 4195.78 3657.81   7
   1  -3 -12-1404.77 2432.33   7
   1  -3 -11 491.968 2082.36   7
   1  -3 -10 31140.7 5981.16   7
   1  -3  -9 59279.2 7767.81  11
   1  -3  -9 70669.5 7235.86   2
   1  -3  -8 88034.3 7713.75   3
   1  -3  -8 88902.3 7201.20   2
   1  -3  -8 75408.6 7975.27  11
   1  -3  -7 15890.0 2841.38   2
   1  -3  -7 15063.3 2824.82   3
   1  -3  -7 18990.0 3846.81  11
   1  -3  -7 14008.9 3016.22   4
   1  -3  -6 17449.5 3393.55  11
   1  -3  -6 22866.7 3073.09   2
   1  -3  -6 19008.5 3081.78   4
   1  -3  -6 16514.9 2713.26   3
   1  -3  -5 144610. 7108.70   4
   1  -3  -5 145560. 6853.53   2
   1  -3  -5 137606. 6910.65   3
   1  -3  -4 70683.9 4373.20   9
   1  -3  -4 69447.6 4462.30   3
   1  -3  -4 69210.5 4550.85   4
   1  -3  -4 62076.7 4182.16   2
   1  -3  -3 268419. 8057.34   3
   1  -3  -3 266698. 4106.17   1
   1  -3  -3 267970. 7836.55   9
   1  -3  -3 284304. 8329.41   4
   1  -3  -2 39050.9 2811.61   9
   1  -3  -2 41531.1 3049.40   4
   1  -3  -1 58029.2 3294.42   9
   1  -3  -1 57414.1 3411.93   4
   1  -3   0 55151.0 3326.98   4
   1  -3   0 60455.8 3478.37   7
   1  -3   1 490376. 10160.3   4
   1  -3   1 503740. 6496.82   8
   1  -3   1 507297. 10050.1   7
   1  -3   1 506106. 9435.24  11
   1  -3   1 492332. 6161.56   6
   1  -3   2 747712. 13395.7   4
   1  -3   2 723982. 6030.98   8
   1  -3   2 763564. 12940.6   7
   1  -3   3 377237. 10473.3   4
   1  -3   3 383025. 9978.83   7
   1  -3   3 371283. 10172.8   2
   1  -3   4 68660.4 4688.93   7
   1  -3   4 66309.1 4841.22   2
   1  -3   5 89212.4 6027.17   7
   1  -3   5 84392.1 6067.76   2
   1  -3   6 132231. 8280.22   7
   1  -3   6 122684. 8273.33   2
   1  -3   7 101116. 8262.12   7
   1  -3   7 99985.0 8492.79   2
   1  -3   8 49927.5 6592.26   7
   1  -3   8 42938.0 6241.47   2
   1  -3   9 9181.25 3748.72   2
   1  -3  10-4714.74 1983.77  11
   1  -3  10 1349.26 2325.02   2
   1  -3  11 1186.96 2523.29   3
   1  -3  11 684.564 2041.04   2
   1  -3  11 2519.67 1439.79  11
   1  -3  12-713.241 2356.31   2
   1  -3  12-960.713 2421.59   3
   1  -3  13 1714.63 2161.28   2
   1  -3  13 3030.81 3131.71   3
   1  -3  14-1087.98 2297.98   2
   1  -3  14 2068.47 2696.55   3
   1  -2 -14 8180.83 3755.60   7
   1  -2 -13 3996.30 3041.22   7
   1  -2 -12 7228.80 3825.44   7
   1  -2 -11 4018.80 3390.55   7
   1  -2 -10 41.8698 2135.35   7
   1  -2  -9 20502.0 4118.81   3
   1  -2  -9 22274.5 4214.22   2
   1  -2  -9 17458.8 4468.50   7
   1  -2  -8 90337.8 8045.66   3
   1  -2  -8 99390.9 9227.32   7
   1  -2  -8 96049.0 7944.65   2
   1  -2  -8 80157.8 7930.48  11
   1  -2  -7 178680. 9934.58   3
   1  -2  -7 161668. 10044.2  11
   1  -2  -7 190374. 9858.99   2
   1  -2  -6 108096. 6687.85   3
   1  -2  -6 107269. 6645.24   2
   1  -2  -6 90743.3 6787.99  11
   1  -2  -5 421.811 1023.87  11
   1  -2  -5 689.221 810.422   2
   1  -2  -5 431.887 745.601   3
   1  -2  -4 5438.69 1299.24   2
   1  -2  -4 4909.72 1190.51   3
   1  -2  -3 347472. 7631.28   9
   1  -2  -3 345885. 7938.77   3
   1  -2  -3 346039. 8683.70   4
   1  -2  -2 136208. 4234.57   9
   1  -2  -2 125974. 4726.34   4
   1  -2  -1 174507. 4520.52   9
   1  -2  -1 179261. 5202.72   4
   1  -2   0 147819. 3562.01   6
   1  -2   0 154907. 4666.64   4
   1  -2   0 153353. 4539.45   7
   1  -2   1 149672. 3649.51   6
   1  -2   1 155464. 4917.25   4
   1  -2   1 157475. 4654.71   7
   1  -2   2 69550.8 3615.41   4
   1  -2   2 69495.7 3417.73   7
   1  -2   3 110847. 4923.78   7
   1  -2   3 106344. 5003.97   2
   1  -2   4 594659. 13389.6   7
   1  -2   4 592391. 13484.9   2
   1  -2   5 157998. 8136.03   7
   1  -2   5 149016. 7950.50   2
   1  -2   6 16029.3 3220.87   7
   1  -2   6 18399.0 3536.50   2
   1  -2   7 47141.2 6159.22   7
   1  -2   7 42180.5 5632.70   2
   1  -2   8 87526.5 8747.36   7
   1  -2   8 81662.8 8132.96   2
   1  -2   9 64600.8 8237.39   3
   1  -2   9 54848.7 6917.18   2
   1  -2  10 27148.6 4326.23  11
   1  -2  10 16300.2 4521.48   3
   1  -2  10 22082.1 4481.98   2
   1  -2  11-710.073 1004.45  11
   1  -2  11 904.380 1711.14   2
   1  -2  11 204.089 2356.96   3
   1  -2  12 2455.97 2468.93   2
   1  -2  12-128.709 2157.03   3
   1  -2  13 904.636 2071.56   2
   1  -2  13-485.752 1956.67   3
   1  -2  14 1373.33 2170.65   2
   1  -2  14 7068.59 3206.35   3
   1  -1 -14 1621.95 2048.73   7
   1  -1 -13 1559.75 2166.69   7
   1  -1 -12 4901.08 3017.28   7
   1  -1 -11 15871.7 4312.61   7
   1  -1 -10 38181.4 6628.00   7
   1  -1  -9 14329.7 3424.03   2
   1  -1  -9 11827.3 3779.00   7
   1  -1  -8 3145.90 2000.57   2
   1  -1  -8 2020.32 2401.22   7
   1  -1  -7 23178.9 3672.65  11
   1  -1  -7 23521.7 3977.75   3
   1  -1  -7 30427.8 5183.15   7
   1  -1  -7 28966.0 4455.69   2
   1  -1  -6 116069. 7532.19   3
   1  -1  -6 114910. 7540.65   2
   1  -1  -6 121245. 7311.81  11
   1  -1  -5 245871. 9108.58   3
   1  -1  -5 248790. 8972.04  11
   1  -1  -5 265185. 10055.6   2
   1  -1  -4 203406. 6704.12   3
   1  -1  -4 194431. 6835.50  11
   1  -1  -3 86572.9 3454.12   3
   1  -1  -2 593860. 6737.97   9
   1  -1  -2 607358. 7287.17   3
   1  -1  -1 294744. 5749.94   4
   1  -1   0 999999. 7365.96   5
   1  -1   0 975360. 9457.80   4
   1  -1   0 996533. 9300.31   6
   1  -1   1 469783. 6960.03   4
   1  -1   1 467253. 6146.80   7
   1  -1   2 100405. 3656.51   2
   1  -1   2 93008.0 3687.96   4
   1  -1   2 99523.9 3598.43   7
   1  -1   3 29542.2 3898.28  10
   1  -1   3 25498.6 2362.85   2
   1  -1   3 21522.2 2267.27   7
   1  -1   4 241059. 9836.82   7
   1  -1   4 236457. 8870.34   2
   1  -1   4 263648. 11179.7  10
   1  -1   5 436160. 15970.2   7
   1  -1   5 409720. 14266.3   2
   1  -1   6 163356. 10466.4   7
   1  -1   6 166445. 10102.1   2
   1  -1   7 100701. 9491.68   3
   1  -1   7 112446. 9135.90   7
   1  -1   7 88021.4 7580.41   2
   1  -1   8 1078.20 1150.77  11
   1  -1   8 2041.63 1943.00   3
   1  -1   8 1760.36 1689.51   2
   1  -1   9 48271.4 6780.99   3
   1  -1   9 37529.1 5213.18   2
   1  -1   9 38907.7 5241.86  11
   1  -1  10 50241.6 6949.93   3
   1  -1  10 44902.2 6009.28   2
   1  -1  10 38212.1 5211.06  11
   1  -1  11 14807.4 3676.10   2
   1  -1  11 13836.1 3965.55   3
   1  -1  12 481.855 2200.67   2
   1  -1  12-1470.73 2182.67   3
   1  -1  13 1659.70 2033.05   2
   1  -1  13-5482.64 2804.53   3
   1  -1  14 106.063 1528.85   2
   1  -1  14 181.442 1761.96   3
   1   0 -15 3449.74 2690.68   7
   1   0 -14 5874.42 3315.43   7
   1   0 -13-281.883 2239.92   7
   1   0 -12 2263.30 2226.33   7
   1   0 -11 12313.0 3750.28   7
   1   0 -10 47400.5 6734.12   7
   1   0  -9 86546.6 8827.69   7
   1   0  -9 84667.4 8509.41   2
   1   0  -8 71096.4 7878.26   7
   1   0  -8 84455.1 8441.71   2
   1   0  -7 31948.5 5142.20   2
   1   0  -6 17694.0 3639.49   2
   1   0  -6 12878.4 2350.13  11
   1   0  -5 265679. 8741.92  11
   1   0  -4 826897. 12204.1  11
   1   0  -3 672074. 8693.85  11
   1   0  -2 35636.6 2448.74  10
   1   0   1 631453. 5679.93   4
   1   0   2 396017. 15988.2   3
   1   0   2 407218. 11523.2   7
   1   0   3 57412.6 4665.55  10
   1   0   3 59326.6 6716.08   3
   1   0   3 66933.1 4621.34   2
   1   0   4 34240.7 3769.69  10
   1   0   4 29811.1 5011.26   3
   1   0   4 29635.6 3566.97   2
   1   0   5 154160. 7877.24  10
   1   0   5 158281. 11512.9   3
   1   0   5 138339. 8072.75   2
   1   0   6 121110. 7012.29  10
   1   0   6 125137. 8031.58   2
   1   0   6 135646. 10638.8   3
   1   0   7 156694. 11522.1   3
   1   0   7 152363. 7859.18  10
   1   0   7 153027. 9479.22   2
   1   0   7 147297. 10065.5  11
   1   0   8 45532.2 4160.32  10
   1   0   8 43528.4 5592.68  11
   1   0   8 35755.4 5786.37   3
   1   0   8 43662.7 5242.08   2
   1   0   9 2824.79 1904.25  11
   1   0   9 3174.01 1898.41   2
   1   0   9-430.546 1946.55   3
   1   0  10 3685.97 2326.95   2
   1   0  10 2381.45 2224.99   3
   1   0  11 8360.42 2858.89   2
   1   0  11 11453.7 3630.60   3
   1   0  12 11638.7 3367.74   2
   1   0  12 13103.7 4002.28   3
   1   0  13 6762.29 2849.60   2
   1   0  13 6693.37 2906.75   3
   1   0  14 441.442 1862.90   2
   1   0  14 4586.53 2745.65   3
   1   1 -15 258.135 1857.82   7
   1   1 -14 5154.32 2929.08   7
   1   1 -13 7897.57 3162.65   7
   1   1 -12 13636.4 4127.18   7
   1   1 -11 6054.96 2866.65   7
   1   1 -10 17293.6 4473.98   7
   1   1  -9 56361.8 6976.48   7
   1   1  -9 66698.8 7279.50   2
   1   1  -8 45015.0 2560.27  10
   1   1  -8 57589.3 7021.92   7
   1   1  -8 59222.3 6873.23   2
   1   1  -7 60635.4 3162.33  10
   1   1  -7 70443.0 7499.29   2
   1   1  -4 169344. 5214.52  11
   1   1  -2 668081. 7293.16   9
   1   1  -1 124841. 3412.32   6
   1   1  -1 117741. 3669.19   5
   1   1  -1 120774. 2983.41   9
   1   1  -1 122324. 2618.76   3
   1   1   0 81458.9 2918.75   9
   1   1   0 76761.3 1992.29   7
   1   1   0 79589.7 2861.74   3
   1   1   1 546036. 9407.68   9
   1   1   1 560953. 10262.3   3
   1   1   2 424368. 11450.1   3
   1   1   2 458182. 9946.66  10
   1   1   2 436328. 10475.1   9
   1   1   2 435766. 5053.23   2
   1   1   3 320640. 12021.4   3
   1   1   3 325364. 9078.13  10
   1   1   3 325653. 6976.74   2
   1   1   4 125115. 6032.00  10
   1   1   4 125480. 5754.04   2
   1   1   5 10345.0 1987.26  10
   1   1   5 6027.76 1684.55   2
   1   1   5 9667.46 3149.68   3
   1   1   5 10142.1 2681.71  11
   1   1   6 9671.53 2053.91  10
   1   1   6 6042.15 2065.76   2
   1   1   6 6944.55 2854.26   3
   1   1   6 8565.85 2495.78  11
   1   1   7 27823.6 3412.88  10
   1   1   7 43587.6 6367.59   3
   1   1   7 35269.4 4638.60   2
   1   1   7 38136.5 5394.22  11
   1   1   8 84997.8 9415.42   3
   1   1   8 79834.9 5648.13  10
   1   1   8 72984.8 7155.68   2
   1   1   8 71626.2 7308.95  11
   1   1   9 13535.3 2375.71  10
   1   1   9 12753.1 3322.00   2
   1   1  10 2391.56 1137.77  10
   1   1  10 5933.37 2556.57   2
   1   1  10 6355.00 3277.38   3
   1   1  11-661.662 1689.31   2
   1   1  11 3450.59 2425.25   3
   1   1  12 4829.90 2919.02   2
   1   1  12-1352.23 2048.77   3
   1   1  13 2302.78 2063.19   2
   1   1  13 8928.33 3510.54   3
   1   1  13 3357.48 2650.28   9
   1   1  14-2974.33 2297.15   2
   1   1  14 1134.18 2095.41   3
   1   1  14 1327.08 1576.44   9
   1   2 -15-301.239 2244.22   7
   1   2 -14 918.303 2249.21   7
   1   2 -13 5368.78 3002.75   7
   1   2 -12 17276.0 4543.98   7
   1   2 -11 43387.5 2612.21  10
   1   2 -11 55421.2 7333.11   7
   1   2 -10 2211.95 898.873  10
   1   2 -10 2394.87 2265.05   7
   1   2  -9 439.339 745.618  10
   1   2  -9-884.257 2102.45   7
   1   2  -8 60283.2 4113.11  10
   1   2  -8 58426.8 7359.62   7
   1   2  -8 69401.5 7352.38   2
   1   2  -5 35400.1 3149.74   8
   1   2  -4 11982.3 1667.04   8
   1   2  -3 4416.82 995.642   9
   1   2  -3 4498.14 948.240   8
   1   2  -2 17887.8 1664.22   5
   1   2  -2 20803.6 1706.46   9
   1   2  -2 20323.4 1441.62   6
   1   2  -2 21810.7 1268.54  11
   1   2  -1 202165. 5499.69   2
   1   2  -1 206523. 5362.44   5
   1   2  -1 210270. 5375.02   9
   1   2  -1 210924. 4981.73   3
   1   2  -1 201941. 4514.46   6
   1   2  -1 216900. 6974.71  11
   1   2   0 564336. 9148.82   5
   1   2   0 546335. 9285.82   9
   1   2   0 561704. 6379.52   4
   1   2   0 571479. 9125.08   3
   1   2   0 554672. 7883.64   7
   1   2   1 241799. 6905.35   9
   1   2   1 253219. 3671.66   4
   1   2   1 247217. 5646.47   1
   1   2   1 245160. 12246.0  11
   1   2   1 248290. 6959.83   3
   1   2   2 4940.78 2562.50  11
   1   2   2 3631.25 1389.01   3
   1   2   2 4178.13 1178.59   9
   1   2   2 4232.87 928.824   1
   1   2   3 202415. 8512.16   3
   1   2   3 202571. 8210.28   9
   1   2   4 338156. 12689.3   3
   1   2   4 339034. 9636.27  10
   1   2   4 356551. 12463.6   9
   1   2   4 356827. 17306.1  11
   1   2   5 258965. 8928.68  10
   1   2   5 285026. 15178.6  11
   1   2   5 262579. 12173.9   9
   1   2   5 262344. 8103.67   2
   1   2   5 240633. 12219.9   3
   1   2   6 66755.4 4854.00  10
   1   2   6 68588.2 7003.28   9
   1   2   6 72512.5 5058.44   2
   1   2   6 57603.9 6792.38   3
   1   2   6 60467.4 7033.87  11
   1   2   7 2582.93 1953.44  11
   1   2   7 6236.07 2018.14   2
   1   2   7 6051.13 1690.17  10
   1   2   7 5399.66 2632.40   3
   1   2   7 1769.05 2394.68   9
   1   2   8 9277.24 2639.62   2
   1   2   8 8196.85 2163.93  10
   1   2   8 8390.21 3475.71   3
   1   2   8 3656.28 2695.72   9
   1   2   9 27754.8 4601.83   2
   1   2   9 26202.9 3463.51  10
   1   2   9 31388.2 6311.22   3
   1   2   9 25543.5 6020.44   9
   1   2  10 30045.5 5112.26   2
   1   2  10 29337.3 3542.72  10
   1   2  10 33965.3 6483.18   3
   1   2  10 31447.2 6841.82   9
   1   2  11 14769.6 4139.73   2
   1   2  11 12816.2 4302.29   3
   1   2  11 15334.4 4777.29   9
   1   2  12 3439.90 2589.41   2
   1   2  12 9231.03 3545.06   3
   1   2  12 7697.35 3392.45   9
   1   2  13 3078.25 2502.10   2
   1   2  13 5361.96 3010.02   3
   1   2  13 6789.13 3553.50   9
   1   3 -14 1775.10 2744.37   7
   1   3 -13-447.408 2312.75   7
   1   3 -12 3147.43 1252.41  10
   1   3 -12-1856.18 3211.32   7
   1   3 -11 10150.8 2176.11  10
   1   3 -11 8365.96 3436.27   7
   1   3 -10 42412.0 4226.55  10
   1   3 -10 26398.6 5817.93   7
   1   3  -9 31507.4 3581.84  10
   1   3  -9 30983.2 4631.51   8
   1   3  -9 25791.0 5557.50   7
   1   3  -8 28923.0 4001.08   8
   1   3  -8 33383.4 5937.16   7
   1   3  -7 8417.42 2033.86   8
   1   3  -6 125219. 6257.40   8
   1   3  -5 220956. 7446.39   8
   1   3  -4 206142. 7225.66   9
   1   3  -4 224266. 6983.12   8
   1   3  -3 90828.3 4474.43   9
   1   3  -3 79765.7 3925.97   5
   1   3  -3 85790.0 4100.57   8
   1   3  -3 80097.1 2069.27  11
   1   3  -2 2695.20 568.623   6
   1   3  -2 2948.98 827.309   5
   1   3  -2 3090.20 995.107   9
   1   3  -2 2819.97 978.615   4
   1   3  -2 2901.83 873.315   8
   1   3  -2 2968.82 647.035  11
   1   3  -1 17849.6 1787.40   5
   1   3  -1 17582.2 1401.36   6
   1   3  -1 15231.0 1877.54   9
   1   3  -1 17694.6 1733.35   4
   1   3  -1 17486.7 1903.88   8
   1   3  -1 15642.4 1831.64   7
   1   3  -1 17198.7 1855.81   3
   1   3  -1 17667.2 1903.48  11
   1   3   0 242123. 7346.63   9
   1   3   0 248064. 5418.22   4
   1   3   0 238024. 6489.51   7
   1   3   0 260194. 9152.88  11
   1   3   0 249276. 7193.72   3
   1   3   1 659221. 12789.3   9
   1   3   1 629729. 8065.47   4
   1   3   1 646000. 10051.8   1
   1   3   1 673706. 17793.3  11
   1   3   1 646928. 12513.0   3
   1   3   2 356220. 7845.27   1
   1   3   2 352850. 10139.6   9
   1   3   2 359357. 15160.6  11
   1   3   2 365109. 6313.13   4
   1   3   2 383073. 10638.0   3
   1   3   3 119748. 6530.60   9
   1   3   3 114126. 6513.97   3
   1   3   3 115278. 9663.51  11
   1   3   4 29866.9 3727.79   9
   1   3   4 37090.0 4216.49   3
   1   3   4 32727.7 5519.12  11
   1   3   5 223378. 8601.84  10
   1   3   5 232327. 11134.9   9
   1   3   5 250487. 15421.4  11
   1   3   5 233322. 11568.0   3
   1   3   6 213104. 8696.74  10
   1   3   6 221522. 14241.4  11
   1   3   6 212803. 11885.7   9
   1   3   6 199501. 11809.9   3
   1   3   7 58221.5 4797.99  10
   1   3   7 58025.6 6857.93   9
   1   3   7 54782.5 6898.02   3
   1   3   8-951.791 1000.36  10
   1   3   8 260.871 1960.03   3
   1   3   8-1011.00 2512.38   9
   1   3   9 19107.1 3128.13  10
   1   3   9 18523.9 5047.81   3
   1   3   9 5857.03 3216.25   9
   1   3  10 13998.8 4540.45   3
   1   3  10 8278.49 3652.18   9
   1   3  11 10451.6 4435.58   9
   1   3  11 9026.28 4592.76   3
   1   3  12-209.661 2069.59   3
   1   3  12-340.401 2276.26   9
   1   3  13-4983.34 3052.36   3
   1   3  13-7012.72 3745.71   9
   1   4 -14 2106.17 2510.57   7
   1   4 -13 4784.22 3606.45   7
   1   4 -12 3764.44 1838.28  10
   1   4 -12 2587.38 2906.23   7
   1   4 -11 3470.47 1870.39  10
   1   4 -11-2359.94 2244.73   8
   1   4 -11-1676.05 3490.52   7
   1   4 -10 25018.8 3854.09  10
   1   4 -10 21566.9 3983.54   8
   1   4 -10 21316.0 5570.50   7
   1   4  -9 43048.4 4933.47   8
   1   4  -9 45116.7 7062.40   7
   1   4  -8 153451. 8214.85   8
   1   4  -8 166363. 12077.2   7
   1   4  -7 92014.0 5786.47   8
   1   4  -7 98995.7 9632.64   2
   1   4  -7 101173. 8472.69   7
   1   4  -6 4992.06 1368.48   8
   1   4  -5 73944.3 4485.31   8
   1   4  -4 286015. 9271.92   9
   1   4  -4 280625. 11118.3   4
   1   4  -4 267973. 7958.57   5
   1   4  -4 286697. 8338.91   8
   1   4  -3 386269. 6380.17  11
   1   4  -3 370477. 9032.70   5
   1   4  -3 382208. 11232.6   4
   1   4  -3 384678. 9415.31   8
   1   4  -3 371391. 10094.4   9
   1   4  -2 128182. 5100.18   5
   1   4  -2 135599. 5979.39   9
   1   4  -2 137568. 5952.65   4
   1   4  -2 129702. 4562.63  11
   1   4  -2 141329. 5742.98   8
   1   4  -2 136120. 6206.83   7
   1   4  -2 130503. 3388.56   6
   1   4  -1 21618.1 2156.41   5
   1   4  -1 20591.1 2453.24   9
   1   4  -1 24070.4 2293.95   4
   1   4  -1 21139.6 1585.98   6
   1   4  -1 23152.4 2494.96   8
   1   4  -1 18866.1 2327.63   7
   1   4  -1 22581.2 2461.57   3
   1   4  -1 22086.8 2308.05  11
   1   4   0 131920. 6189.70   9
   1   4   0 124051. 4597.30   4
   1   4   0 129665. 6050.88   8
   1   4   0 120799. 6315.67  11
   1   4   0 133504. 5993.32   3
   1   4   1 288695. 9614.58   9
   1   4   1 286464. 6689.14   4
   1   4   1 298859. 7470.31   1
   1   4   1 302501. 11670.9  11
   1   4   1 267129. 9041.09   3
   1   4   2 315137. 7843.03   1
   1   4   2 322402. 10668.0   9
   1   4   2 307283. 7012.84   4
   1   4   2 320853. 10545.9   3
   1   4   2 341551. 14243.5  11
   1   4   3 175541. 8367.37   9
   1   4   3 175157. 11506.6  11
   1   4   3 163251. 6008.46   1
   1   4   3 167640. 8280.10   3
   1   4   4 56358.3 7329.35  11
   1   4   4 69107.6 5721.13   9
   1   4   4 64584.2 5652.13   3
   1   4   5 1153.37 1721.63  11
   1   4   5-705.383 1550.63   9
   1   4   6 48553.4 4494.01  10
   1   4   6 50533.2 5909.34   9
   1   4   6 52896.4 6168.42   3
   1   4   7 79941.8 5842.13  10
   1   4   7 87633.0 8403.90   9
   1   4   7 85794.0 8491.46   3
   1   4   8 66603.1 5539.39  10
   1   4   8 70856.0 8230.32   9
   1   4   8 60376.1 7900.37   3
   1   4   9 14127.6 2821.10  10
   1   4   9 7657.36 3532.56   9
   1   4   9 7325.69 3319.40   3
   1   4  10-7801.71 3839.30   3
   1   4  10 872.587 2179.23   9
   1   4  11-7696.10 4130.76   3
   1   4  11 2003.94 2320.86   9
   1   4  12 2049.36 2900.78   3
   1   4  12-99.4794 2666.19   9
   1   5 -14 9420.88 4186.62   7
   1   5 -13 9893.77 4418.39   7
   1   5 -12 12445.4 3091.13  10
   1   5 -12 11592.2 4461.31   7
   1   5 -11 6402.62 2572.90  10
   1   5 -11-16.5247 3085.50   7
   1   5 -10 3256.49 1575.03   8
   1   5 -10-692.044 2989.61   7
   1   5  -9 9756.42 2508.68   8
   1   5  -9 10118.8 3647.39   7
   1   5  -8 27418.7 3467.80   8
   1   5  -8 23833.9 4702.85   7
   1   5  -7 151351. 7421.50   8
   1   5  -7 154475. 10282.8   7
   1   5  -6 88658.5 7892.20   4
   1   5  -6 76024.2 4977.38   8
   1   5  -6 75961.9 6648.39   7
   1   5  -5 20502.3 3094.77   9
   1   5  -5 23172.6 2708.27   5
   1   5  -5 27788.6 4043.80   4
   1   5  -5 25745.2 2812.31   8
   1   5  -5 26374.2 3719.16   7
   1   5  -4 14032.1 1998.36   5
   1   5  -4 17647.6 2698.73   9
   1   5  -4 18452.9 2330.82   8
   1   5  -4 11575.5 2334.73   4
   1   5  -3 164138. 6283.16   5
   1   5  -3 156120. 7443.97   9
   1   5  -3 167749. 7711.02   4
   1   5  -3 168211. 6864.61   8
   1   5  -3 165403. 7992.99   7
   1   5  -3 154238. 5006.87  11
   1   5  -2 249706. 7609.05   5
   1   5  -2 249975. 9215.53   9
   1   5  -2 223504. 4277.57   6
   1   5  -2 249807. 7235.92  11
   1   5  -2 252100. 8643.89   8
   1   5  -2 244614. 9205.44   7
   1   5  -2 251588. 8639.73   4
   1   5  -1 192481. 8141.68   9
   1   5  -1 206953. 7291.38   4
   1   5  -1 212616. 8247.43   8
   1   5  -1 199177. 8015.94   7
   1   5  -1 196999. 7366.16  11
   1   5  -1 197430. 4942.28   6
   1   5   0 74201.5 5219.16   9
   1   5   0 70328.7 4034.44   4
   1   5   0 72515.7 5129.19  11
   1   5   0 67936.7 4840.04   3
   1   5   1 5528.58 1802.00   3
   1   5   1 3728.42 1599.50   9
   1   5   1 4873.25 1590.10  11
   1   5   1 5822.27 1275.43   4
   1   5   1 4727.38 1232.39   1
   1   5   2 47200.5 4594.19   9
   1   5   2 49107.3 5508.73  11
   1   5   2 41934.7 3077.51   4
   1   5   2 41074.2 4234.59   3
   1   5   2 41814.8 3095.62   1
   1   5   3 82964.3 6257.23   9
   1   5   3 76397.2 4333.47   1
   1   5   3 83614.4 4320.98   4
   1   5   3 84787.8 6364.90   3
   1   5   3 89254.4 8297.07  11
   1   5   4 82436.8 6625.61   9
   1   5   4 85538.0 8884.34  11
   1   5   4 94477.5 7155.90   3
   1   5   5 30146.0 4554.55   3
   1   5   5 28915.5 4393.76   9
   1   5   6-1000.76 1815.32   3
   1   5   6 563.984 1776.96   9
   1   5   7 7520.53 2061.93  10
   1   5   7 5245.59 2545.86   3
   1   5   7 7996.87 2871.67   9
   1   5   8 13870.1 4010.08   3
   1   5   8 15465.1 2900.71  10
   1   5   8 10578.5 3843.57   9
   1   5   9 17445.6 4822.97   9
   1   5   9 16605.8 5058.84   3
   1   5  10 6779.94 3513.69   3
   1   5  10-144.874 2359.31   9
   1   5  11-2565.24 3277.07   3
   1   5  11 1132.60 2990.41   9
   1   5  12-11090.4 3549.26   3
   1   5  12-5422.86 3938.95   9
   1   6 -13-7051.80 4243.67   7
   1   6 -12 8973.68 3109.74  10
   1   6 -12 6397.50 3729.37   7
   1   6 -11 23709.0 4631.62  10
   1   6 -11 22892.4 6239.55   7
   1   6 -10 10920.4 3987.23   7
   1   6  -9 915.317 1086.14   8
   1   6  -9-989.356 2617.94   7
   1   6  -8 437.643 1038.95   8
   1   6  -8-3166.48 2243.68   7
   1   6  -7 26620.3 3313.45   5
   1   6  -7 28626.5 3380.66   8
   1   6  -7 30342.6 4809.35   7
   1   6  -6 40130.8 3830.64   5
   1   6  -6 43050.9 4013.11   8
   1   6  -6 39809.1 5100.98   7
   1   6  -5 61313.4 4397.30   5
   1   6  -5 60461.3 5368.81   9
   1   6  -5 59451.8 4551.27   8
   1   6  -5 54075.3 5504.99   7
   1   6  -4 66247.6 4352.65   5
   1   6  -4 65105.7 5413.04   9
   1   6  -4 72050.2 5829.90   4
   1   6  -4 66340.4 4796.42   8
   1   6  -4 65358.5 5723.39   7
   1   6  -3 13269.3 2006.33   5
   1   6  -3 11559.7 2509.07   9
   1   6  -3 13601.0 2251.99   8
   1   6  -3 14363.7 2537.12   4
   1   6  -3 13669.9 2751.25   7
   1   6  -3 11892.4 1726.96  11
   1   6  -2 19482.4 3017.62   9
   1   6  -2 23918.5 2592.23  11
   1   6  -2 24039.5 3004.10   4
   1   6  -2 19608.8 2811.31   8
   1   6  -2 17820.7 2911.14   7
   1   6  -1 126437. 4023.90   6
   1   6  -1 138481. 7602.98   9
   1   6  -1 130921. 6346.35   4
   1   6  -1 124239. 7004.84   7
   1   6  -1 133583. 6632.11  11
   1   6   0 223178. 9868.06   9
   1   6   0 237603. 8233.09   4
   1   6   0 212460. 9485.85   3
   1   6   0 241589. 9849.19  11
   1   6   1 101632. 6904.26   9
   1   6   1 108823. 5485.27   4
   1   6   1 111801. 5316.71   1
   1   6   1 98470.6 6657.74   3
   1   6   1 113635. 7571.22  11
   1   6   2 33250.6 4238.32   9
   1   6   2 37737.4 3285.46   4
   1   6   2 40222.1 5046.43  11
   1   6   2 39527.2 4548.95   3
   1   6   2 44675.0 3403.05   1
   1   6   3-69.4887 920.607   1
   1   6   3 648.481 1766.28   3
   1   6   3-406.768 1694.05   9
   1   6   3 145.590 889.363   4
   1   6   4 34288.1 4749.49   9
   1   6   4 36803.4 4823.31   3
   1   6   5 88310.4 7681.93   9
   1   6   5 94934.6 8087.89   3
   1   6   6 77748.3 7822.98   9
   1   6   6 78196.2 7943.47   3
   1   6   7 23916.9 5052.98   3
   1   6   7 25579.5 5091.93   9
   1   6   8 1315.37 2286.79   3
   1   6   8 2635.97 2589.24   9
   1   6   9 7173.41 3365.36   3
   1   6   9-1050.19 2506.58   9
   1   6  10 7283.43 4087.61   3
   1   6  10 5632.47 3621.89   9
   1   6  11 14718.7 5194.30   3
   1   6  11 4373.97 3434.39   9
   1   7 -12 6156.34 2922.00  10
   1   7 -12 1788.89 2839.47   7
   1   7 -11 3361.78 3469.97   7
   1   7 -10 21767.8 5739.23   7
   1   7  -9 22259.8 3677.75   5
   1   7  -9 28113.6 5669.39   7
   1   7  -8 14359.8 3861.48   7
   1   7  -8 13171.9 2685.48   5
   1   7  -8 16255.0 2961.77   8
   1   7  -7 5511.35 1818.89   5
   1   7  -7 7236.00 2836.89   7
   1   7  -7 7144.18 2075.16   8
   1   7  -6 11123.9 2184.66   5
   1   7  -6 8797.14 2500.03   9
   1   7  -6 10554.1 2194.73   8
   1   7  -6 7560.88 2756.23   7
   1   7  -5 6831.08 1642.60   5
   1   7  -5 7294.74 2512.14   9
   1   7  -5 8647.07 2038.40   8
   1   7  -5 5989.07 2319.91   7
   1   7  -4 80230.9 4921.16   5
   1   7  -4 75014.2 6356.33   9
   1   7  -4 79880.8 5814.55   8
   1   7  -4 72725.1 6496.79   7
   1   7  -3 125862. 8021.58   9
   1   7  -3 127302. 7600.43   4
   1   7  -3 120442. 7311.95   8
   1   7  -3 125520. 8179.21   7
   1   7  -3 120466. 5776.87  11
   1   7  -2 108762. 7363.33   9
   1   7  -2 99424.4 6393.37   4
   1   7  -2 101510. 7151.69   7
   1   7  -2 98442.1 5702.84  11
   1   7  -1 9696.01 1108.82   6
   1   7  -1 16318.8 3169.75   9
   1   7  -1 11654.3 2247.58   4
   1   7  -1 14764.8 2498.66  11
   1   7   0 29526.7 4078.32   9
   1   7   0 31987.8 3438.01   4
   1   7   0 33186.7 4023.29  11
   1   7   1 161072. 9395.49   9
   1   7   1 156910. 7283.53   4
   1   7   1 176294. 9817.43  11
   1   7   1 160598. 6779.23   1
   1   7   1 138286. 8569.78   3
   1   7   2 140217. 9061.13   9
   1   7   2 145580. 7000.77   4
   1   7   2 143904. 6391.48   1
   1   7   2 150521. 9232.56   3
   1   7   3 55964.0 5963.80   9
   1   7   3 57310.1 4131.93   1
   1   7   3 48979.1 4149.64   4
   1   7   3 67299.8 6584.27   3
   1   7   4-1001.00 1891.73   3
   1   7   4 1679.59 1729.43   9
   1   7   5 29894.5 4985.91   3
   1   7   5 33264.5 5257.01   9
   1   7   6 46432.1 6264.81   9
   1   7   6 43527.9 6255.11   3
   1   7   7 33875.7 5978.59   3
   1   7   7 28353.7 5338.67   9
   1   7   8 9230.77 3473.88   3
   1   7   8 10942.3 3873.64   9
   1   7   9 4934.10 3570.12   3
   1   7   9-5531.75 3294.42   9
   1   7  10 1974.35 2854.39   3
   1   7  10-458.430 2439.16   9
   1   8 -11 9104.01 4665.23   7
   1   8 -10 331.224 2060.58   7
   1   8  -9 23732.6 5259.94   7
   1   8  -8 44305.7 6661.40   7
   1   8  -7 49674.9 4497.07   5
   1   8  -7 57450.8 5529.30   8
   1   8  -7 53495.3 6774.88   7
   1   8  -6 9082.96 1938.35   5
   1   8  -6 8636.72 2732.73   9
   1   8  -6 8827.63 2205.22   8
   1   8  -6 11687.5 3160.90   7
   1   8  -5 1537.27 1154.27   5
   1   8  -5 3777.20 2411.85   9
   1   8  -5 1652.41 1184.12   8
   1   8  -5-1081.43 1800.54   7
   1   8  -4 33448.2 4774.14   9
   1   8  -4 34742.5 4412.49   8
   1   8  -4 32129.5 4692.18   7
   1   8  -3 98173.4 7792.04   9
   1   8  -3 99531.4 5789.83  11
   1   8  -3 94922.5 7701.83   7
   1   8  -2 81233.4 7007.25   9
   1   8  -2 81450.6 5595.32  11
   1   8  -1 48250.2 5444.29   9
   1   8  -1 50401.4 4798.07   4
   1   8  -1 48290.7 4663.25  11
   1   8   0 9526.20 2894.62   9
   1   8   0 8879.51 1951.17   1
   1   8   0 8689.73 2063.08   4
   1   8   1 4649.87 1455.39   1
   1   8   1 9002.60 2765.04   9
   1   8   1 4630.10 1690.71   4
   1   8   2 46242.5 3908.57   1
   1   8   2 48310.0 5944.71   9
   1   8   2 54990.4 4735.71   4
   1   8   2 48914.8 5822.50   3
   1   8   3 99227.8 8464.38   9
   1   8   3 102909. 5740.68   1
   1   8   3 99506.0 6399.38   4
   1   8   3 90829.3 8020.50   3
   1   8   4 53208.2 6602.26   9
   1   8   4 56800.6 6702.73   3
   1   8   5 10088.4 3409.30   3
   1   8   5 8666.20 3231.23   9
   1   8   6 1066.56 1843.23   3
   1   8   6 2611.75 2173.29   9
   1   8   7 7763.72 3558.58   3
   1   8   7 8550.46 3541.32   9
   1   8   8 12834.6 4261.86   3
   1   8   8 8355.47 3701.70   9
   1   8   9 10653.7 4690.29   3
   1   8   9 10866.4 4134.53   9
   1   9 -10 5126.02 2938.93   7
   1   9  -9-275.541 2840.31   7
   1   9  -8 2739.06 2584.71   7
   1   9  -7 30571.6 5683.66   7
   1   9  -6 57157.5 6796.87   9
   1   9  -6 48615.7 6418.28   7
   1   9  -5 18593.0 4118.85   9
   1   9  -5 25284.8 4711.29   7
   1   9  -4 7514.21 2707.66   9
   1   9  -4 8487.63 2912.54   7
   1   9  -3 7117.42 2697.18   9
   1   9  -3 8240.77 1998.61  11
   1   9  -3 6170.01 2702.29   7
   1   9  -2 25925.6 4495.93   9
   1   9  -1 38448.1 5332.97   9
   1   9   0 29059.8 4785.31   9
   1   9   0 27076.3 3269.84   1
   1   9   1 4825.41 1624.26   1
   1   9   1 4236.58 2520.12   9
   1   9   2 187.286 933.087   1
   1   9   2 1613.36 2038.64   9
   1   9   3 7353.95 2797.80   3
   1   9   3 5778.79 2837.03   9
   1   9   3 5753.67 1697.03   1
   1   9   4 21647.7 4803.86   3
   1   9   4 19162.3 4434.01   9
   1   9   5 9276.72 3706.95   3
   1   9   5 15487.6 4334.98   9
   1   9   6 12292.3 4335.82   3
   1   9   6 13649.0 4132.04   9
   1   9   7 3859.67 2942.39   3
   1   9   7-2244.05 2528.90   9
   1  10  -8 5025.15 3244.07   7
   1  10  -7-841.614 1988.46   7
   1  10  -6 9439.12 3520.29   7
   1  10  -6 9287.57 3543.24   9
   1  10  -5 20403.9 4519.75   9
   1  10  -5 22188.1 4883.14   7
   1  10  -4 25197.9 4705.72   9
   1  10  -4 20672.7 4559.09   7
   1  10  -3 10832.4 3624.75   9
   1  10  -2 659.463 2032.01   9
   1  10  -1 414.251 2288.37   9
   1  10  -1 3678.96 1616.65   1
   1  10   0 15811.1 3619.58   9
   1  10   0 20110.3 2999.59   1
   1  10   1 30214.1 5329.51   9
   1  10   1 30616.1 3532.25   1
   1  10   2 18115.3 4392.23   9
   1  10   3 15758.4 4172.68   9
   1  10   4 1073.39 1938.42   9
   1  10   4 1276.66 2455.04   3
   1  10   5 11432.5 4124.96   3
   1  10   5 4302.99 2984.42   9
   1  11  -5-1927.99 3031.65   9
   1  11  -4 7230.38 3434.77   9
   1  11  -3 24568.1 5146.76   9
   1  11  -2 27359.2 5602.48   9
   1  11  -1 8046.25 3497.09   9
   1  11   0-218.815 2020.09   9
   1  11   1 11251.1 3743.84   9
   1  11   2 18502.8 4913.60   9
   2 -11  -3 6817.30 3958.99  11
   2 -11  -3 10338.7 3266.49   8
   2 -11  -3 4282.69 2525.56   4
   2 -11  -2 2838.31 2798.89  11
   2 -11  -2-355.271 1301.14   8
   2 -11  -2 3887.39 2567.09   4
   2 -11  -1 3631.13 1872.85   8
   2 -11  -1-504.744 1836.79   4
   2 -11   0 16030.1 4899.30  11
   2 -11   0 12308.6 3760.15   4
   2 -11   0 6606.43 2108.57   8
   2 -11   1 10498.7 3672.55  11
   2 -11   1 12425.5 3624.49   4
   2 -11   2 14746.0 4730.25  11
   2 -11   2 14333.9 4066.11   4
   2 -11   3 2273.13 2686.13  11
   2 -11   3 10121.8 3821.19   2
   2 -11   3 13430.1 4462.53   4
   2 -11   4-6716.55 3598.75  11
   2 -11   4 3042.94 2325.99   2
   2 -10  -6 1695.70 2976.20   8
   2 -10  -6 104.949 1688.25   4
   2 -10  -6 832.695 2905.32  11
   2 -10  -5 2520.24 2225.74  11
   2 -10  -5-1748.18 3166.85   8
   2 -10  -5 1871.07 2103.74   4
   2 -10  -4 4802.38 3183.76  11
   2 -10  -4-1634.94 2137.26   8
   2 -10  -4 2655.84 2289.11   4
   2 -10  -3 24106.4 5675.19  11
   2 -10  -3 19819.5 4113.38   8
   2 -10  -3 28660.8 4859.42   4
   2 -10  -2 34987.1 6369.92  11
   2 -10  -2 28335.8 4350.16   8
   2 -10  -2 29067.5 4919.26   4
   2 -10  -1 16447.4 3135.10   8
   2 -10  -1 12135.8 3345.14   4
   2 -10  -1 11585.8 3829.12  11
   2 -10   0-2614.44 2307.36  11
   2 -10   0 1750.18 1615.55   8
   2 -10   0-2739.63 2131.60   4
   2 -10   1 1837.42 2187.43  11
   2 -10   1 1895.03 1229.97   8
   2 -10   1 3920.67 2441.82   4
   2 -10   2 8958.87 1989.39   8
   2 -10   2 7095.32 2557.06   4
   2 -10   2 11031.7 3444.36  11
   2 -10   3 13180.0 3867.38   4
   2 -10   3 14442.2 4190.12  11
   2 -10   4 9596.89 3744.39   4
   2 -10   4 8805.23 3434.88   2
   2 -10   4 10380.1 3599.36  11
   2 -10   5 6195.09 3047.96   2
   2 -10   5 5212.70 2903.92  11
   2 -10   6-1098.41 2416.34   2
   2 -10   7 3457.42 2821.01   2
   2  -9  -8-378.765 3496.97  11
   2  -9  -8-3923.41 2438.84   4
   2  -9  -7 4883.87 3843.60  11
   2  -9  -7 8377.35 2897.94   4
   2  -9  -6 18928.0 5218.90  11
   2  -9  -6 22449.7 5746.41   8
   2  -9  -6 19253.3 4042.01   4
   2  -9  -5 23170.0 5398.45  11
   2  -9  -5 33531.7 6245.67   8
   2  -9  -5 25180.3 4590.48   4
   2  -9  -4 10790.3 3209.99   8
   2  -9  -4 7807.08 2690.18   4
   2  -9  -4 12030.9 4097.17  11
   2  -9  -3-189.306 1869.71   8
   2  -9  -3-366.211 1850.31   4
   2  -9  -3 3083.16 2064.97  11
   2  -9  -2 29690.9 2518.19   5
   2  -9  -2 35893.0 5931.04  11
   2  -9  -2 28423.0 4177.25   8
   2  -9  -2 35748.5 5065.54   4
   2  -9  -1 67897.0 6728.18   4
   2  -9  -1 69297.1 5880.35   8
   2  -9  -1 64382.1 7468.68  11
   2  -9   0 65201.7 6779.55   4
   2  -9   0 61819.9 5119.66   8
   2  -9   0 67725.0 7566.92  11
   2  -9   1 21229.9 2891.79   8
   2  -9   1 22958.0 4117.27   4
   2  -9   1 17091.5 4149.83  11
   2  -9   2 959.649 1270.32   8
   2  -9   2 1448.07 1909.37   4
   2  -9   2 4574.66 2476.30  11
   2  -9   3 28239.3 2764.77   8
   2  -9   3 26873.7 4693.42   4
   2  -9   3 34622.2 5410.60  11
   2  -9   4 48212.6 6566.69   4
   2  -9   4 43359.0 6063.85   2
   2  -9   4 45066.7 6064.99  11
   2  -9   5 25795.5 5104.14   2
   2  -9   5 27209.7 4810.36  11
   2  -9   6 12246.9 4028.94   2
   2  -9   6 18539.5 4141.90  11
   2  -9   7 6802.57 3662.11   2
   2  -9   7 3411.62 2338.78  11
   2  -9   8 791.964 2560.17   2
   2  -9   9 9707.73 4507.53   2
   2  -8 -10 3195.56 2801.46  11
   2  -8 -10 12511.0 4321.06   4
   2  -8  -9 10710.2 4585.69  11
   2  -8  -9 7219.59 2929.64   4
   2  -8  -8 4106.90 3148.46  11
   2  -8  -8 1522.68 1936.07   4
   2  -8  -7 393.840 2532.53  11
   2  -8  -7 701.384 1770.58   4
   2  -8  -6 13164.9 4143.36  11
   2  -8  -6 10841.8 3174.85   4
   2  -8  -5 46058.3 5530.04   4
   2  -8  -5 50024.7 7147.19  11
   2  -8  -4 54366.9 5765.01   4
   2  -8  -4 61757.3 7446.58  11
   2  -8  -3 30883.4 4432.40   4
   2  -8  -3 37155.6 5053.59   8
   2  -8  -3 30861.2 5186.81  11
   2  -8  -2 1177.00 1606.11   8
   2  -8  -2 384.029 1668.30   4
   2  -8  -2 1993.84 1796.35  11
   2  -8  -1 9739.72 1083.98   5
   2  -8  -1 14156.7 2600.66   8
   2  -8  -1 14696.3 3133.90   4
   2  -8  -1 10353.1 3081.93  11
   2  -8   0 64524.1 6166.24   4
   2  -8   0 64409.3 4848.35   8
   2  -8   0 67733.5 6744.04  11
   2  -8   1 103261. 7889.32   4
   2  -8   1 103368. 5569.71   8
   2  -8   1 114982. 8545.51  11
   2  -8   2 45838.8 5539.54   4
   2  -8   2 55266.4 3768.56   8
   2  -8   2 49414.8 5568.33  11
   2  -8   3 1983.72 862.382   8
   2  -8   3 2704.41 1877.09   4
   2  -8   3 2657.50 1610.47  11
   2  -8   4 22220.6 3822.42  11
   2  -8   4 22547.6 1832.27   8
   2  -8   4 21536.3 4176.80   2
   2  -8   4 17252.7 3829.61   4
   2  -8   5 42298.6 5817.73   2
   2  -8   5 45472.6 5413.84  11
   2  -8   6 53458.7 6053.16  11
   2  -8   6 52748.0 6820.20   2
   2  -8   7 17723.8 4363.14   2
   2  -8   7 14854.8 3661.67  11
   2  -8   8 2640.78 3111.83   2
   2  -8   8-831.445 1485.24  11
   2  -8   9 3245.41 2796.76   2
   2  -8  10 9806.26 4264.11   2
   2  -7 -11-3694.41 3565.27  11
   2  -7 -11-919.474 2441.75   4
   2  -7 -10 2684.72 2656.46  11
   2  -7 -10-893.133 2212.60   4
   2  -7  -9 20248.4 5906.70  11
   2  -7  -9 20006.2 4403.50   4
   2  -7  -8 21694.9 4469.18   4
   2  -7  -8 18312.0 5090.60  11
   2  -7  -7 24942.4 5155.11  11
   2  -7  -7 22131.7 4185.30   4
   2  -7  -6 3452.28 2859.85  11
   2  -7  -6-142.027 1743.50   4
   2  -7  -5 29002.6 5036.79  11
   2  -7  -5 30954.3 4359.04   4
   2  -7  -4 70023.0 6154.50   4
   2  -7  -4 68205.0 7193.41  11
   2  -7  -3 61109.7 5640.49   4
   2  -7  -3 70969.6 7025.41  11
   2  -7  -2 46468.0 4861.06   4
   2  -7  -2 46849.3 5529.43  11
   2  -7  -1 9189.59 1102.36   5
   2  -7  -1 6006.94 2367.98  11
   2  -7  -1 8117.05 2021.42   8
   2  -7  -1 10906.6 2467.60   4
   2  -7   0 230.725 957.828   8
   2  -7   0 1165.79 1359.44   4
   2  -7   0 696.876 1495.51  11
   2  -7   1 67095.0 5978.60   4
   2  -7   1 61106.5 5629.89  11
   2  -7   1 72752.5 4226.74   8
   2  -7   2 101052. 7447.87   4
   2  -7   2 100617. 4460.76   8
   2  -7   2 104010. 7075.81  11
   2  -7   3 81141.2 6352.53  11
   2  -7   3 94404.6 7423.51   4
   2  -7   3 85955.5 3610.62   8
   2  -7   4 38198.6 5096.65   4
   2  -7   4 35429.7 1799.14   8
   2  -7   4 41539.0 4533.31  11
   2  -7   5 2231.71 663.317   6
   2  -7   5 3059.60 2273.99   2
   2  -7   5 4937.50 1959.25  11
   2  -7   6 5951.34 1287.49   6
   2  -7   6 11437.3 3235.49   2
   2  -7   6 7527.91 2342.45  11
   2  -7   7 31591.7 5402.41   2
   2  -7   7 34737.6 4548.22  11
   2  -7   8 19537.1 4647.40   2
   2  -7   8 26707.6 4339.76  11
   2  -7   9 7491.69 3999.96   2
   2  -7   9 6483.68 2234.49  11
   2  -7  10 2209.27 2485.67   2
   2  -7  11 362.161 2414.54   2
   2  -6 -12-816.913 2368.74   4
   2  -6 -11-1348.50 3236.72  11
   2  -6 -11 1027.37 1991.40   4
   2  -6 -10 112.459 2954.08  11
   2  -6 -10 1237.17 1927.85   4
   2  -6  -9-1392.53 2119.82  11
   2  -6  -9 1102.73 1946.14   4
   2  -6  -8 11858.8 3831.35  11
   2  -6  -8 11688.6 1507.34   1
   2  -6  -8 9426.02 2655.13   4
   2  -6  -7 41090.0 5361.99   4
   2  -6  -7 47727.1 6643.28  11
   2  -6  -6 54974.9 5650.33   4
   2  -6  -6 61291.4 6954.47  11
   2  -6  -5 14119.0 3569.03  11
   2  -6  -5 11608.4 2473.19   9
   2  -6  -5 11806.0 2900.50   4
   2  -6  -4-546.056 1729.38  11
   2  -6  -4 3580.29 1272.18   9
   2  -6  -4 2276.41 1317.86   4
   2  -6  -3 33110.0 3821.34   9
   2  -6  -3 26667.0 3630.49   4
   2  -6  -3 29959.7 3683.33   3
   2  -6  -3 27494.7 4095.86  11
   2  -6  -2 72012.8 5403.25   9
   2  -6  -2 69662.4 5471.16   4
   2  -6  -2 71359.5 5598.86   3
   2  -6  -2 64380.0 5801.68  11
   2  -6  -1 66104.6 5209.76   9
   2  -6  -1 72994.9 5608.77   4
   2  -6  -1 70254.3 5623.94   7
   2  -6  -1 70888.7 5480.20   3
   2  -6  -1 67237.5 5651.52  11
   2  -6   0 57947.5 5021.16   4
   2  -6   0 54002.1 4750.21   9
   2  -6   0 59449.1 4050.43   8
   2  -6   0 62221.6 5191.08   7
   2  -6   0 57371.8 5040.59  11
   2  -6   0 61755.5 5194.15   3
   2  -6   1 13461.2 2481.53   9
   2  -6   1 11792.6 1668.83   8
   2  -6   1 10915.0 2357.49   4
   2  -6   1 9773.43 2171.95   7
   2  -6   1 11560.7 2327.45  11
   2  -6   2 3208.68 1458.49   9
   2  -6   2 4618.08 958.777   8
   2  -6   2 5047.11 1779.98   4
   2  -6   2 3049.05 1332.06   7
   2  -6   2 3163.73 1619.36  11
   2  -6   3 51955.8 5192.64   4
   2  -6   3 52036.8 2278.08   8
   2  -6   3 56955.6 4731.13  11
   2  -6   3 49704.2 2593.92   6
   2  -6   4 130889. 4744.67   6
   2  -6   4 135451. 8657.96   4
   2  -6   4 134643. 7466.65  11
   2  -6   5 99321.1 4834.23   6
   2  -6   5 98776.4 7669.46   2
   2  -6   5 102305. 6639.49  11
   2  -6   6 23857.2 4244.53   2
   2  -6   7 9781.98 3183.58   2
   2  -6   8 32382.8 5601.29   2
   2  -6   9 40577.5 6628.56   2
   2  -6  10 26747.1 5910.78   2
   2  -6  11 3437.79 2638.16   2
   2  -6  12 3713.97 3461.10   2
   2  -5 -13-290.119 2492.21   7
   2  -5 -13-2339.65 2677.43   4
   2  -5 -12 6951.93 3433.44   4
   2  -5 -11-2188.88 3037.35  11
   2  -5 -11 8566.32 3781.07   4
   2  -5 -10 10806.2 3962.69  11
   2  -5 -10 20377.3 4875.12   4
   2  -5  -9 16183.2 4576.22  11
   2  -5  -9 15393.7 2783.31   1
   2  -5  -9 22707.8 4676.03   4
   2  -5  -8 2802.56 2262.84  11
   2  -5  -8 1711.66 1133.88   1
   2  -5  -8 157.675 1742.28   4
   2  -5  -7 2891.89 1923.96  11
   2  -5  -7 71.6805 1374.55   4
   2  -5  -7 3173.87 946.063   1
   2  -5  -6 114518. 7150.50   9
   2  -5  -6 120612. 7857.86   4
   2  -5  -6 130390. 7873.73   2
   2  -5  -6 116137. 3380.94   1
   2  -5  -6 130118. 7798.74   3
   2  -5  -6 125309. 9053.85  11
   2  -5  -5 149894. 7664.25   9
   2  -5  -5 162048. 8644.30   4
   2  -5  -5 160446. 8339.82   2
   2  -5  -5 141137. 9072.56  11
   2  -5  -5 163323. 8280.24   3
   2  -5  -4 162391. 7711.32   9
   2  -5  -4 161065. 8233.26   4
   2  -5  -4 166026. 8042.32   3
   2  -5  -3 28248.2 3149.83   9
   2  -5  -3 25509.3 3279.46   4
   2  -5  -3 28146.7 3269.78   3
   2  -5  -2 53706.4 4182.90   9
   2  -5  -2 50911.3 4385.48   4
   2  -5  -2 51602.4 4276.56   3
   2  -5  -2 50091.0 4659.33  11
   2  -5  -1 283662. 9466.26   9
   2  -5  -1 292807. 10390.2  11
   2  -5  -1 283660. 9962.27   4
   2  -5  -1 283359. 10097.3   7
   2  -5  -1 300613. 10141.1   3
   2  -5   0 271071. 9403.08   9
   2  -5   0 247179. 9342.49   4
   2  -5   0 267564. 9622.81   7
   2  -5   0 246813. 9290.16  11
   2  -5   1 214896. 8591.89   9
   2  -5   1 190412. 8326.93   4
   2  -5   1 204655. 5663.31   8
   2  -5   1 221227. 8754.81   7
   2  -5   1 192887. 8084.41  11
   2  -5   2 22558.4 2951.20   9
   2  -5   2 19225.2 1379.08   8
   2  -5   2 18529.5 2887.18   4
   2  -5   2 19435.7 2658.48  11
   2  -5   2 17101.8 2628.44   7
   2  -5   2 20472.2 1804.35   6
   2  -5   3 7015.51 1188.01   6
   2  -5   3 5617.46 1712.38   9
   2  -5   3 6332.76 2024.94   4
   2  -5   3 8070.85 1980.32   7
   2  -5   3 7090.11 1683.76  11
   2  -5   4 19004.3 3117.22   9
   2  -5   4 20089.2 3249.80   4
   2  -5   4 17480.9 2830.77   7
   2  -5   5 99354.1 6800.61   7
   2  -5   5 96750.0 7051.74   2
   2  -5   6 118883. 8346.23   2
   2  -5   7 62094.2 6664.36   2
   2  -5   8 372.515 2329.44   2
   2  -5   9 9108.04 3540.53   2
   2  -5  10 28085.6 6275.86   2
   2  -5  11 14948.9 4666.40   2
   2  -5  12 6096.12 3641.59   2
   2  -4 -13 4820.96 3705.87   7
   2  -4 -13 6449.04 3947.42   4
   2  -4 -12-1739.83 2937.41   7
   2  -4 -12 47.9976 2663.94   4
   2  -4 -11-103.298 2991.30  11
   2  -4 -11 2445.69 2964.48   4
   2  -4 -10 17136.5 4634.91  11
   2  -4 -10 19018.1 4657.06   4
   2  -4  -9 36578.8 6007.05  11
   2  -4  -9 44051.7 6041.52   4
   2  -4  -8 50012.4 5362.82   3
   2  -4  -8 53538.1 6176.38   4
   2  -4  -8 53712.8 6461.69  11
   2  -4  -7 22484.8 3297.77   3
   2  -4  -7 27137.9 3921.80   2
   2  -4  -7 21755.5 3835.81   4
   2  -4  -7 23443.3 4064.19  11
   2  -4  -6 1417.61 1657.10  11
   2  -4  -6-128.442 906.593   2
   2  -4  -6-278.769 744.406   3
   2  -4  -6 497.606 907.377   9
   2  -4  -6-335.401 1585.43   4
   2  -4  -5 88917.1 5308.84   9
   2  -4  -5 86570.2 2946.17   1
   2  -4  -5 88499.5 6167.39   4
   2  -4  -5 88452.7 5952.94   2
   2  -4  -5 89693.7 5594.45   3
   2  -4  -4 195426. 7447.81   9
   2  -4  -4 200841. 8660.35   4
   2  -4  -4 200915. 7989.98   3
   2  -4  -3 326172. 9176.16   9
   2  -4  -3 327799. 10520.5   4
   2  -4  -3 322642. 9699.65   3
   2  -4  -2 127316. 5617.00   9
   2  -4  -2 120734. 6127.03   4
   2  -4  -2 123512. 5873.10   3
   2  -4  -1 15844.9 2042.65   9
   2  -4  -1 12574.6 2006.53   7
   2  -4  -1 12621.9 2154.61   4
   2  -4  -1 13374.5 2001.42   3
   2  -4   0 204872. 3556.20   5
   2  -4   0 225046. 7593.96   9
   2  -4   0 224196. 8069.53   4
   2  -4   0 234522. 8057.73   7
   2  -4   0 232487. 8200.01  11
   2  -4   1 424948. 10993.9   9
   2  -4   1 428596. 11339.8   4
   2  -4   1 429548. 10865.8   7
   2  -4   1 417291. 10817.5  11
   2  -4   1 407734. 8109.26   6
   2  -4   2 254216. 6731.49   6
   2  -4   2 264882. 9254.03   9
   2  -4   2 252704. 9112.11   4
   2  -4   2 250304. 3469.37   8
   2  -4   2 270768. 8829.14   7
   2  -4   3 34793.9 3686.25   4
   2  -4   3 38662.4 3567.50   7
   2  -4   4 4745.51 1832.90   2
   2  -4   4 2509.53 1324.54   4
   2  -4   4 4308.96 1338.52   7
   2  -4   5 36529.5 3937.17   7
   2  -4   5 41559.0 4389.94   2
   2  -4   6 63016.4 5708.75   7
   2  -4   6 51546.0 5296.82   2
   2  -4   7 84456.2 7301.20   7
   2  -4   7 80057.3 7291.32   2
   2  -4   8 43813.7 6018.07   2
   2  -4   9 18891.0 4578.10   2
   2  -4  10-1442.35 2309.05   2
   2  -4  11 8552.45 3699.21   2
   2  -4  12 3653.02 3789.26   3
   2  -4  12 8111.43 3456.45   2
   2  -4  13 1018.62 2469.79   3
   2  -4  13 6288.41 3544.08   2
   2  -3 -14 2453.26 3302.23   7
   2  -3 -13 8283.00 4366.61   7
   2  -3 -12 12397.8 4959.48   7
   2  -3 -11 1108.68 2418.95  11
   2  -3 -11 65.3829 2948.71   7
   2  -3 -10 1264.48 2094.06  11
   2  -3 -10 3137.95 2833.98   7
   2  -3  -9 40239.9 5767.29  11
   2  -3  -9 42238.6 5378.72   3
   2  -3  -8 93114.0 7104.18   3
   2  -3  -8 89558.6 7973.94   4
   2  -3  -8 96452.5 7663.51   2
   2  -3  -8 89083.1 7723.26  11
   2  -3  -7 98970.7 6496.04   3
   2  -3  -7 104714. 7747.62   4
   2  -3  -7 103608. 7289.03   2
   2  -3  -7 104775. 7533.58  11
   2  -3  -6 59630.2 4550.69   3
   2  -3  -6 59262.6 5271.97  11
   2  -3  -6 54270.6 5198.37   4
   2  -3  -6 57725.1 5061.13   2
   2  -3  -5 18207.8 2733.59   2
   2  -3  -5 16622.7 2243.80   3
   2  -3  -5 13825.9 1952.62   9
   2  -3  -5 14379.7 2589.74   4
   2  -3  -5 20082.2 2901.33  11
   2  -3  -4 63341.7 3690.17   9
   2  -3  -4 67784.9 4933.04   4
   2  -3  -4 63261.4 3986.58   3
   2  -3  -3 307753. 7582.89   9
   2  -3  -3 319319. 8393.47   3
   2  -3  -3 305728. 9582.32   4
   2  -3  -2 350155. 7881.71   9
   2  -3  -2 356930. 8631.99   3
   2  -3  -1 211667. 6094.02   9
   2  -3  -1 218952. 7285.00   4
   2  -3   0 46732.9 3072.22   9
   2  -3   0 46638.9 3379.79   4
   2  -3   0 46580.3 1995.16   5
   2  -3   0 46919.7 2840.02   6
   2  -3   0 49158.8 3256.77   7
   2  -3   1 17069.3 1780.22   6
   2  -3   1 19421.3 2203.64   9
   2  -3   1 17633.2 2205.71   4
   2  -3   1 18234.2 2002.25   7
   2  -3   2 246386. 8065.95   4
   2  -3   2 260199. 7620.98   7
   2  -3   3 154833. 6841.17   4
   2  -3   3 158151. 6389.25   7
   2  -3   4 192074. 7960.03   2
   2  -3   4 181095. 8076.42   4
   2  -3   4 204917. 7954.00   7
   2  -3   5 18470.2 2930.74   2
   2  -3   5 21876.4 2974.50   7
   2  -3   6 1783.99 1516.03   2
   2  -3   6 1468.85 1215.60   7
   2  -3   7 34732.0 4889.37   7
   2  -3   7 26150.1 4223.29   2
   2  -3   8 45311.5 6400.64   7
   2  -3   8 42528.3 5908.96   2
   2  -3   9 23639.7 4952.29   2
   2  -3  10 13565.4 3956.64   2
   2  -3  11-3689.94 3103.76   3
   2  -3  11-4313.42 2925.81   2
   2  -3  12-406.229 2143.43   3
   2  -3  12 2177.94 2469.59   2
   2  -3  13 5945.55 3726.70   2
   2  -3  13 8895.92 3757.48   3
   2  -2 -14 272.760 2878.52   7
   2  -2 -13 2155.64 2748.36   7
   2  -2 -12 5777.71 3825.72   7
   2  -2 -11 23340.7 6017.18   7
   2  -2 -10 15219.2 3928.99  11
   2  -2 -10 17832.7 4927.63   7
   2  -2  -9 915.320 1516.24  11
   2  -2  -9-528.298 1739.64   3
   2  -2  -9-4434.41 2873.70   7
   2  -2  -8 11679.6 2849.38  11
   2  -2  -8 7107.52 2309.22   2
   2  -2  -8 5557.16 2110.60   3
   2  -2  -7 86204.0 6013.12   3
   2  -2  -7 92117.7 7032.11   2
   2  -2  -7 84818.2 6257.86  11
   2  -2  -6 111091. 5857.62   3
   2  -2  -6 125547. 7452.06   2
   2  -2  -6 117775. 6714.92  11
   2  -2  -5 88586.8 4539.68   3
   2  -2  -5 85887.3 5273.21  11
   2  -2  -4 13289.8 1611.74   3
   2  -2  -4 10420.9 1342.21   9
   2  -2  -4 11297.7 2027.58   4
   2  -2  -4 14328.1 2076.82  11
   2  -2  -3 4530.80 902.272   3
   2  -2  -3 4921.46 835.260   9
   2  -2  -3 3764.95 1180.27   4
   2  -2  -2 52203.7 2406.20   9
   2  -2  -2 53243.4 3496.79   4
   2  -2  -2 51313.2 1826.23   1
   2  -2  -2 49047.1 2661.13   3
   2  -2  -1 264470. 5565.41   9
   2  -2  -1 261835. 4609.35   1
   2  -2  -1 266633. 7271.97   4
   2  -2  -1 256529. 6803.11   6
   2  -2   0 394881. 6610.89   5
   2  -2   0 383731. 7688.90   9
   2  -2   0 390867. 8240.44   6
   2  -2   0 383388. 8364.31   4
   2  -2   0 397740. 7654.87   7
   2  -2   1 293783. 7370.93   6
   2  -2   1 301171. 7492.18   4
   2  -2   1 298175. 4428.76   8
   2  -2   1 304422. 6679.84   7
   2  -2   2 29033.5 2519.03   4
   2  -2   2 25617.3 1047.64   8
   2  -2   2 25517.2 2094.87   7
   2  -2   3 60137.7 3916.77   4
   2  -2   3 59367.1 3580.55   7
   2  -2   4 261878. 13640.0  10
   2  -2   4 234339. 8227.43   7
   2  -2   4 238169. 8245.34   2
   2  -2   5 385738. 16073.2  10
   2  -2   5 348568. 11899.4   7
   2  -2   5 359101. 11497.2   2
   2  -2   6 152841. 9348.25   7
   2  -2   6 146837. 8519.35   2
   2  -2   7 12675.4 3254.97   7
   2  -2   7 13929.5 3248.42   2
   2  -2   8 4243.48 2519.03   2
   2  -2   8 1484.01 1638.46   7
   2  -2   9 24030.0 5695.91   3
   2  -2   9 19216.3 4248.58   2
   2  -2  10 21018.2 5266.44   3
   2  -2  10 30948.2 5400.51   2
   2  -2  11 5979.00 3094.31   3
   2  -2  11 10605.0 3227.42   2
   2  -2  12-1770.52 2416.55   2
   2  -2  12-5203.56 3113.13   3
   2  -2  13 2344.61 2190.80   2
   2  -2  13-1055.30 2562.90   3
   2  -1 -15 4569.76 2936.75   7
   2  -1 -14 3260.40 2824.91   7
   2  -1 -13-307.884 2036.29   7
   2  -1 -12 1903.44 2346.84   7
   2  -1 -11 4937.21 2719.05   7
   2  -1 -10 34138.4 6522.64   7
   2  -1 -10 39724.9 5665.84  11
   2  -1  -9 77618.8 9293.10   7
   2  -1  -9 83656.6 7340.65  11
   2  -1  -8 76523.1 6218.04  11
   2  -1  -8 67690.3 8384.70   7
   2  -1  -8 71300.0 7350.83   2
   2  -1  -7 4164.71 2215.20   2
   2  -1  -7 1021.17 1044.70   3
   2  -1  -7 5684.34 1797.20  11
   2  -1  -6 180622. 7734.21   3
   2  -1  -6 175194. 7372.00  11
   2  -1  -5 359705. 8722.63   3
   2  -1  -5 356319. 9418.45  11
   2  -1  -4 417988. 7391.16   3
   2  -1  -4 415824. 9202.96  11
   2  -1  -3 266294. 6780.52  11
   2  -1  -3 262874. 4862.08   3
   2  -1  -2 5536.30 1146.93   6
   2  -1  -2 2596.82 1534.00  10
   2  -1  -2 5912.61 529.608   9
   2  -1  -2 5229.77 1182.29   4
   2  -1  -1 57151.0 2095.47   9
   2  -1  -1 53551.3 2768.46   5
   2  -1  -1 57769.6 3071.13   4
   2  -1  -1 59039.4 2461.96   1
   2  -1  -1 55993.6 3160.97   6
   2  -1   0 285023. 7107.37   6
   2  -1   0 281467. 6285.65   5
   2  -1   0 283652. 6013.57   1
   2  -1   0 295375. 5618.25   8
   2  -1   0 290167. 6268.10   4
   2  -1   1 460487. 7832.81   4
   2  -1   1 458979. 6284.10   8
   2  -1   2 415394. 8056.97   4
   2  -1   2 424187. 6284.36   8
   2  -1   2 427498. 7184.82   7
   2  -1   3 148642. 10139.9  10
   2  -1   3 140720. 5058.81   2
   2  -1   3 142359. 5430.13   4
   2  -1   3 150051. 5561.41   7
   2  -1   4-337.281 803.713   2
   2  -1   4 1194.28 1591.52  10
   2  -1   4 221.480 831.090   7
   2  -1   5 239341. 11373.4   7
   2  -1   5 245814. 9660.74   2
   2  -1   6 202580. 14106.4   3
   2  -1   6 198146. 11111.7   7
   2  -1   6 229056. 11165.3   2
   2  -1   7 147177. 9420.37  10
   2  -1   7 113481. 10931.1   3
   2  -1   7 122363. 9330.84   7
   2  -1   7 140386. 9485.43   2
   2  -1   8 25052.1 3861.05  10
   2  -1   8 18175.8 4793.62   3
   2  -1   8 22746.3 4093.56   2
   2  -1   9 1536.76 2266.92   3
   2  -1   9-615.467 1913.06   2
   2  -1  10 14580.4 3486.32   2
   2  -1  10 6984.58 3324.18   3
   2  -1  11 24628.4 4324.24   2
   2  -1  11 35172.4 6344.41   3
   2  -1  12 9858.31 3192.57   2
   2  -1  12 23095.8 5339.12   3
   2  -1  13 6310.98 2790.32   2
   2  -1  13 8234.65 3399.20   3
   2   0 -15 1641.72 2696.81   7
   2   0 -14 3188.90 2889.10   7
   2   0 -13 9019.67 3499.87   7
   2   0 -12 4247.75 2913.01   7
   2   0 -11 3169.74 2628.36   7
   2   0 -10 2601.25 2840.98   7
   2   0  -9 48111.3 5429.09  11
   2   0  -9 59400.7 7762.74   7
   2   0  -8 165482. 12152.3   2
   2   0  -8 168808. 8691.64  11
   2   0  -7 211260. 8366.24  11
   2   0  -6 33687.3 2412.10  10
   2   0  -6 37650.3 3065.77  11
   2   0  -5 33864.5 3053.64  10
   2   0  -5 35431.1 2641.94  11
   2   0  -4 502451. 13474.0  10
   2   0  -4 444959. 8020.60  11
   2   0  -3 832850. 18716.4  10
   2   0  -3 818025. 10290.6  11
   2   0  -2 558635. 14971.3   7
   2   0  -2 575896. 10304.7   6
   2   0  -1 12900.8 1517.80   5
   2   0  -1 16285.2 1479.51   4
   2   0  -1 16906.7 1616.86   2
   2   0  -1 15449.7 1701.57   6
   2   0   0 166150. 5539.28   6
   2   0   0 163761. 5256.58   5
   2   0   0 172666. 4026.07   4
   2   0   0 170265. 4156.83   2
   2   0   1 170589. 3787.11   4
   2   0   1 170841. 4637.33   8
   2   0   2 328055. 17187.0   3
   2   0   2 329524. 6059.29   4
   2   0   2 332936. 6959.24   8
   2   0   2 343177. 9227.34   7
   2   0   3 313309. 16978.6   3
   2   0   3 308301. 13199.3  10
   2   0   3 318416. 7166.93   2
   2   0   4 206630. 11156.5  10
   2   0   4 233689. 14762.2   3
   2   0   4 207691. 8074.51   2
   2   0   5 41420.8 5131.99  10
   2   0   5 47801.7 6926.99   3
   2   0   5 39514.3 4132.06   2
   2   0   6 16333.1 3298.76  10
   2   0   6 22005.5 4872.42   3
   2   0   6 15850.9 2857.00   2
   2   0   7 70382.9 8539.62   3
   2   0   7 74621.7 6784.59  10
   2   0   7 70104.2 5972.57   2
   2   0   8 90790.0 9630.66   3
   2   0   8 89084.0 7371.68  10
   2   0   8 77476.6 6608.33   2
   2   0   9 36167.8 4685.66  10
   2   0   9 38635.6 6333.22   3
   2   0   9 35597.2 4662.82   2
   2   0  10 2698.80 1483.37  10
   2   0  10 2064.48 1861.67   2
   2   0  10 3707.78 2844.80   3
   2   0  11 4561.60 2214.61   2
   2   0  11 3396.68 2266.80   3
   2   0  12 3723.41 2319.61   2
   2   0  12-293.686 1904.40   3
   2   0  13 1793.11 1972.77   2
   2   0  13 8565.28 3755.67   3
   2   1 -15-4955.51 2988.26   7
   2   1 -14 2025.34 2035.60   7
   2   1 -13 17545.0 4884.86   7
   2   1 -12 10652.6 3982.80   7
   2   1 -11 32818.2 5955.08   7
   2   1 -10 2371.29 2247.50   7
   2   1  -9 6015.11 3061.71   7
   2   1  -8 61738.8 3097.00  10
   2   1  -8 79273.1 8678.08   2
   2   1  -7 173151. 6254.03  10
   2   1  -7 182194. 7263.51  11
   2   1  -6 269746. 8882.96  10
   2   1  -6 254741. 6823.80  11
   2   1  -5 76519.1 4957.52  10
   2   1  -5 77492.0 3109.22  11
   2   1  -4 6384.80 1601.81  10
   2   1  -4 8084.36 896.174  11
   2   1  -3 355504. 10903.7  10
   2   1  -3 353692. 5485.60   9
   2   1  -3 374340. 13873.6   7
   2   1  -2 618828. 14401.3  10
   2   1  -2 579310. 10866.3   5
   2   1  -2 600561. 7137.31   9
   2   1  -2 605421. 5683.58   3
   2   1  -2 608057. 10571.5   6
   2   1  -2 589203. 12631.3   7
   2   1  -2 573890. 16575.4   2
   2   1  -1 485136. 9757.82   5
   2   1  -1 491610. 7468.08   9
   2   1  -1 484915. 7457.12   7
   2   1  -1 487924. 9474.70   6
   2   1  -1 467337. 7326.16   3
   2   1   0 130591. 5111.78   5
   2   1   0 131460. 2991.43   4
   2   1   0 132939. 2518.57   7
   2   1   0 123488. 5386.08   2
   2   1   0 135397. 4769.67   9
   2   1   1 8960.61 1656.39   9
   2   1   1 6934.06 1738.16   3
   2   1   2 68618.9 6005.55   3
   2   1   2 77970.6 5609.23  10
   2   1   2 67647.2 3730.67   8
   2   1   3 170928. 10918.3   3
   2   1   3 190673. 9205.43  10
   2   1   3 168584. 4619.24   2
   2   1   4 132126. 10588.1   3
   2   1   4 138585. 8224.20  10
   2   1   4 128527. 5467.44   2
   2   1   5 115518. 10582.3   3
   2   1   5 117136. 7875.89  10
   2   1   5 122267. 6411.76   2
   2   1   6 41549.5 5021.34  10
   2   1   6 44434.0 7025.33   3
   2   1   6 44420.7 4519.33   2
   2   1   7-156.673 1490.66  11
   2   1   7 3629.46 1592.74  10
   2   1   7 3738.47 1834.71   3
   2   1   8 12616.7 2925.83  10
   2   1   8 16902.2 3167.57   2
   2   1   9 58967.3 8213.05   3
   2   1   9 45599.2 5259.11  10
   2   1   9 59812.5 6144.04   2
   2   1  10 65998.4 8674.47   3
   2   1  10 50906.7 5412.83  10
   2   1  10 63762.2 6597.44   2
   2   1  11 13560.6 3240.40   2
   2   1  11 12663.9 4015.49   3
   2   1  12 3175.80 2064.08   2
   2   1  12 2098.06 2261.14   3
   2   1  12 2396.82 2720.63   9
   2   1  13 100.664 1665.35   3
   2   1  13 3036.07 2929.44   9
   2   2 -15 5881.97 3338.41   7
   2   2 -14 978.574 1964.87   7
   2   2 -13 1882.80 2521.17   7
   2   2 -12 4057.83 2732.36   7
   2   2 -11 14037.6 1121.28  10
   2   2 -11 8584.19 1043.69  10
   2   2 -11 18711.5 4875.26   7
   2   2 -10 46898.7 3200.51  10
   2   2 -10 43537.0 2892.95  10
   2   2 -10 52754.5 7475.97   7
   2   2  -9 19669.5 4697.92   7
   2   2  -8-132.319 2432.16   7
   2   2  -8-2563.24 1924.93   2
   2   2  -7 9375.59 2359.98   8
   2   2  -6 82825.0 5702.79   8
   2   2  -5 148305. 6886.87   8
   2   2  -5 146121. 2974.07  11
   2   2  -4 292572. 6951.46   9
   2   2  -4 293814. 8842.97   8
   2   2  -4 306273. 11409.2   7
   2   2  -3 200101. 5384.89   9
   2   2  -3 188690. 6759.62   5
   2   2  -3 208130. 7665.24   7
   2   2  -3 205843. 6297.60   6
   2   2  -2 5418.32 1073.04   6
   2   2  -2 4291.55 764.039   3
   2   2  -2 5022.23 1145.05   5
   2   2  -2 4455.36 927.718   9
   2   2  -2 4519.35 1064.33   7
   2   2  -2 4408.52 1608.09   2
   2   2  -1 128737. 4981.20   6
   2   2  -1 140367. 5598.49   5
   2   2  -1 119269. 4521.88   9
   2   2  -1 137208. 4328.34   7
   2   2  -1 130372. 5454.95   2
   2   2  -1 128920. 4388.59   3
   2   2   0 505681. 10858.2   5
   2   2   0 507540. 10232.9   9
   2   2   0 496399. 7127.17   7
   2   2   0 500526. 7006.73   2
   2   2   0 487296. 9952.08   3
   2   2   1 551080. 11960.8   9
   2   2   1 545243. 12347.7   3
   2   2   2 385399. 12105.4   3
   2   2   2 386255. 12129.4  10
   2   2   2 380253. 11193.8   9
   2   2   3 19215.0 2859.71  10
   2   2   3 14794.7 2990.18   3
   2   2   3 17357.8 2902.83   9
   2   2   4 26359.5 3484.04  10
   2   2   4 26120.4 4286.59   3
   2   2   4 30968.1 4295.57   9
   2   2   5 119636. 10056.7   3
   2   2   5 155096. 8606.79  10
   2   2   5 142467. 10109.9   9
   2   2   5 136623. 11335.5  11
   2   2   6 135066. 8477.16  10
   2   2   6 125736. 10658.9   9
   2   2   6 143485. 6176.51   2
   2   2   6 127210. 10890.8  11
   2   2   7 47916.7 5372.69  10
   2   2   7 48851.5 7498.50   3
   2   2   7 33282.4 6093.87   9
   2   2   7 46460.6 4244.88   2
   2   2   8 8283.62 2215.82   2
   2   2   8 8484.21 2483.97  10
   2   2   8 4651.89 2965.06   3
   2   2   8 4740.84 2749.37   9
   2   2   9 3283.51 1585.26   2
   2   2   9-2732.17 1833.83  10
   2   2   9 2107.59 2693.05   3
   2   2   9-118.159 2471.03   9
   2   2  10 16395.8 3597.39   2
   2   2  10 17366.3 4979.15   3
   2   2  10 11284.9 4640.27   9
   2   2  11 10161.8 3169.80   2
   2   2  11 9651.57 3450.23   3
   2   2  11 18263.5 5487.30   9
   2   2  12 5181.65 2819.96   3
   2   2  12 10301.2 4366.48   9
   2   2  13 7905.17 4202.55   3
   2   2  13 8766.17 3965.01   9
   2   3 -15 1293.24 2294.19   7
   2   3 -14 3829.04 3073.51   7
   2   3 -13 6332.37 3472.63   7
   2   3 -12 885.556 813.694  10
   2   3 -12 889.073 2110.33   7
   2   3 -11 1771.96 1352.91  10
   2   3 -11-698.823 2672.21   7
   2   3 -10 38744.5 6821.63   7
   2   3  -9 94046.4 8040.05   8
   2   3  -9 75665.2 9201.88   7
   2   3  -8 122616. 8216.31   8
   2   3  -8 105402. 10420.2   7
   2   3  -7 42903.5 6485.32   2
   2   3  -7 42248.8 4422.30   8
   2   3  -7 41032.6 6046.15   7
   2   3  -6 2143.03 1268.51   8
   2   3  -5 91042.2 4796.42   9
   2   3  -5 93447.0 5517.35   8
   2   3  -5 94717.7 6750.46   7
   2   3  -4 203434. 6742.30   9
   2   3  -4 191207. 7448.96   5
   2   3  -4 209277. 7747.81   8
   2   3  -4 194511. 8447.01   7
   2   3  -4 203957. 11335.4   2
   2   3  -3 476478. 11541.1   5
   2   3  -3 472617. 9984.77   9
   2   3  -3 462973. 11154.8   8
   2   3  -3 475252. 11543.6   7
   2   3  -3 489512. 9564.72   6
   2   3  -3 499843. 14632.1   2
   2   3  -3 492509. 10530.3  11
   2   3  -2 178852. 5898.00   6
   2   3  -2 167299. 6649.16   5
   2   3  -2 175937. 6200.89   9
   2   3  -2 166282. 6136.86   7
   2   3  -2 173806. 5496.63   3
   2   3  -2 181126. 8847.72  11
   2   3  -2 176746. 7175.65   2
   2   3  -1 63977.7 3598.66   6
   2   3  -1 63906.4 4091.43   5
   2   3  -1 63730.4 3931.93   9
   2   3  -1 68906.9 3381.13   4
   2   3  -1 58253.9 6221.73  11
   2   3  -1 65063.7 3506.28   7
   2   3  -1 62508.4 3589.54   3
   2   3   0 66317.1 4213.63   9
   2   3   0 65254.0 2506.99   4
   2   3   0 65070.1 3840.12   1
   2   3   0 63298.3 3274.72   7
   2   3   0 63348.8 3958.85   3
   2   3   0 66939.7 7768.36  11
   2   3   1 344485. 10248.2   9
   2   3   1 334772. 10061.7   3
   2   3   1 311856. 4327.81   4
   2   3   1 341265. 8830.31   1
   2   3   1 351533. 19381.8  11
   2   3   2 475968. 10806.3   1
   2   3   2 457827. 12877.3   9
   2   3   2 465893. 13262.9   3
   2   3   2 504889. 23686.5  11
   2   3   3 280751. 10918.2  10
   2   3   3 282578. 11181.8   9
   2   3   3 280353. 8728.49   1
   2   3   3 306927. 18053.6  11
   2   3   3 280835. 11446.0   3
   2   3   4 18473.8 4514.84  11
   2   3   4 21263.7 3152.18  10
   2   3   4 15837.7 3235.68   3
   2   3   4 18540.6 3417.28   9
   2   3   5 8987.55 3367.75  11
   2   3   5 9340.88 2194.37  10
   2   3   5 9341.75 3109.42   3
   2   3   5 5443.43 2159.97   9
   2   3   6 94206.6 7006.65  10
   2   3   6 95793.0 8888.88   9
   2   3   6 95068.5 9298.84   3
   2   3   7 87673.4 9695.51   3
   2   3   7 94834.0 9663.65   9
   2   3   7 101794. 7569.56  10
   2   3   8 69487.5 6571.61  10
   2   3   8 65933.3 8904.98   9
   2   3   8 67185.2 9160.86   3
   2   3   9 9279.76 2887.80  10
   2   3   9 14787.5 4991.64   3
   2   3   9 13239.8 4383.60   9
   2   3  10-1022.89 2474.28   3
   2   3  10-3016.87 2874.68   9
   2   3  11 1703.27 3090.72   3
   2   3  11 9799.66 4769.56   9
   2   3  12-303.420 2412.75   3
   2   3  12 1822.58 2983.64   9
   2   4 -14 1924.37 2751.26   7
   2   4 -13 2482.19 3144.24   7
   2   4 -12 17832.2 3068.91  10
   2   4 -12 16008.9 4921.69   7
   2   4 -11 19162.6 5555.12   7
   2   4 -10 9249.45 3872.44   7
   2   4  -9 30195.7 4494.67   8
   2   4  -9 30514.4 6249.95   7
   2   4  -8 104630. 7314.88   8
   2   4  -8 114341. 10252.8   7
   2   4  -7 249536. 10373.6   8
   2   4  -7 214217. 12486.2   7
   2   4  -6 158538. 7785.49   8
   2   4  -6 151683. 9448.09   7
   2   4  -6 156705. 11676.8   2
   2   4  -5 7467.06 2558.02   2
   2   4  -5 7120.92 1726.72   9
   2   4  -5 7788.12 1836.65   5
   2   4  -5 8311.80 1794.49   8
   2   4  -5 7859.89 2159.45   7
   2   4  -4 45458.9 3693.53   9
   2   4  -4 45026.5 3896.30   5
   2   4  -4 54334.9 4223.14   8
   2   4  -4 45516.1 4191.39   7
   2   4  -4 45771.9 1948.30  11
   2   4  -4 48858.6 5054.36   2
   2   4  -3 246687. 9659.54   2
   2   4  -3 271401. 9102.78   5
   2   4  -3 270976. 8662.97   9
   2   4  -3 275400. 9905.62   4
   2   4  -3 278642. 9184.04   8
   2   4  -3 254249. 9029.91   7
   2   4  -3 270081. 6808.67  11
   2   4  -3 273664. 7051.88   6
   2   4  -2 338483. 8115.53   6
   2   4  -2 319030. 9064.47   4
   2   4  -2 319392. 9673.93   5
   2   4  -2 324418. 9536.68   9
   2   4  -2 328377. 9982.80   8
   2   4  -2 309588. 9239.35   7
   2   4  -2 320054. 8740.54   3
   2   4  -2 322582. 9788.83  11
   2   4  -1 180581. 6183.32   6
   2   4  -1 178745. 7319.28   5
   2   4  -1 182146. 7447.50   9
   2   4  -1 189309. 5978.44   4
   2   4  -1 186428. 6819.56   7
   2   4  -1 181411. 7016.34   3
   2   4  -1 197550. 9524.37  11
   2   4   0 133163. 6448.37   3
   2   4   0 124108. 9002.78  11
   2   4   0 130501. 4211.27   4
   2   4   0 125193. 5710.30   1
   2   4   0 132755. 6610.35   9
   2   4   1 1457.07 2157.67  11
   2   4   1 1636.40 991.860   1
   2   4   1 2209.35 1169.02   3
   2   4   1 3640.34 1657.93   9
   2   4   1 3110.87 720.240   4
   2   4   2 54885.6 3933.15   1
   2   4   2 57770.0 4947.40   9
   2   4   2 58070.4 4976.10   3
   2   4   2 54439.2 2299.68   4
   2   4   2 50226.7 7291.22  11
   2   4   3 218188. 10217.8   9
   2   4   3 212206. 7945.81   1
   2   4   3 220881. 10378.9   3
   2   4   4 135467. 8110.45  10
   2   4   4 140919. 8953.89   9
   2   4   4 143275. 9164.70   3
   2   4   5 42205.5 4622.90  10
   2   4   5 57916.0 6284.02   9
   2   4   5 53126.8 6222.56   3
   2   4   6 2062.33 1395.53  10
   2   4   6 2893.61 2367.44   3
   2   4   6 3071.51 2407.34   9
   2   4   7 13192.9 2914.60  10
   2   4   7 16982.6 4524.06   3
   2   4   7 8177.15 3268.60   9
   2   4   8 21951.8 3862.64  10
   2   4   8 18432.2 5059.64   3
   2   4   8 18153.3 5083.93   9
   2   4   9 18218.6 5229.22   3
   2   4   9 16714.4 5276.28   9
   2   4  10 5222.07 3713.14   3
   2   4  10 2127.47 3301.25   9
   2   4  11-1354.27 2860.77   3
   2   4  11-7583.59 3981.35   9
   2   4  12-5864.17 3490.99   3
   2   4  12-3315.48 3350.23   9
   2   5 -14 3852.76 3090.74   7
   2   5 -13-2437.62 3178.48   7
   2   5 -12 5092.74 3439.89   7
   2   5 -11 18008.9 5726.72   7
   2   5 -10 37231.2 7335.53   7
   2   5  -9 7938.18 2372.23   8
   2   5  -9 6870.82 3521.06   7
   2   5  -8 975.220 1129.86   8
   2   5  -8-1146.37 2085.63   7
   2   5  -7 80707.7 6103.44   8
   2   5  -7 80087.5 7553.75   7
   2   5  -6 177023. 8591.23   5
   2   5  -6 209393. 12670.4   4
   2   5  -6 179684. 8499.22   8
   2   5  -6 183505. 8606.87   9
   2   5  -6 198551. 10627.0   7
   2   5  -5 163103. 9970.53   2
   2   5  -5 147659. 7636.62   5
   2   5  -5 160981. 9767.60   4
   2   5  -5 157509. 7683.47   8
   2   5  -5 150842. 8537.47   7
   2   5  -5 156767. 7703.83   9
   2   5  -4 21521.9 2836.95   5
   2   5  -4 21932.5 3130.37   9
   2   5  -4 27161.5 3632.97   4
   2   5  -4 24994.0 3084.21   8
   2   5  -4 19752.0 3095.28   7
   2   5  -4 24622.2 1799.08  11
   2   5  -3 18129.7 2570.89   5
   2   5  -3 17930.4 2735.77   9
   2   5  -3 22157.5 2879.39   4
   2   5  -3 16823.4 2573.58   8
   2   5  -3 20479.2 1952.71   6
   2   5  -3 17926.0 2765.39   7
   2   5  -3 18468.5 1977.46  11
   2   5  -2 147748. 5388.83   6
   2   5  -2 138656. 6793.19   5
   2   5  -2 130699. 6825.48   9
   2   5  -2 143606. 6351.51   4
   2   5  -2 143541. 7202.75   8
   2   5  -2 139057. 6923.44   7
   2   5  -2 150227. 6637.53  11
   2   5  -1 75547.0 4156.43   6
   2   5  -1 76285.4 5424.12   9
   2   5  -1 85846.2 4437.00   4
   2   5  -1 94886.4 5962.81   8
   2   5  -1 83956.5 5138.11   7
   2   5  -1 86306.4 5413.18   3
   2   5  -1 90826.1 6119.34  11
   2   5   0 108916. 6677.65   9
   2   5   0 109438. 4509.61   4
   2   5   0 109980. 5672.62   1
   2   5   0 116079. 6859.09   8
   2   5   0 113576. 6501.07   3
   2   5   0 118495. 8172.92  11
   2   5   1 50283.4 4771.12   9
   2   5   1 47023.7 2814.99   4
   2   5   1 49252.9 4623.25   3
   2   5   1 50501.7 3935.73   1
   2   5   1 45778.6 5799.03  11
   2   5   2 10859.6 2625.49   3
   2   5   2 13389.0 2819.93   9
   2   5   2 9971.49 3057.19  11
   2   5   2 9569.39 1244.50   4
   2   5   2 12437.2 2116.62   1
   2   5   3 975.970 2553.69  11
   2   5   3 1418.82 1174.12   1
   2   5   3 2504.41 1649.87   3
   2   5   3 1006.74 1340.58   9
   2   5   4 32796.7 4664.87   3
   2   5   4 38478.1 5087.63   9
   2   5   5 64201.3 6067.61  10
   2   5   5 69900.6 7078.99   9
   2   5   5 67350.0 7073.63   3
   2   5   6 91986.1 8649.30   9
   2   5   6 86195.6 7145.75  10
   2   5   6 101697. 9375.12   3
   2   5   7 16708.3 4526.45   3
   2   5   7 15918.9 4174.00   9
   2   5   8-8323.46 3709.04   3
   2   5   8 453.555 2327.26   9
   2   5   9-420.474 4087.56   3
   2   5   9 3189.61 2660.79   9
   2   5  10 6856.55 3988.56   3
   2   5  10 7334.19 5047.66   9
   2   5  11 8969.97 4391.98   3
   2   5  11 5497.35 4769.33   9
   2   6 -13 4045.06 3514.64   7
   2   6 -12-1458.01 2806.77   7
   2   6 -11 230.878 2605.69   7
   2   6 -10 9251.27 4277.59   7
   2   6  -9 30235.3 5738.33   7
   2   6  -8 20165.9 3266.44   5
   2   6  -8 21115.4 3445.67   8
   2   6  -8 18551.8 4256.92   7
   2   6  -7 28086.0 3721.07   5
   2   6  -7 29110.6 3822.20   8
   2   6  -7 24740.9 4430.72   7
   2   6  -6 3644.20 1749.57   9
   2   6  -6 3493.59 1491.19   5
   2   6  -6 5283.46 1870.29   8
   2   6  -6 2824.39 1667.12   7
   2   6  -5 73591.9 5477.65   5
   2   6  -5 72905.7 5854.25   9
   2   6  -5 77386.4 6640.44   4
   2   6  -5 66953.7 5310.61   8
   2   6  -5 72429.0 6239.45   7
   2   6  -4 160991. 7859.92   5
   2   6  -4 162280. 8456.09   9
   2   6  -4 160818. 8587.85   4
   2   6  -4 150683. 5098.03  11
   2   6  -4 159739. 8129.43   8
   2   6  -4 144925. 8366.55   7
   2   6  -3 160446. 7654.17   5
   2   6  -3 143152. 7863.61   9
   2   6  -3 155884. 7750.10   4
   2   6  -3 168580. 8335.78   8
   2   6  -3 154086. 8328.65   7
   2   6  -3 151531. 6078.63  11
   2   6  -3 145317. 4902.68   6
   2   6  -2 53072.8 4855.72   9
   2   6  -2 54047.1 4235.28   4
   2   6  -2 52482.9 4857.79   8
   2   6  -2 49691.1 4548.26   7
   2   6  -2 52643.4 4183.24  11
   2   6  -2 50596.0 3158.71   6
   2   6  -1-895.235 1426.87   3
   2   6  -1-275.243 591.556   6
   2   6  -1 314.291 1267.64   9
   2   6  -1-2456.69 1342.42  11
   2   6  -1 337.011 1153.51   8
   2   6  -1-76.1799 705.691   4
   2   6  -1-426.838 1114.06   7
   2   6   0 45404.6 4780.42   9
   2   6   0 48204.4 3461.45   4
   2   6   0 51474.7 5089.05   8
   2   6   0 47526.5 4026.15   1
   2   6   0 48451.7 4709.92   3
   2   6   0 53363.5 5448.58  11
   2   6   1 147171. 8644.37   9
   2   6   1 150758. 5844.05   4
   2   6   1 153776. 7165.12   1
   2   6   1 153203. 8599.33   3
   2   6   1 172781. 10910.1  11
   2   6   2 87481.1 7029.30   9
   2   6   2 92140.6 4504.12   4
   2   6   2 101773. 7426.40   3
   2   6   2 90571.5 5559.39   1
   2   6   3 45648.7 5437.17   9
   2   6   3 45935.8 4172.10   1
   2   6   3 45451.5 5374.65   3
   2   6   4 1691.58 1709.02   3
   2   6   4 1622.49 1606.49   9
   2   6   5 4714.37 2758.42   3
   2   6   5 3688.49 2268.19   9
   2   6   6 36810.3 6158.00   3
   2   6   6 32020.7 5631.83   9
   2   6   7 42697.4 6993.80   3
   2   6   7 41942.9 6619.76   9
   2   6   8 12450.4 4766.64   3
   2   6   8 18203.3 5156.32   9
   2   6   9-1067.21 2924.95   3
   2   6   9 2576.91 3246.06   9
   2   6  10 2708.83 3262.23   3
   2   6  10-1913.97 3013.26   9
   2   7 -12 6641.09 4161.35   7
   2   7 -11 7529.12 4250.69   7
   2   7 -10 2131.20 2748.67   7
   2   7  -9 14045.3 3995.14   7
   2   7  -8 24694.3 3874.41   5
   2   7  -8 27569.6 5109.76   7
   2   7  -7 55042.7 5843.36   9
   2   7  -7 49076.6 4979.26   5
   2   7  -7 55868.1 6664.54   7
   2   7  -6 27695.6 3673.15   5
   2   7  -6 24786.4 3957.28   9
   2   7  -6 26275.9 3726.54   8
   2   7  -6 23467.7 4143.09   7
   2   7  -5 100.974 1032.00   5
   2   7  -5 647.602 1614.02   9
   2   7  -5-946.936 1028.42   8
   2   7  -5 728.600 1439.81   7
   2   7  -4 20065.3 3024.96   5
   2   7  -4 18252.5 3436.67   9
   2   7  -4 20469.2 2248.99  11
   2   7  -4 16628.0 3295.13   7
   2   7  -3 102006. 7315.04   9
   2   7  -3 114434. 7030.92   4
   2   7  -3 104787. 7428.16   7
   2   7  -3 98988.2 5375.78  11
   2   7  -2 166733. 9315.94   9
   2   7  -2 169717. 7965.73   4
   2   7  -2 156156. 8670.92   7
   2   7  -2 146577. 7298.40  11
   2   7  -2 157263. 5379.23   6
   2   7  -1 72384.9 4160.53   6
   2   7  -1 75936.6 6456.96   9
   2   7  -1 74717.7 4998.30   4
   2   7  -1 72271.5 5784.52  11
   2   7   0 4791.47 1992.23   3
   2   7   0 5214.12 2205.50   9
   2   7   0 3980.31 1634.80   1
   2   7   0 7141.92 1626.57   4
   2   7   0 6339.03 2156.02  11
   2   7   1 31201.7 4540.84   9
   2   7   1 31121.1 3058.35   4
   2   7   1 31483.6 3503.97   1
   2   7   1 36210.6 4662.53   3
   2   7   2 83505.9 7481.33   9
   2   7   2 85471.4 4886.31   4
   2   7   2 87893.2 5747.10   1
   2   7   2 92802.6 7604.41   3
   2   7   3 86503.3 7884.45   9
   2   7   3 84676.4 5757.33   1
   2   7   3 94442.9 8089.79   3
   2   7   4 50420.1 6432.43   9
   2   7   4 46766.2 6087.23   3
   2   7   5 8368.66 3187.89   3
   2   7   5 5385.25 2827.51   9
   2   7   6-2416.13 2641.41   3
   2   7   6 2799.20 2446.97   9
   2   7   7 15414.2 4362.57   3
   2   7   7 13258.8 4319.41   9
   2   7   8 16643.5 5074.74   3
   2   7   8 14245.3 4803.27   9
   2   7   9 4350.45 3510.10   3
   2   7   9 10786.6 4297.34   9
   2   8 -11 15136.8 5091.27   7
   2   8 -10 7681.12 3754.34   7
   2   8  -9 2090.23 2587.77   7
   2   8  -8 14756.0 3936.53   7
   2   8  -7 38933.3 5366.23   9
   2   8  -7 32983.1 4177.71   5
   2   8  -7 41457.5 5899.37   7
   2   8  -6 59073.0 5392.13   5
   2   8  -6 54050.2 6170.27   9
   2   8  -6 66057.9 7076.22   7
   2   8  -5 25268.3 3493.97   5
   2   8  -5 30034.6 4624.49   9
   2   8  -5 19406.0 3819.78   7
   2   8  -4 4437.46 2408.89   9
   2   8  -4 5136.32 2245.75   7
   2   8  -4 7807.51 1708.03  11
   2   8  -3 4553.11 2132.00   9
   2   8  -3 3995.86 1794.04   7
   2   8  -3 5170.81 1542.05  11
   2   8  -2 52595.1 5783.80   9
   2   8  -2 51976.8 4826.03   4
   2   8  -2 46007.7 2677.43   6
   2   8  -2 50024.4 4606.10  11
   2   8  -1 80989.3 4283.14   6
   2   8  -1 83169.5 7303.82   9
   2   8  -1 90075.5 6014.25   4
   2   8  -1 84402.5 6495.64  11
   2   8   0 53832.4 4018.32   6
   2   8   0 55895.7 6122.46   9
   2   8   0 54093.9 4514.32   4
   2   8   0 65158.2 5174.97   1
   2   8   0 57765.2 6065.64   3
   2   8   1 12381.9 3299.84   3
   2   8   1 11522.6 2314.80   1
   2   8   1 11028.9 3307.72   9
   2   8   1 11528.5 2044.12   4
   2   8   2 4120.27 2332.64   3
   2   8   2 1407.28 2239.43   9
   2   8   2 4680.26 1769.78   1
   2   8   2 2923.30 1166.50   4
   2   8   3 18105.6 3933.54   3
   2   8   3 22519.0 3195.81   1
   2   8   3 18847.6 4191.09   9
   2   8   4 43422.7 6272.58   3
   2   8   4 34609.5 5633.37   9
   2   8   5 24403.6 5303.27   3
   2   8   5 17595.5 4322.82   9
   2   8   6 8778.00 4001.16   3
   2   8   6 6358.85 3418.78   9
   2   8   7 914.589 2177.93   3
   2   8   7-5923.51 2990.70   9
   2   8   8-6379.47 3571.53   3
   2   8   8 2132.88 2312.98   9
   2   9 -10 10021.3 4557.43   7
   2   9  -9 11129.4 4265.64   7
   2   9  -8-449.398 2481.48   7
   2   9  -7 12489.2 3744.15   9
   2   9  -7 10506.7 3616.92   7
   2   9  -6 23555.2 4475.23   9
   2   9  -6 23940.9 4817.57   7
   2   9  -5 32662.4 5154.83   9
   2   9  -5 34972.7 5414.98   7
   2   9  -4 10336.4 3150.64   9
   2   9  -4 14074.0 3471.02   7
   2   9  -3 8126.47 2940.73   9
   2   9  -3 3100.56 2054.07   7
   2   9  -3 3662.86 1527.53  11
   2   9  -2 1255.68 2212.06   9
   2   9  -1 8833.27 3030.16   9
   2   9  -1 9619.27 2422.63   1
   2   9   0 12721.4 3543.79   9
   2   9   0 18008.2 3050.45   1
   2   9   1 21599.1 4474.09   9
   2   9   1 23997.6 3446.82   1
   2   9   1 28488.6 4893.03   3
   2   9   2 17331.2 4248.03   3
   2   9   2 19261.4 3104.63   1
   2   9   2 17707.0 4447.30   9
   2   9   3 8186.64 3328.20   3
   2   9   3 3131.72 1605.56   1
   2   9   3 1916.83 2147.07   9
   2   9   4-1024.35 2000.06   3
   2   9   4 278.571 1868.29   9
   2   9   5 3801.05 2822.20   3
   2   9   5 9226.55 3765.81   9
   2   9   6 5731.23 3600.00   3
   2   9   6 16206.8 4967.47   9
   2  10  -8 14261.0 4529.54   7
   2  10  -7 10556.6 3787.77   9
   2  10  -7 10643.4 3601.37   7
   2  10  -6 1544.08 1840.43   9
   2  10  -6 400.928 1933.67   7
   2  10  -5 5770.07 3036.53   9
   2  10  -5 3420.92 2528.15   7
   2  10  -4 22263.9 4923.88   9
   2  10  -4 19481.3 4403.98   7
   2  10  -3 28932.8 5050.83   9
   2  10  -2 13786.3 3900.63   9
   2  10  -1 4148.65 2481.15   9
   2  10  -1-842.094 1238.98   1
   2  10   0-78.4590 1222.05   1
   2  10   0 251.540 1862.21   9
   2  10   1 5286.19 3293.66   9
   2  10   1 4576.03 1820.22   1
   2  10   2 20162.3 4690.73   9
   2  10   3 17731.4 4567.64   3
   2  10   3 12035.5 3828.31   9
   2  10   4 12972.9 4301.58   3
   2  10   4 6463.99 3335.46   9
   2  11  -4-960.877 2591.44   9
   2  11  -3 9952.43 3476.58   9
   2  11  -2 25895.6 5422.61   9
   2  11  -2 26220.9 4165.54   1
   2  11  -1 23037.6 5033.83   9
   2  11   0 5450.29 3270.75   9
   3 -11  -2 6289.41 3202.42  11
   3 -11  -2 9631.08 2904.95   8
   3 -11  -2 10848.5 3728.14   4
   3 -11  -1 2411.29 2394.00  11
   3 -11  -1 7703.71 3339.18   4
   3 -11   0-1679.44 2325.40  11
   3 -11   0 2137.00 1981.09   4
   3 -11   1 4082.37 2711.91  11
   3 -11   1 725.974 1840.84   4
   3 -11   2 10369.9 3610.35   4
   3 -11   2 11814.1 4169.38  11
   3 -11   3 10533.5 4157.36   4
   3 -11   3 13046.2 4370.72  11
   3 -10  -6 14795.2 5046.42  11
   3 -10  -6 10907.0 3989.24   8
   3 -10  -6 17322.1 4424.38   4
   3 -10  -5 5919.38 3027.71  11
   3 -10  -5 7439.81 3455.66   8
   3 -10  -5 6141.59 2932.55   4
   3 -10  -4-933.257 2254.00   8
   3 -10  -4-1202.68 2021.98   4
   3 -10  -4 1956.84 2196.50  11
   3 -10  -3 6099.81 3369.67  11
   3 -10  -3 1874.45 2104.10   8
   3 -10  -3 3551.46 2663.51   4
   3 -10  -2 19555.0 4857.83  11
   3 -10  -2 16034.8 3236.02   8
   3 -10  -2 17597.0 4055.92   4
   3 -10  -1 25302.2 3684.99   8
   3 -10  -1 30369.3 5101.69   4
   3 -10  -1 17430.8 4334.54  11
   3 -10   0 18663.8 3126.64   8
   3 -10   0 14598.9 3827.78   4
   3 -10   0 9555.84 3935.00  11
   3 -10   1 2840.51 2140.82   4
   3 -10   1 5821.91 3008.67  11
   3 -10   2 1014.49 1902.95  11
   3 -10   2-467.268 1896.26   4
   3 -10   3 10230.7 3460.20   4
   3 -10   3 11452.4 3626.94  11
   3 -10   4 25909.0 5159.97   2
   3 -10   4 18423.4 4470.36   4
   3 -10   4 23876.3 5077.57  11
   3 -10   5 17470.2 4455.17  11
   3 -10   5 17129.4 4663.08   2
   3 -10   6 15511.4 4821.96   2
   3  -9  -8 5828.27 3549.23  11
   3  -9  -8 6000.48 3014.92   4
   3  -9  -7 1565.30 2012.99   4
   3  -9  -7-196.647 2446.40  11
   3  -9  -6 6325.01 3421.46  11
   3  -9  -6 6891.11 2769.43   4
   3  -9  -5 33002.3 6313.64  11
   3  -9  -5 29266.5 5011.54   4
   3  -9  -4 29107.6 5548.34  11
   3  -9  -4 33465.7 5171.72   4
   3  -9  -3 21212.9 4641.75  11
   3  -9  -3 29515.0 4823.14   8
   3  -9  -3 16151.6 3757.22   4
   3  -9  -2-655.201 1836.29   8
   3  -9  -2 2894.20 2193.58   4
   3  -9  -2 2156.15 2348.65  11
   3  -9  -1 22160.3 3324.07   8
   3  -9  -1 19081.8 4026.85   4
   3  -9  -1 25833.3 4903.81  11
   3  -9   0 70653.3 7219.24   4
   3  -9   0 55842.1 4604.63   8
   3  -9   0 63514.4 7160.02  11
   3  -9   1 45715.8 5813.23   4
   3  -9   1 43212.3 3622.24   8
   3  -9   1 40883.0 5707.91  11
   3  -9   2 13750.4 1928.98   8
   3  -9   2 12270.4 3297.46   4
   3  -9   2 12663.1 3443.21  11
   3  -9   3 234.359 2357.18   4
   3  -9   3 638.467 1770.56  11
   3  -9   4 5559.04 2588.43  11
   3  -9   4 7146.89 2815.24   4
   3  -9   5 13520.5 3825.31   4
   3  -9   5 16604.1 4132.39   2
   3  -9   5 20862.5 4300.54  11
   3  -9   6 21735.1 4927.59   2
   3  -9   6 25515.1 4970.45  11
   3  -9   7 17221.5 4873.55   2
   3  -9   7 4764.74 2643.25  11
   3  -9   8 2791.05 2597.80   2
   3  -8 -10 1235.43 2938.54  11
   3  -8 -10 4390.97 2807.80   4
   3  -8  -9 9475.69 3909.30  11
   3  -8  -9 12997.0 4126.77   4
   3  -8  -8 23021.0 5666.73  11
   3  -8  -8 19781.9 4437.34   4
   3  -8  -7 10019.0 3485.67  11
   3  -8  -7 4339.28 2522.79   4
   3  -8  -6 1560.07 2444.20  11
   3  -8  -6-299.195 1794.91   4
   3  -8  -5 10851.7 3591.45  11
   3  -8  -5 14209.1 3460.90   4
   3  -8  -4 51306.9 5900.70   4
   3  -8  -4 48663.2 6511.68  11
   3  -8  -3 89869.7 7654.62   4
   3  -8  -3 86917.4 8255.87  11
   3  -8  -2 61165.0 6243.57   4
   3  -8  -2 53176.0 6321.12  11
   3  -8  -1 3841.88 1636.56   8
   3  -8  -1 1504.59 1660.01   4
   3  -8  -1 2887.22 1802.42  11
   3  -8   0 38703.2 5099.90   4
   3  -8   0 34479.7 4881.76  11
   3  -8   0 32105.5 3362.50   8
   3  -8   1 89479.8 7625.60   4
   3  -8   1 86057.4 4705.27   8
   3  -8   1 95618.3 7787.83  11
   3  -8   2 89004.0 7698.75   4
   3  -8   2 94981.8 4174.35   8
   3  -8   2 93299.8 7735.97  11
   3  -8   3 40625.0 5491.22   4
   3  -8   3 37867.8 4984.31  11
   3  -8   3 33828.8 1875.67   8
   3  -8   4 1305.28 1589.26  11
   3  -8   4 3460.48 2259.34   4
   3  -8   5 5525.84 2819.48   2
   3  -8   5 675.120 2535.08   4
   3  -8   6 16087.7 4050.90   2
   3  -8   6 10813.1 3268.09  11
   3  -8   7 11584.2 3946.18   2
   3  -8   7 20774.0 4381.81  11
   3  -8   8 9414.82 3959.47   2
   3  -8   8 15390.8 3983.26  11
   3  -8   9 4533.72 3071.48   2
   3  -7 -11 4091.55 3629.83  11
   3  -7 -11 1720.40 2289.10   4
   3  -7 -10-4232.85 2915.69   4
   3  -7 -10-3776.88 3208.95  11
   3  -7  -9 4194.79 2777.91  11
   3  -7  -9 3561.60 2704.98   4
   3  -7  -8 21888.1 5110.20  11
   3  -7  -8 23512.5 4703.03   4
   3  -7  -7 21101.3 4706.75  11
   3  -7  -7 22253.8 4347.48   4
   3  -7  -6 11426.5 3561.29  11
   3  -7  -6 12243.4 3158.00   4
   3  -7  -5 4536.16 2459.25  11
   3  -7  -5 6039.98 2441.29   4
   3  -7  -4 4520.50 2365.94   4
   3  -7  -4 758.338 1880.69  11
   3  -7  -3 25457.7 3997.24   4
   3  -7  -3 23771.3 4117.23  11
   3  -7  -2 87478.2 6926.25   4
   3  -7  -2 82459.4 7089.08  11
   3  -7  -1 84636.1 6765.29   4
   3  -7  -1 77081.5 6705.82  11
   3  -7   0 59894.7 5767.51   4
   3  -7   0 54860.4 4102.03   8
   3  -7   0 46384.2 5092.96  11
   3  -7   1 652.180 841.117   8
   3  -7   1 230.577 1828.58   4
   3  -7   1-130.654 1317.96  11
   3  -7   2 44465.8 5129.63   4
   3  -7   2 34593.5 2226.86   8
   3  -7   2 34596.1 4409.84  11
   3  -7   3 108376. 8088.64   4
   3  -7   3 92659.2 7024.39  11
   3  -7   3 98148.4 4706.34   6
   3  -7   4 77103.5 7123.36   4
   3  -7   4 80028.5 6749.43  11
   3  -7   4 71593.5 4176.60   6
   3  -7   5 9640.63 1857.81   6
   3  -7   5 10541.7 2964.31   2
   3  -7   5 7267.31 2817.57   4
   3  -7   5 10649.1 2906.29  11
   3  -7   6-683.831 949.015   6
   3  -7   6-119.604 1904.95   2
   3  -7   6-406.273 1631.24  11
   3  -7   7 5887.57 3143.57   2
   3  -7   7 2206.35 1698.83  11
   3  -7   8 10353.8 3632.72   2
   3  -7   9 15938.3 4476.05   2
   3  -7  10 12651.2 4344.81   2
   3  -6 -12 3099.00 3034.75  11
   3  -6 -12-842.251 2120.04   4
   3  -6 -11 5619.98 3457.07  11
   3  -6 -11 6138.87 3120.50   4
   3  -6 -10 2687.12 2955.72  11
   3  -6 -10 7234.54 3470.27   4
   3  -6  -9 6178.71 3342.83  11
   3  -6  -9 7265.63 3053.91   4
   3  -6  -8 6223.94 2923.94  11
   3  -6  -8-1922.24 2387.73   4
   3  -6  -7 18653.5 4099.11  11
   3  -6  -7 15653.7 3071.34   9
   3  -6  -7 12164.1 3255.16   4
   3  -6  -6 50043.9 4890.61   9
   3  -6  -6 49155.5 5610.24   4
   3  -6  -6 47814.1 5967.40  11
   3  -6  -5 80938.7 5989.11   9
   3  -6  -5 70236.8 6376.67   4
   3  -6  -5 82132.4 7436.97  11
   3  -6  -4 36172.7 3942.43   9
   3  -6  -4 41753.6 4806.92   4
   3  -6  -4 36984.1 4872.63  11
   3  -6  -3 984.289 872.725   9
   3  -6  -3 1483.07 1578.28   4
   3  -6  -3-737.944 1656.62  11
   3  -6  -2 19731.8 3093.14   3
   3  -6  -2 19600.0 2861.31   9
   3  -6  -2 16758.7 3061.00   4
   3  -6  -2 19838.7 3399.61  11
   3  -6  -1 88389.5 3173.72   5
   3  -6  -1 98254.6 6258.81   9
   3  -6  -1 90842.0 6599.36   4
   3  -6  -1 94017.5 6705.53  11
   3  -6   0 136157. 7475.76   9
   3  -6   0 131855. 7868.03   4
   3  -6   0 122981. 7484.30  11
   3  -6   1 161416. 8384.90   9
   3  -6   1 156174. 8633.13   4
   3  -6   1 163705. 5498.48   8
   3  -6   1 152623. 8380.39  11
   3  -6   2 35904.4 4361.63   4
   3  -6   2 42826.1 2071.80   8
   3  -6   2 45799.1 4681.97  11
   3  -6   2 38362.3 3115.06   6
   3  -6   3 6109.44 1417.80   6
   3  -6   3 6477.12 2385.47   4
   3  -6   3 7728.90 2188.36  11
   3  -6   4 70827.4 4655.07   6
   3  -6   4 78698.2 6755.33   4
   3  -6   4 74885.4 6115.08  11
   3  -6   5 117880. 8402.08   2
   3  -6   5 102670. 6097.04   6
   3  -6   5 99640.9 7999.27   4
   3  -6   6 64076.7 6610.14   2
   3  -6   7 11964.0 3481.93   2
   3  -6   8-314.815 1895.45   2
   3  -6   9 6318.21 2961.22   2
   3  -6  10 10911.5 4197.74   2
   3  -6  11-1058.14 2950.88   2
   3  -5 -13-5069.63 3797.70  11
   3  -5 -13-8426.62 4329.86   7
   3  -5 -12-325.885 2633.47  11
   3  -5 -12 2731.20 2954.19   4
   3  -5 -11 169.521 2080.53  11
   3  -5 -11 3838.06 3470.79   4
   3  -5 -10 9858.37 3688.24  11
   3  -5 -10 13204.7 4251.03   4
   3  -5  -9 34307.5 5694.98  11
   3  -5  -9 19503.1 4512.78   4
   3  -5  -8 45950.6 5900.86   4
   3  -5  -8 37236.9 5504.78  11
   3  -5  -7 17880.0 1432.85   1
   3  -5  -7 22842.9 3478.20   3
   3  -5  -7 15592.1 2681.15   9
   3  -5  -7 26037.9 4200.64   4
   3  -5  -7 23625.6 4236.95  11
   3  -5  -6 3418.65 1389.09   3
   3  -5  -6 2693.87 1111.29   9
   3  -5  -6 2391.03 1943.39  11
   3  -5  -6 3387.72 2011.67   4
   3  -5  -5 84566.2 5450.41   9
   3  -5  -5 92887.7 6969.44   4
   3  -5  -5 89311.7 7044.96  11
   3  -5  -5 97392.0 6309.81   3
   3  -5  -4 223455. 8583.64   9
   3  -5  -4 249468. 9724.25   3
   3  -5  -4 218552. 10340.9   4
   3  -5  -4 224138. 10532.7  11
   3  -5  -3 158126. 7069.74   9
   3  -5  -3 149958. 8223.97   4
   3  -5  -3 155855. 7587.03   3
   3  -5  -3 157233. 8483.98  11
   3  -5  -2 49178.1 4651.85  11
   3  -5  -2 50553.4 4023.20   9
   3  -5  -2 45971.3 4505.27   4
   3  -5  -2 48719.8 4242.28   3
   3  -5  -1 3717.21 813.213   5
   3  -5  -1 3626.32 1241.98   9
   3  -5  -1 3408.25 1607.09   4
   3  -5  -1 3440.30 1428.38   3
   3  -5  -1 2635.05 1360.47   7
   3  -5  -1 3477.56 1617.76  11
   3  -5   0 67406.4 2414.37   5
   3  -5   0 75966.1 5108.46   9
   3  -5   0 67334.2 5302.55   4
   3  -5   0 73743.5 5242.30   7
   3  -5   0 72454.1 5405.47  11
   3  -5   1 205443. 7271.80   6
   3  -5   1 228869. 9167.11   9
   3  -5   1 206502. 9177.21   4
   3  -5   1 213675. 8834.10   7
   3  -5   1 194176. 8744.67  11
   3  -5   2 214283. 9397.58   9
   3  -5   2 183004. 8793.04   4
   3  -5   2 183348. 3562.32   8
   3  -5   2 189731. 3545.02   8
   3  -5   2 187853. 7084.26   6
   3  -5   2 208662. 8815.71   7
   3  -5   2 192309. 8736.22  11
   3  -5   3 106197. 7097.87   9
   3  -5   3 90997.3 5248.81   6
   3  -5   3 102221. 6795.76   4
   3  -5   3 100066. 6344.88   7
   3  -5   4 2389.17 1134.29   6
   3  -5   4 4540.36 1863.72   4
   3  -5   4 3297.15 1531.07   7
   3  -5   5 25416.8 3799.94   2
   3  -5   5 22652.0 3622.95   4
   3  -5   5 25474.9 3652.38   7
   3  -5   6 88308.6 7256.73   2
   3  -5   7 102136. 8309.29   2
   3  -5   8 27464.3 4830.82   2
   3  -5   9 983.195 1925.77   2
   3  -5  10 8011.84 3593.78   2
   3  -5  11 7274.89 3864.35   2
   3  -5  12 4472.64 2919.25   2
   3  -4 -13 5529.86 3666.69  11
   3  -4 -13 4868.20 3963.90   7
   3  -4 -13-1172.32 2851.09   4
   3  -4 -12 2805.59 3027.05  11
   3  -4 -12 527.880 3575.56   7
   3  -4 -12 6150.54 3073.39   4
   3  -4 -11 605.163 2271.07  11
   3  -4 -11 1661.81 2465.77   4
   3  -4 -10 1480.12 1878.58  11
   3  -4 -10 24.3964 2366.15   4
   3  -4  -9 24565.4 4589.34  11
   3  -4  -9 26552.1 4170.53   3
   3  -4  -9 31928.2 5422.47   4
   3  -4  -8 73407.8 5955.50   3
   3  -4  -8 74454.5 7480.25   4
   3  -4  -8 74488.1 6983.93  11
   3  -4  -7 111227. 6747.54   3
   3  -4  -7 114247. 8519.06   4
   3  -4  -7 93082.7 7368.11  11
   3  -4  -6 75968.2 4890.62   9
   3  -4  -6 77470.9 6491.88   4
   3  -4  -6 75247.9 5276.81   3
   3  -4  -6 75644.4 6312.34  11
   3  -4  -5 3350.44 1208.92   2
   3  -4  -5 2051.30 1125.97   3
   3  -4  -5 2032.06 954.031   9
   3  -4  -5 2349.24 1689.77   4
   3  -4  -5 2234.25 1547.71  11
   3  -4  -4 153199. 6209.40   9
   3  -4  -4 152759. 8122.59   4
   3  -4  -4 153071. 6862.66   3
   3  -4  -3 349714. 9212.20   9
   3  -4  -3 357469. 11874.6   4
   3  -4  -3 347843. 10116.5   3
   3  -4  -2 344222. 9091.08   9
   3  -4  -2 333032. 11029.5   4
   3  -4  -2 345133. 9997.01   3
   3  -4  -1 106416. 4075.29   5
   3  -4  -1 116498. 5404.67   9
   3  -4  -1 106743. 6087.08   4
   3  -4  -1 111045. 5848.90   7
   3  -4   0 11286.4 1791.57   6
   3  -4   0 10777.8 1210.15   5
   3  -4   0 11184.1 1893.64   9
   3  -4   0 11851.7 2217.45   4
   3  -4   0 10650.9 1844.96   7
   3  -4   1 95035.0 5538.89   9
   3  -4   1 91262.1 5658.11   4
   3  -4   1 97449.9 5329.46   7
   3  -4   1 87940.3 4868.40   6
   3  -4   2 194943. 7488.50   6
   3  -4   2 219630. 9035.28   9
   3  -4   2 199638. 8422.44   4
   3  -4   2 178310. 3089.01   8
   3  -4   2 203484. 7868.32   7
   3  -4   3 137658. 6731.06   6
   3  -4   3 147800. 8273.20   9
   3  -4   3 136924. 7263.18   4
   3  -4   3 140758. 6768.54   7
   3  -4   4 72665.4 6462.18   9
   3  -4   4 66487.4 5408.17   4
   3  -4   4 70974.2 5079.45   7
   3  -4   5 21492.2 3559.49   4
   3  -4   5 21801.1 3297.26   2
   3  -4   5 21224.8 3079.29   7
   3  -4   6-846.223 1547.73   2
   3  -4   6-183.103 1077.47   7
   3  -4   7 25471.1 4211.39   2
   3  -4   7 22418.1 3975.49   7
   3  -4   8 43427.0 5863.99   2
   3  -4   9 19866.8 4743.44   2
   3  -4  10 4627.69 2615.49   2
   3  -4  11 1747.29 2728.16   2
   3  -4  12-2147.59 3368.20   3
   3  -4  12-298.466 2290.62   2
   3  -3 -14-20.7304 3629.52   7
   3  -3 -14 5034.15 3693.58   4
   3  -3 -13 4832.04 3549.53   7
   3  -3 -13 1807.78 3013.61   4
   3  -3 -12 6710.09 3499.89  11
   3  -3 -12 12332.6 5307.15   7
   3  -3 -12 2186.95 2469.74   4
   3  -3 -11 8271.22 3219.26  11
   3  -3 -11 13243.0 4014.02   4
   3  -3 -10 7785.74 2748.87  11
   3  -3 -10 5928.23 2335.17   3
   3  -3 -10 8235.10 3732.63   7
   3  -3 -10 8065.53 3306.63   4
   3  -3  -9 980.697 1249.80  11
   3  -3  -9 956.807 1125.89   3
   3  -3  -9 698.234 2444.41   4
   3  -3  -8 10630.0 2699.15  11
   3  -3  -8 8847.89 2085.57   3
   3  -3  -8 3666.43 1917.09   4
   3  -3  -7 53259.7 4394.21   3
   3  -3  -7 51795.5 5841.86   4
   3  -3  -7 53653.8 5200.66  11
   3  -3  -6 111729. 7712.49   4
   3  -3  -6 115831. 5804.46   3
   3  -3  -6 114629. 7509.51   2
   3  -3  -6 115304. 7010.70  11
   3  -3  -5 128346. 5125.17   9
   3  -3  -5 131227. 7724.47   4
   3  -3  -5 139371. 7286.95  11
   3  -3  -5 131164. 5778.59   3
   3  -3  -4 58317.8 3209.42   9
   3  -3  -4 65176.0 5179.69   4
   3  -3  -4 60765.3 3796.69   3
   3  -3  -3 15170.0 1675.82   9
   3  -3  -3 17450.4 2650.16   4
   3  -3  -3 15818.8 1271.42   1
   3  -3  -3 13417.1 1815.36   3
   3  -3  -2 142392. 4951.87   9
   3  -3  -2 149205. 6933.83   4
   3  -3  -1 450088. 8956.55   5
   3  -3  -1 466042. 9485.58   9
   3  -3  -1 481792. 11399.1   6
   3  -3  -1 440086. 11358.1   4
   3  -3   0 351366. 7548.38   5
   3  -3   0 353194. 9068.87   9
   3  -3   0 344366. 9781.05   4
   3  -3   0 363621. 9125.02   7
   3  -3   0 350381. 9651.03   6
   3  -3   1 81454.3 4781.90   6
   3  -3   1 76693.4 4681.13   9
   3  -3   1 83145.6 4872.34   4
   3  -3   1 74153.3 2856.61   8
   3  -3   1 83251.7 4323.14   7
   3  -3   2 10514.4 1651.53   7
   3  -3   2 8500.92 1693.75   6
   3  -3   2 10042.4 851.750   8
   3  -3   2 8296.31 1746.34   4
   3  -3   3 79411.0 9342.51  10
   3  -3   3 77309.1 5064.02   4
   3  -3   3 82840.3 4669.79   7
   3  -3   4 151161. 12158.8  10
   3  -3   4 134149. 7035.92   4
   3  -3   4 129450. 6326.24   7
   3  -3   5 85489.8 5796.06   7
   3  -3   5 82599.3 5787.77   2
   3  -3   6 86707.7 6661.90   7
   3  -3   6 80391.1 6260.12   2
   3  -3   7 15928.9 3395.19   7
   3  -3   7 13000.1 3063.31   2
   3  -3   8 2489.51 1890.75   2
   3  -3   8 5114.66 2348.46   7
   3  -3   9 9505.53 3197.98   2
   3  -3  10 23904.8 6006.08   3
   3  -3  10 27386.6 5576.83   2
   3  -3  11 8868.27 3770.97   3
   3  -3  11 10811.1 3947.38   2
   3  -3  12 4987.32 3474.74   3
   3  -3  12 2200.86 2045.68   2
   3  -2 -14 770.017 2280.66   7
   3  -2 -13-4242.66 3696.26   7
   3  -2 -12-2925.39 2448.14  11
   3  -2 -12-813.233 2741.20   7
   3  -2 -11 15818.2 4047.62  11
   3  -2 -11 13605.2 4957.22   7
   3  -2 -10 29843.9 4697.30  11
   3  -2 -10 31188.7 6555.31   7
   3  -2  -9 30028.4 4316.06   3
   3  -2  -9 26615.4 5500.26   7
   3  -2  -9 34208.8 4524.50  11
   3  -2  -8 10216.4 2433.16  11
   3  -2  -8 8464.99 2097.80   3
   3  -2  -7 215.821 1241.04   2
   3  -2  -7 1897.32 1074.41   3
   3  -2  -7-232.548 1306.06  11
   3  -2  -6 37663.5 3010.84   3
   3  -2  -6 42960.2 4823.35   4
   3  -2  -6 37736.5 3732.38  11
   3  -2  -5 136851. 7737.11   4
   3  -2  -5 135330. 4988.72   3
   3  -2  -5 135792. 6467.52  11
   3  -2  -4 249742. 5072.92   9
   3  -2  -4 250671. 6405.18   3
   3  -2  -4 260267. 9766.61   4
   3  -2  -4 256041. 8529.86  11
   3  -2  -3 203685. 4424.86   9
   3  -2  -3 213415. 8319.74   4
   3  -2  -3 213377. 5784.53   3
   3  -2  -2 75091.8 2868.60   9
   3  -2  -2 73267.3 4532.98   4
   3  -2  -2 68961.1 3110.66   1
   3  -2  -2 72233.4 4532.96   6
   3  -2  -1 44742.2 2624.62   9
   3  -2  -1 47346.6 3094.34   5
   3  -2  -1 43219.8 2645.47   1
   3  -2  -1 46398.7 3508.19   4
   3  -2  -1 47897.5 3618.73   6
   3  -2   0 403474. 10453.7   6
   3  -2   0 431069. 9171.95   5
   3  -2   0 416574. 8040.03   8
   3  -2   0 418412. 9766.85   4
   3  -2   0 412794. 8264.01   7
   3  -2   1 531914. 12332.1   6
   3  -2   1 533182. 10959.9   4
   3  -2   1 533146. 8089.86   8
   3  -2   1 532196. 9160.84   7
   3  -2   2 272101. 8086.10   4
   3  -2   2 270813. 5273.53   8
   3  -2   2 268641. 6800.45   7
   3  -2   3 9925.25 3672.48  10
   3  -2   3 7623.10 1595.77   4
   3  -2   3 7478.37 1371.55   7
   3  -2   4 35203.0 3236.51   2
   3  -2   4 38439.3 6201.75  10
   3  -2   4 28058.5 3117.76   4
   3  -2   4 33513.5 3182.08   7
   3  -2   5 103734. 9628.70  10
   3  -2   5 91398.0 6116.02   7
   3  -2   5 89279.7 5626.15   2
   3  -2   6 101643. 9297.99  10
   3  -2   6 91888.7 7358.30   7
   3  -2   6 88716.3 6423.43   2
   3  -2   7 51000.4 6455.04  10
   3  -2   7 32918.6 5001.66   7
   3  -2   7 45717.6 5375.35   2
   3  -2   8 7276.39 2567.12  10
   3  -2   8 2485.56 2762.30   3
   3  -2   8 2754.29 1936.73   7
   3  -2   8 7667.41 2830.46   2
   3  -2   9 3047.22 2845.53   3
   3  -2   9-259.116 1319.00   7
   3  -2   9-1051.73 1847.01   2
   3  -2  10 3062.26 2135.16   3
   3  -2  10 3494.42 2208.31   2
   3  -2  11 10841.7 4244.02   3
   3  -2  11 11321.9 3377.08   2
   3  -2  12 8585.45 3345.72   2
   3  -2  12 5309.43 3150.37   3
   3  -2  13 4507.01 2603.42   2
   3  -2  13 2409.57 2563.86   3
   3  -1 -15 2917.57 2502.53   7
   3  -1 -14 4209.36 3178.38   7
   3  -1 -13 5345.75 3152.88   7
   3  -1 -12 7206.60 3728.17   7
   3  -1 -11-231.730 1882.93  11
   3  -1 -11-1335.80 2988.99   7
   3  -1 -10 5930.71 2170.11  11
   3  -1 -10 551.849 2586.98   7
   3  -1  -9 59232.2 8557.54   7
   3  -1  -9 73723.3 6018.34  11
   3  -1  -8 92267.8 9994.66   7
   3  -1  -8 97799.0 6247.82  11
   3  -1  -7 131752. 6834.14   3
   3  -1  -7 137727. 11246.8   7
   3  -1  -7 143607. 6949.68  11
   3  -1  -6 15472.8 2459.68  10
   3  -1  -6 12737.1 1700.74   3
   3  -1  -6 12950.8 2110.30  11
   3  -1  -5 28511.0 1945.69   3
   3  -1  -5 30476.9 3925.98  10
   3  -1  -5 27113.3 2678.17  11
   3  -1  -4 183109. 6545.92  11
   3  -1  -4 182777. 4136.47   3
   3  -1  -3 473054. 20380.6  10
   3  -1  -3 449865. 10081.3  11
   3  -1  -3 429761. 11173.7   4
   3  -1  -3 443718. 6478.08   3
   3  -1  -3 452663. 11637.5   6
   3  -1  -2 422902. 20426.8  10
   3  -1  -2 432495. 5582.65   9
   3  -1  -2 426177. 9936.43   5
   3  -1  -2 401074. 9738.09   8
   3  -1  -2 415577. 10147.8   4
   3  -1  -2 442590. 8531.26   1
   3  -1  -2 440067. 10626.0   2
   3  -1  -2 438699. 11004.0   6
   3  -1  -1 402321. 10411.8   6
   3  -1  -1 398068. 9501.22   5
   3  -1  -1 412393. 8974.44   8
   3  -1  -1 410551. 9202.28   4
   3  -1  -1 399436. 8324.29   1
   3  -1   0 3549.77 1162.55   6
   3  -1   0 3919.48 1053.03   5
   3  -1   0 4547.78 967.897   8
   3  -1   0 2511.97 932.667   4
   3  -1   0 4298.42 1101.57   1
   3  -1   1 198833. 5914.25   4
   3  -1   1 205126. 5557.85   8
   3  -1   1 208851. 4423.30   7
   3  -1   2 523593. 9877.57   4
   3  -1   2 514159. 8752.19   8
   3  -1   2 523683. 7888.38   7
   3  -1   3 483835. 20805.2  10
   3  -1   3 459549. 9965.94   4
   3  -1   3 453187. 8804.11   8
   3  -1   3 450246. 9453.24   7
   3  -1   4 133047. 7079.33   7
   3  -1   4 150699. 6032.00   2
   3  -1   5 1008.32 967.160   2
   3  -1   5 282.512 1594.42  10
   3  -1   5-1652.59 1223.16   7
   3  -1   6 44040.9 6273.34  10
   3  -1   6 39338.5 6879.95   3
   3  -1   6 35357.1 4610.44   7
   3  -1   6 38401.9 4425.29   2
   3  -1   7 131959. 10317.4  10
   3  -1   7 100651. 10742.9   3
   3  -1   7 108477. 8316.39   2
   3  -1   8 43134.7 5974.03  10
   3  -1   8 42295.1 7171.76   3
   3  -1   8 30724.8 4609.47   2
   3  -1   9 17562.5 3618.20  10
   3  -1   9 6634.74 2783.06   3
   3  -1   9 13315.9 3162.93   2
   3  -1  10 2850.52 1538.19   2
   3  -1  10 7336.19 3027.71   3
   3  -1  11-504.699 1370.53   2
   3  -1  11-4929.68 3203.88   3
   3  -1  12 3381.52 2193.00   2
   3  -1  12-2653.07 2428.26   3
   3  -1  13 3289.30 3105.99   3
   3   0 -15-7141.52 2632.25   7
   3   0 -14-649.463 2560.39   7
   3   0 -13 16278.7 4617.71   7
   3   0 -12 19652.7 5122.85   7
   3   0 -11 20974.8 3914.67  11
   3   0 -11 26899.2 5677.11   7
   3   0 -10 16784.9 3325.39  11
   3   0 -10 13285.2 3960.06   7
   3   0  -9 2094.37 1413.86  11
   3   0  -9 1282.90 2015.04   7
   3   0  -8 70319.4 3778.45  10
   3   0  -8 79541.0 9326.67   7
   3   0  -8 77904.9 5120.03  11
   3   0  -7 205406. 8198.21  10
   3   0  -7 229287. 15309.1   7
   3   0  -7 236389. 7970.89  11
   3   0  -6 324899. 11939.5  10
   3   0  -6 337098. 18096.6   7
   3   0  -6 316217. 8417.88  11
   3   0  -5 27265.4 4062.45  10
   3   0  -5 29423.3 5283.30   7
   3   0  -5 27134.5 2380.36  11
   3   0  -4 30457.4 4718.67  10
   3   0  -4 28474.6 2374.55  11
   3   0  -4 30773.5 5042.40   7
   3   0  -3 304972. 15181.0  10
   3   0  -3 279855. 13852.0   7
   3   0  -3 307266. 10355.1   2
   3   0  -3 306178. 9322.02   6
   3   0  -2 354438. 16579.7  10
   3   0  -2 350064. 9563.13   5
   3   0  -2 367010. 5452.20   9
   3   0  -2 360727. 8902.37   4
   3   0  -2 349162. 13778.9   7
   3   0  -2 376710. 10194.2   2
   3   0  -2 366438. 10018.7   6
   3   0  -1 302545. 8728.43   5
   3   0  -1 291267. 8884.96   6
   3   0  -1 303749. 8123.24   8
   3   0  -1 309475. 7341.85   4
   3   0  -1 309611. 8116.77   2
   3   0  -1 296522. 7642.48   1
   3   0   0 78832.4 4725.00   6
   3   0   0 80761.9 4577.45   5
   3   0   0 77713.9 3918.11   8
   3   0   0 77892.3 3335.64   4
   3   0   0 78676.2 3583.61   2
   3   0   0 80460.3 4227.25   7
   3   0   1-340.002 3080.58   3
   3   0   1 493.042 536.882   8
   3   0   1 995.988 523.606   4
   3   0   2 29790.1 2028.49   4
   3   0   2 23673.7 2199.82   8
   3   0   2 24508.8 5519.10   3
   3   0   3 151821. 10948.9  10
   3   0   3 160813. 13457.9   3
   3   0   3 160155. 4753.59   2
   3   0   3 155417. 5993.97   8
   3   0   4 156217. 11234.2  10
   3   0   4 168285. 13627.8   3
   3   0   4 166443. 6193.45   2
   3   0   5 77525.6 8050.67  10
   3   0   5 97078.0 10386.2   3
   3   0   5 78836.1 5486.54   2
   3   0   6 11838.1 3648.64   3
   3   0   6 8111.02 2165.37   2
   3   0   7 2277.59 2061.07  10
   3   0   7 2458.02 2269.25   3
   3   0   7 2601.03 1189.12   2
   3   0   8 24780.7 4601.02  10
   3   0   8 27736.1 3806.17   2
   3   0   8 28944.1 5947.21   3
   3   0   9 23402.7 4550.08  10
   3   0   9 23040.0 3544.39   2
   3   0   9 29423.6 5806.53   3
   3   0  10 24445.6 3878.17   2
   3   0  10 17738.0 4766.39   3
   3   0  11 2060.23 1732.14   2
   3   0  11 4662.13 2961.86   3
   3   0  12-3386.70 2828.39   3
   3   1 -15 3362.39 3161.17   7
   3   1 -14-1699.08 2584.19   7
   3   1 -13 2796.69 2832.55   7
   3   1 -12 11629.3 4092.28   7
   3   1 -11 16832.6 4816.85   7
   3   1 -10 33062.6 6096.10   7
   3   1  -9 23811.2 2377.63  10
   3   1  -9 25835.3 5358.52   7
   3   1  -9 22300.5 3050.85  11
   3   1  -8 1604.07 964.012  11
   3   1  -8-1158.26 700.747  10
   3   1  -8 2246.20 1939.46   7
   3   1  -7 14941.3 2597.49  10
   3   1  -7 14964.0 1869.32  11
   3   1  -6 199840. 10132.2  10
   3   1  -6 200693. 13905.2   7
   3   1  -6 193456. 5693.06  11
   3   1  -5 304490. 13359.7  10
   3   1  -5 298890. 16379.2   7
   3   1  -5 283595. 6564.69  11
   3   1  -4 294962. 13397.9  10
   3   1  -4 272541. 13808.4   2
   3   1  -3 51867.4 5762.64  10
   3   1  -3 49878.9 3939.93   5
   3   1  -3 48834.1 2125.21   9
   3   1  -3 58524.5 5628.33   7
   3   1  -3 54841.6 5609.41   2
   3   1  -3 47331.1 1557.44   3
   3   1  -3 50852.8 3797.90   6
   3   1  -2 62395.6 6133.83  10
   3   1  -2 61173.6 4228.43   5
   3   1  -2 59470.1 2698.85   9
   3   1  -2 63170.4 4185.21   6
   3   1  -2 63113.7 4276.60   7
   3   1  -2 55816.5 5028.91   2
   3   1  -2 61944.8 2724.63   3
   3   1  -1 241614. 7323.24   3
   3   1  -1 228974. 7961.10   6
   3   1  -1 232346. 8094.26   5
   3   1  -1 233011. 6346.67   9
   3   1  -1 222062. 5283.17   7
   3   1  -1 246742. 9212.23   2
   3   1   0 377012. 10455.5   6
   3   1   0 394353. 12018.9   3
   3   1   0 382167. 10429.4   5
   3   1   0 368795. 9480.92   9
   3   1   0 375339. 9319.92   8
   3   1   0 376100. 6232.59   4
   3   1   0 371422. 9430.26   2
   3   1   1 124648. 8225.68   3
   3   1   1 131038. 6694.09   9
   3   1   1 127100. 3060.15   4
   3   1   1 122983. 5373.86   8
   3   1   1 131187. 4320.31   2
   3   1   2 107847. 8905.25   3
   3   1   2 119873. 5493.39   8
   3   1   3 3414.02 1924.16  10
   3   1   3 4048.80 2843.42   3
   3   1   3 5231.96 1447.47   8
   3   1   4 34636.9 4998.56  10
   3   1   4 35388.0 6256.61   3
   3   1   4 30923.4 2459.44   2
   3   1   5 104371. 10968.8   3
   3   1   5 99397.5 8648.04  10
   3   1   5 114857. 5471.01   2
   3   1   6 106357. 9118.82  10
   3   1   6 132535. 12591.3   3
   3   1   6 130466. 6675.68   2
   3   1   7 67894.3 9064.14   3
   3   1   7 49410.3 6360.57  10
   3   1   7 62585.5 5143.05   2
   3   1   8 5160.85 2269.84  10
   3   1   8 2585.07 1571.84   2
   3   1   8 4211.94 2931.39   3
   3   1   9-2303.09 1587.25  10
   3   1   9 1381.41 1196.28   2
   3   1   9 536.672 2373.94   3
   3   1  10 16288.0 3201.78   2
   3   1  10 21007.9 5477.92   3
   3   1  11 12390.7 4062.19   3
   3   1  12 13586.7 4776.20   3
   3   1  12 4732.21 2854.90   9
   3   2 -15 960.943 2189.11   7
   3   2 -14 4751.74 2914.48   7
   3   2 -13 6582.29 3585.41   7
   3   2 -12-2048.61 2348.86   7
   3   2 -11 307.935 454.751  10
   3   2 -11 4450.34 3228.18   7
   3   2 -10 11827.6 1902.79  10
   3   2 -10 17006.0 4472.09   7
   3   2  -9 31988.8 3367.33  10
   3   2  -9 32139.1 6018.77   7
   3   2  -8 50126.5 4735.93  10
   3   2  -8 45423.7 5476.15   8
   3   2  -8 41251.1 6711.19   7
   3   2  -8 46403.8 3181.16  11
   3   2  -7 48153.1 5342.06  10
   3   2  -7 51300.0 5129.72   8
   3   2  -7 41097.4 6657.29   2
   3   2  -7 42683.8 6918.43   7
   3   2  -7 44607.0 2508.93  11
   3   2  -6 8630.00 2475.75  10
   3   2  -6 9687.69 2240.00   8
   3   2  -6 8734.78 3205.05   2
   3   2  -6 5443.12 2741.52   7
   3   2  -6 8039.80 1025.73  11
   3   2  -5 60181.0 6279.74  10
   3   2  -5 66589.4 3395.99   9
   3   2  -5 77046.2 7164.54   7
   3   2  -5 68834.9 8516.04   2
   3   2  -5 72431.6 2854.08  11
   3   2  -4 201699. 11028.5  10
   3   2  -4 192091. 5458.08   9
   3   2  -4 186249. 8152.41   5
   3   2  -4 203209. 7764.34   6
   3   2  -4 189650. 9229.91   7
   3   2  -4 194274. 14352.8   2
   3   2  -3 463283. 16386.0  10
   3   2  -3 434436. 12060.3   5
   3   2  -3 454088. 8443.66   9
   3   2  -3 475125. 11592.6   6
   3   2  -3 459420. 11637.2   7
   3   2  -3 496890. 21788.4   2
   3   2  -3 452496. 6792.53   3
   3   2  -2 171528. 6961.64   6
   3   2  -2 183169. 7679.38   5
   3   2  -2 173631. 5625.73   9
   3   2  -2 171897. 5863.30   7
   3   2  -2 171499. 5010.43   3
   3   2  -1 2630.25 1023.08   6
   3   2  -1 1933.76 1013.68   5
   3   2  -1 3434.08 1035.27   3
   3   2  -1 2226.63 916.037   9
   3   2  -1 4627.10 1527.67   2
   3   2  -1 4475.86 898.427   7
   3   2   0 134925. 6622.19   5
   3   2   0 139003. 6144.74   9
   3   2   0 133313. 3408.18   4
   3   2   0 127828. 3467.41   7
   3   2   0 142470. 4882.14   2
   3   2   0 132915. 6224.04   3
   3   2   1 284370. 10567.8   3
   3   2   1 266515. 9448.78   9
   3   2   2 180015. 9760.36   3
   3   2   2 208761. 10914.3  10
   3   2   2 183498. 8833.72   9
   3   2   2 180363. 7519.44   8
   3   2   3 101601. 8403.73   3
   3   2   3 101041. 7813.29  10
   3   2   3 105510. 7623.38   9
   3   2   4 3315.78 1677.63  10
   3   2   4 3847.78 2367.76   3
   3   2   4 930.302 2092.41   9
   3   2   5 2464.80 1495.08  10
   3   2   5 1489.04 2152.35   3
   3   2   5 3698.55 2265.83   9
   3   2   6 47861.0 6013.44  10
   3   2   6 37597.5 6933.05   3
   3   2   6 38465.8 6566.13   9
   3   2   7 66519.3 9553.52   3
   3   2   7 61206.5 6982.35  10
   3   2   7 46959.5 7857.36   9
   3   2   8 36306.9 5664.75  10
   3   2   8 46978.1 8418.15   3
   3   2   8 33380.7 7013.82   9
   3   2   9 8170.62 3112.73  10
   3   2   9 2907.70 3116.77   9
   3   2  10 3992.02 3179.94   3
   3   2  10 1207.58 2723.36   9
   3   2  11 4387.59 3949.85   3
   3   2  11 8676.11 4866.57   9
   3   2  12 7981.37 4210.88   3
   3   2  12 16962.3 5308.56   9
   3   3 -14 2564.87 2554.63   7
   3   3 -13 13130.4 4593.90   7
   3   3 -12 11325.2 4288.59   7
   3   3 -11 4893.31 1478.83  10
   3   3 -11 1321.75 2245.87   7
   3   3 -10-380.629 1188.74  10
   3   3 -10-2460.78 2572.85   7
   3   3  -9 18283.0 4972.98   7
   3   3  -8 69375.6 6398.63   8
   3   3  -8 64953.7 8546.74   7
   3   3  -7 128880. 8026.98   8
   3   3  -7 116918. 10070.5   7
   3   3  -7 116952. 11068.3   2
   3   3  -6 187397. 9074.62   8
   3   3  -6 176928. 10762.2   7
   3   3  -6 179663. 13651.8   2
   3   3  -5 57122.7 3684.38   9
   3   3  -5 59563.2 4950.40   5
   3   3  -5 58721.8 4789.10   8
   3   3  -5 59744.3 5495.62   7
   3   3  -5 69206.7 8545.34   2
   3   3  -4 2855.90 1992.75   2
   3   3  -4 2894.96 1092.80   6
   3   3  -4 4549.00 1444.28   5
   3   3  -4 4522.21 1188.64   9
   3   3  -4 2575.07 1257.04   8
   3   3  -4 5972.79 1747.45   7
   3   3  -3 218576. 8959.22   5
   3   3  -3 224493. 7125.81   9
   3   3  -3 212607. 7789.11   7
   3   3  -3 220363. 6050.93   3
   3   3  -3 215175. 10997.6   2
   3   3  -3 224961. 8029.18   6
   3   3  -2 555847. 12712.4   6
   3   3  -2 568006. 14173.1   5
   3   3  -2 548056. 11615.0   9
   3   3  -2 565552. 11276.0   7
   3   3  -2 548674. 10522.0   3
   3   3  -2 549143. 14043.7   2
   3   3  -1 428076. 12250.5   5
   3   3  -1 414627. 10662.4   9
   3   3  -1 414647. 9516.83   2
   3   3  -1 416486. 11123.6   6
   3   3  -1 417104. 8618.08   7
   3   3  -1 421172. 10164.8   3
   3   3   0 82002.1 5139.03   9
   3   3   0 83005.7 2748.22   4
   3   3   0 81334.2 3536.92   7
   3   3   0 74451.4 4842.53   3
   3   3   1 42726.5 4065.55   9
   3   3   1 45631.7 4278.22   3
   3   3   1 46559.7 3880.77   1
   3   3   2 203303. 10694.7  10
   3   3   2 181036. 7712.37   1
   3   3   2 196981. 9339.16   9
   3   3   2 202600. 8727.34   8
   3   3   2 182917. 9372.31   3
   3   3   3 287938. 12943.7  10
   3   3   3 294507. 12545.2   9
   3   3   3 282721. 10000.3   1
   3   3   3 292895. 13297.6   3
   3   3   4 119471. 8564.63  10
   3   3   4 102818. 8871.05   3
   3   3   4 119834. 8807.18   9
   3   3   5 21284.0 3825.94  10
   3   3   5 14016.6 3987.50   3
   3   3   5 16955.2 4050.84   9
   3   3   6 852.446 1213.94  10
   3   3   6-244.109 2419.65   3
   3   3   6 1730.38 2276.15   9
   3   3   7 17291.3 3829.08  10
   3   3   7 13174.8 4376.95   3
   3   3   7 11866.4 4280.90   9
   3   3   8 20410.2 5683.72   3
   3   3   8 20611.1 5458.61   9
   3   3   9 12763.3 5358.62   3
   3   3   9 11885.9 4808.69   9
   3   3  10 20418.0 5835.18   3
   3   3  10 16626.5 5944.13   9
   3   3  11 507.194 2430.84   3
   3   3  11-1378.21 2862.04   9
   3   4 -14-1324.04 2659.03   7
   3   4 -13 2732.41 2363.38   7
   3   4 -12 8269.11 3969.30   7
   3   4 -11 26752.1 6261.77   7
   3   4 -10 39680.9 7337.97   7
   3   4  -9 2280.92 2664.82   7
   3   4  -8 19860.0 4639.81   7
   3   4  -7 97690.2 7040.51   8
   3   4  -7 90132.9 8248.61   7
   3   4  -6 127401. 6418.59   9
   3   4  -6 110788. 7258.16   5
   3   4  -6 125162. 7631.27   8
   3   4  -6 126504. 8708.23   7
   3   4  -5 83200.5 5047.89   9
   3   4  -5 87120.7 6236.68   5
   3   4  -5 91025.6 6190.06   8
   3   4  -5 89164.6 6522.36   7
   3   4  -5 81420.0 3225.15  11
   3   4  -5 82497.8 8132.46   2
   3   4  -4 13920.8 2148.34  11
   3   4  -4 14852.5 2107.67   6
   3   4  -4 14588.7 2999.05   2
   3   4  -4 13900.0 2544.59   5
   3   4  -4 13687.9 2269.43   9
   3   4  -4 15232.2 2607.13   8
   3   4  -4 12685.4 2478.62   7
   3   4  -3 32.7781 1169.55  11
   3   4  -3 1233.71 788.477   6
   3   4  -3 1510.68 910.835   5
   3   4  -3 2486.43 1330.48   2
   3   4  -3 804.004 953.518   9
   3   4  -3 1840.10 1094.15   8
   3   4  -3 2792.15 1448.74   7
   3   4  -2 114152. 5836.26   6
   3   4  -2 109754. 5755.97   2
   3   4  -2 111841. 6595.07   5
   3   4  -2 114152. 6005.44   9
   3   4  -2 110880. 5552.07   4
   3   4  -2 112695. 5571.11   7
   3   4  -2 111290. 5407.29   3
   3   4  -2 107105. 9099.69  11
   3   4  -1 192822. 7751.97   6
   3   4  -1 206514. 8984.03   5
   3   4  -1 197026. 8221.50   9
   3   4  -1 211031. 6165.60   4
   3   4  -1 200204. 6902.78   7
   3   4  -1 201090. 7844.57   3
   3   4  -1 185632. 13723.6  11
   3   4   0 180365. 8294.52   9
   3   4   0 174536. 4352.56   4
   3   4   0 179248. 7668.97   1
   3   4   0 182579. 8034.35   3
   3   4   0 185939. 15236.6  11
   3   4   1 64554.1 9605.62  11
   3   4   1 52368.3 4823.33   9
   3   4   1 57474.4 4510.80   1
   3   4   1 55647.4 4874.84   3
   3   4   2 792.053 1944.69  11
   3   4   2 2486.73 1550.63  10
   3   4   2 1111.57 1192.94   1
   3   4   2 1819.96 1481.92   3
   3   4   2 551.057 1516.92   9
   3   4   2 406.442 861.854   8
   3   4   3 36142.5 4768.93  10
   3   4   3 35072.5 3760.07   1
   3   4   3 28354.6 4040.54   9
   3   4   3 33543.4 4619.48   3
   3   4   4 104113. 8087.94  10
   3   4   4 94200.2 8030.19   9
   3   4   4 96987.2 8342.10   3
   3   4   5 54109.2 6618.85   9
   3   4   5 59656.1 7275.66   3
   3   4   6 27518.8 5567.64   3
   3   4   6 24304.0 5007.15   9
   3   4   7-3853.46 2856.61   3
   3   4   7 4148.00 2940.71   9
   3   4   8-6398.24 3609.82   3
   3   4   8-261.332 2461.78   9
   3   4   9-3538.76 3097.39   3
   3   4   9 2177.33 2878.23   9
   3   4  10-2188.03 3306.51   3
   3   4  10 8818.09 4477.59   9
   3   4  11-470.277 2742.32   3
   3   4  11 4721.25 3740.65   9
   3   5 -14 2127.98 3056.96   7
   3   5 -13 1215.62 2666.03   7
   3   5 -12-6713.32 3826.57   7
   3   5 -11 6359.66 4230.83   7
   3   5 -10 26658.1 6440.34   7
   3   5  -9 55935.6 7831.38   7
   3   5  -8 25493.3 4954.03   7
   3   5  -7 309.138 1233.63   5
   3   5  -7-287.814 1872.24   7
   3   5  -6 39731.1 4109.42   9
   3   5  -6 43751.5 4780.60   5
   3   5  -6 37336.1 4335.64   8
   3   5  -6 41450.3 4978.94   7
   3   5  -5 102876. 8265.33   2
   3   5  -5 116456. 7493.66   5
   3   5  -5 104418. 6332.96   9
   3   5  -5 115738. 7230.13   8
   3   5  -5 106214. 7204.92   7
   3   5  -5 94638.7 3362.05  11
   3   5  -4 104039. 7350.54   2
   3   5  -4 105481. 6918.45   5
   3   5  -4 98987.1 6088.56   9
   3   5  -4 103857. 7086.11   4
   3   5  -4 100978. 6669.46   8
   3   5  -4 96497.9 6462.53   7
   3   5  -4 100618. 5358.06   6
   3   5  -4 97498.0 4743.62  11
   3   5  -3 54845.5 4953.80   5
   3   5  -3 55090.4 4602.79   9
   3   5  -3 63565.6 4811.05   4
   3   5  -3 55281.1 4934.51   8
   3   5  -3 55697.3 4622.74   7
   3   5  -3 62702.6 4842.93  11
   3   5  -3 54752.2 4008.80   6
   3   5  -2 4578.95 1839.82  11
   3   5  -2 4902.69 1350.07   6
   3   5  -2 5323.46 1623.22   3
   3   5  -2 5403.64 1702.06   5
   3   5  -2 3870.70 1615.07   9
   3   5  -2 5002.99 1351.26   4
   3   5  -2 6527.29 1819.93   8
   3   5  -2 4926.77 1566.28   7
   3   5  -1 17003.8 3912.64  11
   3   5  -1 13982.5 2294.93   6
   3   5  -1 15413.4 2590.74   3
   3   5  -1 15537.2 2768.05   9
   3   5  -1 15695.2 1845.20   4
   3   5  -1 16660.4 2984.66   8
   3   5  -1 15784.9 2334.95   7
   3   5   0 45698.3 6748.44  11
   3   5   0 45797.0 4687.24   9
   3   5   0 51512.0 2752.35   4
   3   5   0 52387.3 4469.32   1
   3   5   0 56378.1 4854.51   3
   3   5   1 107412. 7327.48   9
   3   5   1 102745. 3302.92   4
   3   5   1 106880. 6347.37   1
   3   5   1 113243. 7312.29   3
   3   5   1 106895. 11257.0  11
   3   5   2 106334. 6527.30   1
   3   5   2 107311. 7754.61   9
   3   5   2 104070. 7516.91   3
   3   5   3 35058.7 4706.22   3
   3   5   3 44730.9 5270.20   9
   3   5   3 39654.3 4191.06   1
   3   5   4-536.151 1924.42   3
   3   5   4-735.088 1549.72   9
   3   5   5 15622.3 4006.02   3
   3   5   5 19307.6 4245.71   9
   3   5   6 43255.7 6845.36   3
   3   5   6 46682.3 6849.09   9
   3   5   7 23915.6 5798.25   3
   3   5   7 33824.9 6453.93   9
   3   5   8 9257.60 4005.50   3
   3   5   8 11665.9 4233.14   9
   3   5   9-7782.30 3882.27   3
   3   5   9 3284.30 3599.93   9
   3   5  10-1334.80 3327.52   3
   3   5  10 1750.76 3064.56   9
   3   6 -13 5151.01 3862.09   7
   3   6 -12 1887.43 2717.79   7
   3   6 -11-1450.63 3427.98   7
   3   6 -10 2774.87 2768.29   7
   3   6  -9 13996.6 4190.54   7
   3   6  -8 34885.4 5636.37   7
   3   6  -7 39759.3 4789.60   9
   3   6  -7 37722.7 5391.41   7
   3   6  -6 26168.1 3906.52   5
   3   6  -6 18110.8 3253.65   9
   3   6  -6 17693.6 3520.36   7
   3   6  -5-169.631 1145.26   5
   3   6  -5 384.063 1210.35   9
   3   6  -5 685.353 1470.86   4
   3   6  -5 3169.81 1958.87   7
   3   6  -5 364.255 421.824  11
   3   6  -4 67162.2 5735.50   5
   3   6  -4 58293.2 5184.41   9
   3   6  -4 63968.2 5469.49   4
   3   6  -4 55719.7 5236.68   7
   3   6  -4 63047.3 3917.82  11
   3   6  -3 125455. 7743.59   5
   3   6  -3 132735. 7721.05   9
   3   6  -3 135495. 7090.65   4
   3   6  -3 137333. 7757.63   7
   3   6  -3 129511. 6760.16  11
   3   6  -3 128487. 6076.30   6
   3   6  -2 117311. 6074.61   6
   3   6  -2 111602. 7318.34   5
   3   6  -2 105956. 7108.36   9
   3   6  -2 117420. 5987.67   4
   3   6  -2 117945. 7489.42  11
   3   6  -2 112892. 6725.00   7
   3   6  -2 111485. 6809.37   3
   3   6  -1 30698.6 4481.15  11
   3   6  -1 25304.3 3038.08   6
   3   6  -1 24035.4 3683.84   9
   3   6  -1 28497.0 2693.21   4
   3   6  -1 30685.8 3716.16   1
   3   6  -1 27048.2 3259.40   7
   3   6  -1 27532.7 3600.71   3
   3   6   0-385.714 1887.21  11
   3   6   0 932.208 1400.57   3
   3   6   0-1814.34 1976.68   9
   3   6   0 1788.62 861.365   4
   3   6   0 29.9960 1205.90   1
   3   6   1 19485.8 3473.50   3
   3   6   1 12325.6 2517.16   1
   3   6   1 16236.7 3348.99   9
   3   6   1 15513.2 1630.86   4
   3   6   2 69758.4 5592.40   1
   3   6   2 69058.9 6679.94   9
   3   6   2 64696.6 6422.47   3
   3   6   3 77235.8 7281.82   9
   3   6   3 79696.1 6022.72   1
   3   6   3 69566.6 6982.97   3
   3   6   4 35085.7 5451.28   3
   3   6   4 38012.0 5582.58   9
   3   6   5 5236.61 2804.34   3
   3   6   5 5708.21 2686.22   9
   3   6   6-1387.55 2586.37   3
   3   6   6-179.471 2341.03   9
   3   6   7 13460.8 4852.20   3
   3   6   7 14437.7 4581.41   9
   3   6   8 14185.6 5143.75   3
   3   6   8 15866.4 5355.72   9
   3   6   9 5778.80 4014.61   3
   3   6   9 9820.36 4273.83   9
   3   7 -12 8825.78 4832.48   7
   3   7 -11 12705.1 4838.79   7
   3   7 -10 9869.62 3714.16   7
   3   7  -9 672.745 2183.07   7
   3   7  -8 6089.05 2730.65   7
   3   7  -7 31166.7 4563.60   9
   3   7  -7 37119.5 5508.89   7
   3   7  -6 84603.6 7170.51   9
   3   7  -6 70631.4 6893.67   7
   3   7  -5 62968.1 5982.09   9
   3   7  -5 63929.5 6395.78   7
   3   7  -5 65108.8 3435.79  11
   3   7  -4 2684.43 1415.16   5
   3   7  -4 1632.35 1844.02   9
   3   7  -4 2349.10 1535.82   4
   3   7  -4 2097.51 1824.36   7
   3   7  -4 4789.90 1317.69  11
   3   7  -3 29317.3 4215.75   5
   3   7  -3 25247.4 3934.47   9
   3   7  -3 28571.8 2854.83   6
   3   7  -3 25230.9 3269.34   4
   3   7  -3 27558.6 4048.34   7
   3   7  -3 29511.8 3314.68  11
   3   7  -2 119456. 6043.48   6
   3   7  -2 122285. 8226.64   9
   3   7  -2 129016. 7810.50   7
   3   7  -2 119750. 7539.21  11
   3   7  -1 138666. 6902.63   6
   3   7  -1 146012. 9134.48   9
   3   7  -1 142423. 6460.76   4
   3   7  -1 136907. 7830.13   1
   3   7  -1 137078. 8404.66   3
   3   7  -1 154071. 9665.13  11
   3   7   0 49592.8 4552.52   6
   3   7   0 54085.1 5923.66   9
   3   7   0 58806.7 3842.37   4
   3   7   0 56503.5 5087.11   1
   3   7   0 56269.1 5674.09   3
   3   7   1 4975.55 2244.14   3
   3   7   1 2962.54 2182.23   9
   3   7   1 4578.48 1818.33   1
   3   7   1 4141.52 1137.27   4
   3   7   2 15245.9 2994.10   1
   3   7   2 16269.8 3770.50   3
   3   7   2 13779.7 3501.37   9
   3   7   2 14829.7 1660.61   4
   3   7   3 48248.9 6214.68   9
   3   7   3 51872.2 5078.57   1
   3   7   3 49494.2 6151.60   3
   3   7   4 38504.0 5832.61   3
   3   7   4 43410.2 6148.71   9
   3   7   5 27871.9 5582.79   3
   3   7   5 20813.8 4832.66   9
   3   7   6 1774.43 2198.76   3
   3   7   6 7382.36 3099.59   9
   3   7   7-938.674 2391.51   3
   3   7   7 3774.73 3130.07   9
   3   7   8 7081.45 4093.57   3
   3   7   8 7632.89 4595.47   9
   3   8 -11 18658.7 5497.51   7
   3   8 -10 16462.8 4870.06   7
   3   8  -9 5233.55 3018.13   7
   3   8  -8-660.433 2272.99   7
   3   8  -7 2541.48 2121.75   9
   3   8  -7-4502.80 2660.31   7
   3   8  -6 30449.6 4785.45   9
   3   8  -6 31613.3 4944.13   7
   3   8  -5 58661.5 6248.68   9
   3   8  -5 62244.8 6594.23   7
   3   8  -4 44387.7 5454.73   9
   3   8  -4 51880.1 5839.55   7
   3   8  -4 46680.4 3826.79  11
   3   8  -3 10376.7 3032.11   9
   3   8  -3 8812.93 2294.62   4
   3   8  -3 7145.28 2391.90   7
   3   8  -3 9444.42 2165.04  11
   3   8  -2-1003.07 1179.90  11
   3   8  -2 1122.95 1768.09   9
   3   8  -2 2556.47 1602.93   4
   3   8  -1 41123.5 5374.57   9
   3   8  -1 38611.1 3778.56   4
   3   8  -1 37651.7 4500.94   1
   3   8   0 54455.3 6359.47   9
   3   8   0 60758.7 5536.19   1
   3   8   0 63303.8 6549.87   3
   3   8   1 40723.8 5793.24   9
   3   8   1 36015.3 5150.14   3
   3   8   1 35051.7 4340.23   1
   3   8   2 8022.89 3102.96   3
   3   8   2 9121.09 2366.31   1
   3   8   2 13064.4 3765.54   9
   3   8   3-782.069 1943.64   3
   3   8   3-2463.05 2923.02   9
   3   8   3-1733.10 1587.41   1
   3   8   4 5184.15 3189.71   3
   3   8   4 9702.48 3622.19   9
   3   8   5 6991.61 3349.12   3
   3   8   5 11881.9 4293.90   9
   3   8   6 8298.25 3963.05   3
   3   8   6 8367.22 3315.05   9
   3   8   7 4253.33 3183.45   3
   3   8   7 1518.90 2649.65   9
   3   9  -9 10824.4 4093.07   7
   3   9  -8 13576.6 3687.43   9
   3   9  -8 9984.27 3866.93   7
   3   9  -7 2159.29 2303.12   9
   3   9  -7 614.669 1699.66   7
   3   9  -6-1256.09 2105.51   9
   3   9  -6 1552.72 1965.44   7
   3   9  -5 10136.5 3267.49   9
   3   9  -5 8075.14 2769.88   7
   3   9  -4 21560.3 4336.09   9
   3   9  -4 25586.4 4518.73   7
   3   9  -3 23086.4 4393.07   9
   3   9  -2 19404.8 4113.52   9
   3   9  -2 21373.7 3614.20   1
   3   9  -1 3024.38 2203.50   9
   3   9  -1 3292.11 1797.47   1
   3   9   0 2811.30 1774.86   1
   3   9   0 558.933 1945.56   9
   3   9   1 19302.2 4231.95   3
   3   9   1 20589.4 4605.02   9
   3   9   1 18873.4 3477.86   1
   3   9   2 32632.2 5649.98   3
   3   9   2 24572.5 5066.96   9
   3   9   2 29681.4 4183.65   1
   3   9   3 20478.2 4901.14   3
   3   9   3 15649.6 4254.56   9
   3   9   3 12508.2 2886.28   1
   3   9   4 4212.12 3239.32   3
   3   9   4 1966.01 2607.58   9
   3   9   5 5938.25 3209.52   3
   3   9   5-69.1368 2286.18   9
   3  10  -7 13977.6 4204.35   9
   3  10  -7 19672.8 4854.41   7
   3  10  -6 9950.37 3584.47   9
   3  10  -6 14494.0 4063.51   7
   3  10  -5 5121.89 2714.68   9
   3  10  -5 4476.01 2640.12   7
   3  10  -4-920.532 2054.82   9
   3  10  -3 4626.58 2456.43   9
   3  10  -2 14979.5 4111.15   9
   3  10  -2 22775.2 3979.61   1
   3  10  -1 24947.5 5077.12   9
   3  10  -1 19067.6 3596.18   1
   3  10   0 5690.33 2219.17   1
   3  10   0 8650.36 3239.62   9
   3  10   1 2343.43 2498.93   9
   3  10   1-249.452 1535.36   1
   3  10   2 3325.53 2395.11   3
   3  10   2 1931.78 2654.61   9
   3  10   2 6469.87 2302.32   1
   4 -10  -5 11119.3 4476.44  11
   4 -10  -5 9926.58 3601.19   4
   4 -10  -4 7378.66 3580.63  11
   4 -10  -4 11551.9 3641.87   8
   4 -10  -4 14431.3 4215.76   4
   4 -10  -3 3064.64 2331.31   8
   4 -10  -3 3807.67 2763.35   4
   4 -10  -3 1618.51 2389.17  11
   4 -10  -2-167.059 1722.11   8
   4 -10  -2 2609.35 2033.35   4
   4 -10  -2-296.034 1978.12  11
   4 -10  -1 405.507 2205.14   4
   4 -10  -1 3116.52 2835.44  11
   4 -10   0 22626.5 4776.58   4
   4 -10   0 17140.4 4688.94  11
   4 -10   1 19456.6 4612.82   4
   4 -10   1 30862.3 5750.85  11
   4 -10   2 17244.9 4114.29   4
   4 -10   2 13410.6 3905.34  11
   4 -10   3-2109.33 2614.89   4
   4 -10   3 2565.80 2272.60  11
   4 -10   4 2598.04 2709.85   4
   4 -10   4 11251.5 3782.63  11
   4 -10   5 14690.7 4537.02   4
   4 -10   5 18631.5 4933.00   2
   4 -10   5 12613.9 4003.05  11
   4  -9  -8 7340.20 3856.75  11
   4  -9  -8 14294.8 4402.34   4
   4  -9  -7 6126.76 3053.37  11
   4  -9  -7 1864.63 2259.55   4
   4  -9  -6-52.8666 2336.78  11
   4  -9  -6-4532.48 2589.26   4
   4  -9  -5 16001.5 4482.14  11
   4  -9  -5 21153.9 4591.28   4
   4  -9  -4 39582.7 5908.75   4
   4  -9  -4 34120.0 5847.37  11
   4  -9  -3 43171.6 5979.78   4
   4  -9  -3 41981.1 6390.18  11
   4  -9  -2 15302.3 3907.31   4
   4  -9  -2 11346.6 3521.27  11
   4  -9  -1-129.548 1509.90   8
   4  -9  -1 18.8149 1940.41   4
   4  -9  -1-464.613 1887.10  11
   4  -9   0 8928.86 1952.78   8
   4  -9   0 6563.29 2462.46   4
   4  -9   0 7123.32 2747.13  11
   4  -9   1 35759.4 5530.82   4
   4  -9   1 31909.1 5202.74  11
   4  -9   2 30945.9 5196.40  11
   4  -9   2 35768.4 5662.00   4
   4  -9   3 20502.8 4418.53   4
   4  -9   3 29781.2 5247.34  11
   4  -9   4 3647.46 2733.76   4
   4  -9   4 7531.26 2967.44  11
   4  -9   5 3166.53 2488.77   2
   4  -9   5-2076.88 2817.80   4
   4  -9   5 3590.89 2495.95  11
   4  -9   6 14366.9 3974.23   2
   4  -9   6 15840.1 4570.22  11
   4  -9   7 23813.5 5356.16   2
   4  -9   7 17073.1 5018.88  11
   4  -8  -9 3947.97 2781.83  11
   4  -8  -9 2365.00 2511.48   4
   4  -8  -8 11511.6 4175.06  11
   4  -8  -8 10240.1 3887.99   4
   4  -8  -7 19324.5 4719.45  11
   4  -8  -7 22397.6 4744.25   4
   4  -8  -6 11549.8 3758.78  11
   4  -8  -6 21018.4 4548.08   4
   4  -8  -5 4057.59 2408.89   4
   4  -8  -5 4240.59 2365.62  11
   4  -8  -4 7631.41 2853.32   4
   4  -8  -4 8708.26 3073.69  11
   4  -8  -3 34850.1 4989.83   4
   4  -8  -3 31360.4 5137.45  11
   4  -8  -2 67519.5 6938.34   4
   4  -8  -2 59640.0 6630.12  11
   4  -8  -1 47786.0 5883.48   4
   4  -8  -1 44504.1 5730.04  11
   4  -8   0 6507.59 2867.24   4
   4  -8   0 9626.89 1933.90   8
   4  -8   0 7599.71 2738.84  11
   4  -8   1 8055.67 1457.48   8
   4  -8   1 6545.88 2413.07   4
   4  -8   1 5897.86 2278.75  11
   4  -8   2 24492.2 1694.71   8
   4  -8   2 25549.6 4496.53   4
   4  -8   2 26720.8 4473.50  11
   4  -8   3 32785.1 5041.68   4
   4  -8   3 38419.1 5481.26  11
   4  -8   4 32670.2 5248.79   4
   4  -8   4 37041.2 5401.59  11
   4  -8   5 10525.8 3458.50   4
   4  -8   5 7788.88 3077.48  11
   4  -8   6 1097.89 1963.71   2
   4  -8   6-119.499 1999.84  11
   4  -8   7 6027.15 3056.78   2
   4  -8   7-731.692 1990.32  11
   4  -8   8 12131.2 4037.98   2
   4  -8   8 13370.4 4414.65  11
   4  -7 -11-48.3212 1999.23  11
   4  -7 -11-2782.79 3045.07   4
   4  -7 -10 6132.26 3207.40  11
   4  -7 -10-8989.64 3787.57   4
   4  -7  -9 3381.41 2833.59  11
   4  -7  -9-689.923 2180.70   4
   4  -7  -8 2937.04 2521.74  11
   4  -7  -8-10.8568 2092.41   4
   4  -7  -7 10713.4 3431.39  11
   4  -7  -7 18861.9 4323.47   4
   4  -7  -6 28138.1 4585.74   4
   4  -7  -6 25331.5 4823.59  11
   4  -7  -5 36011.2 5173.29   4
   4  -7  -5 34932.5 5352.90  11
   4  -7  -4 23179.4 4336.18  11
   4  -7  -4 25509.0 4370.22   4
   4  -7  -3 1021.03 1686.48   4
   4  -7  -3 3068.68 1971.34  11
   4  -7  -2 13374.6 1614.42   5
   4  -7  -2 11786.1 3044.43   4
   4  -7  -2 13335.9 3282.94  11
   4  -7  -1 70865.6 2537.09   5
   4  -7  -1 75211.8 6773.87   4
   4  -7  -1 74688.6 6832.05  11
   4  -7   0 111278. 8200.49   4
   4  -7   0 113618. 8230.80  11
   4  -7   1 36345.4 2738.16   8
   4  -7   1 31679.0 4573.27   4
   4  -7   1 32381.0 4499.84  11
   4  -7   2 366.005 786.056   6
   4  -7   2 576.402 1690.19  11
   4  -7   2 768.483 406.885   8
   4  -7   2 1252.38 428.727   8
   4  -7   2 288.214 1859.82   4
   4  -7   3 12883.0 2299.37   6
   4  -7   3 10507.3 3072.37  11
   4  -7   3 10886.4 3160.97   4
   4  -7   4 44860.5 5641.47   4
   4  -7   4 38692.6 5361.50  11
   4  -7   4 40629.6 3998.89   6
   4  -7   5 30659.4 3854.69   6
   4  -7   5 29068.3 4600.64   2
   4  -7   5 30561.2 5014.36   4
   4  -7   5 29220.3 4701.64  11
   4  -7   6 14756.3 3846.67   2
   4  -7   7 4262.72 2424.60   2
   4  -7   8-1708.42 2689.39   2
   4  -7   9-105.759 2407.13   2
   4  -6 -12-7553.00 3667.13  11
   4  -6 -12-5389.13 3219.26   4
   4  -6 -11 4971.69 3235.52  11
   4  -6 -11 5078.25 3304.47   4
   4  -6 -10 6950.45 3068.83  11
   4  -6 -10 13110.4 4144.67   4
   4  -6  -9 21907.0 4905.50  11
   4  -6  -9 18654.4 4348.55   4
   4  -6  -8 10237.5 3244.35  11
   4  -6  -8 8023.04 3258.93   4
   4  -6  -7 1501.44 1433.80   9
   4  -6  -7-2063.16 2586.24   4
   4  -6  -7-111.719 1823.24  11
   4  -6  -6 6346.27 1739.12   9
   4  -6  -6 7634.22 2934.69   4
   4  -6  -6 2938.54 2111.30  11
   4  -6  -5 13480.5 2398.12   9
   4  -6  -5 20942.9 3945.21   4
   4  -6  -5 18465.9 3594.36  11
   4  -6  -4 56215.9 4691.24   9
   4  -6  -4 52200.1 5675.49   4
   4  -6  -4 58086.6 5987.77  11
   4  -6  -3 71559.9 5321.74   9
   4  -6  -3 61213.0 5992.88   4
   4  -6  -3 61474.9 6018.52  11
   4  -6  -2 39923.5 2987.25   5
   4  -6  -2 47780.5 4391.65   9
   4  -6  -2 46101.7 5073.82   4
   4  -6  -2 42830.1 4940.41  11
   4  -6  -1-374.640 451.954   5
   4  -6  -1 60.8929 918.893   9
   4  -6  -1 651.163 1461.97   4
   4  -6  -1-1011.81 1385.77  11
   4  -6   0 53191.8 4834.94   9
   4  -6   0 51627.8 5251.57   4
   4  -6   0 57524.2 5665.82  11
   4  -6   1 170366. 9428.02   4
   4  -6   1 173092. 9596.26  11
   4  -6   1 158713. 7502.80   6
   4  -6   2 152919. 9054.66   4
   4  -6   2 138020. 3180.36   8
   4  -6   2 139778. 3199.75   8
   4  -6   2 141725. 8765.44  11
   4  -6   2 137133. 7069.60   6
   4  -6   3 56143.9 4709.24   6
   4  -6   3 55011.8 5653.42   4
   4  -6   4 594.584 1380.04   6
   4  -6   4-1060.42 2182.35   4
   4  -6   5 43188.6 4606.74   6
   4  -6   5 45185.2 5622.53   4
   4  -6   6 49899.2 5462.27   6
   4  -6   6 46241.9 5745.23   2
   4  -6   7 28768.9 4907.95   2
   4  -6   8 6945.62 3157.91   2
   4  -6   9 589.375 2309.84   2
   4  -6  10 5241.47 3176.10   2
   4  -5 -12 846.437 2655.94  11
   4  -5 -12 1834.25 3620.75   4
   4  -5 -11 6638.11 3081.47  11
   4  -5 -11 3561.39 3130.52   4
   4  -5 -10 3396.69 2510.74  11
   4  -5 -10 738.296 2216.57   4
   4  -5  -9 28371.4 5096.13  11
   4  -5  -9 30620.4 5393.08   4
   4  -5  -8 54093.2 5220.40   3
   4  -5  -8 63010.3 7165.37   4
   4  -5  -8 51575.9 6133.89  11
   4  -5  -7 38900.4 3834.33   9
   4  -5  -7 55606.4 6470.14   4
   4  -5  -7 46025.8 1749.58   1
   4  -5  -7 55694.3 6174.14  11
   4  -5  -7 58398.0 5196.67   3
   4  -5  -6 9368.36 2762.51  11
   4  -5  -6 7436.90 1970.55   3
   4  -5  -6 7597.75 1739.85   9
   4  -5  -6 9355.82 2935.33   4
   4  -5  -5 831.168 1096.51   3
   4  -5  -5 1696.98 1015.54   9
   4  -5  -5 243.849 1810.90   4
   4  -5  -5 1021.51 1794.47  11
   4  -5  -4 42929.4 3657.37   9
   4  -5  -4 41994.3 4880.82   4
   4  -5  -4 49525.2 4434.20   3
   4  -5  -4 44338.5 4907.46  11
   4  -5  -3 111590. 5891.80   9
   4  -5  -3 120138. 7806.01   4
   4  -5  -3 123562. 6827.99   3
   4  -5  -3 115799. 7562.42  11
   4  -5  -2 125260. 5525.77   5
   4  -5  -2 139102. 6614.88   9
   4  -5  -2 129290. 7812.15   4
   4  -5  -2 141280. 7397.35   3
   4  -5  -2 136982. 8142.86  11
   4  -5  -1 79729.3 4044.19   5
   4  -5  -1 85482.3 5365.78   9
   4  -5  -1 81311.0 6128.04   4
   4  -5  -1 76339.4 6070.66  11
   4  -5  -1 78306.2 5623.25   7
   4  -5   0 7477.95 1768.32   6
   4  -5   0 9135.31 1265.00   5
   4  -5   0 7334.39 1786.47   9
   4  -5   0 8290.17 2219.14   4
   4  -5   0 7555.39 2200.78  11
   4  -5   0 7497.54 1862.22   7
   4  -5   1 29487.0 3537.39   9
   4  -5   1 24030.7 1926.13   8
   4  -5   1 25445.3 3553.62   4
   4  -5   1 33478.9 3679.72   7
   4  -5   1 25151.4 3092.81   6
   4  -5   2 85800.8 5772.12   6
   4  -5   2 84397.5 6241.80   9
   4  -5   2 87708.4 6408.85   4
   4  -5   2 87386.7 2590.28   8
   4  -5   2 91521.9 6033.69   7
   4  -5   3 170460. 8458.78   6
   4  -5   3 175950. 9358.42   4
   4  -5   3 188563. 8839.41   7
   4  -5   4 68967.7 5672.44   6
   4  -5   4 63014.3 5849.01   4
   4  -5   4 72394.2 5679.83   7
   4  -5   5 1791.52 1538.20   6
   4  -5   5 4589.94 2097.17   2
   4  -5   5 1510.72 1820.13   4
   4  -5   5 4954.75 1898.15   7
   4  -5   6 16490.4 3533.07   2
   4  -5   7 35631.0 5109.61   2
   4  -5   8 21104.1 4231.21   2
   4  -5   9 2728.34 2456.26   2
   4  -5  10 5308.11 3008.88   2
   4  -5  11-6161.36 3314.61   2
   4  -4 -13 1254.47 2073.77  11
   4  -4 -13 5542.79 4170.74   7
   4  -4 -13-2470.69 3021.71   4
   4  -4 -12 3339.35 2821.37  11
   4  -4 -12 5384.26 4153.65   7
   4  -4 -12 8175.63 3889.05   4
   4  -4 -11 10507.4 3615.79  11
   4  -4 -11 10227.6 4125.76   4
   4  -4 -10 15251.8 3986.94  11
   4  -4 -10 11266.7 4167.46   4
   4  -4  -9 1416.01 1814.63  11
   4  -4  -9 1197.70 1133.14   3
   4  -4  -9 445.765 1937.15   4
   4  -4  -8 13100.5 2526.53   3
   4  -4  -8 22482.3 4437.36   4
   4  -4  -8 23943.3 4082.57  11
   4  -4  -7 74946.1 7218.57   4
   4  -4  -7 75248.5 5313.48   3
   4  -4  -7 69274.6 6308.44  11
   4  -4  -6 92085.8 5608.61   3
   4  -4  -6 90676.9 4844.06   9
   4  -4  -6 90477.0 7424.41   4
   4  -4  -6 95167.5 7015.21  11
   4  -4  -5 33779.5 2872.58   9
   4  -4  -5 39469.4 4626.43   4
   4  -4  -5 34039.3 2055.61   1
   4  -4  -5 34678.3 4154.51  11
   4  -4  -5 35455.2 3424.52   3
   4  -4  -4 3316.88 1121.81   3
   4  -4  -4 3938.16 1187.35   9
   4  -4  -4 5309.22 2075.25   4
   4  -4  -4 2394.24 666.361   1
   4  -4  -4 3613.12 1736.87  11
   4  -4  -3 71686.6 5620.24  11
   4  -4  -3 67884.5 4020.78   9
   4  -4  -3 73523.8 5889.45   4
   4  -4  -3 78390.4 4938.64   3
   4  -4  -2 129932. 5727.95   5
   4  -4  -2 132386. 5683.01   9
   4  -4  -2 132517. 7435.81   4
   4  -4  -1 161727. 6194.40   5
   4  -4  -1 160132. 6605.21   9
   4  -4  -1 158049. 7972.37   4
   4  -4  -1 167324. 7404.49   7
   4  -4  -1 169346. 7888.86   6
   4  -4   0 111320. 4843.92   5
   4  -4   0 110581. 5924.76   9
   4  -4   0 105438. 4615.04   8
   4  -4   0 101715. 6353.33   4
   4  -4   0 97838.9 5575.15   7
   4  -4   0 110804. 6364.51   6
   4  -4   1 38528.5 3834.89   6
   4  -4   1 37319.9 3754.31   9
   4  -4   1 42022.9 4169.05   4
   4  -4   1 38516.1 2407.29   8
   4  -4   1 43396.1 3722.07   7
   4  -4   2-85.4957 906.521   6
   4  -4   2-605.232 1141.11   9
   4  -4   2-161.220 435.383   8
   4  -4   2 346.908 1141.54   4
   4  -4   2-190.921 728.533   7
   4  -4   3 39843.0 4306.38   6
   4  -4   3 47183.4 5217.04   9
   4  -4   3 35269.2 4036.27   4
   4  -4   3 37301.6 3623.63   7
   4  -4   4 163049. 8955.92   6
   4  -4   4 147410. 8275.43   4
   4  -4   4 161811. 7733.62   7
   4  -4   5 87936.8 6441.17   2
   4  -4   5 86541.3 6788.92   4
   4  -4   5 89784.2 6246.71   7
   4  -4   6 31231.1 4232.28   7
   4  -4   6 32123.3 4272.44   2
   4  -4   7-457.439 1539.48   2
   4  -4   7 203.594 1553.59   7
   4  -4   8 19056.5 4217.57   2
   4  -4   9 23445.8 4848.76   2
   4  -4  10 10624.4 3991.17   2
   4  -4  11-2315.37 3272.44   3
   4  -4  11-439.545 2181.32   2
   4  -3 -14 3975.32 3689.41   7
   4  -3 -14 868.029 3202.24   4
   4  -3 -13 1044.76 2158.90  11
   4  -3 -13-1269.82 3103.06   7
   4  -3 -13 1488.97 2903.36   4
   4  -3 -12 6822.63 2980.88  11
   4  -3 -12 5020.71 3493.81   7
   4  -3 -12 1614.91 3132.74   4
   4  -3 -11 13487.9 3632.32  11
   4  -3 -11 6170.72 3744.84   7
   4  -3 -11 6863.70 3586.57   4
   4  -3 -10 20495.6 4038.01  11
   4  -3 -10 16931.7 3174.15   3
   4  -3 -10 28617.2 6379.10   7
   4  -3 -10 14049.9 4009.49   4
   4  -3  -9 19723.6 3621.32  11
   4  -3  -9 13775.5 2548.87   3
   4  -3  -8 6893.03 1793.32   3
   4  -3  -8 2571.53 2266.35   4
   4  -3  -8 4015.58 1987.29  11
   4  -3  -7 170.581 662.905   3
   4  -3  -7-583.018 1733.25   4
   4  -3  -7 2626.06 1774.67  11
   4  -3  -6 41728.1 4967.01   4
   4  -3  -6 38573.6 4181.13  11
   4  -3  -6 40408.4 3286.17   3
   4  -3  -5 115062. 4138.87   9
   4  -3  -5 113151. 7661.94   4
   4  -3  -5 107725. 7346.92   2
   4  -3  -5 111569. 6761.95  11
   4  -3  -5 114132. 5311.41   3
   4  -3  -4 213433. 5570.16   9
   4  -3  -4 216536. 9884.75   4
   4  -3  -4 225022. 9986.62   2
   4  -3  -4 215402. 6010.06   1
   4  -3  -4 211845. 7122.71   3
   4  -3  -4 214647. 9077.36  11
   4  -3  -3 54412.3 3128.13   1
   4  -3  -3 51372.3 2931.86   9
   4  -3  -3 54808.3 4855.24   4
   4  -3  -3 59854.3 4929.67   2
   4  -3  -3 52235.1 3583.06   3
   4  -3  -2 4340.13 1464.45   6
   4  -3  -2 6894.58 3951.64  10
   4  -3  -2 4535.69 1135.54   5
   4  -3  -2 3367.99 892.547   9
   4  -3  -2 5108.05 1765.16   4
   4  -3  -2 3581.02 971.684   1
   4  -3  -1 88565.0 4813.03   5
   4  -3  -1 86129.5 4451.73   9
   4  -3  -1 84945.4 4607.75   8
   4  -3  -1 76642.6 5213.66   4
   4  -3  -1 86112.0 5630.22   6
   4  -3   0 150790. 7526.11   6
   4  -3   0 137291. 5925.07   5
   4  -3   0 142197. 6334.85   9
   4  -3   0 137019. 5253.60   8
   4  -3   0 144741. 6949.07   4
   4  -3   0 151148. 6109.21   7
   4  -3   1 103567. 6326.84   6
   4  -3   1 102717. 6095.48   9
   4  -3   1 100361. 5795.65   4
   4  -3   1 96223.5 4012.24   8
   4  -3   1 102495. 4979.47   7
   4  -3   2 46927.2 4521.35   6
   4  -3   2 48466.5 4163.68   4
   4  -3   2 46458.7 2461.31   8
   4  -3   2 47439.2 3471.40   7
   4  -3   3 10711.7 2363.18   6
   4  -3   3 11105.0 4265.17  10
   4  -3   3 13998.8 1292.11   8
   4  -3   3 10600.6 2123.61   4
   4  -3   3 15034.1 2091.13   7
   4  -3   4 18985.3 2924.02   4
   4  -3   4 20950.2 2654.64   7
   4  -3   5 35826.3 3924.27   2
   4  -3   5 33402.9 4090.64   4
   4  -3   5 36034.0 3896.81   7
   4  -3   6 62272.4 5805.22   7
   4  -3   6 63920.9 5582.22   2
   4  -3   7 43282.4 5572.75   7
   4  -3   7 39549.2 4997.42   2
   4  -3   8 6132.38 2594.27   7
   4  -3   8 9251.05 2899.00   2
   4  -3   9-4502.86 3713.03   3
   4  -3   9-705.435 1889.16   2
   4  -3  10 2265.86 2447.12   3
   4  -3  10 6947.59 3593.32   2
   4  -3  11 6535.12 3858.09   3
   4  -3  11 9572.05 4013.53   2
   4  -2 -14 2864.64 3090.95   7
   4  -2 -13 3012.87 2015.03  11
   4  -2 -13 6171.35 3547.57   7
   4  -2 -12-2843.15 2045.78  11
   4  -2 -12-18.5588 2846.26   7
   4  -2 -11 2852.77 1913.37  11
   4  -2 -11 3888.87 3823.64   7
   4  -2 -10 9120.52 2690.07  11
   4  -2 -10 9198.48 4163.10   7
   4  -2  -9 29102.6 3979.51  11
   4  -2  -9 29996.8 3825.81   3
   4  -2  -9 28565.2 5941.56   7
   4  -2  -8 21233.3 2749.58   3
   4  -2  -8 17817.5 3890.64   4
   4  -2  -8 23888.7 3435.73  11
   4  -2  -7 19525.2 2235.21   3
   4  -2  -7 11253.3 3126.79   4
   4  -2  -7 18839.9 2858.70  11
   4  -2  -6 6852.53 1976.30  10
   4  -2  -6 9595.77 2478.93   2
   4  -2  -6 7596.50 1323.76   3
   4  -2  -6 9805.69 2437.78   4
   4  -2  -6 7715.38 1950.03  11
   4  -2  -5 1996.71 1780.86  10
   4  -2  -5 4791.38 1034.72   3
   4  -2  -5 3948.20 1765.34   4
   4  -2  -5 7589.12 1918.27  11
   4  -2  -4 109194. 2676.78   9
   4  -2  -4 120592. 7179.43   4
   4  -2  -4 119201. 7224.45   2
   4  -2  -4 116805. 4498.21   3
   4  -2  -4 126057. 6499.49  11
   4  -2  -3 396794. 6233.15   9
   4  -2  -3 415584. 11773.4  11
   4  -2  -3 414381. 12757.5   6
   4  -2  -3 411973. 12253.1   4
   4  -2  -3 413069. 12590.0   2
   4  -2  -3 414766. 9117.17   1
   4  -2  -2 260310. 6127.50   9
   4  -2  -2 261242. 8811.24   5
   4  -2  -2 255232. 8602.25   8
   4  -2  -2 275133. 9481.00   4
   4  -2  -2 253747. 9275.29   2
   4  -2  -2 261530. 9832.87   6
   4  -2  -2 266885. 7597.35   1
   4  -2  -1 109162. 5627.03   5
   4  -2  -1 109987. 4756.01   9
   4  -2  -1 120425. 5338.28   1
   4  -2  -1 121131. 5452.51   8
   4  -2  -1 108493. 5747.46   4
   4  -2  -1 116212. 6520.31   6
   4  -2   0 24636.7 3145.77   6
   4  -2   0 23254.2 2654.27   5
   4  -2   0 23707.6 2639.13   4
   4  -2   0 22956.7 2260.55   8
   4  -2   0 24165.3 2107.06   7
   4  -2   1 249416. 9962.90   6
   4  -2   1 242277. 8156.50   4
   4  -2   1 242713. 6675.75   8
   4  -2   1 251124. 6490.41   7
   4  -2   2 310531. 11602.3   6
   4  -2   2 333188. 9649.32   4
   4  -2   2 324747. 7381.77   8
   4  -2   2 302616. 7459.61   7
   4  -2   3 170757. 7190.81   4
   4  -2   3 166201. 5279.28   8
   4  -2   3 160659. 5878.35   7
   4  -2   4 27728.7 5742.90  10
   4  -2   4 25159.5 3063.27   4
   4  -2   4 23495.5 2659.25   7
   4  -2   5 9816.34 2043.50   2
   4  -2   5 9587.85 2164.70   7
   4  -2   6 17621.5 2957.09   2
   4  -2   6 13861.6 3006.78   7
   4  -2   7 51583.1 8417.10   3
   4  -2   7 56301.8 6149.26   7
   4  -2   7 76323.8 6663.86   2
   4  -2   8 37513.0 7550.46   3
   4  -2   8 29001.0 4576.52   7
   4  -2   8 38435.2 5298.48   2
   4  -2   9 9211.32 3916.23   3
   4  -2   9 8284.74 2972.21   2
   4  -2  10-9914.96 4120.73   3
   4  -2  10-1400.36 1842.22   2
   4  -2  11 3721.30 2474.95   3
   4  -2  11-3342.96 2315.60   2
   4  -2  12 7846.60 3823.14   3
   4  -1 -14 3605.75 2938.96   7
   4  -1 -13 4332.81 2388.66  11
   4  -1 -13 7449.44 4098.77   7
   4  -1 -12 25165.2 4577.41  11
   4  -1 -12 20604.4 5555.75   7
   4  -1 -11 15942.1 3450.65  11
   4  -1 -11 18080.5 5363.42   7
   4  -1 -10 4818.76 2029.68  11
   4  -1 -10-637.623 2548.54   7
   4  -1  -9 9344.22 2180.89  11
   4  -1  -9 13079.7 4596.33   7
   4  -1  -8 63761.7 4770.48  10
   4  -1  -8 56335.8 8192.83   7
   4  -1  -8 59783.5 4820.25  11
   4  -1  -7 83457.7 6534.74  10
   4  -1  -7 75810.0 4272.87   3
   4  -1  -7 83949.9 9299.18   7
   4  -1  -7 92728.5 5634.03  11
   4  -1  -6 114037. 3799.82   3
   4  -1  -6 130925. 9216.79  10
   4  -1  -6 123530. 10605.4   7
   4  -1  -6 135485. 8997.77   2
   4  -1  -6 121423. 6125.60  11
   4  -1  -5 53017.3 6631.46  10
   4  -1  -5 47719.0 4766.44   4
   4  -1  -5 55252.3 5371.53   2
   4  -1  -5 56471.5 4135.63  11
   4  -1  -5 49806.3 2162.50   3
   4  -1  -4 532.446 381.354   3
   4  -1  -4-370.373 1751.71  10
   4  -1  -4 315.935 828.730   2
   4  -1  -4 187.671 799.191   8
   4  -1  -4-1213.55 1528.89   4
   4  -1  -4 123.861 859.023  11
   4  -1  -3 122813. 12704.7  10
   4  -1  -3 99931.9 2358.69   9
   4  -1  -3 104960. 5987.92   5
   4  -1  -3 110033. 2785.48   9
   4  -1  -3 105842. 5906.77   8
   4  -1  -3 109232. 5050.68   1
   4  -1  -3 108654. 6043.05   4
   4  -1  -3 107074. 6375.23   2
   4  -1  -3 120666. 6761.63   6
   4  -1  -2 198871. 16282.3  10
   4  -1  -2 182271. 7722.40   5
   4  -1  -2 211447. 7806.83   8
   4  -1  -2 221106. 8005.06   4
   4  -1  -2 205732. 8190.36   2
   4  -1  -2 208114. 7054.54   1
   4  -1  -2 206355. 8698.33   6
   4  -1  -1 330665. 9090.40   1
   4  -1  -1 298961. 10547.2   6
   4  -1  -1 321717. 10070.9   5
   4  -1  -1 310332. 9034.81   8
   4  -1  -1 320643. 9033.92   4
   4  -1  -1 321143. 9455.91   2
   4  -1   0 173007. 8130.31   6
   4  -1   0 192360. 7815.99   5
   4  -1   0 179600. 7069.32   1
   4  -1   0 184091. 6505.98   4
   4  -1   0 180419. 6554.74   8
   4  -1   0 185472. 4691.02   7
   4  -1   1 4025.06 1382.17   6
   4  -1   1 1506.04 771.390   8
   4  -1   1 2285.92 970.866   4
   4  -1   1 2172.84 553.537   7
   4  -1   2 140070. 5614.43   4
   4  -1   2 136968. 5381.86   8
   4  -1   2 135318. 3957.11   7
   4  -1   3 264807. 8086.83   4
   4  -1   3 257048. 7589.89   8
   4  -1   3 253224. 7342.26   7
   4  -1   4 188266. 14190.5  10
   4  -1   4 157233. 7493.44   7
   4  -1   4 178906. 6689.00   2
   4  -1   5 23257.9 4962.38  10
   4  -1   5 23280.3 5293.79   3
   4  -1   5 24447.9 3358.51   7
   4  -1   5 26965.6 3059.75   2
   4  -1   6 1148.63 2929.46   3
   4  -1   6 4037.81 1602.40   2
   4  -1   7 12344.6 4051.80   3
   4  -1   7 11186.8 2901.93   2
   4  -1   8 25717.6 6049.06   3
   4  -1   8 23429.1 4013.31   2
   4  -1   9 14499.0 4878.01   3
   4  -1   9 11662.3 3099.96   2
   4  -1  10 6712.12 2318.22   2
   4  -1  10 9578.20 4272.46   3
   4  -1  11-1054.52 2742.20   3
   4  -1  12 2570.91 2098.40   3
   4   0 -14 5012.71 2904.55   7
   4   0 -13-2670.66 2534.65   7
   4   0 -12 8994.98 2706.38  11
   4   0 -12 16292.0 4714.74   7
   4   0 -11 32124.2 6285.08   7
   4   0 -11 34648.6 4472.01  11
   4   0 -10 22544.6 1957.32  10
   4   0 -10 31618.7 6428.65   7
   4   0 -10 28127.3 3655.98  11
   4   0  -9 4611.26 1638.56  11
   4   0  -9 3618.55 1284.76  10
   4   0  -9 2137.39 2620.32   7
   4   0  -8 24010.9 3441.72  10
   4   0  -8 28054.6 5914.15   7
   4   0  -8 24591.8 2845.06  11
   4   0  -7 67481.3 6470.48  10
   4   0  -7 83841.6 9931.78   7
   4   0  -7 80097.2 8116.47   2
   4   0  -7 79270.7 4704.00  11
   4   0  -6 170024. 11258.7  10
   4   0  -6 187578. 14481.6   7
   4   0  -6 188385. 11545.3   2
   4   0  -6 161387. 6439.54  11
   4   0  -5 160696. 12361.2  10
   4   0  -5 159451. 13024.3   7
   4   0  -5 167741. 10038.8   2
   4   0  -5 147187. 6160.37  11
   4   0  -4 60492.6 8065.62  10
   4   0  -4 62247.6 4889.36   5
   4   0  -4 70356.1 8283.16   7
   4   0  -4 59310.3 5575.57   2
   4   0  -4 62948.1 5024.24   6
   4   0  -3 3993.76 1492.61   6
   4   0  -3 3356.60 2915.38  10
   4   0  -3 2464.46 1331.98   2
   4   0  -3 3412.78 1299.92   5
   4   0  -3 2498.62 459.183   9
   4   0  -3 2292.43 929.524   3
   4   0  -3 2967.87 1102.92   8
   4   0  -3 1855.30 1821.01   7
   4   0  -3 1070.26 903.535   4
   4   0  -2 36532.4 4383.11   3
   4   0  -2 30555.6 6217.98  10
   4   0  -2 29970.5 3291.57   5
   4   0  -2 37568.7 2360.92   9
   4   0  -2 32160.1 3200.24   8
   4   0  -2 33011.5 3018.18   4
   4   0  -2 38397.1 3245.40   1
   4   0  -2 40030.8 3790.72   2
   4   0  -2 34130.8 5147.24   7
   4   0  -2 39036.9 3808.36   6
   4   0  -1 123331. 6739.35   6
   4   0  -1 121380. 6460.46   5
   4   0  -1 131930. 5628.20   9
   4   0  -1 132060. 6159.76   8
   4   0  -1 129755. 5318.30   4
   4   0  -1 139895. 8664.84   7
   4   0  -1 136350. 6275.30   2
   4   0  -1 122344. 5855.62   1
   4   0   0 405088. 12523.6   6
   4   0   0 367918. 19308.4   3
   4   0   0 384121. 10621.3   1
   4   0   0 386232. 11641.0   5
   4   0   0 388582. 8531.81   4
   4   0   0 404164. 10376.9   8
   4   0   0 393254. 9686.15   2
   4   0   1 204518. 9288.28   6
   4   0   1 209251. 5954.33   4
   4   0   1 198397. 7149.67   8
   4   0   1 214870. 6422.37   2
   4   0   2 42070.2 6692.37  10
   4   0   2 42378.3 2687.23   4
   4   0   2 41075.7 3303.70   8
   4   0   2 48086.0 8251.18   3
   4   0   3 14466.8 1533.44   2
   4   0   3 17104.7 4391.41  10
   4   0   3 13337.3 4705.05   3
   4   0   3 13215.8 1666.47   4
   4   0   3 12311.1 1973.89   8
   4   0   4 123124. 11274.2  10
   4   0   4 127415. 5192.53   2
   4   0   5 143804. 12140.3  10
   4   0   5 128802. 6492.29   2
   4   0   6 54875.2 8393.12   3
   4   0   6 52882.7 4629.86   2
   4   0   7 18119.0 5165.21   3
   4   0   7 10547.0 2250.69   2
   4   0   8 5468.62 1770.53   2
   4   0   8 1671.11 2223.78   3
   4   0   9 6773.91 1922.97   2
   4   0   9 7639.38 3649.85   3
   4   0  10 9067.08 4097.26   3
   4   0  11 2385.26 2378.19   3
   4   1 -14-1275.91 2415.97   7
   4   1 -13 5570.58 3498.12   7
   4   1 -12 2494.02 2885.41   7
   4   1 -11 6638.91 1949.00  11
   4   1 -11 4052.70 3291.03   7
   4   1 -10 20475.3 2726.82  10
   4   1 -10 25162.1 5631.12   7
   4   1 -10 27132.1 3360.05  11
   4   1  -9 58737.5 5136.31  10
   4   1  -9 56781.9 7966.27   7
   4   1  -9 66673.7 4525.28  11
   4   1  -8 54786.2 5431.43  10
   4   1  -8 51271.2 7582.88   7
   4   1  -8 58657.2 3915.34  11
   4   1  -7 4244.71 2133.55  10
   4   1  -7 8190.24 3399.68   2
   4   1  -7 6943.89 3489.38   7
   4   1  -7 5291.89 1274.22  11
   4   1  -6 20685.7 4070.33  10
   4   1  -6 17910.0 4361.33   2
   4   1  -6 17171.7 4443.47   7
   4   1  -6 20484.5 2186.51  11
   4   1  -5 128326. 10725.5  10
   4   1  -5 123329. 7346.10   5
   4   1  -5 123237. 11075.2   7
   4   1  -5 131097. 10606.8   2
   4   1  -4 128403. 10945.9  10
   4   1  -4 120258. 3296.64   9
   4   1  -4 123135. 7214.62   5
   4   1  -4 147484. 11037.8   7
   4   1  -4 130112. 9715.56   2
   4   1  -4 130292. 7113.56   6
   4   1  -3 71479.4 8148.54  10
   4   1  -3 73810.1 5424.21   5
   4   1  -3 65387.2 2883.21   9
   4   1  -3 74621.9 6160.86   7
   4   1  -3 75604.1 6994.44   2
   4   1  -3 76777.0 5383.22   6
   4   1  -3 69842.3 2808.64   3
   4   1  -2 28433.2 3302.20   6
   4   1  -2 28835.4 2537.81   3
   4   1  -2 35894.5 5742.55  10
   4   1  -2 29110.5 3383.80   5
   4   1  -2 23710.3 2046.96   9
   4   1  -2 25034.0 3646.16   2
   4   1  -2 27843.3 2634.35   4
   4   1  -2 32338.6 2993.44   7
   4   1  -1 1570.25 891.651   6
   4   1  -1 2018.30 1000.31   5
   4   1  -1 1169.20 818.808   9
   4   1  -1 967.967 922.735   3
   4   1  -1 604.403 919.846   2
   4   1  -1 373.459 934.870   8
   4   1  -1 327.358 671.086   4
   4   1  -1 1194.65 558.075   7
   4   1   0 65258.9 5123.52   6
   4   1   0 69920.0 6052.27   3
   4   1   0 66727.5 5120.66   5
   4   1   0 58630.2 4398.49   9
   4   1   0 62097.1 3031.86   4
   4   1   0 69186.0 4585.54   8
   4   1   0 63713.8 4617.13   2
   4   1   1 190791. 11734.6   3
   4   1   1 195742. 9175.01   9
   4   1   1 193232. 4681.80   4
   4   1   1 198987. 7693.36   8
   4   1   1 186827. 6668.29   2
   4   1   2 184238. 13127.7   3
   4   1   2 210715. 13588.8  10
   4   1   2 207195. 10928.2   9
   4   1   2 196683. 4618.41   4
   4   1   2 190896. 7694.51   8
   4   1   3 122465. 11662.4   3
   4   1   3 140342. 11267.7  10
   4   1   3 128014. 6652.08   8
   4   1   4 11699.5 3365.91  10
   4   1   4 4719.80 3141.90   3
   4   1   5 23579.1 5020.21  10
   4   1   5 28710.2 6555.72   3
   4   1   6 70543.4 9844.21   3
   4   1   6 49892.4 3287.92   2
   4   1   7 68911.2 9753.18   3
   4   1   7 74913.4 4696.69   2
   4   1   8 15589.0 2426.78   2
   4   1   8 21438.5 5539.03   3
   4   1   9 3245.21 3346.26   3
   4   1  10 6834.60 4123.63   3
   4   1  10-976.960 2420.01   9
   4   1  11 3280.69 2533.46   3
   4   1  11 6156.65 3343.82   9
   4   2 -14 4035.39 3006.67   7
   4   2 -13 1264.83 2502.30   7
   4   2 -12 3775.15 3105.36   7
   4   2 -11 2664.98 2919.88   7
   4   2 -10 243.392 714.863  11
   4   2 -10 894.426 946.136  10
   4   2 -10 3563.00 3105.09   7
   4   2  -9 11720.0 1773.30  11
   4   2  -9 7929.53 2040.17  10
   4   2  -9 7751.25 3577.69   7
   4   2  -8 61237.0 6288.18  10
   4   2  -8 61907.9 8612.92   7
   4   2  -8 62967.9 3467.16  11
   4   2  -7 119895. 9673.66  10
   4   2  -7 125025. 11714.2   7
   4   2  -7 114695. 4444.89  11
   4   2  -6 122076. 10480.6  10
   4   2  -6 94282.9 6906.91   5
   4   2  -6 115210. 7461.28   8
   4   2  -6 115016. 10214.0   7
   4   2  -6 125255. 12577.6   2
   4   2  -6 110974. 4462.42  11
   4   2  -5 18134.1 4092.07  10
   4   2  -5 10119.2 1351.27   9
   4   2  -5 12823.7 2559.40   5
   4   2  -5 17391.5 4936.84   2
   4   2  -5 12283.7 2810.40   7
   4   2  -4 64347.8 7659.28  10
   4   2  -4 60373.7 5240.91   5
   4   2  -4 60466.3 3197.42   9
   4   2  -4 65449.6 5412.10   7
   4   2  -4 72517.1 9491.72   2
   4   2  -4 71955.0 5389.79   6
   4   2  -3 292879. 15798.5  10
   4   2  -3 277206. 10797.6   5
   4   2  -3 272670. 7182.14   9
   4   2  -3 277797. 9068.50   7
   4   2  -3 297808. 18454.6   2
   4   2  -3 274302. 6198.87   3
   4   2  -3 286392. 10452.1   6
   4   2  -2 348023. 11445.9   6
   4   2  -2 365720. 17289.4  10
   4   2  -2 336556. 11812.0   5
   4   2  -2 317583. 8435.54   9
   4   2  -2 328654. 8099.40   7
   4   2  -2 390401. 19853.1   2
   4   2  -2 320628. 8081.70   3
   4   2  -1 171195. 8203.29   6
   4   2  -1 176222. 8528.92   5
   4   2  -1 163210. 6718.77   9
   4   2  -1 172370. 5442.49   4
   4   2  -1 166981. 4599.18   7
   4   2  -1 185556. 11500.7   2
   4   2  -1 166124. 6904.59   3
   4   2   0 16619.0 2738.22   6
   4   2   0 15127.6 2585.82   5
   4   2   0 18151.3 2807.96   3
   4   2   0 18096.3 2533.86   9
   4   2   0 20163.4 2771.69   8
   4   2   0 18778.9 1471.73   4
   4   2   0 17303.0 2314.38   2
   4   2   1 30618.5 4131.78   3
   4   2   1 29454.6 3673.31   9
   4   2   1 27704.9 1205.93   4
   4   2   1 31161.4 3391.22   8
   4   2   1 29454.3 1403.10   2
   4   2   2 92352.2 8031.38   3
   4   2   2 106994. 9190.70  10
   4   2   2 105506. 7473.44   9
   4   2   2 96360.6 6146.38   1
   4   2   2 105997. 6314.13   8
   4   2   3 198431. 13235.4   3
   4   2   3 211908. 13135.7  10
   4   2   3 195299. 11260.8   9
   4   2   3 182292. 8635.15   8
   4   2   4 97616.4 10289.5   3
   4   2   4 126250. 10356.0  10
   4   2   4 120995. 9991.81   9
   4   2   5 20446.2 5588.25   3
   4   2   5 24669.1 5331.08   9
   4   2   6 1976.42 3163.12   3
   4   2   6 1619.40 2566.81   9
   4   2   7 32636.6 7765.93   3
   4   2   7 18758.0 5762.37   9
   4   2   8 43146.7 8290.96   3
   4   2   8 41458.7 8605.11   9
   4   2   9 16773.3 5298.71   3
   4   2   9 17004.6 5943.61   9
   4   2  10 9342.28 4396.35   3
   4   2  10 13987.8 5604.14   9
   4   2  11 1577.41 2680.33   3
   4   2  11 1737.83 2825.43   9
   4   3 -14-818.812 2067.25   7
   4   3 -13 3899.36 3170.92   7
   4   3 -12 16344.5 4812.47   7
   4   3 -11 25030.0 5937.26   7
   4   3 -10 16542.4 3199.96  10
   4   3 -10 13241.9 4268.74   7
   4   3  -9 3206.44 1647.77  10
   4   3  -9 2704.88 2707.33   7
   4   3  -8 6633.72 883.505  11
   4   3  -8 5827.75 2436.42  10
   4   3  -8 9725.39 3830.00   7
   4   3  -7 50638.0 7067.88  10
   4   3  -7 61615.7 7435.38   7
   4   3  -7 53315.7 2481.77  11
   4   3  -6 139769. 11868.2  10
   4   3  -6 114405. 5305.59   9
   4   3  -6 114711. 8727.51   7
   4   3  -6 114887. 11916.2   2
   4   3  -5 174298. 13083.0  10
   4   3  -5 153509. 6034.58   9
   4   3  -5 160843. 9059.37   5
   4   3  -5 164740. 8760.50   8
   4   3  -5 165885. 9115.69   7
   4   3  -5 175824. 14316.1   2
   4   3  -5 174670. 8462.67   6
   4   3  -4 51216.9 7009.60  10
   4   3  -4 45734.9 4772.36   5
   4   3  -4 45029.6 3349.81   9
   4   3  -4 51865.5 4826.98   8
   4   3  -4 46146.0 4204.60   7
   4   3  -4 54732.5 7704.52   2
   4   3  -4 49763.4 4461.02   6
   4   3  -3 14888.9 2468.20   6
   4   3  -3 14973.7 3741.69  10
   4   3  -3 11519.9 2494.93   5
   4   3  -3 14081.8 2064.88   9
   4   3  -3 16871.2 2305.58   7
   4   3  -3 14576.3 1818.97   3
   4   3  -3 15407.4 3520.83   2
   4   3  -2 204559. 8873.05   6
   4   3  -2 241596. 14200.7  10
   4   3  -2 216026. 9910.60   5
   4   3  -2 208488. 7710.27   9
   4   3  -2 216028. 6926.78   7
   4   3  -2 212548. 9898.15   2
   4   3  -2 214615. 7254.65   3
   4   3  -1 406734. 12786.7   6
   4   3  -1 411626. 13607.2   5
   4   3  -1 408195. 11494.4   9
   4   3  -1 397708. 8210.09   7
   4   3  -1 404680. 10287.4   2
   4   3  -1 406960. 11124.9   3
   4   3   0 253925. 10494.8   6
   4   3   0 258564. 9890.71   9
   4   3   0 263131. 10279.2   8
   4   3   0 241575. 4674.08   4
   4   3   0 233430. 9315.57   1
   4   3   0 258041. 9907.34   3
   4   3   1 55467.5 6549.67  10
   4   3   1 44500.1 4548.01   9
   4   3   1 55159.8 4824.88   8
   4   3   1 45947.5 4739.14   3
   4   3   1 47612.6 4397.12   1
   4   3   2 7957.14 2494.11   3
   4   3   2 7668.45 2427.76   9
   4   3   2 7120.00 2050.79   8
   4   3   2 7914.72 2106.08   1
   4   3   3 60409.9 6904.83   3
   4   3   3 57536.4 6167.71   9
   4   3   3 59669.1 5251.98   1
   4   3   4 96490.1 9480.76   3
   4   3   4 99875.0 8872.29   9
   4   3   5 54002.7 7274.30   9
   4   3   5 47396.1 7528.46   3
   4   3   6 22504.2 5783.04   3
   4   3   6 26764.1 5969.57   9
   4   3   7 2029.86 3313.74   3
   4   3   7-402.412 2788.21   9
   4   3   8 3918.79 3561.92   3
   4   3   8 1014.41 3730.70   9
   4   3   9 15287.7 5732.30   3
   4   3   9 1546.09 3272.41   9
   4   3  10 7305.54 4326.15   3
   4   3  10 6633.74 4365.02   9
   4   4 -14 8897.26 4207.04   7
   4   4 -13 496.840 2502.41   7
   4   4 -12 7087.60 4017.34   7
   4   4 -11 25497.0 6421.56   7
   4   4 -10 33796.3 5069.53  10
   4   4 -10 37765.9 7531.72   7
   4   4  -9 22565.3 4517.73  10
   4   4  -9 18694.6 4835.62   7
   4   4  -8 2886.01 2102.15  10
   4   4  -8 10343.9 3705.59   7
   4   4  -7 6952.96 2719.63   7
   4   4  -6 46885.1 7456.03   2
   4   4  -6 44409.4 3858.34   9
   4   4  -6 39761.7 4948.53   7
   4   4  -5 106932. 5826.95   9
   4   4  -5 103625. 6995.24   7
   4   4  -5 96750.3 9383.88   2
   4   4  -5 108911. 6669.75   6
   4   4  -4 147392. 12347.9  10
   4   4  -4 127998. 8149.07   5
   4   4  -4 120506. 6154.40   9
   4   4  -4 130893. 7088.44   7
   4   4  -4 136698. 9590.88   2
   4   4  -4 134397. 7289.48   6
   4   4  -3 80855.4 8873.72  10
   4   4  -3 65906.6 5750.14   5
   4   4  -3 57447.0 4490.95   9
   4   4  -3 69063.2 4819.93   7
   4   4  -3 63316.9 4065.34   3
   4   4  -3 68060.1 5792.21   2
   4   4  -3 71801.1 5414.16   6
   4   4  -2 7978.38 1927.53   6
   4   4  -2 8622.41 1855.07   3
   4   4  -2 7633.37 2231.99   5
   4   4  -2 8031.01 1809.96   2
   4   4  -2 6646.77 1810.38   9
   4   4  -2 8716.57 1725.82   7
   4   4  -1 26103.4 3426.01   6
   4   4  -1 29815.7 3969.54   5
   4   4  -1 31780.1 3676.87   9
   4   4  -1 27464.8 2249.11   4
   4   4  -1 23959.3 3225.58   1
   4   4  -1 24788.2 2466.48   7
   4   4  -1 26419.4 3099.30   3
   4   4   0 152776. 8317.05   6
   4   4   0 163246. 8449.90   9
   4   4   0 141394. 3385.38   4
   4   4   0 159233. 8086.35   1
   4   4   0 147895. 7813.17   3
   4   4   1 157649. 8844.80   9
   4   4   1 167867. 8420.75   1
   4   4   1 151679. 8694.03   3
   4   4   2 72470.1 5785.27   1
   4   4   2 74114.6 6546.72   9
   4   4   2 82885.9 7030.44   3
   4   4   3 6133.35 2017.71   1
   4   4   3 3989.06 2232.25   3
   4   4   3 5017.10 2260.05   9
   4   4   4 15042.4 3901.31   3
   4   4   4 13295.0 3597.62   9
   4   4   5 43199.8 6526.75   9
   4   4   5 32359.5 6084.87   3
   4   4   6 39581.6 6891.74   3
   4   4   6 47242.0 7343.48   9
   4   4   7 13379.6 4998.45   3
   4   4   7 15034.6 5092.95   9
   4   4   8-3522.56 3280.31   3
   4   4   8-2063.57 4188.45   9
   4   4   9-380.643 2762.68   3
   4   4   9 914.819 2776.98   9
   4   4  10-3711.17 3697.73   3
   4   4  10 3155.91 3472.34   9
   4   5 -13 6904.56 4188.42   7
   4   5 -12-5554.95 4162.62   7
   4   5 -11-5487.89 3868.40   7
   4   5 -10 14873.7 4929.26   7
   4   5  -9 26078.7 5665.11   7
   4   5  -8 31859.3 5465.36   7
   4   5  -7 10077.2 2388.76   9
   4   5  -7 12971.9 3263.40   7
   4   5  -6 219.103 477.947  11
   4   5  -6 839.110 1378.04   9
   4   5  -6 1498.82 1724.04   7
   4   5  -5 13645.9 2194.07  11
   4   5  -5 11507.7 3228.49   2
   4   5  -5 9891.38 2151.97   9
   4   5  -5 5463.78 2000.26   7
   4   5  -4 49701.5 5280.12   2
   4   5  -4 43937.3 4279.30   9
   4   5  -4 51813.3 4815.88   7
   4   5  -4 46169.8 5002.48  11
   4   5  -4 49805.5 4492.79   6
   4   5  -3 85230.4 5912.66   9
   4   5  -3 98967.8 6129.15   4
   4   5  -3 84408.3 5639.08   7
   4   5  -3 93012.5 5469.76   3
   4   5  -3 101257. 8809.98  11
   4   5  -3 92316.6 6075.88   6
   4   5  -2 112182. 6816.40   6
   4   5  -2 124670. 7308.73   9
   4   5  -2 113840. 5542.46   4
   4   5  -2 108930. 5985.72   7
   4   5  -2 108560. 6341.92   3
   4   5  -2 103576. 10252.9  11
   4   5  -1 67516.2 5464.63   6
   4   5  -1 58085.3 8930.15  11
   4   5  -1 67792.7 5733.50   9
   4   5  -1 67807.9 3524.96   4
   4   5  -1 70549.4 5624.62   1
   4   5  -1 68144.5 4494.01   7
   4   5  -1 69698.6 5423.85   3
   4   5   0 846.990 1444.82   1
   4   5   0 2051.34 1115.41   6
   4   5   0 1907.92 1560.33   3
   4   5   0-94.3121 1284.01   9
   4   5   0 768.573 419.958   4
   4   5   1 38975.0 4868.07   9
   4   5   1 33424.7 4127.33   1
   4   5   1 34306.8 4436.49   3
   4   5   2 99185.9 6981.96   1
   4   5   2 95338.7 7728.61   9
   4   5   2 88761.4 7459.50   3
   4   5   3 89108.6 8050.31   9
   4   5   3 99282.2 7116.97   1
   4   5   3 92214.8 8237.47   3
   4   5   4 35595.7 5613.87   3
   4   5   4 38061.1 5709.08   9
   4   5   5 792.358 2709.13   3
   4   5   5-755.385 2919.93   9
   4   5   6 8292.37 3839.42   3
   4   5   6 2432.32 2247.15   9
   4   5   7 17601.6 5393.02   3
   4   5   7 23646.9 6125.36   9
   4   5   8 12918.5 5145.89   3
   4   5   8 19886.3 5967.58   9
   4   5   9 10439.2 4587.15   3
   4   5   9 12136.9 5459.63   9
   4   6 -12 7605.20 4798.60   7
   4   6 -11 6295.69 3922.40   7
   4   6 -10 7337.19 3850.65   7
   4   6  -9 2108.81 2421.05   7
   4   6  -8 17988.6 4259.49   7
   4   6  -7 59702.0 5575.30   9
   4   6  -7 67869.4 7066.53   7
   4   6  -6 48614.7 5066.55   9
   4   6  -6 49058.1 5513.71   7
   4   6  -6 46148.8 2436.54  11
   4   6  -5 26879.7 3719.63   9
   4   6  -5 26359.8 4126.97   4
   4   6  -5 26785.4 4032.53   7
   4   6  -5 25666.3 2654.99  11
   4   6  -4 1287.64 841.275  11
   4   6  -4 204.033 767.935   6
   4   6  -4 1978.79 1359.63   9
   4   6  -4 2784.71 1431.06   4
   4   6  -4 713.379 1341.77   7
   4   6  -3 13829.8 2983.64  11
   4   6  -3 15344.7 2571.99   6
   4   6  -3 14676.1 2842.13   9
   4   6  -3 12322.5 2125.00   4
   4   6  -3 12318.5 2559.55   7
   4   6  -2 57925.2 4954.39   6
   4   6  -2 60920.1 5619.83   9
   4   6  -2 59637.6 4096.59   4
   4   6  -2 58829.0 5360.47   1
   4   6  -2 59953.2 4898.59   7
   4   6  -2 59585.5 5108.25   3
   4   6  -2 59028.9 6784.96  11
   4   6  -1 99665.0 6692.60   6
   4   6  -1 106622. 7646.34   9
   4   6  -1 106298. 4704.89   4
   4   6  -1 103313. 7067.96   1
   4   6  -1 105847. 7207.62   3
   4   6  -1 104258. 10217.0  11
   4   6   0 68479.8 5894.71   6
   4   6   0 66124.9 6309.42   9
   4   6   0 64755.4 3030.46   4
   4   6   0 66020.3 5784.62   1
   4   6   0 76054.0 6427.80   3
   4   6   1 7480.96 2547.25   3
   4   6   1 8579.74 2960.68   9
   4   6   1 8550.35 2475.53   1
   4   6   2 6147.46 2445.78   3
   4   6   2 6361.89 2343.90   1
   4   6   2 5990.19 2696.33   9
   4   6   3 57286.6 6845.64   9
   4   6   3 56412.9 5666.73   1
   4   6   3 52550.9 6546.61   3
   4   6   4 77291.7 8226.49   9
   4   6   4 60455.6 7542.38   3
   4   6   5 29280.0 5855.90   3
   4   6   5 40380.8 6561.31   9
   4   6   6-411.995 2999.00   3
   4   6   6 3955.87 3326.48   9
   4   6   7-1703.02 2693.24   3
   4   6   7 543.708 3251.91   9
   4   6   8-1074.96 3452.87   3
   4   6   8 4373.14 3327.12   9
   4   7 -12 4319.56 4336.12   7
   4   7 -11 7573.88 4100.94   7
   4   7 -10 13281.7 4086.60   7
   4   7  -9 14975.6 4405.50   7
   4   7  -8 2577.20 1672.24   9
   4   7  -8 3292.64 2445.21   7
   4   7  -7 14605.8 3264.18   9
   4   7  -7 14462.8 3657.42   7
   4   7  -6 71868.5 6456.43   9
   4   7  -6 67590.9 6762.40   7
   4   7  -5 112183. 7938.91   9
   4   7  -5 108326. 8092.81   7
   4   7  -5 109736. 5309.07  11
   4   7  -4 65389.1 6235.16   9
   4   7  -4 60854.0 5382.21   4
   4   7  -4 71863.3 6389.33   7
   4   7  -4 65140.8 4983.74  11
   4   7  -4 69284.3 5181.24   6
   4   7  -3 5045.72 1952.08  11
   4   7  -3 2105.71 1113.77   6
   4   7  -3 2412.03 1741.02   9
   4   7  -3 4190.38 1532.24   4
   4   7  -3 5955.60 2264.95   7
   4   7  -2 11967.5 2884.47  11
   4   7  -2 15601.3 2642.63   6
   4   7  -2 14034.3 2964.45   3
   4   7  -2 13460.1 3144.59   9
   4   7  -2 13315.0 3029.58   1
   4   7  -2 12606.8 2053.04   4
   4   7  -2 17250.1 2980.46   7
   4   7  -1 52689.7 4950.32   6
   4   7  -1 55220.7 6101.16   9
   4   7  -1 53454.0 3652.87   4
   4   7  -1 52066.6 5296.46   1
   4   7  -1 59410.7 5834.84   3
   4   7   0 66086.4 5917.62   6
   4   7   0 72655.5 7146.31   9
   4   7   0 76871.3 6503.01   1
   4   7   0 77104.8 6952.88   3
   4   7   1 30888.9 5040.96   9
   4   7   1 34134.4 4997.53   3
   4   7   1 42334.6 4941.50   1
   4   7   2 15030.3 3695.46   3
   4   7   2 13594.4 3087.44   1
   4   7   2 15655.4 3823.60   9
   4   7   3-296.261 2194.47   3
   4   7   3 491.046 2015.07   9
   4   7   3 114.795 1588.54   1
   4   7   4 7274.07 3522.87   3
   4   7   4 9368.03 3572.69   9
   4   7   5 14058.2 4619.65   3
   4   7   5 18526.0 5083.42   9
   4   7   6 14414.2 4936.82   3
   4   7   6 15334.8 4637.87   9
   4   7   7 2498.72 3566.79   3
   4   7   7 6464.94 4113.52   9
   4   8 -10 12887.9 4412.45   7
   4   8  -9 16769.5 4572.46   7
   4   8  -8 9749.96 3024.74   9
   4   8  -8 10356.9 3456.41   7
   4   8  -7 4342.49 2164.18   9
   4   8  -7 6241.43 2460.49   7
   4   8  -6 1036.63 1811.59   9
   4   8  -6-1421.53 1939.47   7
   4   8  -5 10011.2 2980.15   9
   4   8  -5 12041.8 3147.47   7
   4   8  -4 37872.4 5255.37   9
   4   8  -4 37891.2 5039.61   7
   4   8  -3 37118.9 5155.00   9
   4   8  -3 41361.9 5117.53   7
   4   8  -2 14003.3 3444.30   9
   4   8  -2 12276.8 3010.97   1
   4   8  -1-1040.20 1778.79   3
   4   8  -1 1666.56 2169.75   9
   4   8  -1-833.950 1698.79   1
   4   8   0 18304.4 3893.83   3
   4   8   0 13655.2 3283.11   1
   4   8   0 18018.9 4053.23   9
   4   8   1 34956.3 5293.60   3
   4   8   1 36057.0 5804.55   9
   4   8   1 33094.6 4625.42   1
   4   8   2 32585.4 5299.23   3
   4   8   2 25654.4 5083.54   9
   4   8   2 32014.4 4577.13   1
   4   8   3 14790.1 3369.51   1
   4   8   3 17935.3 4654.92   3
   4   8   3 13059.8 3924.31   9
   4   8   4 436.549 2447.25   3
   4   8   4 1114.19 2310.04   9
   4   8   5 322.992 2753.09   3
   4   8   5-2664.16 2848.09   9
   4   9  -8 12513.7 3638.16   9
   4   9  -8 9489.71 3235.17   7
   4   9  -7 13949.2 3963.67   9
   4   9  -7 13336.8 3963.39   7
   4   9  -6 6988.06 3039.84   9
   4   9  -6 9600.80 3279.37   7
   4   9  -5 4330.24 2483.33   9
   4   9  -5 2317.75 1993.89   7
   4   9  -4-119.928 1791.50   9
   4   9  -4-141.631 1803.16   7
   4   9  -3 14342.8 3812.27   9
   4   9  -3 10104.6 3016.35   1
   4   9  -2 20904.9 4218.62   9
   4   9  -2 24873.7 4276.26   1
   4   9  -1 30011.4 4520.94   1
   4   9  -1 24300.2 4676.11   9
   4   9   0 13712.4 3621.03   3
   4   9   0 6834.53 3331.19   9
   4   9   0 15126.4 3541.22   1
   4   9   1 702.911 2488.78   3
   4   9   1 752.561 1831.76   1
   4   9   2 4652.84 2492.00   3
   4   9   2 4346.96 2489.51   9
   4   9   2 7018.49 2506.61   1
   4   9   3 17163.6 4512.56   3
   4   9   3 13105.6 4616.81   9
   4   9   3 17547.7 3749.73   1
   4  10  -5 8118.16 3407.85   9
   4  10  -5 14852.2 3791.52   7
   4  10  -4 6563.22 2986.53   9
   4  10  -3-5177.33 2844.14   9
   4  10  -3 646.057 1802.01   1
   4  10  -2 3597.75 2574.72   9
   4  10  -2 2839.06 1977.91   1
   4  10  -1 15527.5 3733.45   1
   4  10  -1 17559.4 4455.23   9
   5 -10  -3 9846.61 3840.50   4
   5 -10  -3 13847.9 4035.37  11
   5 -10  -2 3454.07 2589.80   4
   5 -10  -2 3121.85 2370.88  11
   5 -10  -1-1896.00 2541.23   4
   5 -10  -1-3893.31 2543.91  11
   5 -10   0 2363.21 2485.24   4
   5 -10   0 2017.89 2802.63  11
   5 -10   1 18255.4 4675.27   4
   5 -10   1 22156.2 5012.65  11
   5 -10   2 21534.6 4748.94   4
   5 -10   2 23964.2 5142.53  11
   5  -9  -7 14894.2 4711.34  11
   5  -9  -7 16620.9 4427.87   4
   5  -9  -6 5632.00 2981.76   4
   5  -9  -6 6373.00 3029.00  11
   5  -9  -5-2694.65 2865.69   4
   5  -9  -5 1052.78 1839.88  11
   5  -9  -4 8344.73 3189.53   4
   5  -9  -4 320.569 1968.82  11
   5  -9  -3 17149.9 4097.98   4
   5  -9  -3 23269.7 4879.34  11
   5  -9  -2 21835.6 4714.28   4
   5  -9  -2 17628.9 4368.96  11
   5  -9  -1 14749.6 3952.89   4
   5  -9  -1 4782.50 2779.72  11
   5  -9   0 2972.60 2374.39   4
   5  -9   0 3449.62 2287.51  11
   5  -9   1 1629.25 2274.09   4
   5  -9   1-1992.57 2220.27  11
   5  -9   2 9068.59 3389.41   4
   5  -9   2 12516.3 3758.47  11
   5  -9   3 30647.3 5523.85   4
   5  -9   3 32189.8 5665.09  11
   5  -9   4 27766.3 5375.77   4
   5  -9   4 22560.3 5021.94  11
   5  -9   5 7275.10 3248.10   2
   5  -9   5 6358.60 2894.88   4
   5  -9   5 8392.01 3474.35  11
   5  -8  -8 3715.72 3051.96  11
   5  -8  -8 1175.84 2729.29   4
   5  -8  -7 16057.5 4214.94   4
   5  -8  -7 16338.0 4552.48  11
   5  -8  -6 26231.7 5155.21   4
   5  -8  -6 26672.5 5469.54  11
   5  -8  -5 26025.9 4928.69   4
   5  -8  -5 21312.3 4818.68  11
   5  -8  -4-567.360 1943.68   4
   5  -8  -4 4432.12 2474.77  11
   5  -8  -3 9160.33 3054.56   4
   5  -8  -3 8759.82 2988.43  11
   5  -8  -2 38377.9 5497.41   4
   5  -8  -2 38525.0 5616.40  11
   5  -8  -1 29272.6 4844.86   4
   5  -8  -1 26507.6 4671.62  11
   5  -8   0 32653.9 5029.25   4
   5  -8   0 28015.4 4738.01  11
   5  -8   1 13021.0 3594.10  11
   5  -8   1 3467.73 2224.33   4
   5  -8   2 926.427 1638.36  11
   5  -8   2 614.689 1960.97   4
   5  -8   3 3575.38 2527.18   4
   5  -8   3 2605.83 2457.41  11
   5  -8   4 16328.7 4139.32   4
   5  -8   4 13102.8 3792.07  11
   5  -8   5 17482.6 4492.68   4
   5  -8   5 20271.6 4784.89  11
   5  -8   6 11395.3 3750.73   2
   5  -8   6 12051.9 3846.33  11
   5  -8   7 4680.41 3286.36   2
   5  -8   7-43.2296 2296.76  11
   5  -7 -10 6481.83 3118.76  11
   5  -7 -10 4231.32 2807.22   4
   5  -7  -9 7523.99 3434.30  11
   5  -7  -9 5571.64 3411.34   4
   5  -7  -8 4817.39 2873.76   4
   5  -7  -8 5206.90 2869.40  11
   5  -7  -7-526.947 2116.07   4
   5  -7  -7 1939.71 2273.58  11
   5  -7  -6 6052.91 2760.14   4
   5  -7  -6 11026.1 3545.12  11
   5  -7  -5 27003.3 4587.54   4
   5  -7  -5 24925.6 4703.72  11
   5  -7  -4 47524.5 6041.51   4
   5  -7  -4 40288.6 5633.52  11
   5  -7  -3 14999.1 3521.31   4
   5  -7  -3 25249.3 4339.00  11
   5  -7  -2 1391.75 1891.03   4
   5  -7  -2 2690.04 1940.81  11
   5  -7  -1 11953.2 3027.95   4
   5  -7  -1 9626.70 2959.09  11
   5  -7   0 42851.0 5470.57   4
   5  -7   0 44274.6 5568.78  11
   5  -7   1 51362.1 5968.37   4
   5  -7   1 55542.2 6279.34  11
   5  -7   1 56352.8 5200.04   6
   5  -7   2 20633.1 3205.05   6
   5  -7   2 22890.6 4276.43   4
   5  -7   2 20312.4 4061.01  11
   5  -7   3 4858.64 1714.10   6
   5  -7   3 3790.56 2545.23   4
   5  -7   3 8011.60 2703.17  11
   5  -7   4-1623.01 2223.17   4
   5  -7   4-1737.81 2530.32  11
   5  -7   5 7621.87 2777.35   4
   5  -7   6 23816.7 4706.36   2
   5  -7   7 28236.3 5273.21   2
   5  -7   8 10018.5 3793.50   2
   5  -6 -11-1656.70 2346.87  11
   5  -6 -11 547.601 1989.02   4
   5  -6 -10 3423.61 2514.43  11
   5  -6 -10 10353.5 3253.25   4
   5  -6  -9 12100.5 3693.57  11
   5  -6  -9 8502.75 3230.58   4
   5  -6  -8 16582.4 4489.72   4
   5  -6  -8 15605.6 4055.08  11
   5  -6  -7 19020.2 3929.68  11
   5  -6  -7 21182.2 4539.32   4
   5  -6  -6 5905.85 1670.64   9
   5  -6  -6 4377.66 2308.91   4
   5  -6  -6 7135.50 2582.19  11
   5  -6  -5 457.945 685.838   9
   5  -6  -5 1464.51 1631.98   4
   5  -6  -5 823.347 2005.75  11
   5  -6  -4 30326.2 3389.71   5
   5  -6  -4 32085.7 3511.91   9
   5  -6  -4 33876.3 4913.02   4
   5  -6  -4 27966.1 4468.41  11
   5  -6  -3 93210.9 5501.33   5
   5  -6  -3 96081.7 6090.12   9
   5  -6  -3 84513.4 7324.65   4
   5  -6  -3 92356.5 7590.18  11
   5  -6  -2 111656. 5620.00   5
   5  -6  -2 113383. 6754.09   9
   5  -6  -2 116451. 8324.58   4
   5  -6  -2 116176. 8456.06  11
   5  -6  -1 38935.4 3043.49   5
   5  -6  -1 45304.1 4441.57   9
   5  -6  -1 41943.5 5114.09   4
   5  -6  -1 35329.2 4775.62  11
   5  -6   0 333.207 1061.59   6
   5  -6   0 1730.31 917.448   8
   5  -6   0 161.943 1913.83   4
   5  -6   0-803.755 1564.36  11
   5  -6   1 58687.3 5946.91   4
   5  -6   1 62996.9 3302.11   8
   5  -6   1 60172.8 6276.58  11
   5  -6   1 64718.6 5598.66   6
   5  -6   2 66917.1 6404.15   4
   5  -6   2 64370.7 2225.87   8
   5  -6   2 56253.5 5331.36   6
   5  -6   3 58717.3 5552.26   6
   5  -6   3 53715.3 5885.68   4
   5  -6   4 15834.5 3550.12   4
   5  -6   5-627.508 2214.76   4
   5  -6   6 2761.08 2339.41   2
   5  -6   7 13695.3 3601.32   2
   5  -6   8 13859.1 4046.42   2
   5  -6   9 13058.9 4328.52   2
   5  -5 -12 11685.5 3948.59  11
   5  -5 -12 6209.29 3680.93   4
   5  -5 -11 18055.4 4570.91  11
   5  -5 -11 7835.40 3892.32   4
   5  -5 -10 366.257 1819.17  11
   5  -5 -10 2521.58 2501.32   4
   5  -5  -9 1063.05 1896.55   4
   5  -5  -9-604.974 1878.98  11
   5  -5  -8 19517.8 3235.41   3
   5  -5  -8 18209.1 1691.19   1
   5  -5  -8 16209.8 4064.99   4
   5  -5  -8 16933.3 3861.89  11
   5  -5  -7 41785.6 2250.14   1
   5  -5  -7 41162.6 3508.53   9
   5  -5  -7 39826.0 5633.24   4
   5  -5  -7 42938.3 5403.50  11
   5  -5  -7 42418.5 4329.52   3
   5  -5  -6 36406.3 3243.49   9
   5  -5  -6 41404.7 5613.33   4
   5  -5  -6 44596.5 5433.98  11
   5  -5  -6 35070.7 3922.55   3
   5  -5  -5 10071.8 2116.04   3
   5  -5  -5 11050.5 1898.40   9
   5  -5  -5 13289.7 3159.79   4
   5  -5  -5 14071.8 3240.64  11
   5  -5  -4 1331.14 1070.96   3
   5  -5  -4 965.353 1047.94   5
   5  -5  -4 1675.65 1004.90   9
   5  -5  -4 1363.55 1931.79   4
   5  -5  -4 4378.13 2267.83  11
   5  -5  -3 20562.4 2920.99   3
   5  -5  -3 23018.5 2740.81   9
   5  -5  -3 19203.1 2663.59   5
   5  -5  -3 20962.7 3720.97   4
   5  -5  -3 22254.8 3719.72  11
   5  -5  -2 70630.4 4699.03   5
   5  -5  -2 71244.6 4853.11   9
   5  -5  -2 74400.5 6341.53   4
   5  -5  -2 75085.3 6500.67  11
   5  -5  -1 124603. 5929.25   5
   5  -5  -1 116922. 6498.34   9
   5  -5  -1 116694. 6053.74   8
   5  -5  -1 120435. 7933.48   4
   5  -5  -1 130775. 7410.27   7
   5  -5  -1 117994. 8103.18  11
   5  -5  -1 123717. 7715.05   6
   5  -5   0 114250. 5392.32   5
   5  -5   0 118629. 6951.99   9
   5  -5   0 106153. 7378.61   4
   5  -5   0 107040. 5140.82   8
   5  -5   0 120040. 7586.59   6
   5  -5   0 117815. 8020.29  11
   5  -5   0 124309. 7107.20   7
   5  -5   1 12695.4 2680.32   6
   5  -5   1 11412.7 2454.97   9
   5  -5   1 12646.9 1636.72   8
   5  -5   1 15461.4 3035.14   4
   5  -5   1 13506.4 2490.77   7
   5  -5   2 28257.5 3952.39   6
   5  -5   2 26128.7 1770.06   8
   5  -5   2 25846.9 3851.22   4
   5  -5   2 27478.5 3477.12   7
   5  -5   3 79529.8 6669.49   6
   5  -5   3 82578.6 6822.05   4
   5  -5   3 85851.2 6139.10   7
   5  -5   4 118369. 8371.18   4
   5  -5   4 119128. 7383.30   7
   5  -5   5 40456.4 5237.83   4
   5  -5   5 37486.2 4406.48   7
   5  -5   6 4967.48 2259.36   2
   5  -5   7 2666.08 1877.08   2
   5  -5   8 7725.41 3102.92   2
   5  -5   9 5796.76 2904.20   2
   5  -4 -13-4416.47 2915.37  11
   5  -4 -13 1825.95 3334.71   7
   5  -4 -13 5647.79 3457.04   4
   5  -4 -12 13648.5 3814.97  11
   5  -4 -12 7581.25 4142.01   7
   5  -4 -12 9999.03 4797.21   4
   5  -4 -11 22361.7 4708.40  11
   5  -4 -11 16019.0 5275.33   7
   5  -4 -11 20977.1 5579.30   4
   5  -4 -10 22517.9 4436.69  11
   5  -4 -10 25605.8 5747.31   4
   5  -4  -9 13563.5 4135.29   4
   5  -4  -9 12905.3 3375.30  11
   5  -4  -8 154.964 1023.98   3
   5  -4  -8-1910.62 2309.90   4
   5  -4  -8 2227.63 1959.60  11
   5  -4  -7 13453.0 2166.50   3
   5  -4  -7 25813.2 2409.10   1
   5  -4  -7 24512.7 4470.35   4
   5  -4  -7 20804.4 3627.05  11
   5  -4  -6 108501. 4566.08   9
   5  -4  -6 115405. 8667.91   4
   5  -4  -6 109329. 4654.10   1
   5  -4  -6 106744. 7645.35  11
   5  -4  -6 114240. 6200.06   3
   5  -4  -5 108056. 4636.15   1
   5  -4  -5 98055.4 4354.16   9
   5  -4  -5 104904. 7960.77   4
   5  -4  -5 101830. 5845.02   3
   5  -4  -5 100266. 7247.89  11
   5  -4  -4 58367.1 4850.59   5
   5  -4  -4 59561.7 3576.61   9
   5  -4  -4 55321.3 3434.26   1
   5  -4  -4 59578.8 5870.94   4
   5  -4  -4 64317.7 4611.82   3
   5  -4  -4 60925.5 5603.76  11
   5  -4  -3 7194.82 1715.27   5
   5  -4  -3 6610.72 1361.91   9
   5  -4  -3 5277.46 2018.43   4
   5  -4  -3 6078.57 2408.76  11
   5  -4  -2 6385.61 1932.10   6
   5  -4  -2 4718.41 1404.29   5
   5  -4  -2 4198.25 1289.24   9
   5  -4  -2 6423.24 1673.94   8
   5  -4  -2 3248.41 1781.03   4
   5  -4  -2 3956.85 1908.55  11
   5  -4  -1 37054.9 3491.68   5
   5  -4  -1 35226.7 3329.61   9
   5  -4  -1 30347.9 3029.45   8
   5  -4  -1 33784.3 4022.83   4
   5  -4  -1 35034.6 3560.70   7
   5  -4  -1 35743.4 4160.32   6
   5  -4   0 78360.5 4939.47   5
   5  -4   0 91707.7 5798.20   9
   5  -4   0 87889.8 6518.79   6
   5  -4   0 80334.4 5976.83   4
   5  -4   0 76517.4 4372.52   8
   5  -4   0 77543.2 5154.04   7
   5  -4   1 112322. 7434.58   6
   5  -4   1 117204. 7160.24   9
   5  -4   1 119170. 7281.09   4
   5  -4   1 109481. 4634.80   8
   5  -4   1 113815. 6084.65   7
   5  -4   2 27315.7 3876.06   6
   5  -4   2 26373.5 3832.47   9
   5  -4   2 29679.1 3809.12   4
   5  -4   2 31066.8 2220.54   8
   5  -4   2 30210.6 3249.58   7
   5  -4   3 7125.78 2084.94   4
   5  -4   3 7115.61 988.818   8
   5  -4   3 7767.58 1850.44   7
   5  -4   4 26375.7 3794.20   4
   5  -4   4 29599.0 3452.19   7
   5  -4   5 81029.8 6514.83   2
   5  -4   5 70347.2 6426.75   4
   5  -4   5 76476.8 5885.97   7
   5  -4   6 63394.7 6048.86   7
   5  -4   6 65190.5 6105.50   2
   5  -4   7 21076.4 3911.74   2
   5  -4   8-513.582 1748.74   2
   5  -4   9 6001.26 3011.11   2
   5  -4  10 3475.66 3816.86   3
   5  -4  10-2642.30 2642.29   2
   5  -3 -13-1790.88 2032.79  11
   5  -3 -13 2986.34 3078.78   7
   5  -3 -13 362.641 2784.86   4
   5  -3 -12 1651.38 1954.31  11
   5  -3 -12-3512.33 3657.68   7
   5  -3 -12-5850.95 3644.24   4
   5  -3 -11 1355.64 1639.51  11
   5  -3 -11-708.595 3010.78   4
   5  -3 -10 6707.64 2480.35  11
   5  -3 -10 2833.57 2927.19   7
   5  -3 -10 7193.81 3312.43   4
   5  -3  -9 27112.2 3246.75   3
   5  -3  -9 25094.1 5054.72   4
   5  -3  -9 25066.5 4073.95  11
   5  -3  -8 37157.9 3402.11   3
   5  -3  -8 43443.2 5889.70   4
   5  -3  -8 37459.3 4678.40  11
   5  -3  -7 13581.8 1963.43   3
   5  -3  -7 13232.9 3466.84   4
   5  -3  -7 15788.5 3087.51  11
   5  -3  -6 4767.98 1987.07  11
   5  -3  -6 7032.24 1451.73   3
   5  -3  -6 5282.23 1312.41   1
   5  -3  -6 8957.74 2701.21   4
   5  -3  -5 62251.7 7679.76  10
   5  -3  -5 59297.3 2468.98   9
   5  -3  -5 61731.8 5910.39   4
   5  -3  -5 62220.7 3953.31   1
   5  -3  -5 66069.8 4151.56   3
   5  -3  -5 56797.2 5212.24  11
   5  -3  -4 120785. 11870.1  10
   5  -3  -4 83285.9 5909.30   5
   5  -3  -4 99370.2 3687.09   9
   5  -3  -4 100768. 7250.12   4
   5  -3  -4 101736. 5139.88   3
   5  -3  -4 102378. 4986.76   1
   5  -3  -4 106006. 6979.67  11
   5  -3  -3 126164. 5680.07   1
   5  -3  -3 114288. 6677.20   5
   5  -3  -3 119563. 4517.29   9
   5  -3  -3 123205. 7079.04   8
   5  -3  -3 120610. 7553.15   4
   5  -3  -3 113835. 7348.11   2
   5  -3  -3 120019. 7324.85  11
   5  -3  -3 125503. 7855.29   6
   5  -3  -2 45295.0 4087.90   5
   5  -3  -2 39521.9 2973.72   9
   5  -3  -2 39209.2 3722.42   8
   5  -3  -2 44168.5 3534.67   1
   5  -3  -2 42954.7 4441.47   4
   5  -3  -2 33975.0 4082.21   6
   5  -3  -1 1681.01 1305.72   6
   5  -3  -1 283.727 2355.88  10
   5  -3  -1 1538.09 1093.78   5
   5  -3  -1 1746.39 930.962   9
   5  -3  -1 2583.85 1189.59   8
   5  -3  -1 880.892 1163.83   4
   5  -3  -1 2581.08 1009.76   7
   5  -3   0 25449.6 3568.56   6
   5  -3   0 22912.1 2888.22   5
   5  -3   0 21196.7 2787.81   9
   5  -3   0 22376.2 3173.63   4
   5  -3   0 25140.9 2575.54   8
   5  -3   0 24018.6 2547.05   7
   5  -3   1 83995.3 6558.86   6
   5  -3   1 88698.1 5887.60   4
   5  -3   1 89789.7 4442.10   8
   5  -3   1 87048.5 4757.11   7
   5  -3   2 105158. 7557.72   6
   5  -3   2 107794. 6517.89   4
   5  -3   2 104955. 4548.21   8
   5  -3   2 101064. 5109.57   7
   5  -3   3 104507. 6533.08   4
   5  -3   3 96290.4 4160.86   8
   5  -3   3 99246.9 5253.42   7
   5  -3   4 54338.9 5070.93   4
   5  -3   4 47757.4 4042.89   7
   5  -3   5-509.568 1583.41   4
   5  -3   5 751.644 1263.14   2
   5  -3   5-394.362 1256.50   7
   5  -3   6 24945.7 3632.30   2
   5  -3   6 24903.4 3759.76   7
   5  -3   7 49684.1 6042.98   7
   5  -3   7 48469.1 5552.48   2
   5  -3   8 19787.9 6103.44   3
   5  -3   8 27683.3 4625.04   2
   5  -3   9 5911.18 3380.54   3
   5  -3   9-6635.78 3058.14   2
   5  -3  10-1737.17 2600.61   3
   5  -3  10-1420.29 2289.46   2
   5  -2 -14 5471.74 2892.19  11
   5  -2 -14 4199.44 3582.80   7
   5  -2 -14 5098.85 4285.05   4
   5  -2 -13 98.2853 1527.41  11
   5  -2 -13-1754.57 3684.88   7
   5  -2 -13-756.316 3073.84   4
   5  -2 -12 6999.79 2395.34  11
   5  -2 -12 11855.3 4887.78   7
   5  -2 -12 3314.29 2712.42   4
   5  -2 -11 6713.68 2440.08  11
   5  -2 -11 7963.79 4627.66   7
   5  -2 -11 9400.78 3977.03   4
   5  -2 -10 1262.51 1329.63  11
   5  -2 -10 842.204 2689.89   7
   5  -2 -10 2076.69 2099.92   4
   5  -2  -9 319.744 918.469   3
   5  -2  -9-80.5374 2183.61   7
   5  -2  -9 2191.69 2237.32   4
   5  -2  -9 2572.17 1503.04  11
   5  -2  -8 50435.8 3497.63   3
   5  -2  -8 48144.2 5179.03  10
   5  -2  -8 54714.0 6617.20   4
   5  -2  -8 52684.9 7818.15   7
   5  -2  -8 57027.6 5174.67  11
   5  -2  -7 141297. 5103.61   3
   5  -2  -7 153492. 10184.9  10
   5  -2  -7 144489. 10002.7   4
   5  -2  -7 137926. 7751.88  11
   5  -2  -6 118734. 8489.18   4
   5  -2  -6 105125. 6628.93  11
   5  -2  -6 112453. 4326.49   3
   5  -2  -5 28447.8 5902.64  10
   5  -2  -5 31611.6 3045.39   1
   5  -2  -5 22460.2 3588.61   4
   5  -2  -5 31897.8 2426.18   3
   5  -2  -5 31189.8 3709.75  11
   5  -2  -4 8783.30 2363.73   2
   5  -2  -4 6368.99 3460.40  10
   5  -2  -4 5823.84 596.363   9
   5  -2  -4 5528.54 1671.69   5
   5  -2  -4 7072.26 2018.51   8
   5  -2  -4 6214.55 2238.42   4
   5  -2  -4 7271.49 1314.85   3
   5  -2  -4 6666.38 1544.43   1
   5  -2  -4 4757.19 1650.59  11
   5  -2  -4 8326.06 2281.24   6
   5  -2  -3 155587. 8014.98   5
   5  -2  -3 146759. 4199.57   9
   5  -2  -3 151918. 7666.66   8
   5  -2  -3 157654. 8081.77   4
   5  -2  -3 156177. 8418.28   2
   5  -2  -3 150932. 6536.80   1
   5  -2  -3 160659. 8796.41   6
   5  -2  -2 262508. 21904.1  10
   5  -2  -2 224384. 8175.93   1
   5  -2  -2 233610. 9498.12   5
   5  -2  -2 226929. 6543.49   9
   5  -2  -2 233436. 8965.84   8
   5  -2  -2 236723. 9519.23   4
   5  -2  -2 228444. 9683.15   2
   5  -2  -2 257648. 10951.6   6
   5  -2  -1 132422. 15640.8  10
   5  -2  -1 145058. 7436.99   5
   5  -2  -1 139546. 6700.97   1
   5  -2  -1 142455. 6658.37   8
   5  -2  -1 149514. 7202.27   4
   5  -2  -1 137513. 7228.23   2
   5  -2  -1 147459. 8347.54   6
   5  -2   0 21585.0 3295.32   6
   5  -2   0 27001.8 3265.28   5
   5  -2   0 23567.2 6904.65  10
   5  -2   0 25007.4 2996.28   4
   5  -2   0 21164.0 2519.86   8
   5  -2   0 26468.2 2282.92   7
   5  -2   1 2588.40 1529.74   6
   5  -2   1 4696.07 1295.83   8
   5  -2   1 6083.99 1707.75   4
   5  -2   1 6678.66 1180.38   7
   5  -2   2 47972.7 4018.98   4
   5  -2   2 56353.1 3650.72   8
   5  -2   2 56194.2 3200.38   7
   5  -2   3 96229.8 5762.40   4
   5  -2   3 90665.5 4657.70   8
   5  -2   3 94957.2 4560.66   7
   5  -2   4 150646. 7598.06   4
   5  -2   4 149073. 6783.05   7
   5  -2   5 39308.1 4383.37   7
   5  -2   5 48095.9 4303.85   2
   5  -2   6 4512.95 1882.88   2
   5  -2   6 230.216 1006.19   7
   5  -2   7 8485.22 4106.42   3
   5  -2   7 7844.78 2402.34   2
   5  -2   8 26254.2 6636.34   3
   5  -2   8 26346.3 4467.89   2
   5  -2   9 20859.4 6146.73   3
   5  -2   9 25471.2 4811.54   2
   5  -2  10 3846.19 3065.19   3
   5  -1 -14 3022.57 3811.23   7
   5  -1 -13 1560.13 1827.17  11
   5  -1 -13 6350.89 3583.67   7
   5  -1 -12 9107.45 2816.56  11
   5  -1 -12 8125.58 3274.39   7
   5  -1 -11 22080.3 3723.96  11
   5  -1 -11 13638.2 4727.64   7
   5  -1 -10 17120.9 5409.39   7
   5  -1 -10 16208.2 3015.38  11
   5  -1  -9 2381.34 1343.12  10
   5  -1  -9 2244.26 2691.78   7
   5  -1  -9 2275.58 1458.98  11
   5  -1  -8 4709.94 2046.08  10
   5  -1  -8 3968.95 3014.06   7
   5  -1  -8 4879.71 1873.81  11
   5  -1  -7 53598.8 6555.24  10
   5  -1  -7 50254.7 5908.34   4
   5  -1  -7 50094.9 7751.68   7
   5  -1  -7 47640.0 4258.92  11
   5  -1  -6 110533. 10481.3  10
   5  -1  -6 98917.5 7515.94   4
   5  -1  -6 106564. 10803.2   7
   5  -1  -6 100772. 6127.55  11
   5  -1  -5 151227. 13706.6  10
   5  -1  -5 128554. 7870.67   5
   5  -1  -5 142620. 8434.14   8
   5  -1  -5 141644. 8330.95   4
   5  -1  -5 150077. 12115.1   7
   5  -1  -5 144197. 9248.91   2
   5  -1  -5 143329. 7253.40  11
   5  -1  -5 136015. 3646.38   3
   5  -1  -4 121571. 13913.0  10
   5  -1  -4 98993.4 6759.07   5
   5  -1  -4 107855. 6803.90   8
   5  -1  -4 104531. 6830.36   4
   5  -1  -4 111980. 5897.73   1
   5  -1  -4 119466. 7952.21   2
   5  -1  -4 110156. 7468.14   6
   5  -1  -3 2705.80 1452.34   6
   5  -1  -3 6573.22 3868.90  10
   5  -1  -3 1522.44 1024.09   2
   5  -1  -3 2449.30 620.620   9
   5  -1  -3 3527.57 1532.14   5
   5  -1  -3 2350.65 632.195   9
   5  -1  -3 2911.66 1387.32   8
   5  -1  -3 3056.47 1496.49   4
   5  -1  -3 1669.92 1078.05   1
   5  -1  -2 140913. 15519.4  10
   5  -1  -2 136472. 7509.07   5
   5  -1  -2 151049. 7392.05   8
   5  -1  -2 134111. 6760.53   4
   5  -1  -2 136789. 7525.10   2
   5  -1  -2 143473. 6804.50   1
   5  -1  -2 145105. 8253.95   6
   5  -1  -1 303253. 11920.9   6
   5  -1  -1 268311. 21228.7  10
   5  -1  -1 303505. 10123.4   1
   5  -1  -1 297193. 11029.8   5
   5  -1  -1 314136. 10197.4   8
   5  -1  -1 285981. 9309.73   4
   5  -1  -1 301308. 10457.1   2
   5  -1   0 278485. 11723.4   6
   5  -1   0 284167. 21228.4  10
   5  -1   0 283256. 10852.7   5
   5  -1   0 248788. 9472.40   1
   5  -1   0 277088. 8801.89   4
   5  -1   0 273442. 9073.08   8
   5  -1   0 277266. 9502.50   2
   5  -1   0 270667. 5816.32   7
   5  -1   1 85458.0 6682.90   6
   5  -1   1 95014.2 5084.14   4
   5  -1   1 86913.3 5043.02   8
   5  -1   1 91065.7 2958.82   7
   5  -1   2 6939.67 1538.44   8
   5  -1   2 5069.99 1378.46   4
   5  -1   2 5194.89 748.102   7
   5  -1   3 6344.89 2924.42   3
   5  -1   3 13523.2 2121.75   4
   5  -1   3 9724.28 1786.05   8
   5  -1   3 9179.27 1444.90   7
   5  -1   4 63838.7 4201.45   2
   5  -1   4 59206.2 4526.81   4
   5  -1   4 53282.4 8667.41   3
   5  -1   5 64125.5 9549.35   3
   5  -1   5 71031.4 4863.31   2
   5  -1   6 23704.5 6318.98   3
   5  -1   6 27058.6 3580.51   2
   5  -1   7 10732.1 4487.94   3
   5  -1   7 9036.69 2310.00   2
   5  -1   8 423.223 2885.28   3
   5  -1   8 1582.25 1510.44   2
   5  -1   9 7050.54 4086.74   3
   5  -1  10 10567.9 4134.99   3
   5   0 -14 4763.43 3190.44   7
   5   0 -13-2194.05 2619.29   7
   5   0 -12-1194.68 1950.13  11
   5   0 -12 4124.00 3017.34   7
   5   0 -11 20216.0 3389.35  11
   5   0 -11 24214.7 5913.78   7
   5   0 -10 64745.0 5473.89  10
   5   0 -10 57507.6 8747.14   7
   5   0 -10 56205.1 4923.03  11
   5   0  -9 68455.4 6413.97  10
   5   0  -9 67691.9 9332.99   7
   5   0  -9 67927.9 5161.48  11
   5   0  -8 18419.6 3795.07  10
   5   0  -8 20978.5 5265.06   7
   5   0  -8 27214.0 3217.05  11
   5   0  -7 1378.21 1876.41  10
   5   0  -7-323.561 3214.95   7
   5   0  -7 2302.43 1423.60  11
   5   0  -6 28728.1 5796.10  10
   5   0  -6 37219.4 6819.51   7
   5   0  -6 31393.1 3344.40  11
   5   0  -5 63680.9 9380.19  10
   5   0  -5 58701.9 5509.00   5
   5   0  -5 55098.6 5178.35   8
   5   0  -5 49534.9 4903.85   4
   5   0  -5 64176.0 6677.90   2
   5   0  -5 47786.8 7748.44   7
   5   0  -4 134857. 4465.14   3
   5   0  -4 111534. 13004.3  10
   5   0  -4 138068. 8156.88   5
   5   0  -4 140117. 7777.57   8
   5   0  -4 133393. 7379.99   4
   5   0  -4 123216. 12193.4   7
   5   0  -4 159865. 9877.17   2
   5   0  -4 129289. 7952.42   6
   5   0  -3 120816. 6459.65   3
   5   0  -3 111995. 12950.5  10
   5   0  -3 109291. 7121.31   5
   5   0  -3 107057. 3690.99   9
   5   0  -3 116393. 6871.03   8
   5   0  -3 106249. 6164.54   4
   5   0  -3 111248. 6142.86   1
   5   0  -3 115869. 11288.7   7
   5   0  -3 117904. 7916.11   2
   5   0  -3 115502. 7393.01   6
   5   0  -2 23809.5 3438.35   6
   5   0  -2 26921.5 6287.90  10
   5   0  -2 24842.8 3375.02   5
   5   0  -2 23249.9 2243.67   9
   5   0  -2 26681.5 3320.71   8
   5   0  -2 24195.4 3944.85   3
   5   0  -2 24799.0 2919.52   4
   5   0  -2 25671.0 3434.49   2
   5   0  -2 26080.2 3088.32   1
   5   0  -2 31222.0 5185.41   7
   5   0  -1 2868.71 1552.99   6
   5   0  -1 1628.00 2633.00  10
   5   0  -1 3890.26 1361.91   2
   5   0  -1 2810.37 1405.47   5
   5   0  -1 2276.90 1137.86   9
   5   0  -1 3087.60 1862.77   3
   5   0  -1 3317.57 1304.00   8
   5   0  -1 1920.73 1336.72   1
   5   0  -1 2009.64 944.993   4
   5   0  -1 4443.15 1516.31   7
   5   0   0 97458.9 7064.73   6
   5   0   0 105115. 11986.8  10
   5   0   0 97242.3 10469.0   3
   5   0   0 113313. 7173.34   5
   5   0   0 98046.9 6146.81   1
   5   0   0 99426.7 4851.20   4
   5   0   0 95355.7 5688.61   8
   5   0   0 111100. 6107.09   2
   5   0   1 236397. 17618.7   3
   5   0   1 247044. 7241.67   4
   5   0   1 238772. 9839.32   1
   5   0   1 248242. 9035.16   8
   5   0   1 245102. 8368.75   2
   5   0   2 173119. 6070.91   4
   5   0   2 179985. 7729.58   8
   5   0   2 177025. 6650.36   2
   5   0   3 43404.2 3164.15   4
   5   0   3 51938.8 9051.54   3
   5   0   3 39395.1 3790.32   8
   5   0   4 1766.76 899.190   2
   5   0   4 998.060 2892.74   3
   5   0   5 55901.6 8956.80   3
   5   0   5 32746.4 3226.95   2
   5   0   6 27777.2 6590.17   3
   5   0   6 22780.3 2792.66   2
   5   0   7 39797.3 7499.38   3
   5   0   7 29541.0 3103.53   2
   5   0   8 20970.9 5854.33   3
   5   0   9 6346.23 4080.26   3
   5   0  10-951.587 2718.43   3
   5   1 -14-1170.78 2549.08   7
   5   1 -13 6357.92 3482.16   7
   5   1 -12 7253.27 2461.58  11
   5   1 -12 10427.6 4236.47   7
   5   1 -11 3256.93 1352.65  11
   5   1 -11 7364.84 3521.85   7
   5   1 -10 5373.28 1591.04  11
   5   1 -10 8795.48 2369.79  10
   5   1 -10 10834.9 4187.24   7
   5   1  -9 34456.2 4872.17  10
   5   1  -9 43865.6 7614.92   7
   5   1  -9 39874.9 3577.61  11
   5   1  -8 69393.2 7513.38  10
   5   1  -8 60305.6 8713.14   7
   5   1  -8 69389.9 4513.99  11
   5   1  -7 52332.8 7014.56  10
   5   1  -7 41583.2 7206.37   7
   5   1  -7 57496.1 4101.65  11
   5   1  -6 8504.59 3541.30  10
   5   1  -6 6267.86 2140.87   2
   5   1  -6 11256.8 4400.46   7
   5   1  -6 7992.81 1779.96  11
   5   1  -5 3873.91 1769.98   6
   5   1  -5 5306.96 2685.16  10
   5   1  -5 1440.73 392.548   9
   5   1  -5-983.191 1768.54   2
   5   1  -5 3123.37 2016.21   7
   5   1  -4 71507.0 9701.33  10
   5   1  -4 53732.7 5245.69   5
   5   1  -4 52992.3 2531.86   9
   5   1  -4 61686.8 5380.05   8
   5   1  -4 56169.9 6353.30   7
   5   1  -4 61794.3 7331.47   2
   5   1  -4 52109.1 2212.23   3
   5   1  -4 60699.5 5498.88   6
   5   1  -3 131506. 5048.30   3
   5   1  -3 142422. 13571.9  10
   5   1  -3 142640. 8314.16   5
   5   1  -3 124452. 4609.16   9
   5   1  -3 142094. 7814.88   8
   5   1  -3 136195. 7115.45   1
   5   1  -3 125158. 6445.09   4
   5   1  -3 146362. 7962.68   7
   5   1  -3 144385. 10433.9   2
   5   1  -3 140882. 8184.04   6
   5   1  -2 120064. 7594.54   6
   5   1  -2 125853. 6292.12   3
   5   1  -2 137609. 13002.6  10
   5   1  -2 122705. 7598.11   5
   5   1  -2 115432. 5234.19   9
   5   1  -2 137924. 7473.69   8
   5   1  -2 116024. 5702.86   4
   5   1  -2 125648. 5410.58   7
   5   1  -2 116581. 6607.49   1
   5   1  -2 132211. 9294.12   2
   5   1  -1 105735. 7190.91   6
   5   1  -1 118306. 7477.09   3
   5   1  -1 112609. 11655.2  10
   5   1  -1 108233. 7269.79   5
   5   1  -1 113283. 5907.65   9
   5   1  -1 107025. 6471.64   8
   5   1  -1 110694. 5034.35   4
   5   1  -1 107664. 3387.54   7
   5   1  -1 110791. 7929.52   2
   5   1  -1 118008. 6758.81   1
   5   1   0 58468.0 5519.67   6
   5   1   0 60325.5 6405.37   3
   5   1   0 49342.5 4600.76   1
   5   1   0 54771.7 5200.86   5
   5   1   0 62137.2 4985.60   9
   5   1   0 55317.1 3276.80   4
   5   1   0 56672.0 4646.40   8
   5   1   0 55642.9 5105.87   2
   5   1   1 894.288 941.312   2
   5   1   1 3490.40 1670.02   9
   5   1   1 4374.68 2446.03   3
   5   1   1 3342.03 1435.48   8
   5   1   1 3101.05 808.682   4
   5   1   1 2860.85 1452.13   1
   5   1   2 58220.2 8223.71   3
   5   1   2 79457.7 7349.55   9
   5   1   2 74449.6 3247.26   4
   5   1   2 80601.6 5572.00   8
   5   1   2 81442.4 6181.81   1
   5   1   2 73795.3 4481.00   2
   5   1   3 130665. 13063.3   3
   5   1   3 150782. 11417.0   9
   5   1   3 146195. 7695.87   8
   5   1   4 75776.4 10657.0   3
   5   1   4 91879.6 10137.2   9
   5   1   5 4964.38 2926.61   9
   5   1   5 4262.58 3865.43   3
   5   1   6-1601.36 3368.54   3
   5   1   6-6843.34 4280.85   9
   5   1   7 24982.7 6693.72   3
   5   1   7 14951.2 5443.59   9
   5   1   8 30901.5 7033.32   3
   5   1   8 34400.3 8756.49   9
   5   1   9 7939.26 4062.72   3
   5   1   9 22967.1 7215.45   9
   5   1  10 4797.87 3913.13   3
   5   1  10-17221.3 3958.77   9
   5   2 -14-3401.95 2750.89   7
   5   2 -13 884.258 2445.16   7
   5   2 -12 8876.00 3824.50   7
   5   2 -11 29804.0 6563.11   7
   5   2 -11 37904.1 3630.19  11
   5   2 -10 26386.7 4270.87  10
   5   2 -10 29504.3 2929.99  11
   5   2  -9 3079.70 1928.57  10
   5   2  -9 796.333 2733.22   7
   5   2  -9 4704.77 1335.54  11
   5   2  -8 13955.7 3670.07  10
   5   2  -8 8156.53 3500.20   7
   5   2  -8 16302.4 2051.43  11
   5   2  -7 86478.4 9602.07  10
   5   2  -7 94355.4 10407.2   7
   5   2  -7 98109.0 4952.71  11
   5   2  -6 165785. 14279.4  10
   5   2  -6 135954. 10813.1   7
   5   2  -6 149061. 14394.9   2
   5   2  -5 77365.3 9884.16  10
   5   2  -5 70292.2 3400.01   9
   5   2  -5 88498.8 7371.19   7
   5   2  -5 69950.3 9774.94   2
   5   2  -5 79505.0 6346.68   6
   5   2  -4 6441.85 2098.20   6
   5   2  -4 13680.1 3967.20  10
   5   2  -4 7405.86 1015.24   3
   5   2  -4 7589.95 1313.03   9
   5   2  -4 6073.71 3214.42   2
   5   2  -4 9389.30 2197.28   7
   5   2  -3 52734.7 7910.63  10
   5   2  -3 44489.9 3248.88   9
   5   2  -3 49845.4 4676.78   1
   5   2  -3 41243.5 7314.06   2
   5   2  -3 45764.4 3679.51   7
   5   2  -3 44201.0 3009.29   3
   5   2  -3 50932.9 4975.59   6
   5   2  -2 109478. 7313.85   6
   5   2  -2 106457. 10910.2  10
   5   2  -2 107560. 5498.23   9
   5   2  -2 119741. 7286.31   8
   5   2  -2 108090. 5292.69   4
   5   2  -2 99383.1 6412.79   1
   5   2  -2 109157. 4552.63   7
   5   2  -2 129092. 12099.1   2
   5   2  -2 100366. 5334.43   3
   5   2  -1 165224. 9081.31   6
   5   2  -1 165806. 7506.93   9
   5   2  -1 188136. 9002.42   8
   5   2  -1 171492. 5833.78   4
   5   2  -1 169932. 4250.09   7
   5   2  -1 183850. 8716.07   1
   5   2  -1 176533. 8139.72   3
   5   2   0 150930. 8716.33   3
   5   2   0 157276. 8058.66   9
   5   2   0 152396. 4608.70   4
   5   2   0 161890. 8215.85   8
   5   2   0 160141. 8266.04   2
   5   2   0 149345. 8050.36   1
   5   2   1 39575.6 5153.18   3
   5   2   1 46765.6 4653.79   1
   5   2   1 43537.2 4757.04   9
   5   2   1 43610.5 1925.29   4
   5   2   1 41710.8 2161.13   2
   5   2   2-115.810 1975.07   3
   5   2   2-320.079 1678.20   9
   5   2   2 1633.82 1622.21   1
   5   2   3 43274.9 5858.30   9
   5   2   3 36428.7 6427.45   3
   5   2   4 80644.4 10256.2   3
   5   2   4 114154. 10442.1   9
   5   2   5 70905.2 10484.9   3
   5   2   5 78102.5 9697.61   9
   5   2   6 27704.5 7033.26   3
   5   2   6 18518.6 5661.65   9
   5   2   7 1708.81 3972.15   3
   5   2   7-10979.1 5054.93   9
   5   2   8 7979.99 4561.53   3
   5   2   8 7316.63 4439.54   9
   5   2   9 13599.3 5619.14   3
   5   2   9 14817.2 6245.14   9
   5   2  10 15824.7 5893.87   3
   5   2  10 13809.3 6059.93   9
   5   3 -14-341.818 2564.72   7
   5   3 -13 51.7618 2110.78   7
   5   3 -12 5349.35 3077.36   7
   5   3 -11 15977.6 5247.56   7
   5   3 -10 35553.3 5105.85  10
   5   3 -10 39423.1 7794.21   7
   5   3 -10 34592.0 2470.96  11
   5   3  -9 42099.3 5983.73  10
   5   3  -9 46060.3 8103.48   7
   5   3  -9 34772.6 2463.66  11
   5   3  -8 13682.5 3896.04  10
   5   3  -8 17615.6 4759.87   7
   5   3  -8 14287.2 1659.03  11
   5   3  -7 4046.36 2324.96   7
   5   3  -7 3639.09 1104.36  11
   5   3  -6 102579. 11631.4  10
   5   3  -6 94623.1 4775.71   9
   5   3  -6 95372.0 7839.26   7
   5   3  -5 187109. 6824.47   9
   5   3  -5 187297. 9519.69   7
   5   3  -5 179580. 15732.6   2
   5   3  -5 199696. 10080.6   6
   5   3  -4 166135. 6631.66   9
   5   3  -4 159576. 7657.06   7
   5   3  -4 172361. 9211.87   6
   5   3  -4 160036. 5368.08   3
   5   3  -4 188615. 15400.1   2
   5   3  -3 36269.3 3385.68   9
   5   3  -3 34613.8 3221.00   7
   5   3  -3 34404.3 2965.60   3
   5   3  -3 42430.6 6252.38   2
   5   3  -3 37915.5 4355.68   6
   5   3  -2 2539.59 1169.60   6
   5   3  -2 1581.42 1045.11   3
   5   3  -2 1932.00 1217.21   9
   5   3  -2 1880.94 1350.50   1
   5   3  -2 3124.92 1079.73   7
   5   3  -2 3070.41 1617.60   2
   5   3  -1 31478.7 4024.17   6
   5   3  -1 29413.4 3505.57   9
   5   3  -1 28511.7 2248.74   4
   5   3  -1 29799.2 2133.94   7
   5   3  -1 30919.9 3895.31   1
   5   3  -1 28995.4 3061.13   2
   5   3  -1 30090.3 3497.68   3
   5   3   0 101565. 6756.26   9
   5   3   0 85852.3 2873.86   4
   5   3   0 93824.2 6657.45   1
   5   3   0 92765.9 6605.35   3
   5   3   0 85865.2 3580.57   2
   5   3   1 81241.0 6394.20   1
   5   3   1 83211.9 6650.38   9
   5   3   1 82339.0 6991.76   3
   5   3   2 44190.0 5361.38   9
   5   3   2 45171.8 4904.51   1
   5   3   2 41041.2 5552.44   3
   5   3   3 6286.17 2926.78   3
   5   3   3 5967.78 2803.68   9
   5   3   3 6251.10 2289.97   1
   5   3   4 4592.10 3031.85   3
   5   3   4 9411.88 3437.48   9
   5   3   5 25429.7 6333.20   3
   5   3   5 36757.5 6674.43   9
   5   3   6 30301.3 7028.72   3
   5   3   6 36109.6 7233.77   9
   5   3   7 19257.4 6144.37   3
   5   3   7 17648.7 5902.66   9
   5   3   8 7716.81 3888.16   3
   5   3   8 1459.87 3202.38   9
   5   3   9-674.527 3117.66   3
   5   3   9 1586.05 3418.26   9
   5   4 -13 7259.73 4380.12   7
   5   4 -12-5312.74 3819.66   7
   5   4 -11-3225.45 3289.10   7
   5   4 -10 15515.4 5562.87   7
   5   4  -9 26982.3 6044.95   7
   5   4  -8 29683.9 5350.12   7
   5   4  -8 26112.8 1745.29  11
   5   4  -7 17689.9 2548.05   9
   5   4  -7 15784.8 3715.38   7
   5   4  -7 18401.8 1853.30  11
   5   4  -6 93.9496 862.956   9
   5   4  -6 687.297 1654.08   7
   5   4  -5 23851.1 3611.20   6
   5   4  -5 23160.3 5172.35   2
   5   4  -5 19019.2 2631.31   9
   5   4  -5 20942.1 3268.05   7
   5   4  -4 95690.2 5730.94   9
   5   4  -4 93356.1 6015.40   7
   5   4  -4 86290.3 4647.42   3
   5   4  -4 107843. 8997.18   2
   5   4  -4 94933.7 6916.17   6
   5   4  -3 147893. 7350.06   9
   5   4  -3 153615. 6974.06   7
   5   4  -3 160461. 6834.66   3
   5   4  -3 158180. 9187.75   2
   5   4  -3 151805. 8765.44   6
   5   4  -2 53935.3 5263.60   6
   5   4  -2 55130.6 4745.65   9
   5   4  -2 57574.4 5323.04   1
   5   4  -2 52694.0 3737.34   7
   5   4  -2 50628.1 4302.38   3
   5   4  -2 56093.3 4457.50   2
   5   4  -1 9480.32 2212.87   3
   5   4  -1 10778.4 1461.21   4
   5   4  -1 10943.7 2482.92   9
   5   4  -1 10788.1 1390.06   4
   5   4  -1 11245.2 1602.10   7
   5   4  -1 6004.67 1921.66   1
   5   4   0 19920.0 3352.19   3
   5   4   0 21043.8 3378.44   9
   5   4   0 20355.1 3454.30   1
   5   4   1 61847.9 5807.95   1
   5   4   1 59887.4 5993.75   9
   5   4   1 57675.0 5950.80   3
   5   4   2 64139.5 6008.46   1
   5   4   2 60572.9 6424.50   9
   5   4   2 63194.9 6695.64   3
   5   4   3 38981.6 5689.08   9
   5   4   3 44013.9 5276.17   1
   5   4   3 48322.7 6623.07   3
   5   4   4 14377.4 4089.15   3
   5   4   4 21215.0 4699.42   9
   5   4   5 4798.17 3249.56   3
   5   4   5 510.359 2540.81   9
   5   4   6 3620.75 3365.82   3
   5   4   6 7518.14 4038.95   9
   5   4   7 12856.9 5261.33   3
   5   4   7 13996.4 5137.73   9
   5   4   8 19094.3 6149.70   3
   5   4   8 6777.28 4027.50   9
   5   5 -13 1048.32 2809.76   7
   5   5 -12 2932.42 3479.99   7
   5   5 -11 736.553 2895.91   7
   5   5 -10 4936.59 3622.94   7
   5   5  -9 8541.20 3632.50   7
   5   5  -8 11751.7 3661.24   7
   5   5  -7 29944.3 3599.30   9
   5   5  -7 29036.4 4696.00   7
   5   5  -7 32173.0 2733.50  11
   5   5  -6 32188.0 4006.76  11
   5   5  -6 27597.5 3483.88   9
   5   5  -6 23999.4 3895.99   7
   5   5  -5 25290.5 4240.72  11
   5   5  -5 22958.1 3569.80   6
   5   5  -5 24272.2 3305.65   9
   5   5  -5 18430.9 3200.81   7
   5   5  -4 14293.4 2923.59   6
   5   5  -4 14629.5 3023.85   2
   5   5  -4 8804.40 2242.29   9
   5   5  -4 9770.04 2285.16   7
   5   5  -3 10306.3 2349.62   6
   5   5  -3 10985.1 2185.37   3
   5   5  -3 9205.79 2253.62   9
   5   5  -3 7772.32 1814.50   2
   5   5  -3 9974.26 2129.19   7
   5   5  -2 51563.8 5097.98   9
   5   5  -2 42465.6 3368.17   4
   5   5  -2 50215.0 5206.69   1
   5   5  -2 45284.9 3804.24   7
   5   5  -2 45949.9 4442.79   3
   5   5  -1 88885.8 6879.27   9
   5   5  -1 85131.0 3620.42   4
   5   5  -1 81698.4 6638.05   1
   5   5  -1 87496.1 6462.41   3
   5   5   0 66662.6 6340.88   9
   5   5   0 59387.0 5792.14   1
   5   5   0 66839.8 6004.24   3
   5   5   1 1898.74 1803.61   3
   5   5   1 2814.34 2056.77   9
   5   5   1-530.284 1468.74   1
   5   5   2 7898.61 2805.21   3
   5   5   2 9114.81 3078.60   9
   5   5   2 10284.9 2780.96   1
   5   5   3 39440.6 6073.14   3
   5   5   3 48323.4 6458.51   9
   5   5   3 42600.0 5333.59   1
   5   5   4 40993.0 6528.68   3
   5   5   4 42824.4 6497.92   9
   5   5   5 15162.3 4762.89   3
   5   5   5 20910.7 5202.57   9
   5   5   6 7308.13 3583.81   3
   5   5   6 248.130 3085.97   9
   5   5   7 3215.13 2922.70   3
   5   5   7-9161.89 4514.11   9
   5   6 -12 690.286 3142.62   7
   5   6 -11 9637.32 4328.26   7
   5   6 -10 16721.8 4786.26   7
   5   6  -9 7320.71 3348.25   7
   5   6  -8 173.977 1267.56   9
   5   6  -8-1526.71 2135.84   7
   5   6  -7 16212.2 3032.86   9
   5   6  -7 17934.4 3766.00   7
   5   6  -6 46559.0 4976.80   9
   5   6  -6 46073.0 5444.48   7
   5   6  -5 51811.3 5074.98   9
   5   6  -5 54439.1 5918.19   4
   5   6  -5 52834.6 5446.00   7
   5   6  -5 54766.0 5209.51  11
   5   6  -5 51730.0 5210.22   6
   5   6  -4 33554.8 4987.31  11
   5   6  -4 29554.6 3974.15   6
   5   6  -4 22547.1 3542.47   9
   5   6  -4 22456.0 3422.39   4
   5   6  -4 26295.0 3708.75   7
   5   6  -3-2094.84 2037.70  11
   5   6  -3 3428.82 1465.18   3
   5   6  -3-6.31544 1537.99   9
   5   6  -3 1205.06 1500.46   1
   5   6  -3-159.086 802.460   4
   5   6  -3 2817.07 1398.86   7
   5   6  -2 11039.2 2707.80   3
   5   6  -2 10963.2 2849.41   9
   5   6  -2 7652.19 1461.49   4
   5   6  -2 8906.20 2687.49   1
   5   6  -2 9708.95 2204.92   7
   5   6  -1 39090.0 5089.11   9
   5   6  -1 40627.1 5008.92   1
   5   6  -1 41137.1 4782.32   3
   5   6   0 84723.3 7496.61   9
   5   6   0 87470.3 7275.87   1
   5   6   0 88422.9 7368.07   3
   5   6   1 57939.5 6123.95   1
   5   6   1 56028.1 6530.33   9
   5   6   1 58077.8 6420.20   3
   5   6   2 12759.5 3625.96   3
   5   6   2 15307.8 3888.01   9
   5   6   2 15995.1 3453.84   1
   5   6   3 576.958 1830.09   3
   5   6   3-775.459 1845.18   9
   5   6   3-457.380 2055.44   1
   5   6   4 12996.6 4476.19   3
   5   6   4 23634.4 5139.26   9
   5   6   5 33728.5 6663.40   3
   5   6   5 23014.8 5663.47   9
   5   6   6 9005.87 4330.92   3
   5   6   6 17367.1 5186.26   9
   5   7 -11 3292.75 2879.47   7
   5   7 -10 18312.9 5248.76   7
   5   7  -9 31573.4 5807.33   7
   5   7  -8 19936.8 3701.26   9
   5   7  -8 25349.4 4896.35   7
   5   7  -7 2349.22 1691.33   9
   5   7  -7 10362.8 3038.82   7
   5   7  -6 3394.91 2059.20   9
   5   7  -6 3452.05 1607.01   7
   5   7  -5 26367.9 4088.94   9
   5   7  -5 22092.5 3863.34   7
   5   7  -4 39948.5 5048.90   9
   5   7  -4 37543.0 4679.21   7
   5   7  -3 27038.7 4196.90   9
   5   7  -3 31818.6 4691.33   1
   5   7  -3 28318.3 3831.11   7
   5   7  -2 4603.47 2095.20   3
   5   7  -2 4043.67 2104.20   9
   5   7  -2 7097.48 2623.29   1
   5   7  -1 1265.03 1788.64   1
   5   7  -1 524.250 1590.33   3
   5   7  -1-538.489 1930.62   9
   5   7   0 12664.9 3335.58   3
   5   7   0 14949.3 3725.63   9
   5   7   0 10600.7 2983.04   1
   5   7   1 39654.1 5251.27   1
   5   7   1 30057.0 4892.22   3
   5   7   1 33826.5 5451.43   9
   5   7   2 24011.6 4638.51   3
   5   7   2 22468.0 4641.74   9
   5   7   2 17462.4 3843.44   1
   5   7   3 17648.8 4509.37   3
   5   7   3 13367.6 4257.17   9
   5   7   3 12414.1 3431.97   1
   5   7   4-2587.22 2444.82   3
   5   7   4-1069.76 2400.65   9
   5   7   5 2607.03 2827.95   3
   5   7   5 3146.91 3475.40   9
   5   8  -9 7647.13 3201.09   7
   5   8  -8 16251.6 3665.56   9
   5   8  -8 15378.8 4069.00   7
   5   8  -7 15978.7 3566.63   9
   5   8  -7 20229.2 4239.63   7
   5   8  -6 4034.51 2096.71   9
   5   8  -6 4350.46 2450.44   7
   5   8  -5 984.260 1790.29   9
   5   8  -5 3071.58 2085.97   7
   5   8  -4 16766.7 3629.89   9
   5   8  -4 14249.8 3282.60   7
   5   8  -3 33459.9 4959.39   9
   5   8  -3 28519.3 4878.03   1
   5   8  -2 20844.4 4080.53   9
   5   8  -2 22303.4 3980.12   3
   5   8  -2 26453.6 4465.58   1
   5   8  -1 11735.0 3147.84   3
   5   8  -1 8760.99 2733.76   1
   5   8  -1 11608.8 3386.24   9
   5   8   0 6178.73 2966.65   3
   5   8   0-847.326 2330.60   9
   5   8   0 2275.25 1879.54   1
   5   8   1 3372.31 2456.78   1
   5   8   1 811.516 2126.11   3
   5   8   1 634.323 2085.90   9
   5   8   2 9045.25 3573.25   3
   5   8   2 4154.90 2640.49   9
   5   8   2 5701.79 2303.11   1
   5   8   3 14008.1 4367.99   3
   5   8   3 16234.0 3890.80   1
   5   8   3 14137.9 4407.90   9
   5   9  -6 8999.24 3435.51   9
   5   9  -6 5602.18 2559.99   7
   5   9  -5 12081.6 3703.83   9
   5   9  -5 12239.1 3515.47   7
   5   9  -4 6652.78 2991.93   9
   5   9  -4 3946.88 2204.30   1
   5   9  -4 8390.53 2817.51   7
   5   9  -3 3014.66 2488.48   9
   5   9  -3-666.887 2310.52   1
   5   9  -2 8548.02 3025.15   9
   5   9  -2 5515.21 2668.58   1
   5   9  -1 12615.6 3436.53   1
   5   9  -1 17647.6 4458.63   9
   5   9  -1 16826.0 3804.08   3
   5   9   0 16960.3 4215.58   3
   5   9   0 16751.8 4514.33   9
   5   9   0 14791.0 3588.48   1
   6  -9  -5 7888.37 3547.77   4
   6  -9  -5 5149.62 3079.97  11
   6  -9  -4 8001.77 3329.29   4
   6  -9  -4 1844.03 2102.60  11
   6  -9  -3-1364.55 2191.84   4
   6  -9  -3 4137.70 2676.19  11
   6  -9  -2 22903.2 5100.96   4
   6  -9  -2 19364.8 4652.34  11
   6  -9  -1 34838.6 5949.87   4
   6  -9  -1 23121.7 5040.91  11
   6  -9   0 30059.9 5485.81   4
   6  -9   0 29543.8 5570.09  11
   6  -9   1 9741.69 3690.13   4
   6  -9   1 13896.3 4020.75  11
   6  -9   2-612.841 2419.98   4
   6  -9   2 516.430 2365.67  11
   6  -8  -7 312.693 2134.34   4
   6  -8  -7 2229.15 1763.41  11
   6  -8  -6 14752.7 4218.65   4
   6  -8  -6 16774.7 4625.95  11
   6  -8  -5 19472.2 4525.88   4
   6  -8  -5 21888.1 4648.33  11
   6  -8  -4 13098.5 3996.12   4
   6  -8  -4 12951.7 3781.41  11
   6  -8  -3 7478.58 3288.98   4
   6  -8  -3 4896.93 2797.69  11
   6  -8  -2-584.760 2105.72   4
   6  -8  -2 134.871 1868.13  11
   6  -8  -1 10079.6 3284.86   4
   6  -8  -1 4541.86 2568.00  11
   6  -8   0 20233.9 4421.99   4
   6  -8   0 11247.8 3518.43  11
   6  -8   1 17611.8 4222.56   4
   6  -8   1 22310.2 4611.15  11
   6  -8   2 17718.9 4213.02   4
   6  -8   2 13898.6 3685.41  11
   6  -8   3 6895.68 3162.49   4
   6  -8   3 1801.91 2213.20  11
   6  -8   4-11.0256 2505.09   4
   6  -8   4-3127.76 2753.09  11
   6  -8   5 12997.4 3919.93   4
   6  -8   5 15560.4 4318.45  11
   6  -7  -9 9857.66 4131.60   4
   6  -7  -9 9018.08 4134.65  11
   6  -7  -8 15774.8 4605.87   4
   6  -7  -8 9002.60 3730.78  11
   6  -7  -7 12724.4 3993.77   4
   6  -7  -7 11089.1 3610.59  11
   6  -7  -6 1261.56 1778.81   4
   6  -7  -6 4137.15 2467.99  11
   6  -7  -5 4168.36 2743.65   4
   6  -7  -5 7211.66 2956.06  11
   6  -7  -4 42656.9 5925.76   4
   6  -7  -4 42841.1 6021.93  11
   6  -7  -3 74551.6 7680.65   4
   6  -7  -3 63513.1 7076.85  11
   6  -7  -2 34539.5 5277.67   4
   6  -7  -2 34572.5 5460.15  11
   6  -7  -1 2533.77 2250.91   4
   6  -7  -1 1151.84 1996.95  11
   6  -7   0 536.739 1980.22   4
   6  -7   0 571.557 1825.68  11
   6  -7   1 18083.6 3926.78   4
   6  -7   1 12681.4 3566.64  11
   6  -7   2 20763.4 4196.68   4
   6  -7   2 23402.3 4617.38  11
   6  -7   3 23293.0 4344.16   4
   6  -7   3 30214.5 5383.51  11
   6  -7   4 14808.6 3950.63   4
   6  -7   5 955.149 2255.31   4
   6  -7   6 5153.48 2538.21   2
   6  -6 -10 1383.42 2418.82  11
   6  -6 -10-2097.12 2726.24   4
   6  -6  -9 1839.20 2707.22   4
   6  -6  -9 796.443 2392.50  11
   6  -6  -8 3783.27 2965.94   4
   6  -6  -8 5592.50 2633.16  11
   6  -6  -7 22719.0 4900.49   4
   6  -6  -7 18510.6 4179.20  11
   6  -6  -6 41596.2 6098.37   4
   6  -6  -6 42453.4 5881.38  11
   6  -6  -5 16104.4 3845.82   4
   6  -6  -5 17646.4 3873.08  11
   6  -6  -4 16.7775 1002.66   5
   6  -6  -4-473.344 1945.81   4
   6  -6  -4 1387.38 1665.70  11
   6  -6  -3 20611.6 2926.46   5
   6  -6  -3 23595.6 3113.33   9
   6  -6  -3 18632.2 3849.32   4
   6  -6  -3 26336.9 4492.21  11
   6  -6  -2 70338.5 5453.95   9
   6  -6  -2 80272.3 5882.77   8
   6  -6  -2 77287.3 7226.71   4
   6  -6  -2 80039.3 7510.06  11
   6  -6  -1 56355.2 6201.22   4
   6  -6  -1 57835.2 4524.65   8
   6  -6  -1 54202.0 6242.23  11
   6  -6   0 30262.6 4568.89   4
   6  -6   0 25219.3 4557.59  11
   6  -6   1-1118.79 1977.11   4
   6  -6   1 352.822 1495.28  11
   6  -6   2 18269.4 3766.19   4
   6  -6   3 30819.8 4823.52   4
   6  -6   4 28321.9 4690.14   4
   6  -6   5 12939.4 3564.15   4
   6  -6   6 6146.06 2435.65   2
   6  -6   7 1982.97 2179.28   2
   6  -5 -11 4187.43 2468.51  11
   6  -5 -11 4373.27 3055.07   4
   6  -5 -10 18792.8 4743.63   4
   6  -5 -10 6603.06 2854.93  11
   6  -5  -9 6788.57 3090.01   4
   6  -5  -9 3289.56 2346.02  11
   6  -5  -8 1882.70 2370.99   4
   6  -5  -8-2247.71 2273.12  11
   6  -5  -7 3158.25 2293.29   4
   6  -5  -7 9421.81 2774.75  11
   6  -5  -6 49287.6 6299.57   4
   6  -5  -6 52565.1 6086.79  11
   6  -5  -6 49288.0 4637.64   3
   6  -5  -5 79078.7 4435.47   9
   6  -5  -5 88466.2 8048.33   4
   6  -5  -5 79716.8 5880.69   3
   6  -5  -5 77809.1 7172.56  11
   6  -5  -4 66546.4 5591.03   5
   6  -5  -4 68923.6 4453.50   9
   6  -5  -4 74962.3 7091.36   4
   6  -5  -4 69124.5 5508.09   3
   6  -5  -4 63849.0 6525.71  11
   6  -5  -3 16061.4 2762.07   5
   6  -5  -3 16708.5 2392.42   9
   6  -5  -3 17178.6 3015.54   8
   6  -5  -3 15090.4 3491.70   4
   6  -5  -3 13869.8 3214.56  11
   6  -5  -2 10861.4 2219.61   5
   6  -5  -2 12561.3 2216.66   9
   6  -5  -2 9273.97 1980.72   8
   6  -5  -2 11729.4 3130.90   4
   6  -5  -2 13226.1 3258.40  11
   6  -5  -1 79856.0 5462.18   5
   6  -5  -1 76382.1 5520.24   9
   6  -5  -1 77221.4 6722.95   4
   6  -5  -1 77169.8 5118.58   8
   6  -5  -1 73773.6 7039.18  11
   6  -5   0 98158.4 6702.04   9
   6  -5   0 107616. 7822.06   4
   6  -5   0 93181.9 5147.31   8
   6  -5   0 90259.1 6249.67   7
   6  -5   1 74567.7 6586.37   4
   6  -5   1 72152.2 4056.52   8
   6  -5   1 74864.4 5667.42   7
   6  -5   2 5079.90 2217.97   4
   6  -5   2 4230.03 1637.76   7
   6  -5   3 3579.22 1948.99   4
   6  -5   3 4835.93 1886.16   7
   6  -5   4 23493.9 3974.72   4
   6  -5   5 22688.7 4353.70   4
   6  -5   6 12290.6 3140.35   2
   6  -5   7 6824.68 2683.48   2
   6  -5   8-2282.85 2277.74   2
   6  -4 -12 2468.84 2187.45  11
   6  -4 -12 3958.67 3239.96   4
   6  -4 -11 144.235 2222.24  11
   6  -4 -11-2468.71 3034.73   7
   6  -4 -11 1796.20 3019.51   4
   6  -4 -10 22754.8 5200.22   4
   6  -4 -10 15703.9 3822.94  11
   6  -4  -9 19985.2 2646.68   1
   6  -4  -9 17727.8 4523.63   4
   6  -4  -9 18000.9 3887.57  11
   6  -4  -8 18455.2 2470.78   1
   6  -4  -8 21650.1 4632.76   4
   6  -4  -8 15538.6 3601.87  11
   6  -4  -7 3065.52 1136.44   1
   6  -4  -7 2500.97 1188.04   3
   6  -4  -7 5037.73 2566.47   4
   6  -4  -7 6666.04 2558.31  11
   6  -4  -6 1051.35 965.541   3
   6  -4  -6 3700.53 1264.23   1
   6  -4  -6 1769.93 2068.42   4
   6  -4  -6 2883.32 1941.24  11
   6  -4  -5 23231.9 2903.82   3
   6  -4  -5 22536.9 2693.47   1
   6  -4  -5 17803.6 1707.16   9
   6  -4  -5 19210.4 3836.56   4
   6  -4  -5 22581.1 3776.12  11
   6  -4  -4 48164.7 4925.64   5
   6  -4  -4 48007.5 3165.94   9
   6  -4  -4 48284.8 3853.02   1
   6  -4  -4 44372.3 5359.27   4
   6  -4  -4 36980.9 3658.94   3
   6  -4  -4 45048.9 5263.88  11
   6  -4  -3 57330.0 5123.61   5
   6  -4  -3 59601.6 3849.64   9
   6  -4  -3 61828.9 5332.59   8
   6  -4  -3 64264.5 6139.79   4
   6  -4  -3 58316.1 5867.88  11
   6  -4  -2 34118.7 3905.75   5
   6  -4  -2 31569.5 3086.06   9
   6  -4  -2 26696.4 3315.16   8
   6  -4  -2 30764.5 4301.64   4
   6  -4  -2 30545.2 3575.14   7
   6  -4  -2 28890.3 4302.61  11
   6  -4  -1-563.813 1163.02   5
   6  -4  -1-264.988 606.910   9
   6  -4  -1 1302.86 909.666   8
   6  -4  -1 1018.03 1770.43   4
   6  -4  -1 2169.05 1275.52   7
   6  -4   0 21615.1 3009.43   5
   6  -4   0 17654.6 2791.31   9
   6  -4   0 13825.2 2183.06   8
   6  -4   0 21847.2 3508.00   4
   6  -4   0 17691.0 2604.59   7
   6  -4   1 104950. 7372.24   9
   6  -4   1 87187.5 6641.18   4
   6  -4   1 99370.3 5005.47   8
   6  -4   1 96652.3 5788.87   7
   6  -4   2 95646.9 7118.22   4
   6  -4   2 102092. 4688.88   8
   6  -4   2 99070.2 5818.22   7
   6  -4   3 34359.4 4451.32   4
   6  -4   3 40117.4 3837.48   7
   6  -4   4 3365.25 1823.71   4
   6  -4   4 3765.61 1486.58   7
   6  -4   5 3672.45 1742.61   2
   6  -4   5 2244.05 1587.71   4
   6  -4   6 8768.08 2548.81   2
   6  -4   7 14299.1 3382.99   2
   6  -4   8 11325.7 3376.93   2
   6  -3 -12 8217.48 3061.32  11
   6  -3 -12 213.487 3248.65   7
   6  -3 -12 3275.14 3212.50   4
   6  -3 -11 2305.50 1979.29  11
   6  -3 -11 11104.0 4657.22   7
   6  -3 -11 7941.51 4230.32   4
   6  -3 -10-6167.58 4522.39   7
   6  -3 -10 293.493 2340.96   4
   6  -3 -10-796.426 1698.86  11
   6  -3  -9 6988.87 4179.09   7
   6  -3  -9 11857.6 3827.45   4
   6  -3  -9 9624.88 3052.47  11
   6  -3  -8 38015.6 5923.00   4
   6  -3  -8 32850.5 4563.43  11
   6  -3  -7 65915.9 7577.11  10
   6  -3  -7 69405.9 7319.02   4
   6  -3  -7 72247.2 4975.21   1
   6  -3  -7 74241.7 6454.94  11
   6  -3  -7 69537.8 4087.23   3
   6  -3  -6 34668.3 5191.32   4
   6  -3  -6 36645.4 3571.43   1
   6  -3  -6 39041.4 4760.04  11
   6  -3  -6 40546.7 3224.46   3
   6  -3  -5 1177.29 996.262   3
   6  -3  -5 1452.49 1158.28   1
   6  -3  -5 2099.63 1923.99   4
   6  -3  -5 1666.39 1515.64  11
   6  -3  -4 16693.9 1534.38   9
   6  -3  -4 16847.1 2931.31   5
   6  -3  -4 19076.6 3540.66   4
   6  -3  -4 20233.5 2508.11   3
   6  -3  -4 17500.6 3331.68  11
   6  -3  -4 16572.6 2560.76   1
   6  -3  -3 53921.6 5123.91   5
   6  -3  -3 60020.0 3375.84   9
   6  -3  -3 53465.1 4453.94   1
   6  -3  -3 59281.6 5205.75   8
   6  -3  -3 60065.3 5633.88   4
   6  -3  -2 72430.0 5773.21   5
   6  -3  -2 72066.6 4311.42   9
   6  -3  -2 79773.7 5732.67   8
   6  -3  -2 72324.0 5963.31   4
   6  -3  -1 60762.6 5288.24   5
   6  -3  -1 54326.6 4264.38   9
   6  -3  -1 61618.8 5356.19   4
   6  -3  -1 62529.0 4752.58   8
   6  -3  -1 58629.8 4207.84   7
   6  -3   0 36308.8 4027.40   5
   6  -3   0 30786.8 3649.13   9
   6  -3   0 33993.0 4009.12   4
   6  -3   0 33469.4 3269.08   8
   6  -3   0 33093.1 3075.50   7
   6  -3   1-652.605 965.500   8
   6  -3   1 745.978 1524.95   4
   6  -3   1 80.7119 659.999   7
   6  -3   2 39462.0 4329.46   4
   6  -3   2 42692.4 3443.75   8
   6  -3   2 41690.1 3381.61   7
   6  -3   3 75127.9 6059.49   4
   6  -3   3 73840.6 4289.97   8
   6  -3   3 68717.0 4420.29   7
   6  -3   4 68278.2 5897.17   4
   6  -3   4 66824.4 4776.82   7
   6  -3   5 7534.72 2449.46   4
   6  -3   5 9131.08 2226.39   2
   6  -3   6 2301.11 1558.86   2
   6  -3   7 10551.8 2865.15   2
   6  -3   7-40.4015 3172.78   3
   6  -3   8 9320.30 4367.58   3
   6  -3   9 8531.06 4361.04   3
   6  -2 -13 2038.98 2019.52  11
   6  -2 -13-5809.73 3864.99   7
   6  -2 -13-1039.57 2793.16   4
   6  -2 -12 7305.82 2651.81  11
   6  -2 -12 2810.70 3326.41   7
   6  -2 -12 2015.27 2922.87   4
   6  -2 -11 7437.17 2471.98  11
   6  -2 -11 6813.64 4056.83   7
   6  -2 -11 15731.0 5072.93   4
   6  -2 -10 17084.4 5581.65   7
   6  -2 -10 17123.3 4815.57   4
   6  -2 -10 15868.1 3275.50  11
   6  -2  -9 7823.95 4251.72   7
   6  -2  -9 4551.97 2809.36   4
   6  -2  -9 7534.23 2533.74  11
   6  -2  -8 3642.34 1897.60  10
   6  -2  -8 536.162 420.845   3
   6  -2  -8-281.113 2201.93   7
   6  -2  -8 1753.33 2260.86   4
   6  -2  -8 1728.08 1664.68  11
   6  -2  -7 31207.4 2119.84   3
   6  -2  -7 22032.0 4960.60  10
   6  -2  -7 25923.8 5852.26   7
   6  -2  -7 33838.6 4956.75   4
   6  -2  -7 31123.7 4074.77  11
   6  -2  -6 110970. 11726.8  10
   6  -2  -6 105621. 8298.90   4
   6  -2  -6 104480. 6210.37   1
   6  -2  -6 101131. 7047.54  11
   6  -2  -6 103917. 4084.68   3
   6  -2  -5 92665.9 7342.20   4
   6  -2  -5 93911.8 5837.04   1
   6  -2  -5 102939. 4511.55   3
   6  -2  -5 90652.8 6715.49  11
   6  -2  -4 17989.6 1125.19   9
   6  -2  -4 19023.0 1231.03   9
   6  -2  -4 20933.1 3530.58   4
   6  -2  -4 21192.2 2996.57   1
   6  -2  -3 10141.6 2471.93   5
   6  -2  -3 8061.15 1234.16   9
   6  -2  -3 10593.7 2410.04   8
   6  -2  -3 10287.3 2458.95   4
   6  -2  -3 10254.3 2174.83   1
   6  -2  -2 76361.5 6098.51   5
   6  -2  -2 69454.8 4135.15   9
   6  -2  -2 74273.4 5455.50   1
   6  -2  -2 70835.0 5435.42   8
   6  -2  -2 72487.6 5673.98   4
   6  -2  -2 74910.4 6140.18   2
   6  -2  -1 116668. 7498.35   5
   6  -2  -1 111580. 6839.33   1
   6  -2  -1 112856. 6764.78   4
   6  -2  -1 126870. 6879.92   8
   6  -2  -1 108681. 7116.24   2
   6  -2  -1 109363. 5083.66   7
   6  -2   0 119091. 7597.83   5
   6  -2   0 108798. 6572.91   4
   6  -2   0 111522. 6137.46   8
   6  -2   0 98239.9 6637.43   2
   6  -2   0 105304. 4601.27   7
   6  -2   1 50338.2 4474.92   4
   6  -2   1 50276.4 4076.93   8
   6  -2   1 48617.0 2922.82   7
   6  -2   2 4479.29 1349.13   8
   6  -2   2 3695.54 1446.21   4
   6  -2   2 4675.64 976.553   7
   6  -2   3 1487.38 1249.14   4
   6  -2   3 296.158 708.831   8
   6  -2   3 3543.49 1002.51   7
   6  -2   4 25160.9 3466.05   4
   6  -2   4 22113.7 2609.89   7
   6  -2   5 39015.2 7705.60   3
   6  -2   5 52184.2 4662.62   2
   6  -2   6 31490.3 3940.69   2
   6  -2   6 17930.7 6068.79   3
   6  -2   7 514.116 2962.23   3
   6  -2   7 3972.08 1941.18   2
   6  -2   8 4601.91 3240.19   3
   6  -2   9 6885.50 3545.85   3
   6  -1 -13 3437.44 2937.13   7
   6  -1 -12 1488.93 1501.14  11
   6  -1 -12 2503.76 2775.16   7
   6  -1 -11 5810.90 3645.93   7
   6  -1 -11 8147.19 4069.39   4
   6  -1 -11 5893.71 1867.66  11
   6  -1 -10 15535.5 5146.11   7
   6  -1 -10 23775.8 5428.23   4
   6  -1 -10 28245.1 3898.07  11
   6  -1  -9 41124.8 5498.56  10
   6  -1  -9 29180.4 6802.65   7
   6  -1  -9 35825.0 5971.14   4
   6  -1  -9 37280.1 4399.81  11
   6  -1  -8 31090.6 5489.57  10
   6  -1  -8 39468.0 7875.30   7
   6  -1  -8 31632.6 5230.39   4
   6  -1  -8 27593.2 3742.11  11
   6  -1  -7 7918.95 3443.94  10
   6  -1  -7 7877.91 4355.71   7
   6  -1  -7 5049.06 2522.51   4
   6  -1  -7 5257.87 1905.25  11
   6  -1  -6 45380.4 7968.10  10
   6  -1  -6 38444.8 7571.29   7
   6  -1  -6 34516.5 4807.50   4
   6  -1  -6 37381.3 4227.69  11
   6  -1  -5 115396. 14115.7  10
   6  -1  -5 108065. 6225.38   3
   6  -1  -5 104191. 7482.66   4
   6  -1  -5 115012. 6694.55   1
   6  -1  -5 113291. 12091.2   7
   6  -1  -5 107134. 3665.89   3
   6  -1  -5 101340. 6764.65  11
   6  -1  -4 164045. 8935.35   4
   6  -1  -4 151026. 13366.6   7
   6  -1  -4 166563. 10270.4   2
   6  -1  -4 145983. 7529.49   1
   6  -1  -3 78593.4 3701.02   9
   6  -1  -3 68541.0 5485.22   4
   6  -1  -3 70642.3 8642.74   7
   6  -1  -3 82192.1 6881.39   2
   6  -1  -3 78285.0 5613.28   1
   6  -1  -2 4134.47 1360.69   2
   6  -1  -2 1197.18 1020.32   9
   6  -1  -2 3367.65 1317.33   8
   6  -1  -2 4790.52 1680.27   4
   6  -1  -2 2911.85 1654.48   1
   6  -1  -1 44567.6 4450.85   1
   6  -1  -1 42562.2 3911.44   4
   6  -1  -1 46939.5 4411.83   8
   6  -1  -1 48031.2 4778.71   2
   6  -1  -1 43252.4 2720.70   7
   6  -1  -1 39508.5 5683.47   7
   6  -1   0 94958.5 12944.8   3
   6  -1   0 118596. 6308.94   4
   6  -1   0 107303. 7056.17   1
   6  -1   0 116795. 6579.71   8
   6  -1   0 116233. 7098.36   2
   6  -1   0 106177. 7267.89   7
   6  -1   0 110153. 3539.14   7
   6  -1   1 93214.4 12762.7   3
   6  -1   1 99735.5 5712.88   4
   6  -1   1 106294. 6261.77   8
   6  -1   1 87631.9 5971.64   2
   6  -1   2 24856.3 2963.08   4
   6  -1   2 28476.7 3307.92   8
   6  -1   2 19345.8 5597.11   3
   6  -1   2 29291.9 3417.61   2
   6  -1   3 4616.36 3514.19   3
   6  -1   3 3249.25 1403.53   4
   6  -1   3 2403.09 1311.31   8
   6  -1   4 2836.31 1166.84   2
   6  -1   4 1502.39 1299.53   4
   6  -1   4 4582.65 2597.59   3
   6  -1   5 22294.9 2814.83   2
   6  -1   5 14902.8 5557.58   3
   6  -1   6 27019.2 6517.89   3
   6  -1   6 31766.8 3832.51   2
   6  -1   7 26098.1 6460.14   3
   6  -1   8 7816.27 4611.91   3
   6  -1   9-124.235 2702.57   3
   6   0 -13 5899.48 3180.39   7
   6   0 -12 205.499 1128.05  11
   6   0 -12-712.052 1965.68   7
   6   0 -11 4597.41 3437.51   7
   6   0 -11 640.003 1453.90  11
   6   0 -10 8208.83 3922.76   7
   6   0 -10 6608.53 2006.78  11
   6   0  -9 10256.9 3141.58  10
   6   0  -9 10220.0 3917.20   7
   6   0  -9 17705.9 2892.79  11
   6   0  -8 25074.1 5307.05  10
   6   0  -8 20931.0 5629.95   7
   6   0  -8 26532.0 3426.70  11
   6   0  -7 32037.4 6398.32  10
   6   0  -7 44554.1 8106.48   7
   6   0  -7 37701.9 5168.75   4
   6   0  -7 43261.3 4272.45  11
   6   0  -6 10673.9 4519.89  10
   6   0  -6 10384.3 4291.61   7
   6   0  -6 6931.69 2549.61   4
   6   0  -6 7882.06 2068.75  11
   6   0  -5 2842.48 1550.75   1
   6   0  -5 1680.47 1534.20   4
   6   0  -4 46359.8 3232.17   3
   6   0  -4 43429.0 1993.43   9
   6   0  -4 47992.9 4759.75   4
   6   0  -4 40999.3 4191.32   1
   6   0  -4 55077.2 6506.45   2
   6   0  -4 43366.7 7338.70   7
   6   0  -3 162249. 8229.54   3
   6   0  -3 149494. 5174.47   9
   6   0  -3 140865. 7500.47   4
   6   0  -3 186439. 12635.7   7
   6   0  -3 179032. 10998.0   2
   6   0  -3 159628. 8215.08   1
   6   0  -2 152402. 9974.34   3
   6   0  -2 146646. 6315.79   9
   6   0  -2 151455. 7301.68   4
   6   0  -2 153996. 8259.32   7
   6   0  -2 162214. 9848.07   2
   6   0  -2 146071. 7893.72   1
   6   0  -1 53491.0 7045.14   3
   6   0  -1 55986.5 5207.62   1
   6   0  -1 43855.0 4112.65   9
   6   0  -1 51890.0 4111.47   4
   6   0  -1 45143.9 4486.58   8
   6   0  -1 47272.2 2829.04   7
   6   0  -1 50120.2 5231.55   2
   6   0   0 714.030 1282.07   1
   6   0   0 945.988 1163.86   2
   6   0   0-519.832 1721.40   9
   6   0   0-3948.29 2819.01   3
   6   0   0 1339.03 1439.21   8
   6   0   0-27.9562 931.700   4
   6   0   1 33381.6 3068.95   4
   6   0   1 32716.4 4945.87   9
   6   0   1 30553.9 6728.65   3
   6   0   1 34009.1 3803.76   8
   6   0   1 30262.9 4096.11   1
   6   0   1 40598.6 4189.42   2
   6   0   2 55085.1 3839.52   4
   6   0   2 69142.1 10594.3   3
   6   0   2 52896.8 4646.12   8
   6   0   2 57078.9 4670.68   2
   6   0   3 50491.9 3755.39   4
   6   0   3 52972.2 9622.93   3
   6   0   3 49381.6 4649.77   8
   6   0   3 52776.7 4171.94   2
   6   0   4 31771.0 7693.06   3
   6   0   4 27394.2 2943.73   2
   6   0   4 26971.2 2448.41   2
   6   0   5 3902.58 3961.08   3
   6   0   5 1507.82 754.038   2
   6   0   6-1159.93 2889.61   3
   6   0   7 16457.8 5748.79   3
   6   0   8 14028.3 5338.49   3
   6   0   9 4770.07 4028.34   3
   6   1 -13 4231.68 3499.60   7
   6   1 -12 5847.50 3377.94   7
   6   1 -11 9431.73 2167.63  11
   6   1 -11 8076.93 3933.62   7
   6   1 -10 3547.34 2978.10   7
   6   1 -10 6286.26 1765.14  11
   6   1  -9 438.323 1434.08  10
   6   1  -9 374.648 2757.07   7
   6   1  -9-465.342 978.776  11
   6   1  -8 20450.7 5046.44  10
   6   1  -8 14334.1 5226.51   7
   6   1  -8 13365.2 2360.63  11
   6   1  -7 38466.5 7267.56  10
   6   1  -7 46215.2 8051.47   7
   6   1  -7 44678.1 4141.35  11
   6   1  -6 70887.0 9243.73   7
   6   1  -5 19518.8 1253.98   9
   6   1  -5 15793.0 4182.32   2
   6   1  -5 23810.1 4785.28   7
   6   1  -5 19137.0 3272.15   4
   6   1  -4 16368.9 1636.45   9
   6   1  -4 13779.5 4124.66   2
   6   1  -4 20653.4 3279.51   1
   6   1  -4 19369.9 3022.78   4
   6   1  -4 17545.6 3347.20   7
   6   1  -4 16136.5 1638.76   3
   6   1  -3 9267.02 1698.33   3
   6   1  -3 11491.9 1699.57   9
   6   1  -3 4676.99 2568.32   2
   6   1  -3 8923.77 2085.83   4
   6   1  -3 12912.9 2266.36   7
   6   1  -3 7266.89 2113.93   1
   6   1  -2 89567.7 6061.89   3
   6   1  -2 86124.9 5082.72   9
   6   1  -2 77816.5 5015.07   4
   6   1  -2 87613.1 4067.02   7
   6   1  -2 85082.0 8574.89   2
   6   1  -2 78352.1 6120.21   1
   6   1  -1 140822. 9047.38   3
   6   1  -1 140944. 7244.95   9
   6   1  -1 136791. 6058.07   4
   6   1  -1 142677. 10376.3   2
   6   1  -1 130901. 7903.43   1
   6   1   0 93980.4 8570.75   3
   6   1   0 78219.5 6268.20   1
   6   1   0 77302.4 6093.28   9
   6   1   0 76003.2 4198.03   4
   6   1   0 75438.2 7164.72   2
   6   1   1 908.183 1817.28   9
   6   1   1 3191.55 2317.60   3
   6   1   1 3857.48 1769.86   2
   6   1   1 2850.49 987.674   4
   6   1   1 4660.66 2149.00   1
   6   1   2 21294.1 1987.39   4
   6   1   2 17686.0 3919.28   9
   6   1   2 21793.4 5526.16   3
   6   1   2 20942.4 2729.27   2
   6   1   3 54123.4 7381.35   9
   6   1   3 46014.2 8543.96   3
   6   1   4 78479.7 9928.22   9
   6   1   4 70719.5 10778.8   3
   6   1   5 41893.4 9087.41   3
   6   1   5 34080.2 7506.86   9
   6   1   6 11878.1 5091.78   3
   6   1   6 2040.97 3141.32   9
   6   1   7 1166.53 2898.22   3
   6   1   7 7167.71 4786.09   9
   6   1   8 9992.39 4428.97   3
   6   1   8 8589.37 5852.09   9
   6   2 -13 902.234 2865.88   7
   6   2 -12-140.143 2371.56   7
   6   2 -11 8497.12 3409.84   7
   6   2 -10 21853.5 6072.69   7
   6   2 -10 28899.3 3106.05  11
   6   2  -9 27894.0 6644.22   7
   6   2  -9 27627.4 3000.52  11
   6   2  -8 3588.89 2737.05   7
   6   2  -8 3576.87 1383.38  11
   6   2  -7 13532.0 4007.77   7
   6   2  -7 12640.5 2181.09  11
   6   2  -6 72539.4 3150.06   9
   6   2  -6 86377.1 8173.50   7
   6   2  -5 83669.1 3834.61   9
   6   2  -5 88807.7 7100.47   7
   6   2  -5 100960. 12559.9   2
   6   2  -4 69316.7 3985.24   9
   6   2  -4 81544.8 6394.50   1
   6   2  -4 70407.6 5436.32   4
   6   2  -4 57384.0 9550.86   2
   6   2  -4 74175.2 5357.60   7
   6   2  -4 74349.6 3523.23   3
   6   2  -3 29343.5 2919.02   9
   6   2  -3 30853.2 3385.96   4
   6   2  -3 38756.7 7744.95   2
   6   2  -3 29402.0 2910.03   7
   6   2  -3 25719.1 3729.77   1
   6   2  -3 32312.8 2961.69   3
   6   2  -2 930.741 1638.56   1
   6   2  -2 855.959 983.542   3
   6   2  -2 1123.53 1219.10   9
   6   2  -2 1458.40 1140.52   4
   6   2  -2 1560.19 747.912   7
   6   2  -1 25172.9 3531.82   3
   6   2  -1 21628.0 3081.76   9
   6   2  -1 24819.7 2430.60   4
   6   2  -1 25308.9 3722.50   1
   6   2  -1 26740.2 5111.18   2
   6   2   0 94567.6 7698.32   3
   6   2   0 84496.0 6714.94   1
   6   2   0 91597.8 6683.66   9
   6   2   0 92575.1 3965.77   4
   6   2   0 98862.1 6757.54   2
   6   2   1 114653. 9585.67   3
   6   2   1 109488. 7876.98   1
   6   2   1 97619.1 7594.74   9
   6   2   1 106560. 3428.47   4
   6   2   1 108834. 3627.58   2
   6   2   2 47406.3 5934.20   9
   6   2   2 38685.7 6370.40   3
   6   2   2 50246.5 5480.48   1
   6   2   3 3235.73 2901.90   3
   6   2   3 2178.65 2011.47   9
   6   2   4 9167.79 4144.61   3
   6   2   4 19927.4 5130.49   9
   6   2   5 28029.8 7297.55   3
   6   2   5 39200.6 7433.18   9
   6   2   6 24343.6 6788.31   3
   6   2   6 25681.1 6559.97   9
   6   2   7 9694.72 5022.56   3
   6   2   7-1392.90 3372.61   9
   6   2   8 1732.23 4302.59   3
   6   2   8-9452.05 4951.44   9
   6   3 -13 2362.30 2849.68   7
   6   3 -12-855.458 3345.36   7
   6   3 -11 7474.02 4072.98   7
   6   3 -10 11843.5 4538.24   7
   6   3  -9 44347.1 7692.35   7
   6   3  -9 42198.4 3244.40  11
   6   3  -8 56043.5 7835.11   7
   6   3  -8 53282.3 3856.15  11
   6   3  -7 20548.2 4285.87   7
   6   3  -6 2148.78 1021.26   9
   6   3  -6 8577.87 2475.57   7
   6   3  -5 58726.8 4013.19   9
   6   3  -5 60188.7 5293.77   7
   6   3  -5 67232.4 10656.9   2
   6   3  -4 89469.3 5149.32   9
   6   3  -4 87799.8 6910.12   1
   6   3  -4 88944.5 5679.26   7
   6   3  -4 91124.5 11285.7   2
   6   3  -4 89282.9 4386.88   3
   6   3  -3 91294.5 5605.24   9
   6   3  -3 92464.3 5599.51   4
   6   3  -3 87162.9 6837.15   1
   6   3  -3 92394.5 5016.04   7
   6   3  -3 100192. 9462.24   2
   6   3  -3 87240.3 5039.68   3
   6   3  -2 13737.9 2925.24   1
   6   3  -2 13770.5 2432.99   3
   6   3  -2 12669.6 2408.94   9
   6   3  -2 12820.0 1992.96   4
   6   3  -2 10894.4 1514.59   7
   6   3  -2 12825.6 2919.67   2
   6   3  -1 5173.26 1390.95   2
   6   3  -1 5690.95 2017.45   3
   6   3  -1 4228.46 1889.33   9
   6   3  -1 4133.31 1672.77   1
   6   3  -1 5513.54 1166.35   4
   6   3   0 27790.6 4171.55   3
   6   3   0 23656.5 3692.17   9
   6   3   0 24306.1 1544.85   4
   6   3   0 23850.4 3936.48   1
   6   3   0 27783.9 2015.58   2
   6   3   1 49410.7 5500.95   1
   6   3   1 41400.9 5128.98   9
   6   3   1 51923.5 6139.65   3
   6   3   2 45845.8 5859.70   9
   6   3   2 54910.1 5928.84   1
   6   3   2 59008.8 7270.28   3
   6   3   3 43522.6 7008.63   3
   6   3   3 38822.6 5985.25   9
   6   3   4 8914.69 4180.87   3
   6   3   4 5914.43 3114.45   9
   6   3   5-3443.07 3393.13   3
   6   3   5 4228.94 3032.65   9
   6   3   6-574.137 4238.83   3
   6   3   6 14156.1 5324.62   9
   6   3   7 15125.6 5836.02   3
   6   3   7 13802.5 5443.24   9
   6   4 -12 1493.93 2761.75   7
   6   4 -11 2232.51 3126.40   7
   6   4 -10 4259.65 3156.96   7
   6   4  -9 13101.6 4157.85   7
   6   4  -8 21574.6 4616.93   7
   6   4  -8 28033.0 2560.43  11
   6   4  -7 53542.4 4166.98   9
   6   4  -7 51985.9 6161.69   7
   6   4  -6 43169.4 3841.07   9
   6   4  -6 35974.3 4611.77   7
   6   4  -5 4919.18 1606.01   9
   6   4  -5 6601.01 2027.41   7
   6   4  -4 3866.97 1428.79   2
   6   4  -4 2917.04 1223.08   3
   6   4  -4 4065.63 1598.16   9
   6   4  -4 4887.52 1973.12   1
   6   4  -4 3524.49 1553.97   7
   6   4  -3 54982.7 4845.64   9
   6   4  -3 53103.7 5627.70   1
   6   4  -3 52845.3 4042.26   7
   6   4  -3 48412.1 4167.43   3
   6   4  -3 54704.0 5594.00   2
   6   4  -2 78274.1 6090.80   9
   6   4  -2 77194.0 4409.03   4
   6   4  -2 69943.5 6372.46   1
   6   4  -2 79450.3 4306.12   7
   6   4  -2 83388.1 5855.87   3
   6   4  -2 81437.0 5535.17   2
   6   4  -1 40307.6 4672.13   9
   6   4  -1 45367.6 2829.45   4
   6   4  -1 41501.4 2483.54   4
   6   4  -1 49262.5 5487.87   1
   6   4  -1 38897.5 4485.27   3
   6   4   0 18855.1 3521.50   3
   6   4   0 16724.1 3337.23   9
   6   4   0 18296.5 3483.25   1
   6   4   1 1444.31 1727.62   3
   6   4   1 530.597 1709.98   9
   6   4   1-190.686 1818.80   1
   6   4   2 13477.3 3748.88   3
   6   4   2 13194.2 3500.34   9
   6   4   2 11332.6 3145.27   1
   6   4   3 16377.8 4296.78   3
   6   4   3 21129.1 4820.87   9
   6   4   4 18546.0 5128.75   3
   6   4   4 29276.7 5780.59   9
   6   4   5 8038.09 4110.31   3
   6   4   5 9660.54 3663.49   9
   6   4   6-3134.22 3376.11   3
   6   4   6 357.039 2611.47   9
   6   4   7-3023.42 3490.54   3
   6   4   7 4148.47 3392.31   9
   6   5 -11-18.9993 3719.58   7
   6   5 -10 8407.51 4453.35   7
   6   5  -9 2442.04 1874.32   7
   6   5  -8-1269.28 1886.32   7
   6   5  -7 5914.84 2026.28   9
   6   5  -7 5638.73 2387.32   7
   6   5  -6 36758.5 4037.64   9
   6   5  -6 31683.1 4376.15   7
   6   5  -5 52510.2 4785.88   9
   6   5  -5 49461.5 4921.20   7
   6   5  -4 26517.5 4170.58   2
   6   5  -4 19974.9 3248.49   9
   6   5  -4 20688.5 3850.10   1
   6   5  -4 24132.8 2978.81   3
   6   5  -4 23441.4 3273.19   7
   6   5  -3-771.499 1153.66   3
   6   5  -3-512.935 1363.52   9
   6   5  -3 145.908 753.318   2
   6   5  -3-1476.77 2012.57   1
   6   5  -3 335.378 869.964   7
   6   5  -2 29692.7 4121.41   9
   6   5  -2 28912.7 2685.89   4
   6   5  -2 29297.9 2938.98   7
   6   5  -2 31188.7 3905.66   3
   6   5  -2 33315.6 4591.53   1
   6   5  -1 63812.9 6192.44   9
   6   5  -1 62499.6 6343.68   1
   6   5  -1 53114.3 5354.17   3
   6   5   0 70173.3 6799.40   9
   6   5   0 57165.5 5974.03   3
   6   5   0 62992.2 6515.00   1
   6   5   1 31545.8 4948.22   3
   6   5   1 31883.2 4820.90   1
   6   5   1 28131.6 4836.66   9
   6   5   2 1800.60 2179.12   1
   6   5   2-778.667 2453.82   3
   6   5   2 3551.02 2431.03   9
   6   5   3-2277.30 2833.65   3
   6   5   3 1960.66 2123.23   9
   6   5   3 863.580 1979.68   1
   6   5   4 9457.40 3865.75   3
   6   5   4 14062.4 4088.81   9
   6   5   5 17072.1 5116.24   3
   6   5   5 18851.7 5426.77   9
   6   5   6 15551.0 5210.69   3
   6   5   6 2933.22 2993.10   9
   6   6 -10 18046.3 4940.29   7
   6   6  -9 14492.7 3871.02   7
   6   6  -8 12093.0 2631.67   9
   6   6  -8 12969.8 3599.79   7
   6   6  -7 3128.87 1646.41   9
   6   6  -7 3597.57 1845.12   7
   6   6  -6 4132.05 1968.11   9
   6   6  -6 1767.88 1852.66   7
   6   6  -5 25668.8 3870.73   9
   6   6  -5 17627.3 3422.84   7
   6   6  -4 49878.7 5193.60   9
   6   6  -4 59164.7 6506.41   1
   6   6  -4 61963.2 5395.21   7
   6   6  -3 50271.3 5406.86   9
   6   6  -3 56910.9 6295.84   1
   6   6  -3 52152.7 4637.97   7
   6   6  -3 52025.0 5011.87   3
   6   6  -2 13264.2 2765.13   3
   6   6  -2 14225.0 3196.06   9
   6   6  -2 14548.7 3457.20   1
   6   6  -1 2643.81 1801.49   3
   6   6  -1 195.567 2048.88   1
   6   6  -1 2855.43 1981.56   9
   6   6   0 24662.5 4384.34   3
   6   6   0 21526.3 4134.25   1
   6   6   1 49281.0 6070.33   1
   6   6   1 52610.9 6709.76   9
   6   6   1 42975.6 5823.73   3
   6   6   2 24435.3 4563.42   1
   6   6   2 29567.1 5329.02   9
   6   6   3 4084.24 3003.60   3
   6   6   3 10880.0 3982.19   9
   6   6   3 7336.99 2673.56   1
   6   6   4 2593.76 2952.14   3
   6   6   4 4398.54 3249.28   9
   6   7  -9 13723.0 4240.22   7
   6   7  -8 23943.1 3965.04   9
   6   7  -8 26266.2 5050.42   7
   6   7  -7 15359.3 3336.65   9
   6   7  -7 15403.8 3568.11   7
   6   7  -6 1649.48 1649.26   9
   6   7  -6 4822.13 2409.71   7
   6   7  -5 5819.26 2506.46   9
   6   7  -5 4373.97 1916.13   7
   6   7  -4 18020.6 3719.71   9
   6   7  -4 19630.2 4146.27   1
   6   7  -4 15570.0 3153.33   7
   6   7  -3 31113.8 4686.48   9
   6   7  -3 31340.1 4034.11   7
   6   7  -3 23423.7 4569.08   1
   6   7  -3 32340.7 4265.09   3
   6   7  -2 27003.8 4754.80   1
   6   7  -2 22674.0 3982.97   3
   6   7  -2 29408.3 4723.62   9
   6   7  -1 12648.0 3386.88   3
   6   7  -1 12556.9 3358.32   9
   6   7  -1 5618.10 2615.21   1
   6   7   0 2337.12 2065.40   3
   6   7   0 1364.94 2012.49   9
   6   7   0-4262.08 2374.38   1
   6   7   1 5566.43 2637.77   3
   6   7   1 3401.74 2575.98   9
   6   7   1 3255.64 2090.82   1
   6   7   2 14455.0 4123.16   3
   6   7   2 16138.9 3899.97   1
   6   7   2 20026.3 4760.74   9
   6   7   3 12716.4 3608.78   1
   6   7   3 15949.3 4601.24   3
   6   7   3 10855.4 3971.95   9
   6   8  -6 20233.8 4110.21   9
   6   8  -6 20336.5 3874.29   7
   6   8  -5 8665.83 2849.99   9
   6   8  -5 7410.96 2899.42   1
   6   8  -5 8873.75 2733.65   7
   6   8  -4 764.832 1552.71   9
   6   8  -4 1752.78 2082.10   1
   6   8  -4 435.412 1424.28   7
   6   8  -3 5834.01 2708.99   9
   6   8  -3 1647.53 2167.60   1
   6   8  -2 13218.7 3256.42   3
   6   8  -2 11565.1 3459.55   1
   6   8  -2 10369.6 3157.05   9
   6   8  -1 18582.7 4114.46   3
   6   8  -1 18355.6 4183.99   9
   6   8  -1 16245.6 3712.56   1
   6   8   0 8923.75 3309.65   3
   6   8   0 8985.47 3477.90   9
   6   8   0 8792.00 3459.41   1
   7  -8  -5 5099.10 3048.16   4
   7  -8  -5 6113.80 3106.26  11
   7  -8  -4 6195.12 3254.17   4
   7  -8  -4 8434.59 3558.60  11
   7  -8  -3 13273.3 4098.78   4
   7  -8  -3 8404.37 3449.39  11
   7  -8  -2 12936.8 3908.67   4
   7  -8  -2 15651.6 4456.67  11
   7  -8  -1 5597.51 3117.82   4
   7  -8  -1 1869.46 2561.56  11
   7  -8   0-2957.72 2633.19   4
   7  -8   0 1707.28 1943.32  11
   7  -8   1 8067.22 3274.45   4
   7  -8   1 10660.2 3863.78  11
   7  -7  -7 8825.33 3960.55   4
   7  -7  -7 10320.6 3761.75  11
   7  -7  -6 9102.30 3451.75   4
   7  -7  -6 13510.5 4233.00  11
   7  -7  -5 1866.68 2418.09   4
   7  -7  -5 1211.47 2044.96  11
   7  -7  -4 664.987 1956.51   4
   7  -7  -4 1881.50 2458.91  11
   7  -7  -3 16389.2 4309.04   4
   7  -7  -3 11605.5 3416.24  11
   7  -7  -2 21623.6 4599.90   4
   7  -7  -2 19590.1 4337.95  11
   7  -7  -1 14223.7 3873.43   4
   7  -7  -1 14939.7 4188.16  11
   7  -7   0 9943.56 3366.15   4
   7  -7   0 5282.99 2557.17  11
   7  -7   1 2671.77 2435.25   4
   7  -7   1 3026.87 2458.96  11
   7  -7   2 4191.88 2546.69   4
   7  -7   2 4600.25 2367.61  11
   7  -7   3 24163.6 4894.05   4
   7  -7   3 26672.1 5350.80  11
   7  -7   4 22068.1 4670.84   4
   7  -6  -9 3813.53 3313.57   4
   7  -6  -9 3846.37 2643.84  11
   7  -6  -8-2686.39 2954.26   4
   7  -6  -8 3376.50 2575.31  11
   7  -6  -7 8852.72 3531.15   4
   7  -6  -7 8417.70 3094.90  11
   7  -6  -6 23022.3 4796.20   4
   7  -6  -6 23552.4 4549.27  11
   7  -6  -5 39267.9 6119.76   4
   7  -6  -5 38369.9 5637.70  11
   7  -6  -4 17344.0 4206.42   4
   7  -6  -4 25099.5 4542.07  11
   7  -6  -3 2129.31 2418.85   4
   7  -6  -3 2097.84 2189.91  11
   7  -6  -2 21764.8 4154.02   4
   7  -6  -2 19617.5 4045.57  11
   7  -6  -1 37322.2 5247.94   4
   7  -6  -1 41851.0 5920.01  11
   7  -6   0 36342.5 5308.67   4
   7  -6   0 34240.1 5402.38  11
   7  -6   1 18023.0 3940.52   4
   7  -6   2 817.896 1931.95   4
   7  -6   3-1086.66 2176.45   4
   7  -6   4 8976.52 3075.18   4
   7  -6   5 17579.0 3953.20   2
   7  -6   5 16580.2 4248.32   4
   7  -5 -10 11786.7 4279.85   4
   7  -5 -10 5828.54 3086.22  11
   7  -5  -9 18672.5 5008.85   4
   7  -5  -9 8890.05 3328.04  11
   7  -5  -8 7273.24 3252.30   4
   7  -5  -8 5517.48 2774.47  11
   7  -5  -7 1858.95 2134.49   4
   7  -5  -7 2004.84 2041.14  11
   7  -5  -6 739.689 2469.04   4
   7  -5  -6-360.765 1596.17  11
   7  -5  -5 20972.6 4466.66   4
   7  -5  -5 22741.0 4286.85  11
   7  -5  -4 45895.0 6015.76   4
   7  -5  -4 56102.3 6465.39  11
   7  -5  -3 45987.7 5849.96   4
   7  -5  -3 37983.8 5477.82  11
   7  -5  -2 9254.37 3102.76   4
   7  -5  -2 6583.64 2686.67  11
   7  -5  -1 7544.18 2674.86   4
   7  -5  -1 7083.04 2678.16  11
   7  -5   0 39370.2 5092.86   4
   7  -5   1 57037.9 6315.86   4
   7  -5   2 32317.0 4902.04   4
   7  -5   3 6965.45 2755.10   4
   7  -5   4 245.172 1770.14   4
   7  -5   5 1487.79 1444.10   2
   7  -5   5-460.871 1919.42   4
   7  -5   6 14143.5 3473.82   2
   7  -4 -11 649.175 2366.67   7
   7  -4 -11-493.036 2409.72   4
   7  -4 -11 4936.26 2717.95  11
   7  -4 -10 1272.49 2686.01   7
   7  -4 -10 2610.51 3202.52   4
   7  -4 -10 6631.15 2697.57  11
   7  -4  -9 14625.2 4375.73   4
   7  -4  -9 7796.76 2793.77  11
   7  -4  -8 13220.5 4062.88   4
   7  -4  -8 12229.0 3164.35  11
   7  -4  -7 15120.7 2512.15   1
   7  -4  -7 17571.6 4270.46   4
   7  -4  -7 19084.5 3904.30  11
   7  -4  -6 10809.4 2184.27   1
   7  -4  -6 5745.05 2864.95   4
   7  -4  -6 12856.0 3390.65  11
   7  -4  -5 1854.21 1309.67   1
   7  -4  -5-232.212 2191.36   4
   7  -4  -5 744.751 1629.25  11
   7  -4  -4 7740.77 1837.12   3
   7  -4  -4 9673.82 3059.59   4
   7  -4  -4 6786.91 2622.48  11
   7  -4  -3 44010.0 5411.55   4
   7  -4  -3 46180.1 5730.49  11
   7  -4  -2 79690.4 6986.71   4
   7  -4  -2 78376.9 5735.23   7
   7  -4  -1 40154.4 4085.46   9
   7  -4  -1 38942.1 4991.18   4
   7  -4  -1 47024.9 4349.46   8
   7  -4  -1 46388.9 4257.14   7
   7  -4   0 1361.99 1848.48   4
   7  -4   0 3909.00 1441.78   7
   7  -4   1 14401.7 3257.35   4
   7  -4   2 45770.7 5196.19   4
   7  -4   3 38959.5 5040.05   4
   7  -4   4 8043.77 2771.42   4
   7  -4   5 556.231 1600.40   2
   7  -4   5-411.170 1983.43   4
   7  -4   6 4334.12 1992.24   2
   7  -3 -11 6058.55 3858.14   4
   7  -3 -11 7715.50 2596.19  11
   7  -3 -10-20.4857 3376.46   7
   7  -3 -10 4004.13 2060.66  11
   7  -3  -9 38.5335 1091.20   1
   7  -3  -9 1573.96 2815.88   4
   7  -3  -9 1950.47 1948.70  11
   7  -3  -8 2711.11 2917.57   7
   7  -3  -8 8237.27 3294.41   4
   7  -3  -8 5114.64 1741.37   1
   7  -3  -8 5759.78 2611.42  11
   7  -3  -7 17751.6 2813.29   1
   7  -3  -7 13315.7 3728.76   4
   7  -3  -7 21008.0 3986.27  11
   7  -3  -6 27818.8 3447.10   1
   7  -3  -6 27202.1 4697.86   4
   7  -3  -6 23466.1 4063.44  11
   7  -3  -5 23010.8 4029.25   4
   7  -3  -5 20509.4 3121.52   1
   7  -3  -5 17931.0 3613.79  11
   7  -3  -4 10591.4 2313.68   1
   7  -3  -4 8643.23 2548.05   4
   7  -3  -4 9091.56 2704.15  11
   7  -3  -3 707.678 1169.98   1
   7  -3  -3-10.6486 561.657   9
   7  -3  -3 214.851 1610.61   4
   7  -3  -2 31239.4 3103.07   9
   7  -3  -2 32883.1 4397.68   4
   7  -3  -2 30946.4 3332.52   7
   7  -3  -1 80976.9 5541.28   9
   7  -3  -1 76950.5 6280.67   4
   7  -3  -1 72498.4 5540.62   8
   7  -3  -1 77520.6 4881.61   7
   7  -3   0 85888.0 6533.87   9
   7  -3   0 89084.3 6831.59   4
   7  -3   0 84524.3 5673.90   8
   7  -3   0 84630.5 4834.51   7
   7  -3   1 34580.2 4376.09   4
   7  -3   1 32779.1 3492.91   8
   7  -3   2-743.401 1631.82   4
   7  -3   3 24647.0 3930.43   4
   7  -3   4 57329.5 5796.93   4
   7  -3   5 30494.6 4017.37   2
   7  -3   5 20684.6 6720.85   3
   7  -3   6 9299.60 4518.88   3
   7  -3   7-2124.02 3352.55   3
   7  -2 -12-5360.19 2413.51  11
   7  -2 -12-5891.59 3510.78   7
   7  -2 -11 5255.13 3478.43   7
   7  -2 -11-2205.83 2752.12   4
   7  -2 -11 5680.45 2331.84  11
   7  -2 -10 25698.7 6600.33   7
   7  -2 -10 23384.0 5501.89   4
   7  -2 -10 23453.9 3983.16  11
   7  -2  -9 27036.6 6890.35   7
   7  -2  -9 18931.8 4605.23   4
   7  -2  -9 27477.6 4283.32  11
   7  -2  -8 5235.51 1988.02   1
   7  -2  -8 4170.05 3189.84   7
   7  -2  -8 3906.38 1848.57   4
   7  -2  -8 2417.98 2025.86  11
   7  -2  -7 846.106 1409.08   1
   7  -2  -7 1446.48 2670.29   7
   7  -2  -7 121.154 1888.52   4
   7  -2  -7 1447.33 1413.44  11
   7  -2  -6 30751.3 3809.79   1
   7  -2  -6 25498.7 5979.33   7
   7  -2  -6 30383.3 4716.68   4
   7  -2  -6 31284.2 4454.94  11
   7  -2  -5 60400.9 6283.15   4
   7  -2  -5 63700.3 8958.18   7
   7  -2  -5 63664.6 3764.70   3
   7  -2  -5 58947.7 5198.92   1
   7  -2  -5 66645.7 6304.93  11
   7  -2  -4 58071.2 5227.20   1
   7  -2  -4 52407.3 2072.84   9
   7  -2  -4 55994.1 2255.58   9
   7  -2  -3 30387.5 3913.23   1
   7  -2  -3 28691.8 2371.05   9
   7  -2  -3 28536.7 2695.83   9
   7  -2  -3 25279.1 3780.93   4
   7  -2  -2 1446.27 1029.31   9
   7  -2  -2-200.881 1464.65   1
   7  -2  -2 1142.07 1460.06   4
   7  -2  -1 14398.2 2800.99   4
   7  -2  -1 11720.5 1775.11   7
   7  -2   0 40673.9 4381.84   4
   7  -2   0 41558.1 4198.36   8
   7  -2   0 46269.9 5202.65   2
   7  -2   0 41275.9 2750.83   7
   7  -2   1 80547.7 6062.31   4
   7  -2   1 82288.7 5735.96   8
   7  -2   1 84123.3 6849.09   2
   7  -2   2 39577.2 4322.82   4
   7  -2   2 42018.9 4066.04   8
   7  -2   2 27846.6 7491.11   3
   7  -2   2 41482.4 4917.64   2
   7  -2   3 5394.28 4318.50   3
   7  -2   3 4450.66 1717.14   4
   7  -2   4 16020.3 2669.74   2
   7  -2   4 13129.0 5228.47   3
   7  -2   4 10638.3 2546.71   4
   7  -2   5 26575.1 7076.69   3
   7  -2   6 16826.1 5842.98   3
   7  -2   7 11252.1 4536.54   3
   7  -1 -12-2463.86 1878.04  11
   7  -1 -12 1464.47 2462.83   7
   7  -1 -12-4970.20 3810.36   4
   7  -1 -11 2775.40 3163.67   7
   7  -1 -11 1233.47 2671.16   4
   7  -1 -11-1477.00 1549.05  11
   7  -1 -10 2444.98 2668.61   7
   7  -1 -10 7883.53 3500.96   4
   7  -1 -10 8536.25 2517.15  11
   7  -1  -9 19163.8 5809.56   7
   7  -1  -9 23179.1 4927.94   4
   7  -1  -9 29074.1 4108.36  11
   7  -1  -8 21728.7 5982.43   7
   7  -1  -8 22913.6 4532.67   4
   7  -1  -8 31343.8 4403.92  11
   7  -1  -7 27296.8 3822.46   1
   7  -1  -7 33523.9 7648.84   7
   7  -1  -7 28715.6 4792.94   4
   7  -1  -7 28628.8 4050.20  11
   7  -1  -6 5755.93 2137.36   1
   7  -1  -6 5137.27 2419.09   4
   7  -1  -6-901.129 2844.55   7
   7  -1  -6 1542.92 1667.11  11
   7  -1  -5 30191.6 3940.04   1
   7  -1  -5 26467.5 2774.86   3
   7  -1  -5 25916.9 4107.80   4
   7  -1  -5 30005.2 7035.04   7
   7  -1  -5 28544.7 2149.32   3
   7  -1  -4 79711.1 6858.68   3
   7  -1  -4 72396.1 2403.99   9
   7  -1  -4 77327.8 2509.51   9
   7  -1  -4 79440.4 6572.92   4
   7  -1  -4 70984.7 10555.9   7
   7  -1  -4 86311.4 6527.57   1
   7  -1  -3 102750. 7172.25   1
   7  -1  -3 88531.9 9018.14   3
   7  -1  -3 95099.2 4543.25   9
   7  -1  -3 93534.2 6776.95   4
   7  -1  -3 106135. 11976.4   7
   7  -1  -2 49186.6 5108.61   1
   7  -1  -2 44772.9 3954.08   9
   7  -1  -2 49811.8 4791.99   4
   7  -1  -2 36963.8 6916.17   3
   7  -1  -2 48074.1 5671.33   2
   7  -1  -2 52921.7 7027.89   7
   7  -1  -1 7779.76 2323.20   2
   7  -1  -1 5691.70 2010.15   9
   7  -1  -1 6173.53 1925.76   4
   7  -1  -1 8276.30 2480.60   1
   7  -1  -1 3376.03 1370.58   7
   7  -1  -1 5909.81 1048.17   7
   7  -1   0 1597.58 1673.31   2
   7  -1   0 2940.37 1392.73   4
   7  -1   1 27254.9 3918.59   2
   7  -1   1 30180.4 3555.81   4
   7  -1   1 28894.0 7654.78   3
   7  -1   2 64063.2 4882.95   4
   7  -1   2 81634.9 12435.6   3
   7  -1   3 63802.6 4975.07   4
   7  -1   3 65995.4 10818.5   3
   7  -1   4 26147.4 6996.57   3
   7  -1   5-6451.69 4330.01   3
   7  -1   6 5129.93 3381.99   3
   7  -1   7 17601.9 5795.26   3
   7   0 -12 8814.68 3993.74   7
   7   0 -11 8848.66 4207.15   7
   7   0 -11 4579.45 3521.67   4
   7   0 -11-3175.96 1763.28  11
   7   0 -10-3131.22 3155.96   7
   7   0 -10 2368.11 2601.04   4
   7   0 -10 1036.13 1592.20  11
   7   0  -9-626.768 2827.48   7
   7   0  -9-23.3929 2466.08   4
   7   0  -9 916.092 1204.78  11
   7   0  -8 11201.1 4489.61   7
   7   0  -8 9754.47 3085.48   4
   7   0  -8 11045.2 2461.79  11
   7   0  -7 29665.9 6965.39   7
   7   0  -7 30881.8 4773.79   4
   7   0  -7 28175.0 3860.42  11
   7   0  -6 65024.2 6383.60   4
   7   0  -6 70913.1 6328.78   1
   7   0  -6 66976.4 10295.3   7
   7   0  -6 70167.0 5917.61  11
   7   0  -5 27442.5 4074.52   4
   7   0  -5 30553.2 6785.92   7
   7   0  -5 24371.9 3722.74   1
   7   0  -5 24448.7 1702.90   3
   7   0  -4 6.33372 1532.46   1
   7   0  -4 346.448 422.708   9
   7   0  -4-97.4258 1070.76   3
   7   0  -4-1131.23 1502.71   4
   7   0  -4-129.638 1289.67   7
   7   0  -3 31658.8 4002.33   3
   7   0  -3 35105.1 2887.61   9
   7   0  -3 37234.1 6045.72   2
   7   0  -3 34298.6 3989.32   4
   7   0  -3 30139.8 4104.23   1
   7   0  -3 30901.7 4075.24   7
   7   0  -2 101492. 8459.93   3
   7   0  -2 96361.3 7281.18   1
   7   0  -2 88137.3 5401.59   9
   7   0  -2 89533.1 5988.32   4
   7   0  -2 84258.9 4541.04   7
   7   0  -2 97837.0 8848.11   2
   7   0  -1 68303.1 8089.09   3
   7   0  -1 72770.2 6441.95   1
   7   0  -1 64494.7 5412.58   9
   7   0  -1 64207.5 4933.09   4
   7   0  -1 79460.5 7693.44   2
   7   0   0 16465.0 3456.41   1
   7   0   0 15727.4 3431.93   2
   7   0   0 19134.6 3493.72   9
   7   0   0 22969.3 2944.65   4
   7   0   0 18973.7 5351.35   3
   7   0   1-451.135 985.481   2
   7   0   1-99.3176 1944.51   9
   7   0   1-2249.83 2896.47   3
   7   0   1 776.753 1192.97   4
   7   0   2 15074.2 4210.16   9
   7   0   2 11267.7 4935.69   3
   7   0   2 17651.6 2363.92   4
   7   0   3 24149.9 2805.93   4
   7   0   3 24672.4 5742.05   9
   7   0   3 23970.8 6567.25   3
   7   0   4 27799.6 6571.97   9
   7   0   4 41286.2 9129.06   3
   7   0   5 6742.10 3907.88   9
   7   0   5 23226.6 7214.21   3
   7   0   6-3057.47 4023.29   9
   7   0   6 3364.02 3676.74   3
   7   0   7-9866.04 5365.74   9
   7   0   7-4236.52 3231.03   3
   7   1 -12 4251.78 3421.85   7
   7   1 -11 12518.9 5233.18   7
   7   1 -10 2409.42 3009.38   7
   7   1 -10 8731.84 2268.39  11
   7   1  -9-5973.60 3983.24   7
   7   1  -9 3222.73 1758.51  11
   7   1  -8 224.788 3244.73   7
   7   1  -8-2142.93 2196.29   4
   7   1  -8-263.651 1219.24  11
   7   1  -7 3761.71 2891.02   7
   7   1  -7 2368.35 1833.87   4
   7   1  -7 2880.96 1656.01  11
   7   1  -6 34769.4 4586.32   1
   7   1  -6 29869.0 4446.42   4
   7   1  -6 43935.4 6669.57   7
   7   1  -5 61013.2 2311.02   9
   7   1  -5 74132.8 6309.01   4
   7   1  -5 68414.4 6246.99   1
   7   1  -5 80164.4 7393.24   7
   7   1  -5 57375.9 2001.59   3
   7   1  -4 64019.5 3505.95   9
   7   1  -4 64947.8 5598.87   4
   7   1  -4 71587.5 9587.60   2
   7   1  -4 70238.3 5572.28   7
   7   1  -4 63816.8 6000.36   1
   7   1  -4 65324.9 3783.12   3
   7   1  -3 22659.6 2608.40   9
   7   1  -3 27624.1 4060.05   1
   7   1  -3 20160.5 4893.35   2
   7   1  -3 25242.2 2660.73   7
   7   1  -3 23727.4 3286.79   4
   7   1  -3 22650.6 2923.72   3
   7   1  -2 4694.97 1934.41   3
   7   1  -2 3188.13 1432.30   9
   7   1  -2 1775.45 1593.72   1
   7   1  -2 2687.42 1419.36   4
   7   1  -2 3516.37 801.167   7
   7   1  -1 60418.3 6532.08   3
   7   1  -1 63933.8 6209.71   1
   7   1  -1 56182.5 5028.52   9
   7   1  -1 61370.6 4355.17   4
   7   1  -1 63592.7 8080.51   2
   7   1   0 125808. 10663.3   3
   7   1   0 117437. 8023.57   9
   7   1   0 115541. 8453.89   1
   7   1   0 123522. 5719.46   4
   7   1   0 133755. 10844.7   2
   7   1   1 82776.2 9822.78   3
   7   1   1 83101.2 7530.77   9
   7   1   1 89896.0 4545.10   4
   7   1   1 83425.5 7309.38   1
   7   1   2 10725.0 4512.65   3
   7   1   2 10006.7 3353.90   9
   7   1   2 14952.7 1818.38   4
   7   1   3-5513.23 4013.94   3
   7   1   3 635.578 2335.14   9
   7   1   4 11881.8 5512.28   3
   7   1   4 18003.7 5144.06   9
   7   1   5 25614.5 7514.43   3
   7   1   5 15357.3 5503.89   9
   7   1   6 19116.8 6388.57   3
   7   1   6 10755.9 4690.62   9
   7   1   7 10376.3 4709.88   3
   7   1   7 10736.9 5538.13   9
   7   2 -12-5633.03 3776.29   7
   7   2 -11 804.528 2659.37   7
   7   2 -10 17744.0 5684.82   7
   7   2  -9 20267.2 5659.10   7
   7   2  -9 29114.5 3513.64  11
   7   2  -8 26056.1 5810.82   7
   7   2  -8 20118.7 3018.73  11
   7   2  -7 8221.19 3234.64   7
   7   2  -7 8400.04 2125.03  11
   7   2  -6 418.517 455.324   9
   7   2  -6 1197.09 1889.04   1
   7   2  -6-1062.29 1794.29   4
   7   2  -6 540.174 1748.43   7
   7   2  -5 18758.0 1934.06   9
   7   2  -5 19039.6 3687.29   1
   7   2  -5 22336.9 3527.88   4
   7   2  -5 20637.0 3269.60   7
   7   2  -5 19229.5 1370.01   3
   7   2  -4 43158.6 3392.79   9
   7   2  -4 50260.1 4848.40   4
   7   2  -4 50086.7 5587.41   1
   7   2  -4 53076.5 4294.51   7
   7   2  -4 52009.1 9976.70   2
   7   2  -4 45793.4 3193.14   3
   7   2  -3 74174.2 4916.17   9
   7   2  -3 72576.0 5317.59   4
   7   2  -3 82134.1 4315.47   7
   7   2  -3 81373.0 11831.6   2
   7   2  -3 74329.9 6602.68   1
   7   2  -3 73368.5 4873.48   3
   7   2  -2 37720.4 3979.09   9
   7   2  -2 32296.5 3326.94   4
   7   2  -2 38981.1 7985.90   2
   7   2  -2 31655.0 1771.83   7
   7   2  -2 36938.9 4957.75   1
   7   2  -2 42152.7 4338.57   3
   7   2  -1 3552.79 1696.69   3
   7   2  -1 1364.29 1454.94   9
   7   2  -1 654.881 850.333   4
   7   2  -1-607.683 1697.74   1
   7   2   0 25316.0 4353.41   3
   7   2   0 20806.3 3621.14   9
   7   2   0 23178.4 2160.40   4
   7   2   0 24336.4 4136.54   1
   7   2   1 84367.0 8925.63   3
   7   2   1 73357.8 7024.35   9
   7   2   1 66596.1 6782.24   1
   7   2   2 74633.0 9452.85   3
   7   2   2 67103.1 7498.90   9
   7   2   3 14000.9 5128.17   3
   7   2   3 31057.7 5886.15   9
   7   2   4-791.038 2603.82   3
   7   2   4 501.075 2060.36   9
   7   2   5 2598.44 3912.10   3
   7   2   5 7091.92 4155.97   9
   7   2   6 13165.7 5593.59   3
   7   2   6 12962.0 5136.10   9
   7   3 -11-2256.25 2931.07   7
   7   3 -10 2962.63 3627.11   7
   7   3  -9 20664.2 5356.08   7
   7   3  -8 38938.2 6058.18   7
   7   3  -8 37834.6 3851.81  11
   7   3  -7 40830.1 5575.52   7
   7   3  -6 14097.1 1930.95   9
   7   3  -6 15842.3 3251.12   7
   7   3  -5 807.606 930.205   9
   7   3  -5 2514.39 2059.48   1
   7   3  -5 549.803 1279.13   4
   7   3  -5-1115.86 1215.62   7
   7   3  -4 10546.3 1769.23   3
   7   3  -4 9502.43 1947.27   9
   7   3  -4 8707.07 2180.48   4
   7   3  -4 14369.9 3271.89   1
   7   3  -4 10235.0 1986.40   7
   7   3  -3 30351.3 3539.94   9
   7   3  -3 30641.7 3410.45   4
   7   3  -3 33352.3 2820.48   7
   7   3  -3 35826.0 4897.09   1
   7   3  -3 34452.9 3519.24   3
   7   3  -2 68871.6 5635.73   9
   7   3  -2 73037.7 4479.64   4
   7   3  -2 54694.5 2496.74   7
   7   3  -2 57374.6 6233.58   1
   7   3  -2 65364.7 5393.96   3
   7   3  -1 54064.9 5986.59   1
   7   3  -1 53418.3 5395.94   9
   7   3  -1 50406.5 3126.09   4
   7   3  -1 57476.6 5662.39   3
   7   3   0 15769.3 3552.31   3
   7   3   0 17815.1 3690.55   1
   7   3   0 16136.8 3290.34   9
   7   3   1-1906.95 2450.21   1
   7   3   1 211.527 1531.59   3
   7   3   1 170.881 1573.51   9
   7   3   2 17265.2 4461.25   3
   7   3   2 22584.3 4495.93   9
   7   3   2 16504.0 3817.57   1
   7   3   3 31503.3 6402.40   3
   7   3   3 36430.4 6120.83   9
   7   3   4 19626.1 6073.78   3
   7   3   4 23027.5 5610.90   9
   7   3   5 1085.84 2972.82   3
   7   3   5 5761.52 3493.10   9
   7   4 -11 7921.99 4120.47   7
   7   4 -10 8684.37 3838.66   7
   7   4  -9 1811.35 2229.09   7
   7   4  -8 893.585 1995.65   7
   7   4  -7 17966.1 3562.11   7
   7   4  -6 38997.3 3627.19   9
   7   4  -6 47417.2 5133.10   7
   7   4  -5 29001.7 3359.70   9
   7   4  -5 36191.9 5293.52   1
   7   4  -5 31907.3 3800.13   7
   7   4  -4 6528.82 1648.83   3
   7   4  -4 6804.00 1887.88   9
   7   4  -4 8562.53 2889.84   1
   7   4  -4 5010.07 1841.63   4
   7   4  -4 7621.31 1784.53   7
   7   4  -3 1009.15 1863.51   1
   7   4  -3 1289.36 1303.80   3
   7   4  -3 1534.11 1233.84   9
   7   4  -3-253.135 869.235   4
   7   4  -3 1224.51 865.784   7
   7   4  -2 16407.9 2934.63   3
   7   4  -2 13441.9 3225.88   1
   7   4  -2 22806.0 3585.13   9
   7   4  -1 34885.7 4663.87   9
   7   4  -1 35706.0 5109.93   1
   7   4  -1 33087.5 4403.29   3
   7   4   0 36615.1 5386.96   1
   7   4   0 30355.8 4635.86   9
   7   4   0 38234.3 5224.09   3
   7   4   1 24214.7 4630.95   3
   7   4   1 22271.1 4360.88   9
   7   4   1 22453.4 4445.87   1
   7   4   2 1933.19 2032.89   1
   7   4   2 2705.15 2132.69   3
   7   4   2 1500.79 2085.71   9
   7   4   3-154.775 1995.54   3
   7   4   3 204.406 1994.29   9
   7   4   4 12949.3 4815.53   3
   7   4   4 12024.0 4141.90   9
   7   5 -10 4697.28 3069.31   7
   7   5  -9 11010.1 3534.73   7
   7   5  -8 7570.16 2795.34   7
   7   5  -7 4268.23 2027.85   7
   7   5  -6 4669.75 1702.77   9
   7   5  -6 7397.81 2332.21   7
   7   5  -5 36534.6 4153.99   9
   7   5  -5 29759.7 5044.75   1
   7   5  -5 34019.0 4093.61   7
   7   5  -4 53368.8 5149.19   9
   7   5  -4 57346.9 6585.70   1
   7   5  -4 50545.3 4446.48   7
   7   5  -4 50871.9 4293.60   3
   7   5  -3 39524.7 5547.74   1
   7   5  -3 35335.2 4431.45   9
   7   5  -3 36166.0 4115.76   3
   7   5  -2 7878.93 2366.97   3
   7   5  -2 1513.12 1981.17   1
   7   5  -2 7035.33 2335.17   9
   7   5  -1 5356.45 2223.94   3
   7   5  -1 5126.03 2218.59   9
   7   5  -1 6449.68 2599.23   1
   7   5   0 19734.4 4169.27   1
   7   5   0 16365.7 3562.13   3
   7   5   0 18597.3 4082.23   9
   7   5   1 23014.4 4627.31   3
   7   5   1 23567.9 4608.64   9
   7   5   1 26149.2 4747.23   1
   7   5   2 16911.6 4356.78   3
   7   5   2 17704.5 4496.39   9
   7   5   2 17710.4 4205.98   1
   7   5   3 4315.88 3160.40   3
   7   5   3 5529.93 3176.41   9
   7   6  -8 18481.9 3944.97   7
   7   6  -7 15962.0 3552.42   7
   7   6  -6 4717.50 2034.47   9
   7   6  -6 7251.31 3222.87   1
   7   6  -6 4282.50 1731.69   7
   7   6  -5 1844.19 1508.02   9
   7   6  -5 2959.67 2427.55   1
   7   6  -4 17296.2 3332.10   9
   7   6  -4 10611.6 3634.15   1
   7   6  -3 39456.9 5108.68   9
   7   6  -3 47187.3 6210.65   1
   7   6  -3 34495.5 4275.58   3
   7   6  -2 35387.8 5031.86   9
   7   6  -2 42383.2 6043.60   1
   7   6  -2 39245.8 4845.66   3
   7   6  -1 8309.44 2705.69   3
   7   6  -1 11005.8 3453.46   9
   7   6  -1 11214.3 3496.74   1
   7   6   0 4100.01 2687.41   1
   7   6   0 72.5388 1917.60   3
   7   6   0 2674.33 1995.78   9
   7   6   1 3105.76 1986.32   3
   7   6   1 7078.24 3186.83   9
   7   6   1 10578.1 3243.26   1
   7   7  -5 6313.86 2407.93   9
   7   7  -5 4942.51 2634.63   1
   7   7  -4 1327.77 1576.41   9
   7   7  -4 1774.81 2024.19   1
   7   7  -3 847.169 2261.17   1
   7   7  -3 4529.75 2533.34   9
   7   7  -2 10418.6 2983.57   3
   7   7  -2 8645.51 3020.21   9
   7   7  -2 10286.9 3475.74   1
   8  -7  -2 670.055 2425.01   4
   8  -7  -2 5434.90 2984.31  11
   8  -6  -6 10281.4 3877.95   4
   8  -6  -6 6940.06 3176.68  11
   8  -6  -5 10986.4 3902.25   4
   8  -6  -5 24177.0 4998.87  11
   8  -6  -4 21871.4 4600.48   4
   8  -6  -4 15141.1 4265.09  11
   8  -6  -3 11478.4 3705.39   4
   8  -6  -3 13051.0 3810.28  11
   8  -6  -2 1005.08 2178.60   4
   8  -6  -2-422.092 2161.17  11
   8  -6  -1 498.341 1960.74   4
   8  -6  -1 2365.55 2067.99  11
   8  -6   0 11960.2 3730.47   4
   8  -6   0 11604.0 3745.65  11
   8  -6   1 21321.7 4464.93   4
   8  -6   2 24240.2 4723.43   4
   8  -5  -8 25569.2 5483.03   4
   8  -5  -8 16567.7 3977.10  11
   8  -5  -7 14698.5 4579.39   4
   8  -5  -7 20106.7 4316.49  11
   8  -5  -6 10617.3 3630.01   4
   8  -5  -6 7322.59 2906.93  11
   8  -5  -5-1482.47 2216.17   4
   8  -5  -5 5437.62 2650.22  11
   8  -5  -4 23390.5 4766.91   4
   8  -5  -4 19029.1 4223.87  11
   8  -5  -3 35610.3 5415.53   4
   8  -5  -3 45630.5 6436.10  11
   8  -5  -2 27260.7 4861.38   4
   8  -5  -2 24281.2 4884.81  11
   8  -5  -1 10693.4 3210.70   4
   8  -5  -1 12645.0 3885.73  11
   8  -5   0 2021.31 1991.66   4
   8  -5   1 4734.09 2291.99   4
   8  -5   2 7650.66 2836.34   4
   8  -5   3 20943.6 4334.99   4
   8  -4  -9 2542.86 2976.30   4
   8  -4  -9 3807.16 2544.86  11
   8  -4  -8 1517.79 2553.51   4
   8  -4  -8 4716.75 2722.97  11
   8  -4  -7 18267.0 4485.32   4
   8  -4  -7 10775.8 3537.08  11
   8  -4  -6 22586.8 3530.74   1
   8  -4  -6 23181.6 4905.33   4
   8  -4  -6 25249.5 4489.22  11
   8  -4  -5 16758.1 4026.07   4
   8  -4  -5 13312.9 3503.79  11
   8  -4  -4 227.726 1902.97   4
   8  -4  -4 3696.99 2448.67  11
   8  -4  -3 4097.08 2052.42   4
   8  -4  -3 2088.08 2292.51  11
   8  -4  -2 44181.4 5577.89   4
   8  -4  -1 42893.5 5347.60   4
   8  -4   0 23559.6 4009.88   4
   8  -4   1 2320.66 1874.75   4
   8  -4   2 2055.22 1892.58   4
   8  -4   3 10807.1 3099.18   4
   8  -4   4 17576.6 3822.67   4
   8  -3 -10 12514.8 4710.02   4
   8  -3 -10 9838.11 4488.08   7
   8  -3 -10 6129.75 2684.43  11
   8  -3  -9 14841.0 4159.55   4
   8  -3  -9 3748.40 3240.41   7
   8  -3  -9 8952.35 2915.93  11
   8  -3  -8 1988.12 1420.11   1
   8  -3  -8 3679.84 2796.04   4
   8  -3  -8 1548.02 2186.86   7
   8  -3  -8-198.997 1675.99  11
   8  -3  -7-3878.54 1833.26   1
   8  -3  -7-1570.45 2566.79   4
   8  -3  -7-6189.76 3747.84   7
   8  -3  -7 26.7417 2146.96  11
   8  -3  -6 6871.34 2240.72   1
   8  -3  -6 5728.93 3380.07   7
   8  -3  -6 10164.1 3430.13   4
   8  -3  -6 9069.08 3089.22  11
   8  -3  -5 38006.0 4465.79   1
   8  -3  -5 29943.4 5052.73   4
   8  -3  -5 29435.2 4831.79  11
   8  -3  -4 42766.3 4860.22   1
   8  -3  -4 39082.9 5331.59   4
   8  -3  -4 44369.7 5814.53  11
   8  -3  -3 30524.4 4580.56   4
   8  -3  -2 2153.59 2003.93   4
   8  -3  -1 12448.1 3081.68   4
   8  -3   0 47943.1 5332.40   4
   8  -3   1 48286.3 5367.68   4
   8  -3   2 14682.1 3142.87   4
   8  -3   3-1439.93 3131.57   3
   8  -3   3 3000.35 2003.93   4
   8  -3   4-2972.92 3706.75   3
   8  -3   4 6086.73 2342.52   4
   8  -2 -10 8011.11 2422.46   1
   8  -2 -10 8192.73 3493.18   4
   8  -2 -10-1251.54 3138.26   7
   8  -2 -10 7947.65 2772.21  11
   8  -2  -9 25800.1 3940.08   1
   8  -2  -9 26649.8 5593.33   4
   8  -2  -9 21044.8 6172.67   7
   8  -2  -9 18251.8 3784.55  11
   8  -2  -8 17968.5 4347.92   4
   8  -2  -8 18421.4 6035.20   7
   8  -2  -8 21046.8 3550.82   1
   8  -2  -8 20380.1 4060.17  11
   8  -2  -7 4848.80 2001.77   1
   8  -2  -7 6348.74 3052.48   4
   8  -2  -7 6548.56 3724.01   7
   8  -2  -7 5528.61 2250.46  11
   8  -2  -6 3176.04 1788.74   1
   8  -2  -6 993.425 2042.60   4
   8  -2  -6 2536.85 2461.42   7
   8  -2  -6 1777.37 1812.78  11
   8  -2  -5 6278.49 2669.12   4
   8  -2  -5 9445.55 4555.31   7
   8  -2  -5 6980.21 2223.95   1
   8  -2  -5 10913.7 3024.08  11
   8  -2  -4 25509.6 3951.57   1
   8  -2  -4 19014.9 4560.10   3
   8  -2  -4 19783.5 3842.86   4
   8  -2  -4 17861.9 5802.74   7
   8  -2  -3 36886.6 4875.12   1
   8  -2  -3 40383.4 5049.72   4
   8  -2  -3 35209.6 7516.05   7
   8  -2  -2 37964.2 3995.48   9
   8  -2  -2 35823.4 4528.53   4
   8  -2  -2 40662.8 5108.85   1
   8  -2  -2 26778.7 7698.78   3
   8  -2  -1 3708.70 4554.50   3
   8  -2  -1 8660.13 2447.52   4
   8  -2   0 2272.89 4113.14   3
   8  -2   0 2625.80 1748.62   4
   8  -2   1 31765.5 4142.66   4
   8  -2   1 30560.8 7961.56   3
   8  -2   2 53703.4 5258.53   4
   8  -2   2 47428.4 9793.30   3
   8  -2   3 35167.4 4320.66   4
   8  -2   3 30244.5 7697.56   3
   8  -2   4 4227.08 4422.11   3
   8  -2   5 4765.83 4523.59   3
   8  -1 -10-3717.13 2998.10   4
   8  -1 -10-3162.35 3163.54   7
   8  -1 -10 499.635 1583.01  11
   8  -1  -9 5329.58 2280.34   1
   8  -1  -9 1166.77 2300.94   4
   8  -1  -9 6242.28 3791.51   7
   8  -1  -9 3014.34 1729.12  11
   8  -1  -8 27119.7 4222.76   1
   8  -1  -8 29551.6 5232.96   4
   8  -1  -8 26925.4 6877.89   7
   8  -1  -8 24244.6 4112.63  11
   8  -1  -7 32600.4 5258.32   4
   8  -1  -7 30287.3 7829.85   7
   8  -1  -7 32416.9 4658.40   1
   8  -1  -7 28650.3 4361.22  11
   8  -1  -6 24538.9 4077.33   1
   8  -1  -6 23032.9 4322.71   4
   8  -1  -6 20910.0 6349.15   7
   8  -1  -6 22806.4 4160.04  11
   8  -1  -5 4072.44 1916.66   1
   8  -1  -5 3383.52 2317.94   4
   8  -1  -5 9245.41 4743.76   7
   8  -1  -4 3909.04 1813.69   3
   8  -1  -4 2455.62 1934.23   4
   8  -1  -4 2060.08 2188.27   7
   8  -1  -4 1652.72 1697.44   1
   8  -1  -3 11241.2 2991.77   1
   8  -1  -3 25361.1 4938.23   3
   8  -1  -3 14363.9 2985.89   4
   8  -1  -3 23420.0 4263.83   7
   8  -1  -2 31114.7 4516.89   1
   8  -1  -2 33542.3 3557.75   9
   8  -1  -2 33338.2 4111.88   4
   8  -1  -2 33163.9 6196.10   3
   8  -1  -1 29378.0 4005.77   9
   8  -1  -1 33242.8 4089.40   4
   8  -1  -1 22540.2 6155.69   3
   8  -1  -1 36187.6 5072.05   1
   8  -1   0 19943.1 3988.88   9
   8  -1   0 8990.61 4561.55   3
   8  -1   0 17190.2 2962.85   4
   8  -1   1-1280.03 2533.45   9
   8  -1   1-998.996 2989.18   3
   8  -1   1 1264.91 1214.38   4
   8  -1   2-441.525 2671.69   9
   8  -1   2 6706.10 5545.06   3
   8  -1   2 4835.85 1941.07   4
   8  -1   3 4729.10 3395.40   9
   8  -1   3 23321.2 6970.77   3
   8  -1   4 29425.4 7901.95   3
   8  -1   5 9176.34 4265.71   3
   8   0 -11 4550.41 3643.56   7
   8   0 -11 2465.72 2940.90   4
   8   0 -10 7768.82 3675.63   4
   8   0 -10 10882.6 4474.28   7
   8   0 -10 9871.68 2604.58  11
   8   0  -9 3136.02 2421.33   4
   8   0  -9 10795.3 4686.88   7
   8   0  -9 7316.46 2414.57  11
   8   0  -8 2194.10 1741.99   1
   8   0  -8-156.244 1701.32   4
   8   0  -8 3332.80 2858.35   7
   8   0  -8-449.167 1583.09  11
   8   0  -7 12015.3 2939.26   1
   8   0  -7 9520.57 3080.54   4
   8   0  -7 9542.59 4628.23   7
   8   0  -7 7749.92 2472.97  11
   8   0  -6 30401.6 4745.23   4
   8   0  -6 35775.5 7259.93   7
   8   0  -6 27330.9 4271.10   1
   8   0  -5 44834.8 5248.15   4
   8   0  -5 36993.9 4810.71   1
   8   0  -5 37224.3 5595.86   7
   8   0  -4 18302.9 3679.07   1
   8   0  -4 14124.6 3073.15   4
   8   0  -4 12896.9 2787.77   7
   8   0  -3-1053.55 1826.62   1
   8   0  -3-392.242 1010.42   9
   8   0  -3 1374.72 1655.38   3
   8   0  -3 2606.72 1823.85   4
   8   0  -2 8403.73 2170.83   9
   8   0  -2 7806.74 2820.69   3
   8   0  -2 3645.36 2169.56   1
   8   0  -2 4997.15 1760.98   4
   8   0  -1 25132.3 3697.28   9
   8   0  -1 34281.3 6127.60   3
   8   0  -1 28530.6 3491.49   4
   8   0  -1 21538.8 4031.94   1
   8   0   0 32826.1 4654.02   9
   8   0   0 28440.0 3359.20   4
   8   0   0 26182.4 6307.71   3
   8   0   0 31255.8 4865.67   1
   8   0   1 21557.7 4403.58   9
   8   0   1 23543.1 6215.75   3
   8   0   2 3655.78 2909.36   9
   8   0   2 7397.06 4598.19   3
   8   0   3 3013.41 3190.71   9
   8   0   3-5212.18 4091.82   3
   8   0   4 6094.05 4067.64   9
   8   0   4 11148.1 5560.17   3
   8   1 -10-3847.28 2944.10   4
   8   1 -10 3980.75 3611.94   7
   8   1  -9 12773.4 3933.58   4
   8   1  -9 10932.7 4779.57   7
   8   1  -9 14729.3 3047.01  11
   8   1  -8 16596.5 3691.75   1
   8   1  -8 17219.7 4093.37   4
   8   1  -8 19544.3 5827.83   7
   8   1  -8 19343.5 3367.93  11
   8   1  -7 6653.37 2347.64   1
   8   1  -7 4827.51 2553.78   4
   8   1  -7 8501.80 3210.56   7
   8   1  -7 4705.46 1954.78  11
   8   1  -6 1302.99 1715.07   4
   8   1  -6 3501.42 1930.14   7
   8   1  -6 1598.94 1676.64   1
   8   1  -5 24226.7 4245.87   1
   8   1  -5 24042.5 3953.04   4
   8   1  -5 22822.0 3506.04   7
   8   1  -4 51987.7 5273.34   4
   8   1  -4 54547.8 6065.81   1
   8   1  -3 47103.1 3928.68   9
   8   1  -3 46411.5 4669.63   4
   8   1  -3 50093.8 5867.39   1
   8   1  -3 51879.5 4604.50   3
   8   1  -2 12989.8 3304.91   1
   8   1  -2 12978.7 2931.28   3
   8   1  -2 12264.8 2469.43   9
   8   1  -2 12411.8 2483.04   4
   8   1  -1 2067.92 1897.63   3
   8   1  -1 764.072 1224.29   9
   8   1  -1 607.192 1003.69   4
   8   1  -1 767.317 2337.64   1
   8   1   0 16583.8 4441.80   3
   8   1   0 13011.0 3039.21   9
   8   1   0 15522.9 3603.91   1
   8   1   1 26863.7 6142.18   3
   8   1   1 30113.1 5013.71   9
   8   1   2 30949.5 7263.40   3
   8   1   2 23182.8 4967.95   9
   8   1   3 13590.0 5455.17   3
   8   1   3 13142.7 4250.41   9
   8   1   4 9920.06 4966.92   3
   8   1   4-1889.02 4136.23   9
   8   2 -10 419.441 2633.34   4
   8   2 -10 2305.97 2616.82   7
   8   2  -9 10374.5 3714.96   4
   8   2  -9 9859.54 4001.04   7
   8   2  -8 12389.1 3562.56   1
   8   2  -8 7936.40 3158.30   4
   8   2  -8 19018.9 4508.05   7
   8   2  -8 11445.8 2622.40  11
   8   2  -7 20672.3 4226.28   1
   8   2  -7 13391.9 3507.90   4
   8   2  -7 16278.0 3746.11   7
   8   2  -6 10459.1 3050.94   1
   8   2  -6 10515.5 2851.41   4
   8   2  -6 8563.45 2425.86   7
   8   2  -5 591.403 1498.84   4
   8   2  -5-352.146 1800.53   1
   8   2  -4 2529.64 2116.12   1
   8   2  -4 9483.52 2341.59   4
   8   2  -3 32377.3 3595.03   9
   8   2  -3 32285.6 3711.90   4
   8   2  -3 33349.4 4957.77   1
   8   2  -3 37458.9 3848.14   3
   8   2  -2 54988.5 6277.04   1
   8   2  -2 49750.8 4861.57   9
   8   2  -2 50075.5 4145.93   4
   8   2  -2 50826.2 5076.57   3
   8   2  -1 24797.7 4141.86   3
   8   2  -1 30701.9 4223.88   9
   8   2  -1 33724.3 5127.77   1
   8   2   0 3454.68 2463.28   3
   8   2   0 310.035 1763.01   9
   8   2   0 2439.20 2241.81   1
   8   2   1 1783.51 2091.93   3
   8   2   1 4055.24 2559.00   1
   8   2   1 6654.86 2629.50   9
   8   2   2 21188.6 5738.69   3
   8   2   2 18333.1 4264.60   9
   8   2   3 20055.0 5642.38   3
   8   2   3 18291.4 4867.34   9
   8   3  -9-704.570 1562.37   7
   8   3  -8 5384.19 2727.54   4
   8   3  -8 8773.03 2925.99   7
   8   3  -7 12281.2 3421.92   1
   8   3  -7 10832.7 3040.08   4
   8   3  -7 16332.9 3469.19   7
   8   3  -6 15115.5 3861.61   1
   8   3  -6 18630.8 3626.93   4
   8   3  -5 11404.7 2678.96   4
   8   3  -5 18590.3 4114.52   1
   8   3  -4 8534.17 3121.67   1
   8   3  -4 5230.64 1953.88   4
   8   3  -3-803.910 1196.70   9
   8   3  -3 2954.59 2350.64   1
   8   3  -2 8552.34 2325.15   3
   8   3  -2 13921.3 2781.75   9
   8   3  -2 9385.18 3172.24   1
   8   3  -1 32109.4 4657.43   3
   8   3  -1 24882.2 4623.29   1
   8   3  -1 28943.8 4283.57   9
   8   3   0 34300.1 5495.41   1
   8   3   0 36465.1 5366.64   3
   8   3   0 31140.1 4700.42   9
   8   3   1 7817.48 3013.01   3
   8   3   1 7525.50 2919.37   9
   8   3   1 8272.66 3025.89   1
   8   3   2 3195.25 2882.59   3
   8   3   2-644.676 1893.18   9
   8   3   3 8245.05 4086.13   3
   8   3   3 9353.06 3544.80   9
   8   4  -7-391.857 2086.94   1
   8   4  -7-879.094 1878.61   4
   8   4  -6 5937.51 2752.37   1
   8   4  -6 12823.4 3193.93   4
   8   4  -5 11200.6 3365.04   1
   8   4  -4 15604.4 3683.97   1
   8   4  -3 5962.88 2146.49   9
   8   4  -3 7186.98 2922.18   1
   8   4  -2-901.038 1354.48   3
   8   4  -2 853.390 1470.63   9
   8   4  -2 1803.83 2420.84   1
   8   4  -1-206.531 1854.64   1
   8   4  -1 383.294 1524.19   3
   8   4  -1 1869.35 1872.49   9
   8   4   0 9970.05 3002.67   3
   8   4   0 16134.4 3816.56   9
   8   4   0 14858.8 3953.24   1
   8   4   1 26286.3 5169.29   3
   8   4   1 20308.4 4442.05   9
   8   4   1 19557.0 4601.41   1
   8   5  -7 13683.5 4246.71   1
   8   5  -6 217.138 1892.97   1
   8   5  -5 346.023 1909.37   1
   8   5  -4 21802.9 4753.75   1
   8   5  -3 24807.7 4032.10   9
   8   5  -3 23487.5 4727.12   1
   8   5  -2 13271.3 3228.63   9
   8   5  -2 13540.4 3970.48   1
   8   5  -1 4000.62 2439.00   1
   8   5  -1 6672.47 2738.14   3
   8   5  -1 1547.30 1952.64   9
   9  -4  -5 21016.6 4628.43   4
   9  -4  -5 24265.0 4874.67  11
   9  -4  -4 14225.6 3938.47   4
   9  -4  -4 19468.5 4553.03  11
   9  -4  -3-2134.82 2101.95   4
   9  -4  -3 45.8402 2017.33  11
   9  -4  -2-1166.58 1928.41   4
   9  -4  -1 12733.0 3417.09   4
   9  -3  -6-1568.25 2400.01   4
   9  -3  -6 292.585 1731.16   1
   9  -3  -6 732.586 2198.65  11
   9  -3  -5 4699.16 2119.91   1
   9  -3  -5 3648.15 2312.29   4
   9  -3  -5 7603.26 3168.57  11
   9  -3  -4 24287.3 4451.56   4
   9  -3  -4 30586.7 5365.34  11
   9  -3  -3 22507.4 4190.73   4
   9  -3  -2-7379.01 5686.16   3
   9  -3  -2 10767.4 3284.64   4
   9  -3  -1-13046.3 6260.63   3
   9  -3  -1 1221.22 2151.06   4
   9  -3   0-10190.6 6049.43   3
   9  -3   0 7627.08 2704.65   4
   9  -2  -7 14569.5 3403.88   1
   9  -2  -7 13998.7 3905.70   4
   9  -2  -7 13287.5 3389.79  11
   9  -2  -6 6863.25 2781.46   1
   9  -2  -6 12789.7 3670.14   4
   9  -2  -6 7375.34 2690.42  11
   9  -2  -5 3772.84 2064.59   1
   9  -2  -5-119.315 2276.74   4
   9  -2  -5 2488.86 2258.92  11
   9  -2  -4 4025.48 2331.08   1
   9  -2  -4 1766.34 1756.83   4
   9  -2  -3 16634.4 3684.17   1
   9  -2  -3 16880.4 3618.71   4
   9  -2  -2 35453.8 4817.77   4
   9  -2  -1 8174.43 4603.63   3
   9  -2  -1 29018.7 4310.74   4
   9  -2   0 13562.2 5161.67   3
   9  -2   0 10178.1 2907.31   4
   9  -2   1 7394.67 5069.16   3
   9  -1  -8 4268.92 2175.07   1
   9  -1  -8 2139.59 2354.12   4
   9  -1  -8 203.099 1547.42  11
   9  -1  -7 10358.4 3045.71   1
   9  -1  -7 9236.60 3248.17   4
   9  -1  -7 13099.4 3474.73  11
   9  -1  -6 13400.5 3125.43   1
   9  -1  -6 17216.0 4126.09   4
   9  -1  -6 12820.3 3390.78  11
   9  -1  -5 18026.2 3798.29   1
   9  -1  -5 9440.15 2804.94   4
   9  -1  -4 5112.31 2251.96   1
   9  -1  -4 5362.89 2473.11   4
   9  -1  -3 124.486 2018.31   1
   9  -1  -3-582.924 1516.40   4
   9  -1  -2 3745.84 2153.58   1
   9  -1  -2 3911.02 2089.27   4
   9  -1  -1 12684.5 4804.99   3
   9  -1  -1 21357.8 3450.48   4
   9  -1   0 14205.0 5289.70   3
   9  -1   1 8193.47 3009.60   9
   9  -1   1 9870.49 4937.74   3
   9   0  -8 4574.93 2715.30   4
   9   0  -8 6310.00 2594.22   1
   9   0  -8 3493.86 2267.06  11
   9   0  -7 1608.31 1915.90   1
   9   0  -7 4405.63 2719.32   4
   9   0  -7 2333.75 1915.97  11
   9   0  -6 9052.39 3098.86   1
   9   0  -6 8568.88 2784.57   4
   9   0  -5 20725.6 3838.81   4
   9   0  -5 18175.9 3906.75   1
   9   0  -4 18259.6 3981.59   1
   9   0  -4 20974.4 3710.54   4
   9   0  -3 10012.9 3003.03   1
   9   0  -3 12420.5 2810.25   4
   9   0  -2 3983.45 2250.02   1
   9   0  -1 577.352 1767.16   1
   9   0  -1 689.032 2299.80   3
   9   0   0 9158.24 3300.02   3
   9   0   1 21739.5 6251.18   3
   9   0   1 21707.8 4559.36   9
   9   1  -7 15775.8 3877.52   1
   9   1  -7 16706.5 3959.28   4
   9   1  -7 20983.2 3886.62  11
   9   1  -6 5507.38 2819.48   1
   9   1  -6 7113.09 2731.25   4
   9   1  -5 968.911 1853.43   1
   9   1  -5-98.0299 1734.19   4
   9   1  -4 12306.7 2955.63   4
   9   1  -4 16722.9 3867.04   1
   9   1  -3 40604.4 5760.91   1
   9   1  -2 23127.0 4590.55   1
   9   1  -1 10945.9 3423.26   1
   9   1   0 548.360 2756.48   3
   9   2  -6 26338.5 4816.62   1
   9   2  -6 24464.9 4253.38   4
   9   2  -5 13623.5 3765.57   1
   9   2  -4-1155.62 2383.84   1
   9   2  -3 8232.74 3079.65   1
   9   2  -2 27236.4 5052.01   1
   9   2  -1 30022.0 5424.61   1
   0   0   0    0.00    0.00   0
TITL IMIB_Mo in P1
REM P1 (#1 in standard setting)
CELL 0.71073   7.619396   9.298233  12.234061  94.5971 103.1778  94.2217
ZERR    2.00   0.000281   0.000424   0.000774   0.0044   0.0041   0.0034
LATT -1
SFAC C H N Cl Hg
UNIT 30.00 32.00 4.00 4.00 2.00
TREF
HKLF 4
END
;
_shelx_hkl_checksum              60060
_shelx_res_file
;
    IMIB_Mo.res created by SHELXL-2014/7
TITL IMIB_Mo in P1
CELL 0.71073   7.6194   9.2982  12.2341  94.597 103.178  94.222
ZERR    2.00   0.0003   0.0004   0.0008   0.004   0.004   0.003
LATT -1
SFAC C H N CL HG
UNIT 30 32 4 4 2
REM  Refl with F(obs)<<0
OMIT    -4   0 -11
OMIT    -3   5 -12
OMIT     0  -6  11
OMIT    -9   3   2
OMIT     1  -3  12
OMIT    -2  -7  -8
OMIT     5  -2 -13
OMIT    -4  -3 -10
OMIT     4  -7 -11
OMIT    -4  -7  -7
OMIT     3  -2 -12
OMIT    -1   7 -12
ACTA
L.S. 20
BOND $H
CONF
HTAB
FMAP 2
PLAN 20
WGHT    0.014900
FVAR       5.71866
HG1   5    0.356462    0.249388    0.256128    11.00000    0.03584    0.04116 =
         0.07314    0.00630    0.01020    0.00405
CL1   4    0.535578    0.058997    0.326879    11.00000    0.04357    0.04603 =
         0.10390    0.02227    0.02357    0.01376
CL2   4    0.431253    0.507678    0.282366    11.00000    0.06442    0.03626 =
         0.08872    0.00846    0.02907    0.00494
N1    3    0.124154    0.110889    0.125067    11.00000    0.05029    0.02688 =
         0.04564    0.00469    0.01126    0.00427
C2    1    0.141042    0.026506    0.037057    11.00000    0.03954    0.04393 =
         0.07611    0.00777    0.02571    0.01293
AFIX  43
H2A   2    0.254687    0.029599    0.020907    11.00000   -1.20000
AFIX   0
C3    1    0.006076   -0.065112   -0.032504    11.00000    0.08980    0.03402 =
         0.06453    0.00130    0.00680    0.00012
AFIX  43
H3A   2    0.026814   -0.123346   -0.092848    11.00000   -1.20000
AFIX   0
C4    1   -0.165650   -0.067074   -0.008429    11.00000    0.04161    0.04850 =
         0.07787    0.03851    0.00276    0.00397
AFIX  43
H4A   2   -0.262699   -0.125168   -0.055222    11.00000   -1.20000
AFIX   0
C5    1   -0.191175    0.014314    0.081722    11.00000    0.04176    0.03479 =
         0.05630    0.00551    0.01310   -0.00621
AFIX  43
H5A   2   -0.303539    0.010356    0.099666    11.00000   -1.20000
AFIX   0
C6    1   -0.043284    0.105516    0.148052    11.00000    0.02546    0.04154 =
         0.04799    0.02096    0.01199    0.00673
C7    1   -0.061874    0.196402    0.250969    11.00000    0.04619    0.04048 =
         0.03665    0.00651    0.01978    0.01468
AFIX  43
H7A   2   -0.175323    0.204224    0.265890    11.00000   -1.20000
AFIX   0
N8    3    0.080102    0.263374    0.318367    11.00000    0.04426    0.03008 =
         0.04097    0.00668    0.01232    0.00533
C9    1    0.064294    0.351681    0.419314    11.00000    0.04824    0.04293 =
         0.05643    0.00803    0.01076    0.00710
AFIX  13
H9A   2    0.145507    0.440087    0.424813    11.00000   -1.20000
AFIX   0
C10   1   -0.116558    0.400469    0.421786    11.00000    0.06991    0.06543 =
         0.07854    0.00101    0.01945    0.03025
AFIX 137
H10A  2   -0.110122    0.454369    0.493102    11.00000   -1.50000
H10B  2   -0.203575    0.317538    0.411704    11.00000   -1.50000
H10C  2   -0.152648    0.460974    0.362145    11.00000   -1.50000
AFIX   0
C11   1    0.151605    0.266110    0.520723    11.00000    0.07169    0.03735 =
         0.03897    0.00549    0.02035    0.00713
C12   1    0.047483    0.180613    0.572190    11.00000    0.08403    0.07401 =
         0.05209    0.00593    0.02611    0.01736
AFIX  43
H12A  2   -0.078001    0.174590    0.548239    11.00000   -1.20000
AFIX   0
C13   1    0.125252    0.104109    0.658142    11.00000    0.13626    0.07844 =
         0.08650    0.02658    0.06760    0.02630
AFIX  43
H13A  2    0.051587    0.054082    0.696282    11.00000   -1.20000
AFIX   0
C14   1    0.306920    0.099037    0.689448    11.00000    0.12848    0.06239 =
         0.04802    0.00662    0.01906    0.02202
C15   1    0.414923    0.183979    0.638948    11.00000    0.08720    0.13308 =
         0.05831   -0.01367   -0.01604    0.03475
AFIX  43
H15A  2    0.540305    0.187190    0.662130    11.00000   -1.20000
AFIX   0
C16   1    0.335400    0.265567    0.552533    11.00000    0.04727    0.07755 =
         0.06267    0.00368    0.00024    0.00605
AFIX  43
H16A  2    0.408466    0.319842    0.516516    11.00000   -1.20000
AFIX   0
C17   1    0.395677    0.005225    0.780073    11.00000    0.19288    0.14847 =
         0.05776    0.04901    0.04544    0.08691
AFIX 137
H17A  2    0.304066   -0.058312    0.798703    11.00000   -1.50000
H17B  2    0.459141    0.066472    0.846309    11.00000   -1.50000
H17C  2    0.479435   -0.051264    0.751991    11.00000   -1.50000
AFIX   0
HG2   5    0.605745    0.542754    0.069495    11.00000    0.03864    0.04316 =
         0.07456    0.00829    0.01119    0.00313
CL3   4    0.496530    0.290949    0.041799    11.00000    0.11636    0.05067 =
         0.09385   -0.01205    0.05999   -0.02360
CL4   4    0.417903    0.726238   -0.007656    11.00000    0.04237    0.07654 =
         0.09811    0.04210    0.01902    0.01902
N21   3    0.832938    0.680151    0.208621    11.00000    0.03172    0.04437 =
         0.05438    0.01121    0.01013    0.00075
C22   1    0.794582    0.761777    0.294314    11.00000    0.05380    0.03962 =
         0.04607   -0.00353    0.02389   -0.00071
AFIX  43
H22A  2    0.678109    0.757201    0.306211    11.00000   -1.20000
AFIX   0
C23   1    0.935831    0.854096    0.365238    11.00000    0.06042    0.05042 =
         0.04803    0.00278    0.01617   -0.00359
AFIX  43
H23A  2    0.913327    0.908493    0.426900    11.00000   -1.20000
AFIX   0
C24   1    1.100347    0.865630    0.346499    11.00000    0.06181    0.02981 =
         0.04677   -0.02210   -0.00127   -0.00193
AFIX  43
H24A  2    1.191302    0.930738    0.391994    11.00000   -1.20000
AFIX   0
C25   1    1.133950    0.779461    0.258481    11.00000    0.02431    0.06569 =
         0.07031    0.03226    0.00813    0.00757
AFIX  43
H25A  2    1.249980    0.782236    0.245942    11.00000   -1.20000
AFIX   0
C26   1    0.996207    0.689578    0.189354    11.00000    0.04426    0.02716 =
         0.05122    0.00950    0.00850    0.00827
C27   1    1.021664    0.609480    0.089781    11.00000    0.02292    0.06108 =
         0.07091    0.02166    0.01419    0.00737
AFIX  43
H27A  2    1.139101    0.606310    0.080397    11.00000   -1.20000
AFIX   0
N28   3    0.894653    0.543482    0.014654    11.00000    0.04251    0.05127 =
         0.04429    0.00993    0.01050    0.00818
C29   1    0.928511    0.476324   -0.094390    11.00000    0.06499    0.05764 =
         0.07363    0.02078    0.03382    0.01832
AFIX  13
H29A  2    1.058359    0.494636   -0.090039    11.00000   -1.20000
AFIX   0
C30   1    0.884214    0.311837   -0.104776    11.00000    0.11626    0.05107 =
         0.06996    0.01911    0.03222    0.03337
AFIX 137
H30A  2    0.904638    0.269942   -0.174587    11.00000   -1.50000
H30B  2    0.759668    0.290062   -0.103360    11.00000   -1.50000
H30C  2    0.960552    0.272335   -0.042896    11.00000   -1.50000
AFIX   0
SAME C11 > C17
C31   1    0.832060    0.548986   -0.190089    11.00000    0.05535    0.05802 =
         0.04512   -0.01451    0.00567    0.01011
C32   1    0.921795    0.631895   -0.253512    11.00000    0.11280    0.04304 =
         0.07959   -0.00682    0.03812   -0.02206
AFIX  43
H32A  2    1.047091    0.634440   -0.241013    11.00000   -1.20000
AFIX   0
C33   1    0.830204    0.709072   -0.333195    11.00000    0.19081    0.03738 =
         0.04592    0.00003    0.01127   -0.00381
AFIX  43
H33A  2    0.894997    0.770869   -0.369134    11.00000   -1.20000
AFIX   0
C34   1    0.646804    0.699082   -0.362269    11.00000    0.21088    0.05914 =
         0.03440   -0.00561    0.00287    0.05724
C35   1    0.552374    0.615254   -0.302874    11.00000    0.10544    0.07029 =
         0.07560    0.00694   -0.00090    0.03827
AFIX  43
H35A  2    0.426568    0.609437   -0.319402    11.00000   -1.20000
AFIX   0
C36   1    0.646481    0.538924   -0.217606    11.00000    0.09328    0.07303 =
         0.05822    0.01951    0.01689    0.02645
AFIX  43
H36A  2    0.582190    0.480511   -0.179037    11.00000   -1.20000
AFIX   0
C37   1    0.532088    0.775678   -0.455552    11.00000    0.35853    0.09911 =
         0.06990   -0.01388   -0.05128    0.08983
AFIX 137
H37A  2    0.409950    0.772964   -0.446668    11.00000   -1.50000
H37B  2    0.532961    0.727487   -0.527794    11.00000   -1.50000
H37C  2    0.581372    0.874645   -0.450728    11.00000   -1.50000
AFIX   0
HKLF 4
REM  IMIB_Mo in P1
REM R1 =  0.0361 for    5013 Fo > 4sig(Fo)  and  0.0653 for all    6767 data
REM    365 parameters refined using     18 restraints
END
WGHT      0.0143      0.0000
REM Instructions for potential hydrogen bonds
HTAB C2 Cl3
EQIV $1 x-1, y, z
HTAB C7 Cl1_$1
HTAB C10 Cl1_$1
HTAB C22 Cl2
EQIV $2 x+1, y, z
HTAB C27 Cl4_$2
HTAB C30 Cl3
REM Highest difference peak  1.069,  deepest hole -1.060,  1-sigma level  0.113
Q1    1   1.1128  0.9574  0.4418  11.00000  0.05    1.07
Q2    1  -0.1512 -0.1659 -0.1131  11.00000  0.05    1.00
Q3    1   0.6557  0.5623  0.0184  11.00000  0.05    0.70
Q4    1   0.3090  0.2752  0.2187  11.00000  0.05    0.65
Q5    1   0.6187  0.5402  0.1010  11.00000  0.05    0.64
Q6    1   0.3129  0.2176  0.3117  11.00000  0.05    0.61
Q7    1   0.4051  0.6601 -0.2408  11.00000  0.05    0.43
Q8    1   1.0305  0.7800  0.2032  11.00000  0.05    0.42
Q9    1   0.9412  0.9353  0.2600  11.00000  0.05    0.42
Q10   1   0.3193  0.3763  0.3401  11.00000  0.05    0.41
Q11   1   0.4314 -0.0143  0.3604  11.00000  0.05    0.41
Q12   1   1.1989  0.9454  0.5460  11.00000  0.05    0.41
Q13   1   0.0275 -0.1443  0.0689  11.00000  0.05    0.40
Q14   1   0.7727  0.8415 -0.2211  11.00000  0.05    0.40
Q15   1   0.6465  0.3989 -0.0177  11.00000  0.05    0.40
Q16   1   0.4723  0.8715  0.0605  11.00000  0.05    0.40
Q17   1   0.5392  0.5388  0.2570  11.00000  0.05    0.39
Q18   1   0.5526  0.6669  0.0735  11.00000  0.05    0.39
Q19   1   0.4197  0.2598  0.0735  11.00000  0.05    0.39
Q20   1   0.5570  0.1356  0.5674  11.00000  0.05    0.38
;
_shelx_res_checksum              98238
loop_
_space_group_symop_operation_xyz
'x, y, z'
loop_
_atom_site_type_symbol
_atom_site_label
_atom_site_fract_x
_atom_site_fract_y
_atom_site_fract_z
_atom_site_U_iso_or_equiv
_atom_site_adp_type
_atom_site_calc_flag
_atom_site_occupancy
Hg Hg1 0.35646(4) 0.24939(4) 0.25613(4) 0.0504(4) Uani d 1
Cl Cl1 0.5356(9) 0.0590(7) 0.3269(8) 0.062(2) Uani d 1
Cl Cl2 0.4313(9) 0.5077(7) 0.2824(7) 0.0612(18) Uani d 1
N N1 0.124(3) 0.1109(19) 0.1251(19) 0.041(5) Uani d 1
C C2 0.141(3) 0.027(2) 0.037(3) 0.051(7) Uani d 1
H H2A 0.2547 0.0296 0.0209 0.061 Uiso calc 1
C C3 0.006(4) -0.065(3) -0.033(3) 0.065(8) Uani d 1
H H3A 0.0268 -0.1233 -0.0928 0.078 Uiso calc 1
C C4 -0.166(3) -0.067(2) -0.008(2) 0.056(7) Uani d 1
H H4A -0.2627 -0.1252 -0.0552 0.067 Uiso calc 1
C C5 -0.191(3) 0.014(2) 0.082(2) 0.044(6) Uani d 1
H H5A -0.3035 0.0104 0.0997 0.053 Uiso calc 1
C C6 -0.043(3) 0.106(2) 0.148(2) 0.037(6) Uani d 1
C C7 -0.062(3) 0.196(2) 0.251(2) 0.039(5) Uani d 1
H H7A -0.1753 0.2042 0.2659 0.047 Uiso calc 1
N N8 0.080(3) 0.2634(19) 0.3184(19) 0.038(5) Uani d 1
C C9 0.064(3) 0.352(2) 0.419(2) 0.049(6) Uani d 1
H H9A 0.1455 0.4401 0.4248 0.059 Uiso calc 1
C C10 -0.1166(17) 0.4005(14) 0.4218(13) 0.070(4) Uani d 1
H H10A -0.1101 0.4544 0.4931 0.105 Uiso calc 1
H H10B -0.2036 0.3175 0.4117 0.105 Uiso calc 1
H H10C -0.1526 0.4610 0.3621 0.105 Uiso calc 1
C C11 0.152(3) 0.266(2) 0.5207(19) 0.048(6) Uani d 1
C C12 0.047(3) 0.181(3) 0.572(2) 0.068(8) Uani d 1
H H12A -0.0780 0.1746 0.5482 0.082 Uiso calc 1
C C13 0.125(4) 0.104(3) 0.658(2) 0.092(11) Uani d 1
H H13A 0.0516 0.0541 0.6963 0.110 Uiso calc 1
C C14 0.307(3) 0.099(3) 0.689(2) 0.079(10) Uani d 1
C C15 0.415(3) 0.184(3) 0.639(2) 0.098(12) Uani d 1
H H15A 0.5403 0.1872 0.6621 0.118 Uiso calc 1
C C16 0.335(2) 0.266(3) 0.553(2) 0.065(8) Uani d 1
H H16A 0.4085 0.3198 0.5165 0.078 Uiso calc 1
C C17 0.396(4) 0.005(3) 0.780(2) 0.125(12) Uani d 1
H H17A 0.3041 -0.0583 0.7987 0.187 Uiso calc 1
H H17B 0.4591 0.0665 0.8463 0.187 Uiso calc 1
H H17C 0.4794 -0.0513 0.7520 0.187 Uiso calc 1
Hg Hg2 0.60575(4) 0.54275(4) 0.06949(4) 0.0524(4) Uani d 1
Cl Cl3 0.4965(11) 0.2909(7) 0.0418(8) 0.084(3) Uani d 1
Cl Cl4 0.4179(9) 0.7262(8) -0.0077(8) 0.069(2) Uani d 1
N N21 0.833(3) 0.680(2) 0.209(2) 0.043(5) Uani d 1
C C22 0.795(3) 0.762(2) 0.294(2) 0.045(6) Uani d 1
H H22A 0.6781 0.7572 0.3062 0.054 Uiso calc 1
C C23 0.936(3) 0.854(3) 0.365(3) 0.053(7) Uani d 1
H H23A 0.9133 0.9085 0.4269 0.064 Uiso calc 1
C C24 1.100(3) 0.866(2) 0.346(2) 0.050(6) Uani d 1
H H24A 1.1913 0.9307 0.3920 0.060 Uiso calc 1
C C25 1.134(3) 0.779(3) 0.258(2) 0.052(7) Uani d 1
H H25A 1.2500 0.7822 0.2459 0.063 Uiso calc 1
C C26 0.996(3) 0.690(2) 0.189(2) 0.041(6) Uani d 1
C C27 1.022(3) 0.609(3) 0.090(2) 0.050(7) Uani d 1
H H27A 1.1391 0.6063 0.0804 0.060 Uiso calc 1
N N28 0.895(3) 0.543(2) 0.015(2) 0.045(5) Uani d 1
C C29 0.929(3) 0.476(2) -0.094(3) 0.061(7) Uani d 1
H H29A 1.0584 0.4946 -0.0900 0.073 Uiso calc 1
C C30 0.884(2) 0.3118(14) -0.1048(13) 0.075(4) Uani d 1
H H30A 0.9046 0.2699 -0.1746 0.113 Uiso calc 1
H H30B 0.7597 0.2901 -0.1034 0.113 Uiso calc 1
H H30C 0.9606 0.2723 -0.0429 0.113 Uiso calc 1
C C31 0.832(3) 0.549(2) -0.190(2) 0.055(7) Uani d 1
C C32 0.922(3) 0.632(3) -0.254(2) 0.078(9) Uani d 1
H H32A 1.0471 0.6344 -0.2410 0.094 Uiso calc 1
C C33 0.830(4) 0.709(3) -0.333(2) 0.095(12) Uani d 1
H H33A 0.8950 0.7709 -0.3691 0.114 Uiso calc 1
C C34 0.647(4) 0.699(3) -0.362(2) 0.104(14) Uani d 1
C C35 0.552(3) 0.615(3) -0.303(2) 0.086(10) Uani d 1
H H35A 0.4266 0.6094 -0.3194 0.103 Uiso calc 1
C C36 0.646(3) 0.539(3) -0.218(2) 0.073(9) Uani d 1
H H36A 0.5822 0.4805 -0.1790 0.088 Uiso calc 1
C C37 0.532(6) 0.776(3) -0.456(3) 0.19(2) Uani d 1
H H37A 0.4100 0.7730 -0.4467 0.285 Uiso calc 1
H H37B 0.5330 0.7275 -0.5278 0.285 Uiso calc 1
H H37C 0.5814 0.8746 -0.4507 0.285 Uiso calc 1
loop_
_atom_site_aniso_label
_atom_site_aniso_U_11
_atom_site_aniso_U_22
_atom_site_aniso_U_33
_atom_site_aniso_U_12
_atom_site_aniso_U_13
_atom_site_aniso_U_23
Hg1 0.0358(6) 0.0412(6) 0.0731(12) 0.0041(5) 0.0102(7) 0.0063(7)
Cl1 0.044(3) 0.046(3) 0.104(7) 0.014(3) 0.024(4) 0.022(4)
Cl2 0.064(3) 0.036(3) 0.089(5) 0.0049(19) 0.029(3) 0.008(3)
N1 0.050(11) 0.027(9) 0.046(14) 0.004(8) 0.011(10) 0.005(9)
C2 0.040(10) 0.044(12) 0.08(2) 0.013(8) 0.026(11) 0.008(12)
C3 0.090(18) 0.034(12) 0.06(2) 0.000(13) 0.007(16) 0.001(12)
C4 0.042(10) 0.049(13) 0.08(2) 0.004(9) 0.003(11) 0.039(12)
C5 0.042(10) 0.035(10) 0.056(15) -0.006(7) 0.013(9) 0.006(9)
C6 0.025(9) 0.042(11) 0.048(16) 0.007(8) 0.012(10) 0.021(11)
C7 0.046(11) 0.040(10) 0.037(13) 0.015(8) 0.020(9) 0.007(9)
N8 0.044(10) 0.030(8) 0.041(12) 0.005(7) 0.012(9) 0.007(8)
C9 0.048(10) 0.043(11) 0.056(13) 0.007(8) 0.011(9) 0.008(9)
C10 0.070(9) 0.065(9) 0.079(12) 0.030(7) 0.019(8) 0.001(8)
C11 0.072(15) 0.037(9) 0.039(14) 0.007(9) 0.020(11) 0.005(9)
C12 0.084(17) 0.074(16) 0.052(18) 0.017(12) 0.026(14) 0.006(13)
C13 0.14(3) 0.078(18) 0.09(3) 0.026(17) 0.07(2) 0.027(16)
C14 0.13(3) 0.062(18) 0.05(2) 0.022(18) 0.02(2) 0.007(15)
C15 0.09(2) 0.13(3) 0.06(2) 0.03(2) -0.016(17) -0.01(2)
C16 0.047(13) 0.078(16) 0.06(2) 0.006(11) 0.000(12) 0.004(14)
C17 0.19(3) 0.15(3) 0.06(2) 0.09(2) 0.05(2) 0.05(2)
Hg2 0.0386(6) 0.0432(7) 0.0746(12) 0.0031(5) 0.0112(7) 0.0083(7)
Cl3 0.116(5) 0.051(3) 0.094(6) -0.024(3) 0.060(5) -0.012(3)
Cl4 0.042(3) 0.077(5) 0.098(7) 0.019(3) 0.019(4) 0.042(4)
N21 0.032(9) 0.044(11) 0.054(15) 0.001(8) 0.010(9) 0.011(10)
C22 0.054(11) 0.040(10) 0.046(15) -0.001(8) 0.024(10) -0.004(10)
C23 0.060(13) 0.050(13) 0.048(17) -0.004(10) 0.016(12) 0.003(12)
C24 0.062(13) 0.030(9) 0.047(14) -0.002(9) -0.001(11) -0.022(9)
C25 0.024(8) 0.066(14) 0.070(19) 0.008(9) 0.008(11) 0.032(13)
C26 0.044(12) 0.027(10) 0.051(16) 0.008(9) 0.009(11) 0.010(10)
C27 0.023(9) 0.061(13) 0.071(19) 0.007(9) 0.014(11) 0.022(13)
N28 0.043(11) 0.051(10) 0.044(14) 0.008(8) 0.010(9) 0.010(9)
C29 0.065(12) 0.058(12) 0.074(16) 0.018(10) 0.034(12) 0.021(11)
C30 0.116(13) 0.051(9) 0.070(12) 0.033(8) 0.032(10) 0.019(8)
C31 0.055(13) 0.058(13) 0.045(16) 0.010(10) 0.006(11) -0.015(11)
C32 0.11(2) 0.043(12) 0.08(2) -0.022(13) 0.038(18) -0.007(13)
C33 0.19(4) 0.037(11) 0.046(19) -0.004(17) 0.01(2) 0.000(12)
C34 0.21(4) 0.059(19) 0.03(2) 0.06(2) 0.00(2) -0.006(16)
C35 0.11(2) 0.070(17) 0.08(2) 0.038(16) -0.001(18) 0.007(17)
C36 0.09(2) 0.073(17) 0.06(2) 0.026(15) 0.017(16) 0.020(14)
C37 0.36(5) 0.10(2) 0.07(3) 0.09(3) -0.05(3) -0.014(19)
loop_
_atom_type_symbol
_atom_type_description
_atom_type_scat_dispersion_real
_atom_type_scat_dispersion_imag
_atom_type_scat_source
C C 0.0033 0.0016 'International Tables Vol C Tables 4.2.6.8 and 6.1.1.4'
H H 0.0000 0.0000 'International Tables Vol C Tables 4.2.6.8 and 6.1.1.4'
N N 0.0061 0.0033 'International Tables Vol C Tables 4.2.6.8 and 6.1.1.4'
Cl Cl 0.1484 0.1585 'International Tables Vol C Tables 4.2.6.8 and 6.1.1.4'
Hg Hg -2.3894 9.2266 'International Tables Vol C Tables 4.2.6.8 and 6.1.1.4'
loop_
_exptl_crystal_face_index_h
_exptl_crystal_face_index_k
_exptl_crystal_face_index_l
_exptl_crystal_face_perp_dist
-5 10 8 0.1507
10 2 -5 0.3443
0 12 6 0.1919
-8 -7 1 0.2589
-3 6 -14 0.0968
-1 6 -15 0.1036
2 -6 15 0.0968
-6 -6 14 0.2007
-1 2 -16 0.0492
0 -2 17 0.0377
0 -13 1 0.1849
5 -12 -2 0.1821
-2 5 15 0.0903
1 6 14 0.1173
0 0 -16 0.0557
-3 -1 -14 0.0856
loop_
_geom_angle_atom_site_label_1
_geom_angle_atom_site_label_2
_geom_angle_atom_site_label_3
_geom_angle
N1 Hg1 N8 71.3(7)
N1 Hg1 Cl2 129.7(5)
N8 Hg1 Cl2 93.7(5)
N1 Hg1 Cl1 99.4(5)
N8 Hg1 Cl1 115.1(5)
Cl2 Hg1 Cl1 129.6(2)
C2 N1 C6 117(2)
C2 N1 Hg1 126.5(17)
C6 N1 Hg1 116.4(16)
N1 C2 C3 126(2)
N1 C2 H2A 117.2
C3 C2 H2A 117.2
C2 C3 C4 117(3)
C2 C3 H3A 121.7
C4 C3 H3A 121.7
C5 C4 C3 121(2)
C5 C4 H4A 119.7
C3 C4 H4A 119.7
C4 C5 C6 118(2)
C4 C5 H5A 120.9
C6 C5 H5A 120.9
N1 C6 C5 122(2)
N1 C6 C7 117(2)
C5 C6 C7 121(2)
N8 C7 C6 119(2)
N8 C7 H7A 120.3
C6 C7 H7A 120.3
C7 N8 C9 120(2)
C7 N8 Hg1 115.3(17)
C9 N8 Hg1 124.3(14)
N8 C9 C10 117.5(19)
N8 C9 C11 105.0(18)
C10 C9 C11 115.3(18)
N8 C9 H9A 106.0
C10 C9 H9A 106.0
C11 C9 H9A 106.0
C9 C10 H10A 109.5
C9 C10 H10B 109.5
H10A C10 H10B 109.5
C9 C10 H10C 109.5
H10A C10 H10C 109.5
H10B C10 H10C 109.5
C16 C11 C12 118.3(16)
C16 C11 C9 119.9(17)
C12 C11 C9 121.5(17)
C13 C12 C11 120.9(17)
C13 C12 H12A 119.6
C11 C12 H12A 119.6
C14 C13 C12 121.8(17)
C14 C13 H13A 119.1
C12 C13 H13A 119.1
C13 C14 C15 118.3(17)
C13 C14 C17 122.5(19)
C15 C14 C17 119.2(19)
C14 C15 C16 119.8(18)
C14 C15 H15A 120.1
C16 C15 H15A 120.1
C11 C16 C15 120.6(17)
C11 C16 H16A 119.7
C15 C16 H16A 119.7
C14 C17 H17A 109.5
C14 C17 H17B 109.5
H17A C17 H17B 109.5
C14 C17 H17C 109.5
H17A C17 H17C 109.5
H17B C17 H17C 109.5
N21 Hg2 Cl3 132.8(5)
N21 Hg2 Cl4 102.2(5)
Cl3 Hg2 Cl4 121.7(3)
N21 Hg2 N28 70.1(7)
Cl3 Hg2 N28 103.1(5)
Cl4 Hg2 N28 114.3(5)
C26 N21 C22 121(2)
C26 N21 Hg2 116.1(18)
C22 N21 Hg2 121.9(16)
N21 C22 C23 118(2)
N21 C22 H22A 121.1
C23 C22 H22A 121.1
C24 C23 C22 122(3)
C24 C23 H23A 119.2
C22 C23 H23A 119.2
C23 C24 C25 119(2)
C23 C24 H24A 120.7
C25 C24 H24A 120.7
C26 C25 C24 120(2)
C26 C25 H25A 120.1
C24 C25 H25A 120.1
N21 C26 C25 121(2)
N21 C26 C27 118(2)
C25 C26 C27 121(2)
N28 C27 C26 124(2)
N28 C27 H27A 118.1
C26 C27 H27A 118.1
C27 N28 C29 121(2)
C27 N28 Hg2 111.8(17)
C29 N28 Hg2 127.3(16)
C31 C29 N28 110(2)
C31 C29 C30 115(2)
N28 C29 C30 109.9(19)
C31 C29 H29A 107.2
N28 C29 H29A 107.2
C30 C29 H29A 107.2
C29 C30 H30A 109.5
C29 C30 H30B 109.5
H30A C30 H30B 109.5
C29 C30 H30C 109.5
H30A C30 H30C 109.5
H30B C30 H30C 109.5
C36 C31 C32 117.4(18)
C36 C31 C29 120.0(19)
C32 C31 C29 123(2)
C33 C32 C31 121(2)
C33 C32 H32A 119.4
C31 C32 H32A 119.4
C32 C33 C34 122(2)
C32 C33 H33A 119.0
C34 C33 H33A 119.0
C33 C34 C35 118.5(18)
C33 C34 C37 126(2)
C35 C34 C37 116(2)
C34 C35 C36 119.8(18)
C34 C35 H35A 120.1
C36 C35 H35A 120.1
C31 C36 C35 121.0(18)
C31 C36 H36A 119.5
C35 C36 H36A 119.5
C34 C37 H37A 109.5
C34 C37 H37B 109.5
H37A C37 H37B 109.5
C34 C37 H37C 109.5
H37A C37 H37C 109.5
H37B C37 H37C 109.5
loop_
_geom_bond_atom_site_label_1
_geom_bond_atom_site_label_2
_geom_bond_distance
Hg1 N1 2.32(2)
Hg1 N8 2.405(19)
Hg1 Cl2 2.406(6)
Hg1 Cl1 2.410(6)
N1 C2 1.32(3)
N1 C6 1.37(3)
C2 C3 1.37(4)
C2 H2A 0.9300
C3 C4 1.40(3)
C3 H3A 0.9300
C4 C5 1.35(4)
C4 H4A 0.9300
C5 C6 1.41(3)
C5 H5A 0.9300
C6 C7 1.50(4)
C7 N8 1.28(3)
C7 H7A 0.9300
N8 C9 1.46(3)
C9 C10 1.49(2)
C9 C11 1.57(3)
C9 H9A 0.9800
C10 H10A 0.9600
C10 H10B 0.9600
C10 H10C 0.9600
C11 C16 1.366(17)
C11 C12 1.369(17)
C12 C13 1.364(19)
C12 H12A 0.9300
C13 C14 1.355(18)
C13 H13A 0.9300
C14 C15 1.377(18)
C14 C17 1.532(18)
C15 C16 1.402(18)
C15 H15A 0.9300
C16 H16A 0.9300
C17 H17A 0.9600
C17 H17B 0.9600
C17 H17C 0.9600
Hg2 N21 2.35(2)
Hg2 Cl3 2.397(7)
Hg2 Cl4 2.419(7)
Hg2 N28 2.443(19)
N21 C26 1.32(3)
N21 C22 1.34(3)
C22 C23 1.40(3)
C22 H22A 0.9300
C23 C24 1.32(3)
C23 H23A 0.9300
C24 C25 1.37(3)
C24 H24A 0.9300
C25 C26 1.37(3)
C25 H25A 0.9300
C26 C27 1.44(4)
C27 N28 1.25(3)
C27 H27A 0.9300
N28 C29 1.51(4)
C29 C31 1.47(3)
C29 C30 1.53(2)
C29 H29A 0.9800
C30 H30A 0.9600
C30 H30B 0.9600
C30 H30C 0.9600
C31 C36 1.371(17)
C31 C32 1.387(18)
C32 C33 1.352(19)
C32 H32A 0.9300
C33 C34 1.36(2)
C33 H33A 0.9300
C34 C35 1.378(19)
C34 C37 1.530(19)
C35 C36 1.400(18)
C35 H35A 0.9300
C36 H36A 0.9300
C37 H37A 0.9600
C37 H37B 0.9600
C37 H37C 0.9600
loop_
_geom_torsion_atom_site_label_1
_geom_torsion_atom_site_label_2
_geom_torsion_atom_site_label_3
_geom_torsion_atom_site_label_4
_geom_torsion
C6 N1 C2 C3 0(4)
Hg1 N1 C2 C3 173(2)
N1 C2 C3 C4 1(4)
C2 C3 C4 C5 -2(4)
C3 C4 C5 C6 3(4)
C2 N1 C6 C5 0(3)
Hg1 N1 C6 C5 -173.5(18)
C2 N1 C6 C7 177(2)
Hg1 N1 C6 C7 4(3)
C4 C5 C6 N1 -2(4)
C4 C5 C6 C7 -179(2)
N1 C6 C7 N8 -7(3)
C5 C6 C7 N8 171(2)
C6 C7 N8 C9 -180(2)
C6 C7 N8 Hg1 6(3)
C7 N8 C9 C10 -20(3)
Hg1 N8 C9 C10 154.2(13)
C7 N8 C9 C11 110(2)
Hg1 N8 C9 C11 -76.1(19)
N8 C9 C11 C16 75(3)
C10 C9 C11 C16 -154(2)
N8 C9 C11 C12 -99(3)
C10 C9 C11 C12 32(3)
C16 C11 C12 C13 4(4)
C9 C11 C12 C13 178(3)
C11 C12 C13 C14 -6(4)
C12 C13 C14 C15 6(5)
C12 C13 C14 C17 -176(3)
C13 C14 C15 C16 -4(5)
C17 C14 C15 C16 177(3)
C12 C11 C16 C15 -3(4)
C9 C11 C16 C15 -177(3)
C14 C15 C16 C11 3(5)
C26 N21 C22 C23 -2(4)
Hg2 N21 C22 C23 -172.1(17)
N21 C22 C23 C24 3(4)
C22 C23 C24 C25 -3(4)
C23 C24 C25 C26 3(4)
C22 N21 C26 C25 2(4)
Hg2 N21 C26 C25 172.8(18)
C22 N21 C26 C27 -174(2)
Hg2 N21 C26 C27 -3(3)
C24 C25 C26 N21 -3(4)
C24 C25 C26 C27 173(2)
N21 C26 C27 N28 8(4)
C25 C26 C27 N28 -169(2)
C26 C27 N28 C29 173(2)
C26 C27 N28 Hg2 -7(3)
C27 N28 C29 C31 -115(3)
Hg2 N28 C29 C31 64(2)
C27 N28 C29 C30 117(2)
Hg2 N28 C29 C30 -63(3)
N28 C29 C31 C36 -65(3)
C30 C29 C31 C36 60(3)
N28 C29 C31 C32 113(3)
C30 C29 C31 C32 -122(3)
C36 C31 C32 C33 5(4)
C29 C31 C32 C33 -173(3)
C31 C32 C33 C34 -6(5)
C32 C33 C34 C35 5(5)
C32 C33 C34 C37 -176(3)
C33 C34 C35 C36 -2(5)
C37 C34 C35 C36 179(3)
C32 C31 C36 C35 -3(4)
C29 C31 C36 C35 175(3)
C34 C35 C36 C31 2(5)

_cod_database_fobs_code 2241287
