#------------------------------------------------------------------------------
#$Date: 2015-08-27 05:26:08 +0300 (Thu, 27 Aug 2015) $
#$Revision: 153702 $
#$URL: svn://www.crystallography.net/cod/cif/2/24/10/2241053.cif $
#------------------------------------------------------------------------------
#
# This file is available in the Crystallography Open Database (COD),
# http://www.crystallography.net/. The original data for this entry
# were provided by IUCr Journals, http://journals.iucr.org/.
#
# The file may be used within the scientific community so long as
# proper attribution is given to the journal article from which the
# data were obtained.
#
data_2241053
loop_
_publ_author_name
'Naik, Vasant S.'
'Yathirajan, Hemmige S.'
'Jasinski, Jerry P.'
'Smolenski, Victoria A.'
'Glidewell, Christopher'
_publ_section_title
;
 The crystal structures of six
 (2<i>E</i>)-3-aryl-1-(5-halogenothiophen-2-yl)prop-2-en-1-ones
;
_journal_coeditor_code           SU5193
_journal_issue                   9
_journal_name_full               'Acta Crystallographica Section E'
_journal_page_first              1093
_journal_page_last               1099
_journal_paper_doi               10.1107/S2056989015015534
_journal_volume                  71
_journal_year                    2015
_chemical_formula_iupac          'C15 H13 Br O S'
_chemical_formula_moiety         'C15 H13 Br O S'
_chemical_formula_sum            'C15 H13 Br O S'
_chemical_formula_weight         321.21
_chemical_name_systematic
;
(2E)-1-(5-Bromothiophen-2-yl)-3-(4-ethylphenyl)prop-2-en-1-one
;
_space_group_crystal_system      triclinic
_space_group_IT_number           2
_space_group_name_Hall           '-P 1'
_space_group_name_H-M_alt        'P -1'
_symmetry_space_group_name_Hall  '-P 1'
_symmetry_space_group_name_H-M   'P -1'
_atom_sites_solution_hydrogens   geom
_audit_creation_method           SHELXL-2014
_cell_angle_alpha                74.731(7)
_cell_angle_beta                 88.146(7)
_cell_angle_gamma                70.334(8)
_cell_formula_units_Z            2
_cell_length_a                   5.9745(6)
_cell_length_b                   8.6636(7)
_cell_length_c                   14.3039(12)
_cell_measurement_reflns_used    4444
_cell_measurement_temperature    173(2)
_cell_measurement_theta_max      32.745
_cell_measurement_theta_min      3.370
_cell_volume                     671.29(11)
_computing_cell_refinement
;
CrysAlis PRO (Agilent, 2012)
;
_computing_data_collection
;
CrysAlis PRO (Agilent, 2012)
;
_computing_data_reduction
;
CrysAlis RED (Agilent, 2012)
;
_computing_molecular_graphics
;
PLATON (Spek, 2009)
;
_computing_publication_material  'SHELXL-2014 and PLATON'
_computing_structure_refinement
;
SHELXL-2014 (Sheldrick, 2015)
;
_computing_structure_solution
;
SHELXS-97 (Sheldrick, 2008)
;
_diffrn_ambient_temperature      173(2)
_diffrn_measured_fraction_theta_full 0.998
_diffrn_measured_fraction_theta_max 0.998
_diffrn_measurement_device_type  'Agilent Eos Gemini'
_diffrn_measurement_method       '\w scans'
_diffrn_radiation_type           MoK\a
_diffrn_radiation_wavelength     0.71073
_diffrn_reflns_av_R_equivalents  0.0420
_diffrn_reflns_limit_h_max       8
_diffrn_reflns_limit_h_min       -6
_diffrn_reflns_limit_k_max       12
_diffrn_reflns_limit_k_min       -12
_diffrn_reflns_limit_l_max       17
_diffrn_reflns_limit_l_min       -20
_diffrn_reflns_number            6997
_diffrn_reflns_theta_full        25.242
_diffrn_reflns_theta_max         29.986
_diffrn_reflns_theta_min         3.370
_diffrn_standards_decay_%        0
_diffrn_standards_interval_count 0
_diffrn_standards_interval_time  0
_diffrn_standards_number         0
_exptl_absorpt_coefficient_mu    3.201
_exptl_absorpt_correction_T_max  0.599
_exptl_absorpt_correction_T_min  0.326
_exptl_absorpt_correction_type   multi-scan
_exptl_absorpt_process_details
;
(CrysAlis RED; Agilent, 2012)
;
_exptl_crystal_colour            colourless
_exptl_crystal_density_diffrn    1.589
_exptl_crystal_description       needle
_exptl_crystal_F_000             324
_exptl_crystal_size_max          0.450
_exptl_crystal_size_mid          0.220
_exptl_crystal_size_min          0.160
_refine_diff_density_max         0.587
_refine_diff_density_min         -0.631
_refine_ls_extinction_coef       0.0046(13)
_refine_ls_extinction_expression Fc^*^=kFc[1+0.001xFc^2^\l^3^/sin(2\q)]^-1/4^
_refine_ls_extinction_method     SHELXL
_refine_ls_goodness_of_fit_ref   1.044
_refine_ls_hydrogen_treatment    constr
_refine_ls_matrix_type           full
_refine_ls_number_parameters     165
_refine_ls_number_reflns         3915
_refine_ls_number_restraints     0
_refine_ls_restrained_S_all      1.044
_refine_ls_R_factor_all          0.0588
_refine_ls_R_factor_gt           0.0411
_refine_ls_shift/su_max          0.000
_refine_ls_shift/su_mean         0.000
_refine_ls_structure_factor_coef Fsqd
_refine_ls_weighting_details
'w=1/[\s^2^(Fo^2^)+(0.0284P)^2^] where P=(Fo^2^+2Fc^2^)/3'
_refine_ls_weighting_scheme      calc
_refine_ls_wR_factor_gt          0.0803
_refine_ls_wR_factor_ref         0.0902
_reflns_number_gt                3089
_reflns_number_total             3915
_reflns_threshold_expression     'I > 2\s(I)'
_cod_data_source_file            su5193sup1.cif
_cod_data_source_block           II
_cod_database_code               2241053
_shelx_space_group_comment
;
The symmetry employed for this shelxl refinement is uniquely defined
by the following loop, which should always be used as a source of
symmetry information in preference to the above space-group names.
They are only intended as comments.
;
_shelx_estimated_absorpt_t_min   0.327
_shelx_estimated_absorpt_t_max   0.628
_shelx_hkl_file
;
  -7 -11  -7 329.158 410.663   6
  -7 -11  -6 3763.21 1032.82   6
  -7 -11  -5 690.352 550.049   6
  -7 -11  -4 4396.19 1067.75   6
  -7 -11  -3-464.111 524.493   6
  -7 -11  -2 70.0901 385.028   6
  -7 -10  -5-135.951 362.126   6
  -7 -10  -4 839.024 458.027   6
  -7 -10  -3 336.846 421.005   6
  -7 -10  -2 3134.94 860.776   6
  -7 -10  -1-253.883 368.132   6
  -7 -10   0 482.357 408.995   6
  -7   3  -5 1816.52 855.165   4
  -6 -11 -10 17484.3 2142.40   6
  -6 -11  -9 936.076 656.536   6
  -6 -11  -8 2382.11 840.530   6
  -6 -11  -7 425.895 519.558   6
  -6 -11  -6 172.090 357.937   6
  -6 -11  -5 381.603 517.460   6
  -6 -11  -4 374.401 410.221   6
  -6 -11  -3 3871.69 1105.41   6
  -6 -11  -2-542.551 403.617   6
  -6 -10 -13 887.850 553.947   6
  -6 -10 -12 3031.71 989.266   6
  -6 -10 -11 11619.9 1712.10   6
  -6 -10 -10 7943.81 1366.67   6
  -6 -10  -9 1175.56 616.929   6
  -6 -10  -8 326.125 393.257   6
  -6 -10  -7 911.609 501.508   6
  -6 -10  -6 9447.88 1444.59   6
  -6 -10  -5 1168.87 636.224   6
  -6 -10  -4 2833.63 824.646   6
  -6 -10  -3 3897.71 949.357   6
  -6 -10  -2 7745.51 1294.84   6
  -6  -9 -14 12941.5 1830.21   6
  -6  -9 -13 140.728 486.834   6
  -6  -9 -12 271.070 386.104   6
  -6  -9 -11 26363.8 2474.74   6
  -6  -9 -10 3150.75 848.123   6
  -6  -9  -9 354.065 310.713   6
  -6  -9  -8-526.330 441.124   6
  -6  -9  -7 2451.82 739.907   6
  -6  -9  -6 17692.1 1846.21   6
  -6  -9  -5 791.341 479.460   6
  -6  -9  -4 1883.96 636.167   6
  -6  -9  -3-218.122 378.835   6
  -6  -9  -2 1752.59 583.898   6
  -6  -8 -15-180.823 450.209   6
  -6  -8 -14 1499.89 708.965   6
  -6  -8 -13 20671.9 2173.22   6
  -6  -8 -12 1827.85 725.238   6
  -6  -8 -11 8727.09 1378.73   6
  -6  -8 -10-94.0813 478.956   6
  -6  -8  -9 3163.35 856.067   6
  -6  -8  -8 1851.69 597.821   6
  -6  -8  -7 10253.5 1337.32   6
  -6  -8  -6 19347.4 1842.70   6
  -6  -8  -5-249.553 370.146   6
  -6  -8  -4 153.781 298.259   6
  -6  -8  -3 12180.6 1421.63   6
  -6  -8  -2 6152.24 1006.93   6
  -6  -7 -13 12696.1 1681.58   6
  -6  -7 -12 10788.2 1489.09   6
  -6  -7 -11 8763.71 1294.45   6
  -6  -7 -10 1945.27 651.685   6
  -6  -7  -9 7989.80 1204.93   6
  -6  -7  -8 4248.11 897.947   6
  -6  -7  -7 26300.9 2082.82   6
  -6  -7  -6 3416.98 728.886   6
  -6  -7  -5 385.579 266.712   6
  -6  -7  -4 6623.79 981.744   6
  -6  -7  -3 116.426 276.910   6
  -6  -7  -2 31544.0 2219.21   6
  -6  -6 -11 120.101 288.709   6
  -6  -6 -10 6954.17 1078.28   6
  -6  -6  -9 27916.0 2142.15   6
  -6  -6  -8-107.060 244.125   6
  -6  -6  -7 14501.4 1425.83   6
  -6  -6  -6 2896.73 630.104   6
  -6  -6  -5 8961.02 1055.98   6
  -6  -6  -4 30.0991 253.718   6
  -6  -6  -3 6092.57 874.925   6
  -6  -6  -2 7742.24 969.383   6
  -6  -6  -1 7166.17 955.094   6
  -6  -5  -5 26221.0 1732.24   6
  -6  -5  -4 10481.8 1026.43   6
  -6  -5  -3 6885.31 805.211   6
  -6  -5  -2 66901.7 2869.16   6
  -6  -5  -1-166.624 289.180   6
  -6  -5   0 1389.79 340.305   6
  -6  -1  -7 4160.71 778.067   4
  -6  -1  -6 8180.04 1056.48   4
  -6  -1  -5 5572.75 841.280   4
  -6  -1  -4 662.023 341.177   4
  -6   0 -10 360.875 376.439   4
  -6   0  -9 8746.40 1316.57   4
  -6   0  -8 15651.6 1684.04   4
  -6   0  -7 2779.40 678.515   4
  -6   0  -6 13337.1 1480.55   4
  -6   0  -5 336.874 321.735   4
  -6   0  -4 6401.50 980.827   4
  -6   1 -11 725.117 550.176   4
  -6   1 -10 1227.08 707.397   4
  -6   1  -9 9916.39 1515.66   4
  -6   1  -8 238.220 335.154   4
  -6   1  -7 738.218 511.115   4
  -6   1  -6 431.367 439.893   4
  -6   1  -5 1268.94 473.242   4
  -6   1  -4 8662.04 1225.91   4
  -6   1  -3 555.209 467.781   4
  -6   2 -11 2464.54 844.590   4
  -6   2 -10 293.129 506.274   4
  -6   2  -9 9146.09 1479.41   4
  -6   2  -8 89.0353 364.524   4
  -6   2  -7 3026.52 764.189   4
  -6   2  -6 359.683 362.955   4
  -6   2  -5 7512.76 1304.21   4
  -6   2  -4 7135.76 1223.41   4
  -6   2  -3 857.275 556.014   4
  -6   3  -9 1711.18 874.036   4
  -6   3  -8-988.650 664.068   4
  -6   3  -7 73.9725 456.019   4
  -6   3  -6 1105.21 698.250   4
  -6   3  -5 3483.00 955.645   4
  -6   3  -4 4721.35 1084.89   4
  -6   3  -3 207.965 483.180   4
  -6   4  -6 1577.31 747.711   4
  -6   4  -5 4939.27 1199.16   4
  -6   4  -4 694.378 686.461   4
  -6   4  -3 1059.31 639.074   4
  -6   5  -3 489.184 583.041   4
  -5 -12  -6 1404.51 848.827   6
  -5 -12  -5 51.2471 491.491   6
  -5 -12  -4 837.070 668.777   6
  -5 -11 -12 3028.92 974.354   6
  -5 -11 -11 800.069 471.726   6
  -5 -11 -10 7504.50 1388.58   6
  -5 -11  -9 6594.35 1331.42   6
  -5 -11  -8 3155.27 871.967   6
  -5 -11  -7 10870.1 1630.93   6
  -5 -11  -6-4.69358 459.266   6
  -5 -11  -5-274.673 426.822   6
  -5 -11  -4 189.912 411.480   6
  -5 -11  -3 4446.56 1022.92   6
  -5 -10 -14 921.898 645.515   6
  -5 -10 -13 257.314 410.655   6
  -5 -10 -12-528.541 500.889   6
  -5 -10 -11 1164.72 612.074   6
  -5 -10 -10 14517.6 1823.66   6
  -5 -10  -9 2827.85 881.036   6
  -5 -10  -8 1733.79 618.071   6
  -5 -10  -7 3630.45 918.775   6
  -5 -10  -6 9680.01 1456.88   6
  -5 -10  -5 3374.32 823.898   6
  -5 -10  -4 548.810 402.622   6
  -5 -10  -3 7156.82 1278.53   6
  -5  -9 -15 5432.09 1240.73   6
  -5  -9 -14 15887.8 1998.56   6
  -5  -9 -13 634.677 451.223   6
  -5  -9 -12 2981.90 816.501   6
  -5  -9 -11 6325.01 1208.64   6
  -5  -9 -10 22270.5 2185.04   6
  -5  -9  -9 1976.70 708.574   6
  -5  -9  -8 3276.59 829.409   6
  -5  -9  -7 1800.67 639.475   6
  -5  -9  -6 789.658 438.271   6
  -5  -9  -5 17091.9 1813.51   6
  -5  -9  -4 370.286 404.709   6
  -5  -9  -3 8854.34 1320.19   6
  -5  -8 -17 3215.71 1015.72   6
  -5  -8 -16 8443.35 1573.31   6
  -5  -8 -15 145.217 390.065   6
  -5  -8 -14 1784.96 648.113   6
  -5  -8 -13 4929.50 1078.46   6
  -5  -8 -12 1047.31 573.731   6
  -5  -8 -11 16308.8 1808.43   6
  -5  -8 -10 17798.9 1833.15   6
  -5  -8  -9 2438.11 694.736   6
  -5  -8  -8 512.296 467.128   6
  -5  -8  -7 5778.63 1008.34   6
  -5  -8  -6 15718.9 1614.09   6
  -5  -8  -5 19997.1 1828.60   6
  -5  -8  -4 599.786 378.163   6
  -5  -8  -3 13652.3 1474.21   6
  -5  -7 -17 6864.73 1306.05   6
  -5  -7 -16 1121.01 619.559   6
  -5  -7 -15 11986.7 1742.17   6
  -5  -7 -14 4166.84 903.230   6
  -5  -7 -13 23672.8 2250.17   6
  -5  -7 -12 248.310 504.454   6
  -5  -7 -11 19284.2 1903.39   6
  -5  -7 -10 7374.96 1160.56   6
  -5  -7  -9 5462.76 948.938   6
  -5  -7  -8 887.143 489.724   6
  -5  -7  -7 434.788 333.258   6
  -5  -7  -6 30742.9 2164.77   6
  -5  -7  -5 4419.94 809.769   6
  -5  -7  -4 256.962 316.997   6
  -5  -7  -3 40.5179 235.043   6
  -5  -6 -18 5766.46 1340.95   6
  -5  -6 -17 925.895 666.489   6
  -5  -6 -16-66.5928 332.516   6
  -5  -6 -15 1490.28 639.760   6
  -5  -6 -14 14203.2 1817.05   6
  -5  -6 -13 21632.9 2130.79   6
  -5  -6 -12 605.963 374.651   6
  -5  -6 -11 3056.72 775.928   6
  -5  -6 -10 6295.87 997.743   6
  -5  -6  -9 11779.0 1334.78   6
  -5  -6  -8 3268.16 734.771   6
  -5  -6  -7 10388.2 1160.88   6
  -5  -6  -6 44411.2 2457.66   6
  -5  -6  -5 20262.1 1595.69   6
  -5  -6  -4 418.415 262.567   6
  -5  -6  -3 14011.0 1306.65   6
  -5  -6  -2 3639.16 648.562   6
  -5  -5 -18 3834.37 1061.57   6
  -5  -5 -17 9342.34 1577.59   6
  -5  -5 -16-431.573 454.066   6
  -5  -5 -15-311.006 428.947   6
  -5  -5 -14 31900.5 2644.61   6
  -5  -5 -13 10201.8 1416.28   6
  -5  -5 -12 3615.88 818.071   6
  -5  -5 -11 804.844 420.062   6
  -5  -5 -10 11267.8 1313.01   6
  -5  -5  -9 26842.9 1980.31   6
  -5  -5  -8 6828.72 949.330   6
  -5  -5  -7 16966.0 1462.18   6
  -5  -5  -6 3588.29 632.179   6
  -5  -5  -5 10664.4 1050.19   6
  -5  -5  -4 29526.9 1789.06   6
  -5  -5  -3 1388.87 357.856   6
  -5  -5  -2 110565. 3955.38   6
  -5  -4 -16 11052.8 1611.70   6
  -5  -4 -15 563.528 452.385   6
  -5  -4 -14 20089.0 2052.62   6
  -5  -4 -13 941.193 589.899   6
  -5  -4 -12 2435.66 690.204   6
  -5  -4 -11 447.705 385.005   6
  -5  -4 -10 13875.3 1445.85   6
  -5  -4  -9 40725.3 2431.33   6
  -5  -4  -8 2392.95 580.999   6
  -5  -4  -7 5530.89 767.763   6
  -5  -4  -6 23127.0 1540.85   6
  -5  -4  -5 13188.1 1097.59   6
  -5  -4  -4 401.340 231.950   6
  -5  -4  -3 330.217 152.930   6
  -5  -4  -2 92437.9 3247.34   6
  -5  -4  -1 474.160 187.754   6
  -5  -3 -14 17040.8 1843.19   6
  -5  -3 -13 617.278 414.620   6
  -5  -3 -12 4277.14 907.719   6
  -5  -3 -11 870.456 428.500   6
  -5  -3 -10 25875.3 1949.60   6
  -5  -3  -9 19227.7 1384.55   4
  -5  -3  -9 17922.8 1532.30   6
  -5  -3  -8 479.022 324.541   6
  -5  -3  -8 1114.28 342.290   4
  -5  -3  -7 1054.05 376.811   6
  -5  -3  -7 1183.10 297.398   4
  -5  -3  -6 7786.26 831.515   6
  -5  -3  -6 7648.94 706.142   4
  -5  -3  -5 57335.8 2400.00   6
  -5  -3  -5 62223.9 2150.34   4
  -5  -3  -4 86858.7 2971.73   6
  -5  -3  -3 50754.6 2005.04   6
  -5  -3  -2 23980.7 1223.80   6
  -5  -3  -1 2421.14 354.229   6
  -5  -3   0 18602.9 1074.19   6
  -5  -2 -13 7318.68 1077.92   4
  -5  -2 -12 13969.1 1469.62   4
  -5  -2 -11 251.344 483.300   4
  -5  -2 -10 26263.7 1905.61   4
  -5  -2  -9 7088.98 926.644   6
  -5  -2  -9 7944.80 976.047   4
  -5  -2  -8 3488.76 607.548   6
  -5  -2  -8 3455.50 613.842   4
  -5  -2  -7 314.395 256.832   4
  -5  -2  -7 60.6746 205.787   6
  -5  -2  -6 13400.2 1023.38   6
  -5  -2  -6 13760.7 1081.41   4
  -5  -2  -5 13884.0 962.391   6
  -5  -2  -5 14785.1 1083.53   4
  -5  -2  -4 31683.7 1611.81   4
  -5  -2  -4 28580.7 1329.37   6
  -5  -2  -3 28818.9 1210.36   6
  -5  -2  -2 630.532 147.560   6
  -5  -2  -1 2843.99 280.923   6
  -5  -2   0 32844.2 1160.76   6
  -5  -2   1 2507.31 287.545   6
  -5  -1 -15 2020.50 661.840   4
  -5  -1 -14 79.0940 338.934   4
  -5  -1 -13 1327.12 524.752   4
  -5  -1 -12 12607.1 1537.63   4
  -5  -1 -11 4053.88 796.861   4
  -5  -1 -10 11188.2 1319.18   4
  -5  -1  -9 2889.67 652.753   4
  -5  -1  -8 15856.7 1431.96   4
  -5  -1  -7 1242.41 415.622   4
  -5  -1  -6 5775.48 767.537   4
  -5  -1  -5 107384. 3912.56   4
  -5  -1  -4 1957.43 435.231   4
  -5  -1  -3 1692.16 433.067   4
  -5   0 -16 259.010 359.169   4
  -5   0 -15 1387.42 675.161   4
  -5   0 -14 805.214 562.595   4
  -5   0 -13 15103.9 1806.85   4
  -5   0 -12 5536.48 1049.14   4
  -5   0 -11 4441.42 955.944   4
  -5   0 -10 678.655 300.017   4
  -5   0  -9 4228.55 844.399   4
  -5   0  -8 16070.1 1563.67   4
  -5   0  -7 1364.30 483.479   4
  -5   0  -6 10617.9 1160.18   4
  -5   0  -5 34243.2 2141.24   4
  -5   0  -4 997.342 387.015   4
  -5   0  -3 694.325 308.124   4
  -5   0  -2 1405.68 439.231   4
  -5   1 -15 108.252 542.421   4
  -5   1 -14-229.519 408.827   4
  -5   1 -13 13400.6 1755.77   4
  -5   1 -12 1060.35 536.002   4
  -5   1 -11 658.268 433.985   4
  -5   1 -10 194.568 315.454   4
  -5   1  -9 8543.93 1252.20   4
  -5   1  -8 3195.27 761.595   4
  -5   1  -7 2459.40 672.451   4
  -5   1  -6 32754.2 2331.03   4
  -5   1  -5 2489.00 621.719   4
  -5   1  -4 6735.77 965.706   4
  -5   1  -3 3334.28 708.294   4
  -5   1  -2 1078.89 438.303   4
  -5   1  -1 51878.7 2758.14   4
  -5   2 -13 2747.29 882.916   4
  -5   2 -12 387.033 482.156   4
  -5   2 -11 984.551 470.808   4
  -5   2 -10 355.524 343.934   4
  -5   2  -9 10010.6 1446.33   4
  -5   2  -8 12802.0 1588.67   4
  -5   2  -7 512.581 358.679   4
  -5   2  -6 8330.46 1273.27   4
  -5   2  -5 830.270 372.339   4
  -5   2  -4 2275.83 656.582   4
  -5   2  -3 16176.2 1590.65   4
  -5   2  -2 792.742 527.058   4
  -5   2  -1 48993.3 2866.50   4
  -5   3 -11 640.214 508.328   4
  -5   3 -10 888.117 645.889   4
  -5   3  -9 2355.09 898.838   4
  -5   3  -8 6136.81 1190.24   4
  -5   3  -7 64.9984 417.876   4
  -5   3  -6 731.231 569.032   4
  -5   3  -5 2780.79 835.869   4
  -5   3  -4 4962.43 986.088   4
  -5   3  -3 3957.43 919.412   4
  -5   3  -2 15018.7 1662.56   4
  -5   3  -1 1044.41 559.583   4
  -5   4  -9 4168.47 1058.06   4
  -5   4  -8 261.456 405.402   4
  -5   4  -7 804.491 709.548   4
  -5   4  -6 1278.93 796.980   4
  -5   4  -5 1454.26 694.605   4
  -5   4  -4 10666.4 1532.88   4
  -5   4  -3 2535.04 784.942   4
  -5   4  -2 5181.71 1032.01   4
  -5   4  -1 743.054 484.766   4
  -5   5  -7 1278.70 808.714   4
  -5   5  -6-906.998 560.962   4
  -5   5  -5 1593.00 755.079   4
  -5   5  -4 8360.75 1476.43   4
  -5   5  -3 2059.85 829.832   4
  -5   5  -2 1937.53 581.793   4
  -5   5  -1 987.314 655.710   4
  -5   6  -4 2041.08 830.671   4
  -5   6  -3 287.704 495.514   4
  -5   6  -2 582.238 476.857   4
  -5   6  -1 3059.49 990.189   4
  -4 -12  -9 1504.40 722.585   6
  -4 -12  -8-538.337 489.506   6
  -4 -12  -7 7641.15 1423.56   6
  -4 -12  -6 4261.86 1051.82   6
  -4 -12  -5 117.075 417.747   6
  -4 -12  -4 978.269 611.856   6
  -4 -12  -3-682.054 652.419   6
  -4 -11 -13 3270.92 1032.66   6
  -4 -11 -12 3006.13 962.842   6
  -4 -11 -11 2415.49 894.902   6
  -4 -11 -10 2943.08 868.732   6
  -4 -11  -9 5306.15 1129.76   6
  -4 -11  -8 499.591 646.948   6
  -4 -11  -7 20124.1 2205.05   6
  -4 -11  -6 2372.16 744.650   6
  -4 -11  -5 2113.27 820.407   6
  -4 -11  -4 171.097 498.322   6
  -4 -11  -3 97.7752 461.373   6
  -4 -10 -15 1948.77 776.324   6
  -4 -10 -14 13952.3 1917.35   6
  -4 -10 -13 9240.51 1527.54   6
  -4 -10 -12 5172.91 1210.52   6
  -4 -10 -11 708.467 470.354   6
  -4 -10 -10 5806.79 1140.91   6
  -4 -10  -9 14776.3 1764.66   6
  -4 -10  -8 713.659 567.028   6
  -4 -10  -7 7619.75 1255.29   6
  -4 -10  -6 3242.78 770.609   6
  -4 -10  -5 692.270 498.951   6
  -4 -10  -4 3729.47 949.894   6
  -4  -9 -16 876.510 545.620   6
  -4  -9 -15 4862.03 1166.96   6
  -4  -9 -14 11664.2 1671.37   6
  -4  -9 -13 1107.67 618.050   6
  -4  -9 -12 459.694 526.130   6
  -4  -9 -11 755.972 371.641   6
  -4  -9 -10 26791.3 2334.57   6
  -4  -9  -9 21249.5 2039.76   6
  -4  -9  -8 13186.6 1575.07   6
  -4  -9  -7 6345.81 1054.49   6
  -4  -9  -6 839.082 442.613   6
  -4  -9  -5 9656.17 1342.74   6
  -4  -9  -4 6104.84 1053.52   6
  -4  -8 -17 9807.10 1677.15   6
  -4  -8 -16-960.940 748.650   6
  -4  -8 -15 7125.11 1316.76   6
  -4  -8 -14 18580.8 2091.96   6
  -4  -8 -13 1782.68 755.447   6
  -4  -8 -12 3310.18 867.920   6
  -4  -8 -11 1590.08 646.100   6
  -4  -8 -10 39087.3 2744.54   6
  -4  -8  -9 9063.40 1293.36   6
  -4  -8  -8-315.748 376.533   6
  -4  -8  -7 5473.38 960.381   6
  -4  -8  -6 7041.35 1061.71   6
  -4  -8  -5 37968.0 2524.36   6
  -4  -8  -4 4528.33 884.919   6
  -4  -7 -18 3687.18 1101.21   6
  -4  -7 -17 14149.8 1891.85   6
  -4  -7 -16 2663.74 924.446   6
  -4  -7 -15 12777.4 1742.88   6
  -4  -7 -14 3426.86 881.437   6
  -4  -7 -13 11447.0 1527.40   6
  -4  -7 -12 14063.7 1629.71   6
  -4  -7 -11 10465.4 1366.19   6
  -4  -7 -10 56664.4 3246.77   6
  -4  -7  -9 24.2186 287.974   6
  -4  -7  -8 648.932 330.763   6
  -4  -7  -7 738.963 381.567   6
  -4  -7  -6 17176.5 1563.86   6
  -4  -7  -5 72702.7 3426.45   6
  -4  -7  -4-211.105 297.308   6
  -4  -6 -18 22680.3 2537.91   6
  -4  -6 -17 2246.38 755.158   6
  -4  -6 -16-132.487 529.753   6
  -4  -6 -15 1719.05 697.569   6
  -4  -6 -14 2034.44 726.654   6
  -4  -6 -13 17264.5 1812.03   6
  -4  -6 -12 10842.8 1399.59   6
  -4  -6 -11 27558.1 2170.12   6
  -4  -6 -10 29858.2 2200.14   6
  -4  -6  -9 20960.6 1743.90   6
  -4  -6  -8 5310.47 859.082   6
  -4  -6  -7 866.113 340.879   6
  -4  -6  -6 47907.2 2557.54   6
  -4  -6  -5 64466.7 3020.16   6
  -4  -6  -4 384.261 208.883   6
  -4  -6  -3 13557.9 1233.02   6
  -4  -5 -19 1248.20 788.084   6
  -4  -5 -18 13557.7 1967.53   6
  -4  -5 -17 20031.3 2257.93   6
  -4  -5 -16 415.639 359.973   6
  -4  -5 -15-465.001 525.541   6
  -4  -5 -14 8788.23 1333.60   6
  -4  -5 -13 47434.7 3097.91   6
  -4  -5 -12 2969.43 763.104   6
  -4  -5 -11 22064.7 1453.15   4
  -4  -5 -11 21728.2 1891.66   6
  -4  -5 -10 7801.24 1067.09   6
  -4  -5 -10 8022.78 767.314   4
  -4  -5  -9 4234.42 503.100   4
  -4  -5  -9 3452.74 703.967   6
  -4  -5  -8 29022.6 1936.88   6
  -4  -5  -8 29062.4 1229.36   4
  -4  -5  -7 190.868 65.8458   4
  -4  -5  -7 73.5822 204.850   6
  -4  -5  -6 67257.3 2952.82   6
  -4  -5  -5 11876.6 1084.49   6
  -4  -5  -4 6042.34 753.487   6
  -4  -5  -3 2418.39 501.459   6
  -4  -4 -18 1889.65 798.474   6
  -4  -4 -17 519.455 526.363   6
  -4  -4 -16 1612.09 646.405   6
  -4  -4 -15 599.775 345.484   4
  -4  -4 -15-102.128 441.088   6
  -4  -4 -14 16255.3 1809.94   6
  -4  -4 -14 13185.4 1393.18   4
  -4  -4 -13 40081.6 2778.25   6
  -4  -4 -13 34641.0 2231.11   4
  -4  -4 -12 907.854 371.232   4
  -4  -4 -12 546.082 417.389   6
  -4  -4 -11 1919.16 470.808   4
  -4  -4 -11 1605.21 538.915   6
  -4  -4 -10 11640.5 1001.66   4
  -4  -4 -10 10150.5 1175.24   6
  -4  -4  -9 16062.9 1101.70   4
  -4  -4  -9 14708.7 1367.91   6
  -4  -4  -8 42972.2 2350.83   6
  -4  -4  -8 47729.9 1850.47   4
  -4  -4  -7 10144.0 1027.21   6
  -4  -4  -7 9616.47 593.221   4
  -4  -4  -6 103206. 3754.53   6
  -4  -4  -6 106287. 2755.63   4
  -4  -4  -5 59879.7 2526.20   6
  -4  -4  -4 401.704 247.771   6
  -4  -4  -3 5560.93 652.785   6
  -4  -4  -2 61776.7 2449.71   6
  -4  -3 -17 2131.75 689.666   4
  -4  -3 -16 6571.63 1260.23   6
  -4  -3 -16 5913.57 1079.17   4
  -4  -3 -15 74.1148 273.363   4
  -4  -3 -15 441.537 446.454   6
  -4  -3 -14 30419.4 2500.25   6
  -4  -3 -14 24982.6 2040.36   4
  -4  -3 -13 18153.0 1853.67   6
  -4  -3 -13 15610.9 1489.51   4
  -4  -3 -12 793.328 357.751   4
  -4  -3 -12 867.261 402.159   6
  -4  -3 -11 392.219 232.799   4
  -4  -3 -11-210.646 320.941   6
  -4  -3 -10 2410.84 470.571   4
  -4  -3 -10 3394.16 684.107   6
  -4  -3  -9 52645.8 2314.43   4
  -4  -3  -9 50331.8 2651.36   6
  -4  -3  -8 24381.7 1353.90   4
  -4  -3  -8 23675.9 1654.85   6
  -4  -3  -7 6669.19 793.908   6
  -4  -3  -7 5476.22 555.643   4
  -4  -3  -6 724.820 198.492   4
  -4  -3  -6 959.211 324.374   6
  -4  -3  -5 45117.7 2048.08   6
  -4  -3  -5 47415.6 1622.31   4
  -4  -3  -4 58256.0 2303.79   6
  -4  -3  -4 60690.7 1802.36   4
  -4  -3  -3 599.180 211.842   6
  -4  -3  -2 72915.1 2515.14   6
  -4  -3  -1 17610.6 1026.61   6
  -4  -2 -18 1028.40 655.435   4
  -4  -2 -17 5119.45 1042.89   4
  -4  -2 -16 10893.9 1442.78   4
  -4  -2 -15 40.6159 261.796   4
  -4  -2 -14 9690.93 1278.78   4
  -4  -2 -13 5285.37 981.994   6
  -4  -2 -13 5005.97 900.588   4
  -4  -2 -12 4284.13 885.995   6
  -4  -2 -12 2671.41 597.717   4
  -4  -2 -11 26.1356 321.110   4
  -4  -2 -11-230.240 302.583   6
  -4  -2 -10 4011.63 773.361   6
  -4  -2 -10 3755.61 686.003   4
  -4  -2  -9 85770.7 3561.54   6
  -4  -2  -9 80017.1 3209.32   4
  -4  -2  -8 19137.9 1243.49   4
  -4  -2  -8 20048.9 1490.28   6
  -4  -2  -7 8348.24 805.231   4
  -4  -2  -7 7021.16 811.104   6
  -4  -2  -6 48754.0 2203.39   6
  -4  -2  -6 53733.5 2151.82   4
  -4  -2  -5 1257.98 319.983   6
  -4  -2  -5 1921.01 325.080   4
  -4  -2  -4 63872.0 2186.21   4
  -4  -2  -4 59160.5 2192.89   6
  -4  -2  -3 15536.4 902.230   4
  -4  -2  -3 15777.0 901.894   6
  -4  -2  -2 41899.4 1532.26   6
  -4  -2  -1 11882.4 690.565   6
  -4  -2   0 62952.7 1975.13   6
  -4  -1 -18 27.2373 347.962   4
  -4  -1 -17 8126.47 1403.74   4
  -4  -1 -16 6030.57 1123.88   4
  -4  -1 -15 4163.06 967.396   4
  -4  -1 -14 5307.82 978.099   4
  -4  -1 -13 5823.87 980.704   4
  -4  -1 -12 7286.82 1090.61   4
  -4  -1 -11 3609.96 718.446   4
  -4  -1 -10 13500.9 1305.82   4
  -4  -1  -9 17759.6 1380.40   4
  -4  -1  -8 3438.43 604.768   4
  -4  -1  -7 19788.3 1378.89   6
  -4  -1  -7 18736.6 1390.89   4
  -4  -1  -6 3184.22 508.747   6
  -4  -1  -6 2980.20 554.195   4
  -4  -1  -5 121479. 3738.88   6
  -4  -1  -5 134569. 4115.69   4
  -4  -1  -4 53652.5 2169.80   4
  -4  -1  -4 48616.3 1806.33   6
  -4  -1  -3 14725.1 1002.24   4
  -4  -1  -3 14364.1 745.825   6
  -4  -1  -2 708.647 232.484   4
  -4  -1  -2 666.028 132.049   6
  -4  -1   1 1575.83 166.101   6
  -4  -1   1 1569.28 178.557   6
  -4  -1   2 38051.3 1321.20   6
  -4  -1   3 42738.4 1595.59   6
  -4   0 -17 7234.82 1318.95   4
  -4   0 -16 894.605 591.070   4
  -4   0 -15-419.869 497.503   4
  -4   0 -14 46.4751 319.531   4
  -4   0 -13 6193.22 1076.00   4
  -4   0 -12 10808.4 1345.81   4
  -4   0 -11 4324.88 769.323   4
  -4   0 -10 12036.9 1281.41   4
  -4   0  -9 15851.9 1454.66   4
  -4   0  -8 7838.15 992.288   4
  -4   0  -7 7495.93 949.334   4
  -4   0  -6 753.412 338.442   4
  -4   0  -5 98144.1 3620.93   4
  -4   0  -4 2446.39 464.487   4
  -4   0  -3 493.602 251.928   4
  -4   0  -2 3686.66 546.446   4
  -4   0  -1 38864.9 1944.30   4
  -4   0   3 13963.5 574.797   6
  -4   0   4 44582.7 1556.44   6
  -4   1 -16 259.284 353.734   4
  -4   1 -15 452.378 494.896   4
  -4   1 -14 921.686 621.219   4
  -4   1 -13 3993.94 927.020   4
  -4   1 -12 7996.79 1253.11   4
  -4   1 -11 950.256 540.089   4
  -4   1 -10 2728.53 733.389   4
  -4   1  -9 5550.91 988.937   4
  -4   1  -8 25496.8 1962.70   4
  -4   1  -7 31532.9 2134.67   4
  -4   1  -6 31331.0 2059.08   4
  -4   1  -5 45984.5 2462.80   4
  -4   1  -4 206.210 233.698   4
  -4   1  -3 11321.3 1105.63   4
  -4   1  -2 99.6881 239.065   4
  -4   1  -1 53765.0 2525.49   4
  -4   1   0 75730.8 3099.10   4
  -4   2 -15 1503.46 553.909   4
  -4   2 -14 1469.21 718.602   4
  -4   2 -13 5905.71 1192.03   4
  -4   2 -12 4114.13 985.598   4
  -4   2 -11-148.122 309.165   4
  -4   2 -10-2.35174 341.581   4
  -4   2  -9 11830.2 1449.93   4
  -4   2  -8 3956.40 781.374   4
  -4   2  -7 18394.7 1723.47   4
  -4   2  -6 27213.8 2086.11   4
  -4   2  -5 1984.65 542.251   4
  -4   2  -4 535.380 350.469   4
  -4   2  -3 23037.9 1743.64   4
  -4   2  -2 202.498 270.796   4
  -4   2  -1 65622.6 3088.22   4
  -4   2   0 24211.8 1759.14   4
  -4   3 -13 3625.70 963.181   4
  -4   3 -12 1169.15 590.121   4
  -4   3 -11 1708.37 667.931   4
  -4   3 -10-0.52386 340.320   4
  -4   3  -9 640.908 528.125   4
  -4   3  -8 27596.7 2331.06   4
  -4   3  -7 399.999 365.858   4
  -4   3  -6 9565.94 1272.49   4
  -4   3  -5 270.542 355.487   4
  -4   3  -4 17445.8 1648.04   4
  -4   3  -3 18368.4 1675.29   4
  -4   3  -2 2170.82 613.593   4
  -4   3  -1 46787.8 2686.00   4
  -4   3   0 3169.69 651.716   4
  -4   3   1 815.231 255.048   4
  -4   4 -12 650.263 542.733   4
  -4   4 -11 3785.27 1024.46   4
  -4   4 -10-1284.98 685.204   4
  -4   4  -9 2187.35 607.751   4
  -4   4  -8 18134.9 2026.72   4
  -4   4  -7 2878.42 823.504   4
  -4   4  -6-439.550 487.145   4
  -4   4  -5 1325.41 569.399   4
  -4   4  -4 13905.5 1620.44   4
  -4   4  -3 31099.6 2381.04   4
  -4   4  -2 8707.32 1190.84   4
  -4   4  -1 8521.73 1141.50   4
  -4   4   0 1260.39 390.726   4
  -4   4   1 6889.18 1060.90   4
  -4   5 -10 880.381 602.964   4
  -4   5  -9 8738.97 1534.36   4
  -4   5  -8 1451.16 708.967   4
  -4   5  -7 322.794 480.422   4
  -4   5  -6 988.148 493.778   4
  -4   5  -5 1183.12 669.501   4
  -4   5  -4 13815.4 1700.71   4
  -4   5  -3 860.434 540.533   4
  -4   5  -2 6689.12 1163.08   4
  -4   5  -1 659.691 313.855   4
  -4   5   0 6938.86 1158.25   4
  -4   5   1 4954.49 914.914   4
  -4   6  -7 360.961 554.151   4
  -4   6  -6 2719.47 934.043   4
  -4   6  -5 375.254 512.784   4
  -4   6  -4 17846.6 2093.84   4
  -4   6  -3 492.434 442.897   4
  -4   6  -2 628.383 401.717   4
  -4   6  -1 275.831 478.331   4
  -4   6   0 4779.29 1047.98   4
  -4   6   1 2495.72 753.309   4
  -4   7  -4 920.301 541.186   4
  -4   7  -3 449.559 555.339   4
  -4   7  -2 971.774 536.009   4
  -4   7  -1 912.154 641.960   4
  -4   7   0 6049.58 1297.89   4
  -3 -12 -10 4369.01 1126.03   6
  -3 -12  -9 749.336 546.612   6
  -3 -12  -8-745.139 556.381   6
  -3 -12  -7 5860.51 1282.00   6
  -3 -12  -6 7899.15 1431.16   6
  -3 -12  -5 2210.92 860.184   6
  -3 -12  -4 3613.51 1005.05   6
  -3 -12  -3 483.969 515.526   6
  -3 -11 -13 8474.71 1543.08   6
  -3 -11 -12-468.194 529.224   6
  -3 -11 -11 11891.2 1722.67   6
  -3 -11 -10 7033.55 1316.80   6
  -3 -11  -9 1027.89 457.118   6
  -3 -11  -8-88.4374 378.163   6
  -3 -11  -7 20.7391 432.035   6
  -3 -11  -6 949.797 672.481   6
  -3 -11  -5 19505.1 2161.95   6
  -3 -11  -4 88.8126 395.831   6
  -3 -10 -15 1309.98 697.583   6
  -3 -10 -14 4783.27 1200.77   6
  -3 -10 -13 26425.9 2554.30   6
  -3 -10 -12 2047.61 798.504   6
  -3 -10 -11 4923.08 1099.09   6
  -3 -10 -10 8926.11 1374.88   6
  -3 -10  -9 9248.92 1408.30   6
  -3 -10  -8-481.179 383.233   6
  -3 -10  -7 9023.84 1350.35   6
  -3 -10  -6 14713.8 1750.30   6
  -3 -10  -5-155.041 449.142   6
  -3 -10  -4 175.066 488.341   6
  -3  -9 -17 194.272 476.252   6
  -3  -9 -16 351.847 396.966   6
  -3  -9 -15 1030.72 488.735   6
  -3  -9 -14 21003.4 2236.27   6
  -3  -9 -13 11030.6 1626.90   6
  -3  -9 -12-96.5076 471.067   6
  -3  -9 -11 2051.56 694.068   6
  -3  -9 -10 10847.8 1462.67   6
  -3  -9  -9 12545.1 1532.23   6
  -3  -9  -8 59.1149 346.803   6
  -3  -9  -7 2252.82 631.023   6
  -3  -9  -6 29692.7 2379.20   6
  -3  -9  -5 10506.6 1393.12   6
  -3  -9  -4 3292.89 759.561   6
  -3  -8 -18 5422.84 1302.15   6
  -3  -8 -17 283.093 417.794   6
  -3  -8 -16 7337.38 1361.37   6
  -3  -8 -15 600.642 473.758   6
  -3  -8 -14 49241.7 3410.09   6
  -3  -8 -13 5275.48 1061.35   6
  -3  -8 -12 1210.49 534.720   6
  -3  -8 -11 2420.79 683.550   6
  -3  -8 -10 20458.3 1918.86   6
  -3  -8  -9 17953.2 1729.05   6
  -3  -8  -8 191.649 275.491   6
  -3  -8  -7 11401.4 1354.82   6
  -3  -8  -6 6335.06 1012.17   6
  -3  -8  -5 17246.1 1617.22   6
  -3  -8  -4 5451.36 952.077   6
  -3  -7 -18 6593.06 1293.17   6
  -3  -7 -17 8273.74 1488.59   6
  -3  -7 -16 6794.76 1316.16   6
  -3  -7 -15 9023.45 1431.70   6
  -3  -7 -14 11313.2 1568.91   6
  -3  -7 -13 6637.38 1174.02   6
  -3  -7 -12 3365.21 812.059   6
  -3  -7 -11 3195.07 785.671   6
  -3  -7 -10 67674.4 3555.57   6
  -3  -7  -9 21692.3 1840.55   6
  -3  -7  -8 1453.95 483.039   6
  -3  -7  -7 2467.50 631.848   6
  -3  -7  -6 14042.8 1394.05   6
  -3  -7  -5 49215.3 2719.87   6
  -3  -7  -4 39192.6 2321.40   6
  -3  -6 -19 683.377 548.616   6
  -3  -6 -18 2513.45 765.795   6
  -3  -6 -17 17133.6 2111.29   6
  -3  -6 -16 10936.8 1603.88   6
  -3  -6 -15 19948.7 2142.74   6
  -3  -6 -14 10718.8 1478.60   6
  -3  -6 -13 19056.2 1921.53   6
  -3  -6 -12 15171.6 1639.27   6
  -3  -6 -11 1935.99 627.957   6
  -3  -6 -10 31811.3 2232.65   6
  -3  -6  -9 26968.5 1987.74   6
  -3  -6  -8 5169.78 816.605   6
  -3  -6  -7-621.423 390.445   6
  -3  -6  -6 22393.7 1668.61   6
  -3  -6  -6 22938.5 983.321   4
  -3  -6  -5 60885.2 2893.29   6
  -3  -6  -5 62532.3 1783.11   4
  -3  -6  -4 12535.4 1164.82   6
  -3  -6  -4 12785.8 615.022   4
  -3  -6  -3 14365.4 688.473   4
  -3  -6   1 383.921 105.688   3
  -3  -5 -19 503.556 466.080   6
  -3  -5 -18 1576.98 705.004   6
  -3  -5 -18 1709.10 596.142   4
  -3  -5 -17 21707.9 2154.19   4
  -3  -5 -17 30217.5 2760.72   6
  -3  -5 -16 892.855 650.226   6
  -3  -5 -16 558.493 477.376   4
  -3  -5 -15 1244.64 453.986   4
  -3  -5 -15 1589.11 687.862   6
  -3  -5 -14 6225.75 1094.25   6
  -3  -5 -14 5298.88 925.343   4
  -3  -5 -13 33399.4 2142.25   4
  -3  -5 -13 33020.0 2521.66   6
  -3  -5 -12 32445.1 2403.30   6
  -3  -5 -11 32763.5 2318.22   6
  -3  -5 -10 26039.3 1958.49   6
  -3  -5  -9 3684.06 733.631   6
  -3  -5  -8 11718.3 1185.47   6
  -3  -5  -7 2599.06 507.674   6
  -3  -5  -6 54776.0 2646.82   6
  -3  -5  -6 63830.3 1872.95   4
  -3  -5  -5 184118. 4225.45   4
  -3  -5  -5 184770. 5628.49   6
  -3  -5  -4 4646.56 663.521   6
  -3  -5   1 5217.24 358.296   3
  -3  -5   2 54875.8 1827.61   3
  -3  -4 -20 864.120 425.876   4
  -3  -4 -19 1943.05 853.398   6
  -3  -4 -19 927.986 491.969   4
  -3  -4 -18 8675.71 1458.60   6
  -3  -4 -18 6765.35 1205.61   4
  -3  -4 -17 20990.7 2318.27   6
  -3  -4 -17 21767.3 2070.08   4
  -3  -4 -16-469.564 389.397   6
  -3  -4 -16-176.997 286.342   4
  -3  -4 -15 781.398 583.150   6
  -3  -4 -15-420.614 330.486   4
  -3  -4 -14 4341.49 825.749   4
  -3  -4 -14 5340.06 1047.81   6
  -3  -4 -13 50853.0 3128.70   6
  -3  -4 -13 45126.5 2637.13   4
  -3  -4 -12 10765.6 1365.12   6
  -3  -4 -12 8977.51 1075.56   4
  -3  -4 -11 4657.62 714.957   4
  -3  -4 -11 5632.39 912.427   6
  -3  -4 -10 25965.7 1900.29   6
  -3  -4 -10 23775.8 1557.25   4
  -3  -4  -9 37634.4 1841.04   4
  -3  -4  -9 34427.2 2127.21   6
  -3  -4  -8 51946.5 2104.04   4
  -3  -4  -8 54007.9 2618.01   6
  -3  -4  -7 10477.9 1027.18   6
  -3  -4  -7 9391.92 709.180   4
  -3  -4  -6 78730.2 2309.96   4
  -3  -4  -6 78349.7 3041.00   6
  -3  -4  -5 88802.4 2269.19   4
  -3  -4  -5 86921.6 3183.88   6
  -3  -4  -4 3450.66 532.188   6
  -3  -4  -3 6490.08 677.367   6
  -3  -4   1 25978.1 952.904   3
  -3  -4   2 10804.7 664.867   3
  -3  -3 -20 4639.93 1132.72   4
  -3  -3 -19 2415.06 732.421   4
  -3  -3 -18 16537.8 1892.64   4
  -3  -3 -17 9333.47 1529.35   6
  -3  -3 -17 6496.30 1166.79   4
  -3  -3 -16 3661.03 867.455   4
  -3  -3 -16 5330.28 1140.79   6
  -3  -3 -15 3084.62 823.016   6
  -3  -3 -15 3767.18 821.918   4
  -3  -3 -14 9654.42 1399.83   6
  -3  -3 -14 8273.47 1118.47   4
  -3  -3 -13 68947.3 3723.45   6
  -3  -3 -13 62154.0 3203.39   4
  -3  -3 -12 275.854 218.372   4
  -3  -3 -12-189.342 313.474   6
  -3  -3 -11 5393.98 892.762   6
  -3  -3 -11 4722.09 744.664   4
  -3  -3 -10 589.934 290.561   4
  -3  -3 -10 383.878 322.411   6
  -3  -3  -9 27789.4 1592.64   4
  -3  -3  -9 26530.8 1825.36   6
  -3  -3  -8 93948.1 3603.81   6
  -3  -3  -8 90871.8 3120.47   4
  -3  -3  -7 157.005 176.625   6
  -3  -3  -7 326.885 183.503   4
  -3  -3  -6 90106.1 2671.31   4
  -3  -3  -6 85099.5 3159.04   6
  -3  -3  -5 49484.1 1586.33   4
  -3  -3  -5 53245.6 2179.17   6
  -3  -3  -4 483.273 102.230   4
  -3  -3  -4 577.421 220.879   6
  -3  -3  -3 5984.15 610.416   6
  -3  -3  -2 14906.2 928.936   6
  -3  -2 -19 252.712 451.659   4
  -3  -2 -18 2825.04 827.089   4
  -3  -2 -17 1838.56 704.368   4
  -3  -2 -16 5268.75 1007.58   4
  -3  -2 -15 3012.25 766.606   4
  -3  -2 -14 27043.7 2360.04   6
  -3  -2 -14 25716.5 2094.17   4
  -3  -2 -13 34604.7 2523.81   6
  -3  -2 -13 30652.2 2171.03   4
  -3  -2 -12 6406.13 911.497   4
  -3  -2 -12 8845.55 1239.35   6
  -3  -2 -11 754.900 406.818   6
  -3  -2 -11 521.409 318.188   4
  -3  -2 -10 855.577 398.933   6
  -3  -2 -10 1363.06 437.532   4
  -3  -2  -9 55204.7 2509.96   4
  -3  -2  -9 55721.8 2754.23   6
  -3  -2  -8 102302. 3904.74   6
  -3  -2  -8 114192. 3739.66   4
  -3  -2  -7 7748.79 850.602   6
  -3  -2  -7 7988.34 746.220   4
  -3  -2  -6 109994. 3610.58   6
  -3  -2  -6 105441. 3242.48   4
  -3  -2  -5 30510.6 1506.08   6
  -3  -2  -5 29243.0 1245.94   4
  -3  -2  -4 72904.0 2485.78   6
  -3  -2  -4 73391.8 2199.46   4
  -3  -2  -3 31687.1 1122.10   4
  -3  -2  -3 31111.6 1344.56   6
  -3  -2  -2 34366.5 1145.84   4
  -3  -2  -2 34187.6 1348.24   6
  -3  -2  -1 123933. 3329.14   6
  -3  -1 -19 816.211 532.624   4
  -3  -1 -18 1092.33 640.999   4
  -3  -1 -17 4245.68 979.074   4
  -3  -1 -16 16681.7 1858.06   4
  -3  -1 -15 1406.55 603.601   4
  -3  -1 -14 26792.6 2212.10   4
  -3  -1 -13 7191.84 1102.18   4
  -3  -1 -12 1519.02 509.522   4
  -3  -1 -11 10523.1 1181.00   4
  -3  -1 -11 12434.9 1361.92   6
  -3  -1 -10 257.543 211.692   4
  -3  -1 -10 177.935 220.439   6
  -3  -1  -9 74521.0 3240.07   6
  -3  -1  -9 67980.8 3024.33   4
  -3  -1  -8 19310.2 1427.16   6
  -3  -1  -8 18383.5 1329.80   4
  -3  -1  -7 792.996 234.183   4
  -3  -1  -7 702.906 288.687   6
  -3  -1  -6 9508.34 848.369   6
  -3  -1  -6 10357.1 848.383   4
  -3  -1  -5 24386.1 1224.22   4
  -3  -1  -5 23588.7 1299.88   6
  -3  -1  -4 82142.8 2687.49   4
  -3  -1  -4 85311.4 2668.60   6
  -3  -1  -3 30947.8 1264.85   6
  -3  -1  -3 32304.5 1353.06   4
  -3  -1  -2 52846.7 1823.01   4
  -3  -1  -2 52914.0 1621.13   6
  -3  -1  -1 74170.5 1971.39   6
  -3  -1  -1 75583.5 2331.36   4
  -3  -1   0 74068.2 1923.53   6
  -3  -1   3 200084. 5139.51   6
  -3   0 -18 73.6251 478.310   4
  -3   0 -17 4960.18 1033.90   4
  -3   0 -16 14486.9 1812.40   4
  -3   0 -15 456.243 460.369   4
  -3   0 -14 3138.30 755.661   4
  -3   0 -13 3516.18 831.023   4
  -3   0 -12 3992.32 821.441   4
  -3   0 -11 14261.4 1450.72   4
  -3   0 -10 6245.72 911.266   4
  -3   0  -9 117638. 4365.36   4
  -3   0  -8 32503.4 1918.83   4
  -3   0  -7 10998.3 1004.89   4
  -3   0  -6 359.898 210.840   4
  -3   0  -5 36611.2 1798.94   4
  -3   0  -4 87007.4 3025.99   4
  -3   0  -3 425.686 228.143   4
  -3   0  -2 23960.2 1263.22   4
  -3   0  -1 30587.1 1428.93   4
  -3   0   0 72999.0 2513.11   4
  -3   0   2 8970.20 430.900   6
  -3   0   3 172883. 4265.45   6
  -3   0   4 10797.8 714.550   6
  -3   1 -17 10175.4 1626.26   4
  -3   1 -16 6994.40 1299.17   4
  -3   1 -15 268.584 416.168   4
  -3   1 -14 609.756 366.896   4
  -3   1 -13 1253.36 554.046   4
  -3   1 -12 14751.2 1589.81   4
  -3   1 -11 11926.2 1382.61   4
  -3   1 -10 10487.9 1211.38   4
  -3   1  -9 4505.17 761.555   4
  -3   1  -8 22226.1 1604.76   4
  -3   1  -7 17900.2 1351.23   4
  -3   1  -6 0.23946 187.209   4
  -3   1  -5 59737.7 2654.56   4
  -3   1  -4 57907.4 2517.66   4
  -3   1  -3 2400.82 470.447   4
  -3   1  -2 2128.42 427.925   4
  -3   1  -1 81720.7 2952.87   4
  -3   1   0 22231.3 1325.48   4
  -3   1   3 54703.1 1585.78   6
  -3   1   4 3389.91 354.202   6
  -3   2 -16 1161.77 458.880   4
  -3   2 -15-435.002 454.339   4
  -3   2 -14 133.388 369.920   4
  -3   2 -13 538.787 475.039   4
  -3   2 -12 22024.0 2025.34   4
  -3   2 -11 9471.86 1265.13   4
  -3   2 -10 11104.6 1282.96   4
  -3   2  -9 21702.9 1756.70   4
  -3   2  -8 1243.42 475.325   4
  -3   2  -7 10426.2 1175.20   4
  -3   2  -6 1853.53 498.563   4
  -3   2  -5 49937.8 2553.38   4
  -3   2  -4 12659.5 1165.97   4
  -3   2  -3 13956.5 1220.75   4
  -3   2  -2 125.136 200.727   4
  -3   2  -1 13920.3 1177.13   4
  -3   2   0 122870. 4144.10   4
  -3   2   1 11876.1 1038.89   4
  -3   3 -15 726.711 425.710   4
  -3   3 -14 1309.02 646.259   4
  -3   3 -13 2258.87 692.428   4
  -3   3 -12 10366.7 1469.42   4
  -3   3 -11 122.037 435.159   4
  -3   3 -10 1159.98 578.457   4
  -3   3  -9 4099.19 855.978   4
  -3   3  -8 35420.4 2493.43   4
  -3   3  -7 17871.5 1663.03   4
  -3   3  -6 6977.14 1039.83   4
  -3   3  -5 12720.9 1332.13   4
  -3   3  -4 13422.8 1311.58   4
  -3   3  -3 24172.6 1748.60   4
  -3   3  -2 175.706 232.355   4
  -3   3  -1 16557.5 1382.47   4
  -3   3   0 84392.3 3454.03   4
  -3   3   1-197.444 342.762   4
  -3   4 -13 3724.67 1047.55   4
  -3   4 -12 6512.84 1323.96   4
  -3   4 -11 1011.80 673.771   4
  -3   4 -10 4048.66 956.840   4
  -3   4  -9 94.6148 326.870   4
  -3   4  -8 19630.6 1935.94   4
  -3   4  -7 2685.89 743.723   4
  -3   4  -6 2441.93 570.325   4
  -3   4  -5 616.938 441.981   4
  -3   4  -4 12483.3 1383.67   4
  -3   4  -3 12974.8 1399.23   4
  -3   4  -2 411.280 327.941   4
  -3   4  -1 44042.1 2543.93   4
  -3   4   0 20147.6 1666.04   4
  -3   4   1 8552.16 1058.35   4
  -3   4   2 4597.14 803.917   4
  -3   5 -12 1706.92 819.420   4
  -3   5 -11 2766.26 802.090   4
  -3   5 -10 2041.67 798.350   4
  -3   5  -9 4874.87 1090.60   4
  -3   5  -8 13633.1 1716.21   4
  -3   5  -7 119.077 397.937   4
  -3   5  -6 117.601 414.682   4
  -3   5  -5 925.814 437.472   4
  -3   5  -4 17939.1 1793.33   4
  -3   5  -3 15814.0 1663.57   4
  -3   5  -2 417.850 412.091   4
  -3   5  -1 21131.2 1834.81   4
  -3   5   0 3815.31 770.168   4
  -3   5   1 860.095 417.256   4
  -3   5   2 2569.41 703.530   4
  -3   6 -10 2999.11 925.049   4
  -3   6  -9 4474.77 1105.95   4
  -3   6  -8 1784.27 723.422   4
  -3   6  -7 561.084 485.021   4
  -3   6  -6 5125.32 1073.64   4
  -3   6  -5 63.5905 427.834   4
  -3   6  -4 13935.3 1702.34   4
  -3   6  -3 10866.1 1492.57   4
  -3   6  -2 1052.84 560.854   4
  -3   6  -1 338.642 318.955   4
  -3   6   0 3212.56 770.100   4
  -3   6   1 11704.1 1432.94   4
  -3   6   2 3803.93 885.531   4
  -3   7  -8-4.58347 447.119   4
  -3   7  -7 2859.54 1009.81   4
  -3   7  -6 1982.82 836.848   4
  -3   7  -5 1475.33 575.164   4
  -3   7  -4 7952.91 1373.71   4
  -3   7  -3 1920.40 737.003   4
  -3   7  -2 437.704 380.909   4
  -3   7  -1 1093.37 641.076   4
  -3   7   0 1819.86 659.006   4
  -3   7   1 3516.18 890.650   4
  -3   8  -5 1556.79 757.820   4
  -3   8  -4 4177.56 1045.86   4
  -3   8  -3 459.426 580.123   4
  -3   8  -2 743.319 597.898   4
  -3   8  -1-345.297 425.788   4
  -3   8   0 1623.49 797.429   4
  -3   8   1 16548.8 1951.37   4
  -3   9   0 602.312 540.189   4
  -2 -12 -10 13699.0 1886.20   6
  -2 -12  -9 3363.29 992.015   6
  -2 -12  -8-248.158 462.790   6
  -2 -12  -7 1193.63 696.448   6
  -2 -12  -6 3919.61 1048.95   6
  -2 -12  -5 3314.80 945.078   6
  -2 -12  -4-216.102 361.733   6
  -2 -12  -3 4380.56 1058.54   6
  -2 -11 -13 3227.75 997.887   6
  -2 -11 -12 1912.64 832.503   6
  -2 -11 -11 3201.24 916.873   6
  -2 -11 -10 12386.1 1703.14   6
  -2 -11  -9 632.295 511.100   6
  -2 -11  -8 3678.52 999.821   6
  -2 -11  -7-285.396 492.699   6
  -2 -11  -6 313.161 525.651   6
  -2 -11  -5 27843.1 2539.44   6
  -2 -11  -4 1447.78 610.301   6
  -2 -10 -16-119.388 494.374   6
  -2 -10 -15 1793.02 786.456   6
  -2 -10 -14 2757.77 904.268   6
  -2 -10 -13 13552.4 1851.96   6
  -2 -10 -12 4350.02 1044.98   6
  -2 -10 -11 11012.2 1612.68   6
  -2 -10 -10 12984.8 1665.43   6
  -2 -10  -9 6647.36 1180.21   6
  -2 -10  -8-464.138 524.895   6
  -2 -10  -7 3143.90 872.599   6
  -2 -10  -6 29323.6 2479.87   6
  -2 -10  -5 9941.22 1404.71   6
  -2 -10  -4 761.679 535.095   6
  -2  -9 -17 5168.28 1251.80   6
  -2  -9 -16-40.5372 413.857   6
  -2  -9 -15 735.944 613.399   6
  -2  -9 -14 7295.77 1369.47   6
  -2  -9 -13 30410.7 2659.55   6
  -2  -9 -12 2225.25 822.653   6
  -2  -9 -11 15417.8 1801.25   6
  -2  -9 -10 10292.7 1375.11   6
  -2  -9  -9-196.516 472.781   6
  -2  -9  -8 4563.36 891.753   6
  -2  -9  -7 18724.8 1867.01   6
  -2  -9  -6 68985.6 3704.11   6
  -2  -9  -5 9038.05 1281.58   6
  -2  -9  -4-438.410 431.504   6
  -2  -8 -18 7904.24 1504.46   6
  -2  -8 -17-427.804 575.857   6
  -2  -8 -16 2695.21 783.311   6
  -2  -8 -15 3020.42 949.587   6
  -2  -8 -14 20637.3 2158.32   6
  -2  -8 -13 25413.1 2023.52   3
  -2  -8 -13 25607.3 2354.08   6
  -2  -8 -12 900.522 502.116   6
  -2  -8 -12 767.667 356.733   3
  -2  -8 -11 6377.19 888.662   3
  -2  -8 -11 5879.73 1026.64   6
  -2  -8 -10 25105.4 2127.63   6
  -2  -8 -10 24779.8 1723.23   3
  -2  -8  -9 22674.5 1536.98   3
  -2  -8  -9 19664.6 1818.42   6
  -2  -8  -8 11299.6 1380.04   6
  -2  -8  -8 13966.2 1115.04   3
  -2  -8  -7 26655.7 1498.45   3
  -2  -8  -7 25153.6 2034.45   6
  -2  -8  -6 22287.4 1898.68   6
  -2  -8  -6 23050.3 1294.74   3
  -2  -8  -5 6435.11 1005.18   6
  -2  -8  -5 6772.56 623.549   3
  -2  -8  -4 2436.51 366.493   3
  -2  -8  -3 156.822 134.180   3
  -2  -8  -2 35841.1 1539.61   3
  -2  -8  -1 42490.7 1764.22   3
  -2  -7 -19 9560.24 1748.24   6
  -2  -7 -19 7485.31 1346.38   3
  -2  -7 -18 8774.14 1569.86   6
  -2  -7 -18 6824.09 1233.90   3
  -2  -7 -17 5080.80 1024.38   3
  -2  -7 -17 3926.93 1048.46   6
  -2  -7 -16 3054.21 869.101   3
  -2  -7 -16 3291.96 912.734   6
  -2  -7 -15 271.542 431.625   3
  -2  -7 -15-1.62690 415.583   6
  -2  -7 -14 46354.1 3189.55   6
  -2  -7 -14 46606.7 2887.25   3
  -2  -7 -13 29467.7 2136.63   3
  -2  -7 -13 25839.4 2281.15   6
  -2  -7 -12 1015.87 530.203   6
  -2  -7 -12 1924.12 586.699   3
  -2  -7 -11 2911.69 623.282   3
  -2  -7 -11 2670.85 732.538   6
  -2  -7 -10 2063.52 418.795   3
  -2  -7 -10 2009.26 606.529   6
  -2  -7  -9 18720.7 1366.91   3
  -2  -7  -9 15749.5 1546.11   6
  -2  -7  -8 90573.0 3984.91   6
  -2  -7  -8 91755.3 3314.40   3
  -2  -7  -7 23780.1 1829.09   6
  -2  -7  -7 25558.1 1418.06   3
  -2  -7  -6 29745.4 2044.46   6
  -2  -7  -6 32835.7 1521.82   3
  -2  -7  -5 21521.6 1082.83   3
  -2  -7  -5 20083.9 1635.43   6
  -2  -7  -4 35368.8 1377.98   3
  -2  -7  -4 32337.1 2087.88   6
  -2  -7  -3 2177.90 309.636   3
  -2  -7  -2 96336.5 2769.62   3
  -2  -6 -21 23400.8 2422.10   4
  -2  -6 -19 2856.46 990.679   6
  -2  -6 -18 931.282 640.267   6
  -2  -6 -18 1572.23 700.436   3
  -2  -6 -17 6263.31 1261.61   6
  -2  -6 -17 4701.34 914.643   3
  -2  -6 -16 40046.1 3139.68   6
  -2  -6 -16 43110.6 2947.63   3
  -2  -6 -15 3137.06 990.370   6
  -2  -6 -15 4011.67 869.828   3
  -2  -6 -14 31449.3 2568.54   6
  -2  -6 -14 31502.1 2314.01   3
  -2  -6 -13 20510.5 1985.37   6
  -2  -6 -13 21633.8 1837.24   3
  -2  -6 -12 6393.41 948.876   3
  -2  -6 -12 6080.99 1036.30   6
  -2  -6 -11 1124.34 381.200   3
  -2  -6 -11 1149.67 472.710   6
  -2  -6 -10 9137.26 1002.47   3
  -2  -6 -10 9494.00 1191.94   6
  -2  -6  -9 76735.6 3556.73   6
  -2  -6  -9 79838.1 3188.27   3
  -2  -6  -8 821.931 255.338   3
  -2  -6  -8 294.083 292.325   6
  -2  -6  -7 5591.56 622.837   3
  -2  -6  -7 4850.54 773.706   6
  -2  -6  -6 23456.4 1685.42   6
  -2  -6  -6 23234.3 1206.66   3
  -2  -6  -5 25303.6 1158.43   3
  -2  -6  -5 25629.2 1726.77   6
  -2  -6  -4 55220.4 2660.34   6
  -2  -6  -4 61090.9 1876.63   3
  -2  -6  -3 2326.67 243.159   3
  -2  -6  -2 57597.1 1682.66   3
  -2  -6  -1 19571.1 915.737   3
  -2  -6   0 14936.2 871.838   3
  -2  -5 -21 11419.6 1747.15   4
  -2  -5 -20 136.293 491.518   6
  -2  -5 -20 30.0802 366.402   4
  -2  -5 -19 1927.80 810.889   6
  -2  -5 -19 1359.51 612.650   4
  -2  -5 -18 2833.92 954.306   6
  -2  -5 -17 18269.7 2117.84   6
  -2  -5 -16 18226.3 2066.73   6
  -2  -5 -16 16851.1 1809.94   3
  -2  -5 -15 4250.48 983.939   6
  -2  -5 -15 4464.76 914.733   3
  -2  -5 -14 14574.5 1741.78   6
  -2  -5 -14 15692.8 1590.62   3
  -2  -5 -13 18903.2 1695.90   3
  -2  -5 -13 19900.6 1913.00   6
  -2  -5 -12 10094.8 1133.41   3
  -2  -5 -12 8342.58 1171.29   6
  -2  -5 -11-187.448 287.234   6
  -2  -5 -11 203.776 313.599   3
  -2  -5 -10 23272.7 1631.99   3
  -2  -5 -10 23969.0 1857.34   6
  -2  -5  -9 141654. 4686.13   3
  -2  -5  -9 147730. 5184.91   6
  -2  -5  -8 15857.6 1155.11   3
  -2  -5  -8 13963.3 1285.86   6
  -2  -5  -7 414.654 192.978   3
  -2  -5  -7-111.741 278.369   6
  -2  -5  -6 4913.22 516.890   3
  -2  -5  -5 131884. 3589.89   3
  -2  -5  -4 119648. 3211.76   3
  -2  -5  -4 136814. 3425.23   4
  -2  -5  -3 71972.6 1887.91   3
  -2  -5  -3 77740.0 2187.96   4
  -2  -5  -2 14816.1 775.087   4
  -2  -5  -1 69087.4 1839.91   3
  -2  -5  -1 67164.3 1744.50   3
  -2  -5   0 35275.7 1294.11   3
  -2  -5   1 1949.88 308.492   3
  -2  -4 -21 5368.71 1184.58   4
  -2  -4 -20 656.695 464.240   4
  -2  -4 -20 1107.05 762.698   6
  -2  -4 -19 1191.19 540.853   6
  -2  -4 -19 849.595 470.410   4
  -2  -4 -18 393.734 672.455   6
  -2  -4 -18 108.497 402.078   4
  -2  -4 -17 61023.8 4030.83   6
  -2  -4 -17 57529.8 3563.49   4
  -2  -4 -16 8277.30 1379.87   6
  -2  -4 -15 2610.82 822.615   6
  -2  -4 -14 12927.7 1589.25   6
  -2  -4 -13 24240.2 1917.53   3
  -2  -4 -13 23829.3 2059.09   6
  -2  -4 -12 16283.0 1494.79   3
  -2  -4 -12 16894.4 1675.38   6
  -2  -4 -11 13649.4 1399.18   6
  -2  -4 -11 10588.1 1169.29   3
  -2  -4 -10 54455.6 2792.92   6
  -2  -4 -10 48716.0 2497.05   3
  -2  -4  -9 37612.9 2233.23   6
  -2  -4  -9 38863.4 2041.99   3
  -2  -4  -8 23174.5 1450.44   3
  -2  -4  -8 26336.7 1708.40   6
  -2  -4  -7 130.354 114.185   3
  -2  -4  -6 3502.04 430.919   3
  -2  -4  -5 109837. 3076.58   3
  -2  -4  -4 25196.7 954.514   3
  -2  -4  -4 26016.5 971.748   4
  -2  -4  -3 10.3826 51.2629   4
  -2  -4  -2 16556.3 658.402   4
  -2  -4  -1 69226.7 1939.20   4
  -2  -4   0 114135. 2832.15   3
  -2  -4   0 131953. 3244.06   4
  -2  -4   1 8922.81 556.878   3
  -2  -4   2 69044.9 2283.41   3
  -2  -3 -20 1522.34 668.926   4
  -2  -3 -19 3016.73 823.732   4
  -2  -3 -18 4754.90 1283.19   6
  -2  -3 -18 4649.21 1069.22   4
  -2  -3 -17 19644.2 2181.49   6
  -2  -3 -17 18572.8 1962.31   4
  -2  -3 -16 2411.89 815.869   6
  -2  -3 -16 1700.71 523.670   4
  -2  -3 -15 212.185 553.848   6
  -2  -3 -15 626.064 505.023   4
  -2  -3 -14 9634.67 1260.62   4
  -2  -3 -14 10822.5 1458.09   6
  -2  -3 -13 56315.2 3290.43   6
  -2  -3 -12 25740.7 2055.37   6
  -2  -3 -11-204.222 294.177   6
  -2  -3 -10 26845.0 1933.85   6
  -2  -3  -9 26820.0 1802.93   6
  -2  -3  -8 45653.4 2314.38   6
  -2  -3  -7 30865.6 1739.35   6
  -2  -3  -6 114333. 3780.67   6
  -2  -3  -5 467525. 11168.2   6
  -2  -3  -3 25006.6 763.284   4
  -2  -3   1 658.068 137.776   3
  -2  -3   2 26065.6 1104.29   3
  -2  -2 -20 1430.19 655.447   4
  -2  -2 -19 4496.23 1057.87   4
  -2  -2 -18 18873.0 2049.27   4
  -2  -2 -17 11624.3 1570.20   4
  -2  -2 -16 7113.59 1181.31   4
  -2  -2 -15 504.069 559.680   6
  -2  -2 -15 1983.77 615.432   4
  -2  -2 -14 4803.06 962.057   6
  -2  -2 -14 5178.37 926.960   4
  -2  -2 -13 22326.4 2028.17   6
  -2  -2 -13 21693.2 1838.31   4
  -2  -2 -12 55195.4 3117.80   6
  -2  -2 -12 52494.7 2837.09   4
  -2  -2 -11 496.999 282.376   4
  -2  -2 -11 1169.59 456.840   6
  -2  -2 -10 11479.8 1204.01   6
  -2  -2 -10 9787.35 1028.31   4
  -2  -2  -9 53432.2 2430.22   4
  -2  -2  -9 52848.8 2652.72   6
  -2  -2  -8 70789.9 2999.62   6
  -2  -2  -8 71441.0 2769.48   4
  -2  -2  -7 43318.3 2099.55   6
  -2  -2  -7 43510.4 1882.54   4
  -2  -2  -6 52770.9 2226.36   6
  -2  -2  -6 54872.7 2019.39   4
  -2  -2  -5 26954.6 1224.81   4
  -2  -2  -5 31782.0 1495.79   6
  -2  -2  -4 82199.2 2709.59   6
  -2  -2  -4 87407.6 2374.64   4
  -2  -2  -3 32737.2 1402.00   6
  -2  -2  -3 38397.8 1111.53   4
  -2  -2  -2 371.724 145.879   6
  -2  -2   1 103.987 70.1338   3
  -2  -2   2 25056.0 1033.06   3
  -2  -1 -19 194.969 527.438   4
  -2  -1 -18 3928.95 904.484   4
  -2  -1 -17 5912.79 1164.52   4
  -2  -1 -16 13433.2 1635.49   4
  -2  -1 -15 6722.68 1138.30   4
  -2  -1 -14 12461.3 1432.93   4
  -2  -1 -13 21372.4 1823.87   4
  -2  -1 -12 3410.76 797.876   6
  -2  -1 -12 3252.33 703.598   4
  -2  -1 -11 1335.79 517.126   6
  -2  -1 -11 737.898 432.970   4
  -2  -1 -10 1839.47 558.622   6
  -2  -1 -10 1469.42 430.989   4
  -2  -1  -9 47705.4 2502.09   6
  -2  -1  -9 43429.9 2234.23   4
  -2  -1  -8 156964. 5041.17   6
  -2  -1  -8 151268. 4751.66   4
  -2  -1  -7 6064.03 736.551   6
  -2  -1  -7 5425.21 628.954   4
  -2  -1  -6 162719. 4791.71   6
  -2  -1  -6 163295. 4577.76   4
  -2  -1  -5 896.992 228.289   4
  -2  -1  -5 898.817 260.087   6
  -2  -1  -4 51103.4 1757.88   4
  -2  -1  -4 51757.6 1894.38   6
  -2  -1  -3 39646.4 1507.91   6
  -2  -1  -3 47082.1 1464.62   4
  -2  -1  -2 28607.6 1025.71   4
  -2  -1  -2 30657.8 1089.22   6
  -2  -1  -1 398502. 8722.42   4
  -2  -1  -1 396028. 8723.26   6
  -2  -1   2 3330.69 365.687   3
  -2   0 -19-132.984 447.116   4
  -2   0 -18 182.627 550.015   4
  -2   0 -17 2883.20 834.720   4
  -2   0 -16 8931.07 1362.98   4
  -2   0 -15 690.904 490.479   4
  -2   0 -14 2885.05 740.295   4
  -2   0 -13 30040.8 2240.38   4
  -2   0 -12 17246.1 1605.04   4
  -2   0 -11 13174.5 1352.81   4
  -2   0 -10 64.1415 342.365   4
  -2   0  -9 58496.8 2744.52   4
  -2   0  -8 129217. 4384.54   4
  -2   0  -7 4257.41 597.093   4
  -2   0  -6 487.972 163.668   4
  -2   0  -6 1025.44 301.924   6
  -2   0  -5 43506.5 1844.28   6
  -2   0  -5 42915.7 1820.70   4
  -2   0  -4 109855. 3254.30   6
  -2   0  -4 111644. 3295.37   4
  -2   0  -3 130040. 3590.14   4
  -2   0  -3 136590. 3539.39   6
  -2   0  -2 99746.2 2551.97   6
  -2   0  -2 97322.3 2818.26   4
  -2   0  -1 24551.1 1055.62   4
  -2   0   0 24474.1 1053.67   4
  -2   0   2 3472.69 287.735   6
  -2   0   2 3127.12 343.135   2
  -2   0   3 221780. 5364.45   6
  -2   0   3 220698. 5470.16   2
  -2   0   4 143527. 3946.20   6
  -2   1 -18-433.949 571.921   4
  -2   1 -17 3741.74 1044.37   4
  -2   1 -16 17069.3 1973.87   4
  -2   1 -15 621.195 441.023   4
  -2   1 -14 4749.94 934.028   4
  -2   1 -13 2382.36 685.588   4
  -2   1 -12 10668.0 1328.42   4
  -2   1 -11 20239.1 1757.66   4
  -2   1 -10-211.172 331.909   4
  -2   1  -9 39936.4 2303.08   4
  -2   1  -8 33815.4 2010.40   4
  -2   1  -7 2984.71 542.133   4
  -2   1  -6 813.520 262.419   4
  -2   1  -5 23152.2 1353.15   4
  -2   1  -4 158294. 4421.14   4
  -2   1  -3 74228.1 2587.68   4
  -2   1  -2 32034.9 1463.83   4
  -2   1  -1 128302. 3672.68   4
  -2   1   0 22511.7 1137.65   4
  -2   1   1 46999.3 1813.73   4
  -2   1   2 5207.64 324.548   6
  -2   1   3 259950. 6030.32   6
  -2   1   4 80468.6 2499.87   6
  -2   1   4 84942.2 2408.36   2
  -2   1   5 29455.4 1161.12   2
  -2   1   6 6087.11 481.648   2
  -2   2 -17 6217.26 1353.78   4
  -2   2 -16 5124.67 1093.46   4
  -2   2 -15 1099.13 648.625   4
  -2   2 -14-284.451 390.641   4
  -2   2 -13 418.778 301.784   4
  -2   2 -12 14545.7 1602.05   4
  -2   2 -11 29619.3 2186.59   4
  -2   2 -10 6643.08 994.931   4
  -2   2  -9 93531.6 3954.88   4
  -2   2  -8 5017.10 812.966   4
  -2   2  -7 12294.4 1163.14   4
  -2   2  -6 3190.51 532.159   4
  -2   2  -5 19301.7 1302.48   4
  -2   2  -4 144658. 4567.85   4
  -2   2  -3 87.6074 167.461   4
  -2   2  -2 126.033 152.068   4
  -2   2  -1 1095.73 294.295   4
  -2   2   0 154021. 4491.46   4
  -2   2   1 199079. 5466.39   4
  -2   2   7 25619.7 956.878   2
  -2   2   8 142864. 3554.51   2
  -2   2   9 12995.0 694.922   2
  -2   3 -16 2213.01 782.000   4
  -2   3 -15 585.466 427.301   4
  -2   3 -14 942.427 687.338   4
  -2   3 -13 402.879 427.751   4
  -2   3 -12 14469.3 1660.49   4
  -2   3 -11 5793.30 1049.54   4
  -2   3 -10 576.901 413.478   4
  -2   3  -9 7423.30 1077.23   4
  -2   3  -8 7722.74 1004.34   4
  -2   3  -7 21576.8 1593.44   4
  -2   3  -6 9058.17 1039.25   4
  -2   3  -5 34089.8 2079.59   4
  -2   3  -4 58694.6 2716.78   4
  -2   3  -3 9609.59 965.508   4
  -2   3  -2 11875.8 1040.61   4
  -2   3  -1 6211.02 735.133   4
  -2   3   0 99268.3 3506.71   4
  -2   3   1 67691.1 2737.31   4
  -2   3   2 35657.8 1860.96   4
  -2   4 -15 76.1087 349.103   4
  -2   4 -14 1292.54 676.265   4
  -2   4 -13 638.681 344.611   4
  -2   4 -12 27371.5 2239.68   4
  -2   4 -11 6905.87 1113.00   4
  -2   4 -10 11563.7 1409.12   4
  -2   4  -9 212.574 264.800   4
  -2   4  -8 3981.95 829.580   4
  -2   4  -7 16097.0 1560.67   4
  -2   4  -6 729.399 496.353   4
  -2   4  -5 34603.5 2237.84   4
  -2   4  -4 13550.2 1314.04   4
  -2   4  -3 13737.7 1262.97   4
  -2   4  -2 22505.7 1609.47   4
  -2   4  -1 7857.35 929.057   4
  -2   4   0 121712. 4294.52   4
  -2   4   1 9756.63 1023.76   4
  -2   4   2 320.264 276.337   4
  -2   5 -13 1726.03 768.351   4
  -2   5 -12 1896.62 737.142   4
  -2   5 -11 2689.81 813.341   4
  -2   5 -10 2337.92 803.999   4
  -2   5  -9 687.027 469.606   4
  -2   5  -8 12490.1 1552.60   4
  -2   5  -7 17829.3 1775.57   4
  -2   5  -6-155.849 411.495   4
  -2   5  -5 5839.32 928.694   4
  -2   5  -4 15963.9 1547.92   4
  -2   5  -3 6870.29 947.325   4
  -2   5  -2 13275.9 1352.80   4
  -2   5  -1 16904.4 1469.89   4
  -2   5   0 49457.0 2639.06   4
  -2   5   1 1061.79 353.889   4
  -2   5   2 532.848 344.123   4
  -2   6 -12 6277.88 1325.42   4
  -2   6 -11 1201.83 605.626   4
  -2   6 -10 156.643 497.847   4
  -2   6  -9-51.6721 349.524   4
  -2   6  -8 7913.56 1325.15   4
  -2   6  -7 5561.99 1070.74   4
  -2   6  -6 371.533 530.808   4
  -2   6  -5 324.452 463.699   4
  -2   6  -4 3349.67 913.222   4
  -2   6  -3 19300.3 1806.57   4
  -2   6  -2 3061.60 707.545   4
  -2   6  -1 20591.2 1813.07   4
  -2   6   0 11038.9 1238.43   4
  -2   6   1 21846.6 1803.00   4
  -2   6   2 8535.43 1130.21   4
  -2   7 -10 2111.87 775.830   4
  -2   7  -9-278.938 463.324   4
  -2   7  -8 3923.05 1013.58   4
  -2   7  -7 1816.63 758.268   4
  -2   7  -6 514.386 467.425   4
  -2   7  -5 680.418 576.728   4
  -2   7  -4 1976.63 650.975   4
  -2   7  -3 18180.0 1927.06   4
  -2   7  -2 661.137 474.136   4
  -2   7  -1 9421.52 1292.78   4
  -2   7   0-4.56248 364.786   4
  -2   7   1-176.381 343.380   4
  -2   7   2 40970.8 2751.25   4
  -2   8  -7 1055.03 555.914   4
  -2   8  -6 1802.32 777.949   4
  -2   8  -5 747.106 648.217   4
  -2   8  -4 6036.62 1188.50   4
  -2   8  -3 7340.97 1290.80   4
  -2   8  -2 417.612 490.956   4
  -2   8  -1 672.326 447.629   4
  -2   8   0 3582.46 889.520   4
  -2   8   1 15973.8 1792.34   4
  -2   8   2-161.774 326.167   4
  -2   9  -4 5258.36 1144.09   4
  -2   9  -3 1472.04 646.118   4
  -2   9  -2 805.686 541.765   4
  -2   9  -1-269.543 487.411   4
  -2   9   0 2088.68 870.567   4
  -2   9   1 20547.4 2177.76   4
  -2  10   0 5749.89 1267.30   4
  -2  10   1 1099.28 618.843   4
  -1 -12  -9 5474.31 1187.98   6
  -1 -12  -8 212.543 584.491   6
  -1 -12  -7 2295.29 718.466   6
  -1 -12  -6 1589.87 666.924   6
  -1 -12  -5 149.492 389.494   6
  -1 -12  -4 2868.97 918.035   6
  -1 -12  -3-844.259 693.143   6
  -1 -12  -2 2871.13 942.284   6
  -1 -11 -13 4254.60 1207.78   6
  -1 -11 -12 1225.14 512.964   6
  -1 -11 -11-1065.46 598.565   6
  -1 -11 -10 5824.68 1178.84   6
  -1 -11  -9 5390.44 1152.82   6
  -1 -11  -8 624.587 538.951   6
  -1 -11  -7 3257.72 938.077   6
  -1 -11  -6-75.7014 429.670   6
  -1 -11  -5 7962.05 1363.81   6
  -1 -11  -4-77.8468 587.130   6
  -1 -11  -3 1053.85 657.646   6
  -1 -10 -16 399.476 467.469   6
  -1 -10 -15 1064.96 606.166   6
  -1 -10 -14 2740.53 1009.79   6
  -1 -10 -13 4599.81 1132.26   6
  -1 -10 -12 6213.15 1256.85   6
  -1 -10 -11-56.7422 366.704   6
  -1 -10 -10 22051.7 2219.89   6
  -1 -10  -9 5993.65 1172.65   6
  -1 -10  -8 1399.26 528.120   6
  -1 -10  -7 3048.12 860.509   6
  -1 -10  -6-402.133 572.902   6
  -1 -10  -5 21175.4 2067.82   6
  -1 -10  -4 586.300 526.501   6
  -1  -9 -17 12124.9 1905.77   6
  -1  -9 -16 1546.98 841.411   6
  -1  -9 -15 2392.20 835.829   6
  -1  -9 -14 9888.05 1574.66   6
  -1  -9 -13 3246.86 966.999   6
  -1  -9 -12 7346.13 1271.65   6
  -1  -9 -11 7281.26 1055.24   3
  -1  -9 -11 7473.56 1296.02   6
  -1  -9 -10 22217.8 1761.68   3
  -1  -9 -10 18907.6 1933.76   6
  -1  -9  -9 2533.47 577.887   3
  -1  -9  -9 2568.10 679.651   6
  -1  -9  -8 407.160 189.871   3
  -1  -9  -8 207.916 419.134   6
  -1  -9  -7 7720.67 896.466   3
  -1  -9  -7 7432.08 1200.19   6
  -1  -9  -6 20745.6 1471.01   3
  -1  -9  -6 22695.8 2013.85   6
  -1  -9  -5 16869.2 1291.88   3
  -1  -9  -5 17630.7 1775.61   6
  -1  -9  -4 490.514 225.129   3
  -1  -9  -4 885.727 480.459   6
  -1  -9  -3 1045.79 342.710   3
  -1  -9  -2 10692.3 1032.49   3
  -1  -8 -19 515.153 534.311   3
  -1  -8 -18 13364.7 2020.64   6
  -1  -8 -18 9594.35 1534.21   3
  -1  -8 -17 4866.73 1267.49   6
  -1  -8 -17 5486.10 1134.81   3
  -1  -8 -16 414.022 403.709   3
  -1  -8 -16 1244.39 666.363   6
  -1  -8 -15 1659.18 724.356   6
  -1  -8 -15 248.962 286.867   3
  -1  -8 -14 5700.40 1191.72   6
  -1  -8 -14 5182.36 966.807   3
  -1  -8 -13 36278.6 2520.45   3
  -1  -8 -13 36990.8 2850.44   6
  -1  -8 -12 14052.4 1675.03   6
  -1  -8 -12 15128.7 1554.19   3
  -1  -8 -11 5853.83 927.768   3
  -1  -8 -11 5283.62 1068.58   6
  -1  -8 -10 11712.4 1454.42   6
  -1  -8 -10 16211.4 1438.53   3
  -1  -8  -9 31632.4 2341.79   6
  -1  -8  -9 34602.7 2048.67   3
  -1  -8  -8 3560.31 783.307   6
  -1  -8  -8 3636.29 614.424   3
  -1  -8  -7 208.190 305.300   6
  -1  -8  -7 103.697 155.636   3
  -1  -8  -6 49751.5 2912.42   6
  -1  -8  -6 48816.2 2264.81   3
  -1  -8  -5 19249.7 1297.28   3
  -1  -8  -5 20338.7 1750.77   6
  -1  -8  -4 7422.31 1049.85   6
  -1  -8  -4 6800.79 758.058   3
  -1  -8  -3 84.9136 188.065   3
  -1  -8  -2 5055.88 648.726   3
  -1  -7 -20 5483.37 1229.56   3
  -1  -7 -19 1507.37 769.843   3
  -1  -7 -19 1631.09 765.010   6
  -1  -7 -18 11611.9 1633.85   3
  -1  -7 -18 14887.7 2024.33   6
  -1  -7 -17 11535.1 1749.50   6
  -1  -7 -17 9759.84 1462.34   3
  -1  -7 -16 4574.25 1112.37   6
  -1  -7 -16 5239.53 1066.59   3
  -1  -7 -15-482.526 467.152   3
  -1  -7 -15-292.281 494.350   6
  -1  -7 -14 6921.16 1197.52   6
  -1  -7 -14 7027.33 1100.44   3
  -1  -7 -13 51626.2 3347.15   6
  -1  -7 -13 57677.2 3223.15   3
  -1  -7 -12 1796.94 664.273   6
  -1  -7 -12 965.594 423.215   3
  -1  -7 -11 11164.1 1419.18   6
  -1  -7 -11 11261.4 1252.89   3
  -1  -7 -10 4107.06 752.706   3
  -1  -7 -10 3606.24 724.117   6
  -1  -7  -9 277.487 257.882   6
  -1  -7  -9 2007.02 524.717   3
  -1  -7  -8 108496. 4477.90   6
  -1  -7  -8 110380. 3918.97   3
  -1  -7  -7 2419.75 459.301   3
  -1  -7  -7 2422.46 627.583   6
  -1  -7  -6 40404.3 2436.89   6
  -1  -7  -6 41452.4 1928.93   3
  -1  -7  -5 21962.5 1718.31   6
  -1  -7  -5 23557.8 1355.57   3
  -1  -7  -4 18991.2 1559.91   6
  -1  -7  -4 18946.9 1175.43   3
  -1  -7  -3 499.795 189.757   3
  -1  -7  -2 25217.2 1411.82   3
  -1  -6 -20 4709.37 1164.79   3
  -1  -6 -19 3932.05 1021.35   3
  -1  -6 -19 5231.93 1275.50   6
  -1  -6 -18 1966.12 776.396   6
  -1  -6 -18 2938.97 878.797   3
  -1  -6 -17 10407.2 1631.02   6
  -1  -6 -17 8823.73 1401.64   3
  -1  -6 -16 11062.5 1651.10   6
  -1  -6 -16 10671.1 1460.98   3
  -1  -6 -15 1967.72 682.695   6
  -1  -6 -15 3268.92 834.066   3
  -1  -6 -14 24431.4 2095.29   3
  -1  -6 -14 23142.1 2199.85   6
  -1  -6 -13 37752.2 2726.57   6
  -1  -6 -13 36918.3 2538.51   3
  -1  -6 -12 7175.73 1020.02   3
  -1  -6 -12 7728.88 1163.12   6
  -1  -6 -11 125.615 289.866   6
  -1  -6 -11 193.372 243.052   3
  -1  -6 -10 47734.1 2505.26   3
  -1  -6 -10 44337.1 2689.22   6
  -1  -6  -9 75657.5 3164.85   3
  -1  -6  -9 75604.7 3498.66   6
  -1  -6  -8 37864.9 2293.98   6
  -1  -6  -8 42334.9 2107.66   3
  -1  -6  -7 14511.5 1089.48   3
  -1  -6  -7 14492.0 1339.22   6
  -1  -6  -6 11344.6 883.060   3
  -1  -6  -6 10518.9 1090.57   6
  -1  -6  -6 10007.2 456.897   1
  -1  -6  -5 33757.5 1224.17   1
  -1  -6  -5 33734.9 2017.79   6
  -1  -6  -5 35403.3 1579.95   3
  -1  -6  -4 29935.7 1825.49   6
  -1  -6  -4 28954.2 1363.73   3
  -1  -6  -3 4195.95 475.089   3
  -1  -5 -20 3219.85 902.148   3
  -1  -5 -20 3651.94 1151.26   6
  -1  -5 -19 184.234 488.379   6
  -1  -5 -19 307.077 370.620   3
  -1  -5 -18 7769.37 1315.98   3
  -1  -5 -18 6290.64 1297.67   6
  -1  -5 -17 13412.0 1697.62   3
  -1  -5 -17 11960.1 1730.79   6
  -1  -5 -16 19916.3 1995.73   3
  -1  -5 -16 19659.9 2135.38   6
  -1  -5 -15 1102.67 633.698   6
  -1  -5 -15 1556.73 653.605   3
  -1  -5 -14 55338.8 3257.97   3
  -1  -5 -14 55448.5 3490.95   6
  -1  -5 -13 29096.1 2308.81   6
  -1  -5 -13 28688.6 2192.11   3
  -1  -5 -12 2899.31 585.103   3
  -1  -5 -12 3862.09 824.828   6
  -1  -5 -11 767.116 460.569   6
  -1  -5 -11 700.842 270.579   3
  -1  -5 -10 31525.4 1988.39   3
  -1  -5 -10 32082.1 2145.82   6
  -1  -5  -9 231210. 6782.54   3
  -1  -5  -9 238624. 7222.96   6
  -1  -5  -8 45812.4 2149.18   3
  -1  -5  -8 42512.2 2351.57   6
  -1  -5  -7 1125.64 327.439   6
  -1  -5  -7 1947.72 432.511   3
  -1  -5  -6 9392.61 774.039   3
  -1  -5  -5 58018.5 1633.48   1
  -1  -5  -5 57582.5 2071.13   3
  -1  -5  -4 109821. 3156.08   3
  -1  -5  -4 111310. 2919.08   1
  -1  -5  -3 826.538 191.217   3
  -1  -5  -2 100114. 2861.35   3
  -1  -4 -21 10757.9 1637.69   4
  -1  -4 -20 195.603 494.840   6
  -1  -4 -19 2796.63 1057.41   6
  -1  -4 -19 1092.07 580.430   3
  -1  -4 -18 463.061 576.143   6
  -1  -4 -18 799.596 585.508   3
  -1  -4 -17 16824.2 2068.59   6
  -1  -4 -17 17983.8 2014.91   3
  -1  -4 -16 30098.9 2664.85   6
  -1  -4 -16 34988.1 2636.28   3
  -1  -4 -15 901.144 516.998   6
  -1  -4 -15 172.014 354.350   3
  -1  -4 -14 25438.5 2224.16   6
  -1  -4 -14 25283.4 2123.61   3
  -1  -4 -13 34301.8 2388.26   3
  -1  -4 -13 34449.6 2529.37   6
  -1  -4 -12 21108.7 1766.80   3
  -1  -4 -12 22857.0 1934.94   6
  -1  -4 -11 6754.09 947.678   6
  -1  -4 -11 7749.08 964.782   3
  -1  -4 -10 36126.8 2174.42   3
  -1  -4 -10 37495.3 2297.96   6
  -1  -4  -9 88715.4 3721.06   6
  -1  -4  -9 99945.4 3713.09   3
  -1  -4  -8 2256.10 441.621   3
  -1  -4  -7 649.676 229.245   3
  -1  -4  -6 18114.6 1096.27   3
  -1  -4  -5 108484. 3180.98   3
  -1  -4  -4 233104. 5301.56   1
  -1  -4  -4 229613. 5612.15   3
  -1  -4  -3 1394.34 196.749   1
  -1  -4  -3 1382.69 203.404   3
  -1  -4  -2 31805.3 1127.33   3
  -1  -3 -20 2786.47 921.265   4
  -1  -3 -19 505.902 530.254   4
  -1  -3 -18 2543.49 923.763   6
  -1  -3 -17 33967.0 2903.84   6
  -1  -3 -17 33826.3 2711.96   3
  -1  -3 -16 26493.0 2318.42   3
  -1  -3 -16 29639.0 2609.37   6
  -1  -3 -15 1719.47 632.437   6
  -1  -3 -15 633.901 332.846   3
  -1  -3 -14 8073.34 1185.36   3
  -1  -3 -14 8605.29 1286.46   6
  -1  -3 -13 16666.5 1716.20   6
  -1  -3 -13 18739.8 1726.82   3
  -1  -3 -12 10587.3 1264.63   3
  -1  -3 -12 10524.4 1287.67   6
  -1  -3 -11 106229. 4391.66   6
  -1  -3 -11 101997. 4196.38   3
  -1  -3 -10 108472. 4139.92   3
  -1  -3 -10 107708. 4291.73   6
  -1  -3  -9 100723. 3801.73   3
  -1  -3  -8 51189.8 2362.33   3
  -1  -3  -7 56772.2 2364.39   3
  -1  -3  -6 1024.40 239.917   3
  -1  -3  -5 337247. 8089.32   3
  -1  -3  -4 97934.4 2773.81   3
  -1  -3  -4 100122. 2806.42   2
  -1  -3  -3 450.443 112.485   4
  -1  -3  -3 429.066 102.272   3
  -1  -3  -3 275.791 95.2650   2
  -1  -3  -3 511.980 106.472   1
  -1  -3  -2 38451.9 1275.94   1
  -1  -3  -2 39522.4 1530.09   5
  -1  -3  -2 39962.4 1129.14   3
  -1  -3  -2 37762.3 1253.08   4
  -1  -3  -1 100334. 2547.09   4
  -1  -3   0 20051.0 870.431   4
  -1  -3   1 65157.0 1926.48   3
  -1  -3   1 60797.6 1981.64   4
  -1  -3   2 28062.3 1254.62   3
  -1  -2 -20 2983.76 885.955   4
  -1  -2 -19 11770.3 1688.75   4
  -1  -2 -18 2596.52 828.262   4
  -1  -2 -17 31622.6 2580.88   4
  -1  -2 -16 12997.0 1616.13   4
  -1  -2 -16 13042.6 1758.97   6
  -1  -2 -15-20.5339 374.980   6
  -1  -2 -15 255.447 321.147   3
  -1  -2 -14 4204.03 972.489   6
  -1  -2 -14 3125.37 767.605   3
  -1  -2 -13 4408.07 847.516   3
  -1  -2 -13 4887.25 984.334   6
  -1  -2 -12 71653.8 3534.77   3
  -1  -2 -12 81261.9 3846.91   6
  -1  -2 -11 3011.08 631.876   3
  -1  -2 -11 3803.27 745.738   6
  -1  -2 -10 42660.9 2355.99   3
  -1  -2 -10 43557.4 2465.41   6
  -1  -2  -9 33514.6 1948.84   3
  -1  -2  -8 30875.3 1756.76   3
  -1  -2  -7 25876.5 1496.30   3
  -1  -2  -6 705.705 234.597   3
  -1  -2  -5 214993. 5572.41   3
  -1  -2  -4 24023.8 1077.42   3
  -1  -2  -3 2831.73 319.242   2
  -1  -2  -3 2687.43 266.762   3
  -1  -2  -2 42258.4 1188.57   3
  -1  -2  -2 43603.5 1313.56   1
  -1  -2  -1 40247.9 1280.50   1
  -1  -2  -1 39381.3 1035.81   4
  -1  -2   0 646531. 13800.6   4
  -1  -2   1 522820. 11430.9   3
  -1  -2   2 610353. 13543.9   3
  -1  -2   3 120799. 3507.91   3
  -1  -1 -20 3639.13 1028.45   4
  -1  -1 -19 5918.00 1272.61   4
  -1  -1 -18 3917.27 1028.60   4
  -1  -1 -17 15002.8 1835.49   4
  -1  -1 -16 4535.90 983.585   4
  -1  -1 -15 2196.71 646.121   4
  -1  -1 -14 6408.23 1027.75   4
  -1  -1 -13 12170.4 1374.71   4
  -1  -1 -13 11707.6 1482.67   6
  -1  -1 -12 125534. 4939.61   4
  -1  -1 -12 145929. 5513.62   6
  -1  -1 -11 214.417 299.314   6
  -1  -1 -10 5357.07 842.510   6
  -1  -1 -10 4957.36 759.507   3
  -1  -1  -9 16226.0 1335.07   3
  -1  -1  -8 121258. 4119.18   3
  -1  -1  -7 149097. 4586.23   3
  -1  -1  -6 262584. 6837.59   3
  -1  -1  -5 151391. 4230.74   3
  -1  -1  -4 149785. 3978.02   3
  -1  -1  -2 287.434 67.7474   4
  -1  -1   1 3285.34 244.238   3
  -1  -1   2 35683.2 1240.14   3
  -1  -1   3 173844. 4483.23   3
  -1   0 -19 1700.90 766.956   4
  -1   0 -18 5693.49 1132.52   4
  -1   0 -17 8951.35 1371.57   4
  -1   0 -16 6359.03 1102.63   4
  -1   0 -15 1210.57 655.165   4
  -1   0 -14 7302.80 1107.61   4
  -1   0 -13 37685.8 2553.06   4
  -1   0 -12 45815.5 2727.10   4
  -1   0 -11 2191.91 562.153   4
  -1   0 -10 1418.96 445.749   4
  -1   0  -9 7037.99 851.757   4
  -1   0  -8 65734.1 2836.93   6
  -1   0  -8 55853.4 2542.09   4
  -1   0  -7 54720.9 2348.66   4
  -1   0  -6 22808.4 1307.40   4
  -1   0  -5 38365.8 1626.42   4
  -1   0  -4 126661. 3501.08   4
  -1   0  -3 54078.5 1751.16   4
  -1   0  -2 19465.6 796.346   4
  -1   0  -1 116985. 2844.13   4
  -1   0   0 581303. 12478.6   4
  -1   0   2 99919.3 2584.82   6
  -1   0   3 103910. 2880.00   6
  -1   0   4 276100. 6483.03   5
  -1   0   5 56318.2 1842.22   5
  -1   0   6 77732.5 2408.45   5
  -1   1 -18 953.146 530.419   4
  -1   1 -17 3180.21 902.613   4
  -1   1 -16 11781.9 1578.52   4
  -1   1 -15 3069.85 804.686   4
  -1   1 -14 307.506 401.505   4
  -1   1 -13 26734.9 2120.84   4
  -1   1 -12 5820.68 976.608   4
  -1   1 -11 4925.95 803.136   4
  -1   1 -10 717.194 324.916   4
  -1   1  -9 39060.9 2203.45   4
  -1   1  -8 256527. 7247.48   4
  -1   1  -7 2165.14 426.598   4
  -1   1  -6 479.122 225.556   4
  -1   1  -5 23648.5 1322.70   4
  -1   1  -4 77488.1 2588.26   4
  -1   1  -3 88502.1 2694.37   4
  -1   1  -2 6929.72 512.010   4
  -1   1  -1 378048. 8606.13   4
  -1   1   0 142617. 3628.42   4
  -1   1   1 286884. 6694.58   4
  -1   1   2 925.707 143.643   6
  -1   1   3 1634.87 229.833   6
  -1   1   3 1526.73 199.114   1
  -1   1   3 1189.65 124.803   2
  -1   1   4 270814. 6773.43   6
  -1   1   4 287899. 6508.92   1
  -1   1   5 27001.3 1098.61   1
  -1   1  10 3855.83 426.834   5
  -1   2 -18 563.583 605.083   4
  -1   2 -17 1786.17 660.135   4
  -1   2 -16 2081.42 821.163   4
  -1   2 -15 20616.6 2093.17   4
  -1   2 -14 764.015 498.268   4
  -1   2 -13 15736.4 1693.28   4
  -1   2 -12 11800.2 1412.17   4
  -1   2 -11 13299.2 1440.83   4
  -1   2 -10 7118.80 991.187   4
  -1   2  -9 32300.6 2076.70   4
  -1   2  -8 56872.2 2748.23   4
  -1   2  -7 11594.8 1082.54   4
  -1   2  -6 6603.39 766.714   4
  -1   2  -5 14016.0 1062.62   4
  -1   2  -4 90046.2 3064.86   4
  -1   2  -3 38635.9 1644.52   4
  -1   2  -2 1085.65 252.640   4
  -1   2  -1 48235.1 1814.50   4
  -1   2   0 105677. 3092.07   4
  -1   2   1 84972.1 2614.02   4
  -1   2   3 203721. 5047.46   6
  -1   2   5 25106.8 979.872   1
  -1   2   6 61288.2 1883.23   1
  -1   2   7 19254.9 921.822   1
  -1   3 -17 3868.55 1072.60   4
  -1   3 -16 3844.89 1042.13   4
  -1   3 -15 2156.70 628.082   4
  -1   3 -14 422.244 325.163   4
  -1   3 -13 1354.03 608.714   4
  -1   3 -12 8272.32 1195.64   4
  -1   3 -11 16933.2 1688.49   4
  -1   3 -10 5275.05 906.318   4
  -1   3  -9 59401.2 3051.86   4
  -1   3  -8 1541.84 453.004   4
  -1   3  -7 8743.17 990.399   4
  -1   3  -6 2778.64 563.843   4
  -1   3  -5 14335.1 1162.29   4
  -1   3  -4 109520. 3570.58   4
  -1   3  -3 113974. 3709.59   4
  -1   3  -2 10036.7 872.312   4
  -1   3  -1 11537.4 899.621   4
  -1   3   0 85040.2 2857.90   4
  -1   3   1 47571.4 1943.63   4
  -1   3   2 11657.2 886.334   4
  -1   3   8 160386. 4014.59   1
  -1   3   9 15149.6 809.989   1
  -1   4 -16 6656.90 1283.64   4
  -1   4 -15 2410.33 837.558   4
  -1   4 -14-244.777 386.510   4
  -1   4 -13-57.4521 379.801   4
  -1   4 -12 10909.4 1446.52   4
  -1   4 -11 23733.8 2078.68   4
  -1   4 -10 2417.95 670.435   4
  -1   4  -9 10179.4 1267.72   4
  -1   4  -8 6288.07 917.148   4
  -1   4  -7 23261.3 1737.14   4
  -1   4  -6 10585.4 1039.42   4
  -1   4  -5 20547.3 1479.91   4
  -1   4  -4 32685.5 1925.76   4
  -1   4  -3 11603.3 1076.74   4
  -1   4  -2 25231.1 1574.58   4
  -1   4  -1 2057.71 405.610   4
  -1   4   0 84620.8 3106.63   4
  -1   4   1 98795.0 3402.17   4
  -1   4   2 7032.13 753.619   4
  -1   5 -14 1745.18 709.448   4
  -1   5 -13 428.237 500.685   4
  -1   5 -12 2583.54 789.774   4
  -1   5 -11 10544.7 1389.73   4
  -1   5 -10 1654.65 600.916   4
  -1   5  -9-363.669 284.903   4
  -1   5  -8 4599.07 855.628   4
  -1   5  -7 24214.7 1917.51   4
  -1   5  -6 10085.2 1222.38   4
  -1   5  -5 10478.2 1161.54   4
  -1   5  -4 44760.0 2493.60   4
  -1   5  -3 2429.16 514.492   4
  -1   5  -2 2814.23 559.208   4
  -1   5  -1 8674.79 949.574   4
  -1   5   0 73314.5 3064.03   4
  -1   5   1 52488.8 2458.80   4
  -1   5   2-75.6489 240.400   4
  -1   5   3-31.9798 321.772   4
  -1   6 -13 1732.58 816.126   4
  -1   6 -12 15725.9 1943.14   4
  -1   6 -11 596.527 438.478   4
  -1   6 -10 408.216 450.662   4
  -1   6  -9 1363.78 612.692   4
  -1   6  -8 4872.72 928.996   4
  -1   6  -7 23122.1 2048.71   4
  -1   6  -6 148.048 349.601   4
  -1   6  -5 4278.01 862.711   4
  -1   6  -4 1503.95 571.247   4
  -1   6  -3 29084.6 2030.21   4
  -1   6  -2 24113.4 1806.15   4
  -1   6  -1 3973.82 710.394   4
  -1   6   0 46482.7 2534.96   4
  -1   6   1 10455.2 1141.41   4
  -1   6   2 195.430 276.792   4
  -1   6   3 5661.54 813.952   4
  -1   7 -11 618.650 412.054   4
  -1   7 -10 3809.47 1090.08   4
  -1   7  -9 1084.13 604.258   4
  -1   7  -8 6639.28 1233.80   4
  -1   7  -7 8934.89 1364.41   4
  -1   7  -6 489.286 451.990   4
  -1   7  -5 4276.72 873.383   4
  -1   7  -4 1896.71 649.208   4
  -1   7  -3 15405.4 1586.06   4
  -1   7  -2 9988.33 1293.57   4
  -1   7  -1 10035.9 1233.94   4
  -1   7   0 12282.1 1305.42   4
  -1   7   1 528.419 361.889   4
  -1   7   2 13420.7 1418.75   4
  -1   7   3-345.168 363.031   4
  -1   8  -9-950.299 564.472   4
  -1   8  -8 3949.36 1067.58   4
  -1   8  -7 2374.02 794.347   4
  -1   8  -6 123.233 416.080   4
  -1   8  -5 1499.26 630.034   4
  -1   8  -4 1178.07 522.742   4
  -1   8  -3 17391.6 1851.53   4
  -1   8  -2 2010.49 665.005   4
  -1   8  -1 2054.73 722.857   4
  -1   8   0 5195.97 895.730   4
  -1   8   1 6163.66 1074.40   4
  -1   8   2 15139.0 1574.12   4
  -1   8   3 358.216 340.266   4
  -1   9  -7 1536.82 693.133   4
  -1   9  -6-201.629 403.204   4
  -1   9  -5 1443.90 645.303   4
  -1   9  -4 2406.21 767.623   4
  -1   9  -3 9131.36 1390.82   4
  -1   9  -2 329.487 372.258   4
  -1   9  -1 1508.00 597.768   4
  -1   9   0 4786.43 971.890   4
  -1   9   1 9019.64 1339.52   4
  -1   9   2 11684.0 1468.83   4
  -1  10  -4 2358.73 825.787   4
  -1  10  -3 1143.82 592.891   4
  -1  10  -2 2147.57 783.416   4
  -1  10  -1 512.139 562.599   4
  -1  10   0 2030.16 797.214   4
  -1  10   1 4945.85 1107.33   4
  -1  10   2 1506.19 717.251   4
  -1  11   0 1120.34 723.073   4
  -1  11   1 4199.99 1043.42   4
   0 -12  -8 691.370 528.969   6
   0 -12  -7 2071.88 811.816   6
   0 -12  -6 3036.93 861.733   6
   0 -12  -5-737.442 624.053   6
   0 -12  -4 1169.43 703.878   6
   0 -12  -3 75.1337 456.698   6
   0 -12  -2 2953.82 931.739   6
   0 -11 -13 5591.21 1292.36   6
   0 -11 -12 1294.14 730.488   6
   0 -11 -11 702.121 582.454   6
   0 -11 -10 329.893 453.903   6
   0 -11  -9 7585.96 1345.96   6
   0 -11  -8 3225.44 926.950   6
   0 -11  -7 2355.98 818.607   6
   0 -11  -6 4706.53 1035.87   6
   0 -11  -5 437.490 448.629   6
   0 -11  -4 1806.74 733.189   6
   0 -11  -3-804.891 534.991   6
   0 -11  -2 7085.37 1266.17   6
   0 -10 -15 2074.37 912.667   6
   0 -10 -14 1915.18 690.461   6
   0 -10 -13 6316.94 1303.00   6
   0 -10 -12 1478.97 620.338   6
   0 -10 -11 242.744 436.025   6
   0 -10 -10 6558.37 1282.29   6
   0 -10  -9 10859.2 1519.15   6
   0 -10  -8-411.184 355.585   6
   0 -10  -7 6294.38 1158.35   6
   0 -10  -7 6863.46 1009.96   3
   0 -10  -6 476.206 385.552   6
   0 -10  -6 347.903 309.967   3
   0 -10  -5 2609.01 602.837   3
   0 -10  -5 3224.64 833.614   6
   0 -10  -4 9451.51 1370.26   6
   0 -10  -4 8705.84 1095.96   3
   0 -10  -3 991.302 396.650   6
   0 -10  -3 645.188 321.700   3
   0 -10  -2 11141.3 1283.64   3
   0 -10  -1 4135.33 802.658   3
   0  -9 -17 11817.9 1903.34   6
   0  -9 -17 9366.82 1528.27   3
   0  -9 -16 5850.07 1314.78   6
   0  -9 -16 4813.71 1116.77   3
   0  -9 -15 2066.11 743.356   3
   0  -9 -15 3146.97 895.332   6
   0  -9 -14 21176.6 2307.33   6
   0  -9 -14 20854.3 2067.70   3
   0  -9 -13 3787.04 915.078   3
   0  -9 -13 2259.69 770.274   6
   0  -9 -12 1625.93 572.114   3
   0  -9 -12 934.317 473.979   6
   0  -9 -11 961.558 454.331   3
   0  -9 -11 1897.64 722.118   6
   0  -9 -10 13424.7 1639.55   6
   0  -9 -10 12084.3 1385.45   3
   0  -9  -9 17379.4 1808.15   6
   0  -9  -9 18985.9 1664.65   3
   0  -9  -8 792.237 459.467   3
   0  -9  -8 876.870 551.854   6
   0  -9  -7 2779.93 720.394   6
   0  -9  -7 3267.01 641.897   3
   0  -9  -6 2058.22 638.380   6
   0  -9  -6 1871.17 473.763   3
   0  -9  -5 15079.2 1634.75   6
   0  -9  -5 13885.4 1331.08   3
   0  -9  -4 17739.5 1769.56   6
   0  -9  -4 16156.1 1451.19   3
   0  -9  -3 1174.01 414.860   3
   0  -9  -2 7500.67 962.032   3
   0  -8 -19-430.353 471.196   3
   0  -8 -18 1588.81 668.559   3
   0  -8 -18 1312.93 871.073   6
   0  -8 -17 21157.2 2291.48   3
   0  -8 -17 23177.2 2539.35   6
   0  -8 -16 916.942 531.317   6
   0  -8 -16 1490.14 758.519   3
   0  -8 -15-386.295 489.475   6
   0  -8 -15 36.0879 367.208   3
   0  -8 -14 3721.16 941.789   3
   0  -8 -14 3324.98 927.427   6
   0  -8 -13 9275.67 1416.38   6
   0  -8 -13 9485.18 1354.31   3
   0  -8 -12 22565.6 1973.46   3
   0  -8 -12 20494.5 2080.62   6
   0  -8 -11 513.557 258.445   3
   0  -8 -11 1676.74 620.843   6
   0  -8 -10 20933.9 1968.89   6
   0  -8 -10 18052.2 1622.58   3
   0  -8  -9 22624.4 1967.96   6
   0  -8  -9 23088.7 1771.55   3
   0  -8  -8 162.555 229.299   3
   0  -8  -8-1186.48 564.812   6
   0  -8  -7 6544.86 1055.41   6
   0  -8  -7 5432.85 803.128   3
   0  -8  -6 1601.94 535.727   6
   0  -8  -6 1732.91 443.799   3
   0  -8  -5 46549.4 2407.73   3
   0  -8  -5 47888.4 2810.30   6
   0  -8  -4 10431.9 1093.54   3
   0  -8  -4 9227.52 1187.31   6
   0  -8  -3 5049.26 737.456   3
   0  -7 -20 1581.54 757.314   3
   0  -7 -19 2343.45 780.902   3
   0  -7 -19 2583.47 960.330   6
   0  -7 -18 8707.89 1686.11   6
   0  -7 -18 7257.72 1350.39   3
   0  -7 -17 20235.5 2376.16   6
   0  -7 -17 19578.5 2153.70   3
   0  -7 -16 6657.48 1306.13   6
   0  -7 -16 4291.18 1015.86   3
   0  -7 -15 6288.22 1127.32   3
   0  -7 -15 5726.89 1178.64   6
   0  -7 -14 1552.79 509.574   3
   0  -7 -14 1546.31 627.348   6
   0  -7 -13 11106.4 1509.80   6
   0  -7 -13 13045.4 1507.76   3
   0  -7 -12 21412.9 1868.59   3
   0  -7 -12 19928.1 1971.58   6
   0  -7 -11 5346.98 884.489   3
   0  -7 -11 6636.17 1121.88   6
   0  -7 -10 30219.0 2045.51   3
   0  -7 -10 31278.2 2312.71   6
   0  -7  -9 9881.84 1097.77   3
   0  -7  -9 9391.94 1219.60   6
   0  -7  -8 9000.38 1108.19   6
   0  -7  -8 9259.95 1020.32   3
   0  -7  -7 7032.66 983.563   6
   0  -7  -7 7250.18 876.326   3
   0  -7  -6 11538.2 1247.04   6
   0  -7  -6 10764.0 1022.17   3
   0  -7  -5 50517.2 2371.95   3
   0  -7  -5 50457.0 2730.39   6
   0  -7  -4 17697.6 1482.54   6
   0  -7  -4 14181.1 1171.27   3
   0  -7  -3 453.957 161.599   3
   0  -6 -20 6199.32 1298.94   3
   0  -6 -19 2514.77 1009.48   6
   0  -6 -19 480.785 407.396   3
   0  -6 -18 13436.7 1875.54   3
   0  -6 -18 13240.9 1975.75   6
   0  -6 -17 10771.8 1665.29   6
   0  -6 -17 7966.32 1374.33   3
   0  -6 -16 5255.47 1130.12   6
   0  -6 -16 3680.53 926.213   3
   0  -6 -15 634.320 464.656   6
   0  -6 -15 537.409 452.094   3
   0  -6 -14 2725.24 632.706   6
   0  -6 -14 3128.78 826.564   3
   0  -6 -13 66280.9 3732.81   6
   0  -6 -13 64834.1 3513.08   3
   0  -6 -12 27442.2 2257.74   6
   0  -6 -12 29561.6 2152.92   3
   0  -6 -11 3152.73 713.967   3
   0  -6 -11 2358.73 685.061   6
   0  -6 -10 35605.6 2172.70   3
   0  -6 -10 36035.6 2412.71   6
   0  -6  -9 9182.15 996.492   3
   0  -6  -9 8768.08 1095.83   6
   0  -6  -8 42236.6 2198.67   3
   0  -6  -8 42424.2 2435.43   6
   0  -6  -7 9140.24 915.754   3
   0  -6  -7 8862.72 1030.38   6
   0  -6  -6 39281.4 2225.39   6
   0  -6  -6 37654.5 1905.89   3
   0  -6  -5 67603.2 3009.95   6
   0  -6  -5 66730.0 2637.27   3
   0  -6  -4 16528.1 1344.57   6
   0  -6  -4 18593.9 1235.25   3
   0  -6  -3 7043.56 740.433   3
   0  -5 -20 18269.1 2410.36   6
   0  -5 -20 15633.0 2063.06   3
   0  -5 -19-845.757 644.957   6
   0  -5 -19 409.195 459.355   3
   0  -5 -18 8557.43 1545.23   6
   0  -5 -18 6831.71 1300.56   3
   0  -5 -17 18357.2 2160.00   6
   0  -5 -17 17122.8 1989.16   3
   0  -5 -16 2645.36 721.637   6
   0  -5 -16 1981.56 686.395   3
   0  -5 -15 5566.90 1108.79   6
   0  -5 -15 5315.93 1031.10   3
   0  -5 -14 10264.9 1385.18   3
   0  -5 -14 12788.7 1651.00   6
   0  -5 -13 60892.7 3300.13   3
   0  -5 -13 60419.7 3504.15   6
   0  -5 -12 4177.26 819.361   3
   0  -5 -12 4388.33 894.824   6
   0  -5 -11 4686.74 821.832   3
   0  -5 -11 4126.08 840.288   6
   0  -5 -10 2338.01 575.416   3
   0  -5 -10 2602.79 663.492   6
   0  -5  -9 22356.9 1732.23   6
   0  -5  -9 22874.6 1586.14   3
   0  -5  -8 78300.0 3120.74   3
   0  -5  -8 81102.6 3436.89   6
   0  -5  -7 1008.41 344.677   6
   0  -5  -7 1057.02 193.887   5
   0  -5  -7 1051.81 315.029   3
   0  -5  -6 25267.7 967.259   2
   0  -5  -6 28545.5 1734.62   6
   0  -5  -6 28837.5 1526.77   3
   0  -5  -5 99033.6 3668.23   6
   0  -5  -5 106500. 3388.83   3
   0  -5  -4 49785.2 2331.85   6
   0  -5  -4 56246.3 2179.63   3
   0  -5  -3 17805.9 1101.17   3
   0  -4 -20 7190.38 1586.31   6
   0  -4 -20 6033.11 1308.61   3
   0  -4 -19 143.124 421.897   6
   0  -4 -19 445.780 468.246   3
   0  -4 -18 5637.79 1258.56   6
   0  -4 -18 5293.61 1211.77   3
   0  -4 -17 13420.1 1725.66   3
   0  -4 -17 12191.6 1740.51   6
   0  -4 -16 19816.6 2124.78   6
   0  -4 -16 19451.5 2036.48   3
   0  -4 -15 13571.1 1712.67   6
   0  -4 -15 14167.8 1693.32   3
   0  -4 -14 17772.5 1786.10   3
   0  -4 -14 18104.8 1866.14   6
   0  -4 -13 34333.9 2456.79   3
   0  -4 -13 35103.7 2556.24   6
   0  -4 -12 75272.6 3761.68   6
   0  -4 -12 71130.9 3518.33   3
   0  -4 -11 2257.22 529.656   6
   0  -4 -11 3546.68 761.480   3
   0  -4 -10 8125.24 1039.62   6
   0  -4 -10 9318.55 1045.74   3
   0  -4  -9 100227. 3987.08   6
   0  -4  -9 101820. 3811.44   3
   0  -4  -8 93634.7 3459.23   3
   0  -4  -8 98259.6 3734.37   6
   0  -4  -7 7020.99 828.775   6
   0  -4  -7 7136.62 749.057   3
   0  -4  -6 14416.2 666.180   5
   0  -4  -6 14318.6 1000.39   3
   0  -4  -6 13077.5 1085.63   6
   0  -4  -5 80532.0 2361.91   5
   0  -4  -5 84722.9 2741.08   3
   0  -4  -5 80508.9 2153.00   2
   0  -4  -5 81220.0 2977.78   6
   0  -4  -4 5760.99 641.323   6
   0  -4  -4 5998.56 573.604   3
   0  -4  -3 107962. 3531.15   6
   0  -4  -3 119510. 3371.31   3
   0  -3 -20 9012.81 1583.75   3
   0  -3 -19 835.450 549.729   3
   0  -3 -18 5260.84 1288.28   6
   0  -3 -18 3712.51 935.809   3
   0  -3 -17 5387.06 1112.14   6
   0  -3 -17 6552.20 1235.73   3
   0  -3 -16 44679.7 3272.96   6
   0  -3 -16 44102.7 3144.42   3
   0  -3 -15 2497.03 834.520   6
   0  -3 -15 2062.34 732.061   3
   0  -3 -14 28759.5 2416.08   6
   0  -3 -14 26380.1 2211.72   3
   0  -3 -13 14089.1 1583.72   6
   0  -3 -13 15249.1 1606.34   3
   0  -3 -12-151.058 411.060   3
   0  -3 -12 227.512 294.932   6
   0  -3 -11 87257.8 3848.16   3
   0  -3 -11 85699.1 3902.94   6
   0  -3 -10 18.3175 314.754   6
   0  -3 -10-12.5859 221.709   3
   0  -3  -9 140412. 4861.58   6
   0  -3  -9 132355. 4630.78   3
   0  -3  -8 62330.4 2669.42   3
   0  -3  -7 33707.8 1743.70   3
   0  -3  -6 23211.4 1290.93   3
   0  -3  -5 54524.6 1471.42   5
   0  -3  -5 52862.1 1989.65   3
   0  -3  -4 193189. 4587.53   5
   0  -3  -4 196986. 4935.25   3
   0  -3  -4 190130. 4383.74   2
   0  -3  -3 345.822 124.559   3
   0  -3  -3 542.616 148.246   5
   0  -3  -2 96616.9 2969.02   5
   0  -3  -2 98288.7 2747.40   3
   0  -2 -20 2458.52 836.532   4
   0  -2 -19 2610.99 846.018   3
   0  -2 -18-21.4880 402.591   3
   0  -2 -17 11117.8 1587.90   3
   0  -2 -16 34661.7 2896.04   6
   0  -2 -16 36673.9 2762.69   3
   0  -2 -15 296.507 567.162   6
   0  -2 -15 234.443 332.368   3
   0  -2 -14 3232.81 832.109   6
   0  -2 -14 3579.85 811.397   3
   0  -2 -13 72538.2 3705.62   3
   0  -2 -13 76744.8 3952.40   6
   0  -2 -12 32473.5 2361.36   6
   0  -2 -12 30849.4 2195.29   3
   0  -2 -11 24093.4 1893.25   6
   0  -2 -11 21987.6 1775.28   3
   0  -2 -10 26770.0 1909.84   6
   0  -2 -10 26431.5 1847.28   3
   0  -2  -9 44913.7 2361.77   3
   0  -2  -8 57540.4 2565.44   3
   0  -2  -7 27296.4 1555.59   3
   0  -2  -6 26375.4 1407.64   3
   0  -2  -5 105221. 3193.34   3
   0  -2  -4 446274. 10180.3   3
   0  -2  -3 26658.6 1029.86   3
   0  -2  -3 24006.9 719.736   2
   0  -2  -3 24845.9 802.013   5
   0  -2  -2 2111.06 231.296   5
   0  -2  -2 2346.52 252.660   3
   0  -1 -20 5344.02 1292.58   4
   0  -1 -19 1018.48 680.101   4
   0  -1 -18 308.956 481.798   4
   0  -1 -17 30063.8 2635.89   4
   0  -1 -17 34280.3 2802.97   3
   0  -1 -16 20210.5 2054.44   3
   0  -1 -15 584.822 365.710   3
   0  -1 -14 3566.98 835.905   3
   0  -1 -13 5171.62 982.053   6
   0  -1 -13 3773.20 782.141   3
   0  -1 -12 131419. 5115.22   3
   0  -1 -12 132737. 5312.30   6
   0  -1 -11 49216.8 2753.06   3
   0  -1 -11 52489.5 2937.47   6
   0  -1 -10 21793.3 1658.89   3
   0  -1 -10 20285.8 1685.22   6
   0  -1  -9 24322.7 1699.05   3
   0  -1  -8 129732. 4413.39   3
   0  -1  -7 55978.1 2441.70   3
   0  -1  -6 2831.46 455.702   3
   0  -1  -5 222935. 5795.88   3
   0  -1  -4 118024. 3322.51   3
   0  -1  -3 9814.34 580.980   3
   0  -1  -2 18417.6 704.257   3
   0   0 -19 6777.02 1356.60   4
   0   0 -18 865.187 700.232   4
   0   0 -17 21517.9 2193.99   4
   0   0 -16 7757.14 1264.08   4
   0   0 -15 4421.22 954.797   4
   0   0 -14-611.855 585.552   4
   0   0 -14-525.389 379.903   3
   0   0 -13 10445.4 1321.68   3
   0   0 -12 59588.8 3189.20   3
   0   0 -11 776.396 343.308   3
   0   0 -10 5082.51 824.582   3
   0   0  -9 32317.1 1973.59   3
   0   0  -8 64278.6 2810.16   3
   0   0  -7 88569.1 3267.60   3
   0   0  -6 98.1596 124.293   3
   0   0  -5 156210. 4403.21   3
   0   0  -5 154035. 4072.67   5
   0   0  -4 30703.3 1331.82   3
   0   0  -4 26793.8 1137.09   5
   0   0  -3 14530.7 694.674   5
   0   0  -3 12469.2 713.949   3
   0   0   3 14409.1 776.117   6
   0   0   4 22152.0 1060.98   5
   0   0   5 125767. 3689.65   5
   0   0   6 66.3135 94.8232   5
   0   1 -19 6803.30 1283.07   4
   0   1 -18 1664.49 806.075   4
   0   1 -17 4263.27 1020.83   4
   0   1 -16 9097.14 1410.11   4
   0   1 -15 269.117 389.037   4
   0   1 -14 17944.5 1820.90   4
   0   1 -13 43788.1 2836.27   4
   0   1 -12 59311.6 3202.30   4
   0   1 -11 5635.72 894.779   4
   0   1 -10 11143.0 1170.48   4
   0   1  -9 14526.4 1254.87   4
   0   1  -8 143898. 4726.97   3
   0   1  -8 138382. 4629.43   4
   0   1  -7 88932.7 3322.74   3
   0   1  -7 85047.4 3224.49   4
   0   1  -6 20981.8 1316.78   5
   0   1  -6 19559.8 1259.57   3
   0   1  -6 18893.9 1214.41   4
   0   1  -5 50224.8 2050.76   3
   0   1  -5 52747.4 2202.83   5
   0   1  -5 52123.3 2048.63   4
   0   1  -4 95713.2 3153.67   5
   0   1  -4 94382.1 2910.35   4
   0   1  -3 15116.0 990.106   5
   0   1  -3 14071.1 777.429   4
   0   1  -2 87001.4 2755.68   5
   0   1  -2 83112.7 2304.76   4
   0   1   3 9945.61 618.894   6
   0   1   4 116121. 3321.28   6
   0   1   5 184463. 4397.38   5
   0   1   6 2735.03 302.777   5
   0   1   7 52639.7 1823.19   5
   0   1   8 123664. 3524.16   5
   0   2 -18 144.489 453.280   4
   0   2 -17 869.380 600.282   4
   0   2 -16 259.755 373.796   4
   0   2 -15 11506.0 1550.35   4
   0   2 -14 3206.75 823.921   4
   0   2 -13 27525.6 2176.63   4
   0   2 -12 12662.0 1403.71   4
   0   2 -11 7891.85 1062.63   4
   0   2 -10 561.895 284.407   4
   0   2  -9 30.6395 327.215   4
   0   2  -8 79225.5 3346.74   5
   0   2  -8 72124.4 3109.30   4
   0   2  -7 31141.6 1916.64   5
   0   2  -7 27482.0 1661.25   4
   0   2  -6 8868.10 844.952   4
   0   2  -6 9501.31 1003.97   5
   0   2  -5 33320.1 1884.79   5
   0   2  -5 31919.3 1593.94   4
   0   2  -4 60966.3 2599.27   5
   0   2  -4 55433.5 2131.31   4
   0   2  -3 176635. 5317.40   5
   0   2  -3 176684. 4675.14   4
   0   2  -2 440215. 11598.2   5
   0   2  -2 498789. 10849.6   4
   0   2  -1 999999. 20607.7   4
   0   2  -1 861507. 21464.8   5
   0   2   0 86100.5 2916.19   5
   0   2   0 95306.6 2504.91   4
   0   2   1 1420.55 196.269   4
   0   2   1 1693.36 261.047   5
   0   2   2 1684.08 227.499   5
   0   2   3 26595.2 1142.59   6
   0   2   3 21255.4 846.122   5
   0   2   4 438141. 9421.08   2
   0   2   8 45678.4 1260.51   5
   0   2   9 41363.7 1282.92   5
   0   2  10 23954.0 951.699   5
   0   2  11 21004.9 929.894   5
   0   3 -17 3151.95 966.737   4
   0   3 -16 574.346 537.925   4
   0   3 -15 22352.3 2202.40   4
   0   3 -14 141.336 352.519   4
   0   3 -13 8136.44 1267.55   4
   0   3 -12 2433.23 696.474   4
   0   3 -11 21631.6 1836.09   4
   0   3 -10 11118.3 1275.15   4
   0   3  -9 44166.8 2508.96   4
   0   3  -8 92316.6 3901.03   5
   0   3  -8 73649.4 3366.49   4
   0   3  -7 14097.3 1411.58   5
   0   3  -7 12676.0 1159.08   4
   0   3  -6 2836.52 534.052   4
   0   3  -6 3375.86 713.573   5
   0   3  -5 6468.63 908.978   5
   0   3  -5 6000.02 697.910   4
   0   3  -4 9877.95 1045.40   5
   0   3  -4 8823.28 776.607   4
   0   3  -3 234140. 6946.35   5
   0   3  -3 225394. 5959.42   4
   0   3  -2 1282.26 260.729   4
   0   3  -2 1850.33 457.339   5
   0   3  -1 31573.5 1896.16   5
   0   3  -1 32057.8 1394.64   4
   0   3   0 83198.2 3251.86   5
   0   3   0 83220.3 2543.65   4
   0   3   1 57162.8 1946.95   4
   0   3   1 59832.3 2493.67   5
   0   3   2 93447.9 3207.37   5
   0   3   2 95320.4 2811.01   4
   0   3   3 550.536 186.196   5
   0   3   4 188509. 4726.17   5
   0   3   5 49010.3 1440.85   5
   0   3   7 27065.0 807.897   1
   0   3   7 27826.2 975.587   2
   0   3   8 60283.2 1871.29   2
   0   4 -16 6107.71 1316.30   4
   0   4 -15 14192.5 1807.49   4
   0   4 -14-235.640 391.235   4
   0   4 -13 0.47368 422.319   4
   0   4 -12 2763.87 751.590   4
   0   4 -11 9503.38 1257.61   4
   0   4 -10 11785.9 1372.75   4
   0   4  -9 12582.7 1351.98   4
   0   4  -8 24235.1 1774.32   4
   0   4  -7 20975.1 1868.16   5
   0   4  -7 16377.2 1411.24   4
   0   4  -6 4978.03 758.560   4
   0   4  -6 6696.50 1024.61   5
   0   4  -5 114.012 219.790   4
   0   4  -5 652.256 401.423   5
   0   4  -4 19990.6 1681.91   5
   0   4  -4 16426.0 1187.02   4
   0   4  -3 187743. 5348.51   4
   0   4  -3 206479. 6601.09   5
   0   4  -2 34011.9 2161.68   5
   0   4  -2 33957.6 1674.59   4
   0   4  -1 31748.2 1559.53   4
   0   4  -1 32199.1 2023.68   5
   0   4   0 50356.1 2573.23   5
   0   4   0 50406.8 2005.49   4
   0   4   1 79884.3 2696.05   4
   0   4   1 80572.3 3325.70   5
   0   4   2 38012.2 2005.51   5
   0   4   2 38535.8 1666.99   4
   0   4   3 112099. 3739.94   5
   0   4   4 7515.97 701.215   5
   0   4   5 81056.0 2549.51   5
   0   4  10 8542.68 537.064   2
   0   4  11 2121.81 278.072   2
   0   4  12 63880.8 2152.49   2
   0   5 -15 1767.60 747.614   4
   0   5 -14-659.620 566.415   4
   0   5 -13 396.728 470.238   4
   0   5 -12 5671.18 1089.29   4
   0   5 -11 29121.3 2337.38   4
   0   5 -10-642.571 438.907   4
   0   5  -9 6751.48 1020.75   4
   0   5  -8 3440.51 666.428   4
   0   5  -7 11741.5 1512.64   5
   0   5  -7 7982.01 1042.31   4
   0   5  -6 5415.65 781.484   4
   0   5  -6 7326.02 1189.25   5
   0   5  -5 3636.17 842.365   5
   0   5  -5 2115.61 499.815   4
   0   5  -4 134896. 5287.21   5
   0   5  -4 119243. 4208.02   4
   0   5  -3 45818.2 2781.84   5
   0   5  -3 40081.2 2127.03   4
   0   5  -2 5612.31 710.628   4
   0   5  -2 5223.45 959.901   5
   0   5  -1 4338.26 608.744   4
   0   5  -1 3932.34 759.989   5
   0   5   0 6723.85 733.841   4
   0   5   0 7557.65 992.280   5
   0   5   1 88065.0 3716.40   5
   0   5   1 91383.0 3185.14   4
   0   5   2 37356.4 2147.11   5
   0   5   2 38436.1 1828.07   4
   0   5   3 17080.9 1184.97   4
   0   5   3 19072.1 1401.84   5
   0   5   4 55825.5 2442.98   5
   0   5   5 109301. 3521.83   5
   0   6 -14 552.654 403.825   4
   0   6 -13 527.736 456.853   4
   0   6 -12 5120.47 1074.61   4
   0   6 -11 9372.11 1313.63   4
   0   6 -10-853.284 511.640   4
   0   6  -9-127.688 274.386   4
   0   6  -8 3921.55 757.920   4
   0   6  -7 10783.2 1257.09   4
   0   6  -6 4570.02 816.303   4
   0   6  -5 636.712 409.744   4
   0   6  -5-81.1898 309.559   5
   0   6  -4 39083.1 2737.05   5
   0   6  -4 37705.1 2291.63   4
   0   6  -3 11994.3 1478.02   5
   0   6  -3 10169.6 1090.68   4
   0   6  -2 12443.5 1474.31   5
   0   6  -2 11536.3 1112.57   4
   0   6  -1-83.8321 227.473   4
   0   6  -1 328.791 433.022   5
   0   6   0 32251.8 2251.74   5
   0   6   0 28434.0 1766.76   4
   0   6   1 53301.0 2903.29   5
   0   6   1 53847.3 2488.23   4
   0   6   2 10680.3 1172.83   5
   0   6   2 9594.25 984.543   4
   0   6   3 8852.53 1022.39   5
   0   6   3 6847.52 789.764   4
   0   6   4 17647.7 1398.55   5
   0   6   5 66806.8 2788.10   5
   0   7 -12 5560.67 1133.03   4
   0   7 -11-293.824 480.035   4
   0   7 -10 695.662 468.706   4
   0   7  -9-251.047 526.848   4
   0   7  -8 1263.75 509.417   4
   0   7  -7 11439.2 1426.87   4
   0   7  -6 25972.6 2116.75   4
   0   7  -5 8672.61 1218.52   4
   0   7  -4 8141.91 1074.67   4
   0   7  -3 8040.48 1026.46   4
   0   7  -3 9617.58 1380.78   5
   0   7  -2 4215.03 758.237   4
   0   7  -2 3732.78 920.723   5
   0   7  -1 780.619 342.027   4
   0   7  -1 1383.48 694.446   5
   0   7   0 29128.1 1945.46   4
   0   7   0 29711.8 2282.01   5
   0   7   1 34794.1 2421.52   5
   0   7   1 33427.3 2072.82   4
   0   7   2 12992.8 1415.08   5
   0   7   2 13050.4 1220.37   4
   0   7   3 472.411 244.839   4
   0   7   3 1505.57 562.376   5
   0   7   4 17223.9 1489.48   5
   0   8 -11 217.504 444.245   4
   0   8 -10 2486.19 868.725   4
   0   8  -9 129.548 369.517   4
   0   8  -8 2543.16 803.587   4
   0   8  -7 2919.54 815.198   4
   0   8  -6 3732.79 831.356   4
   0   8  -5 181.110 425.369   4
   0   8  -4 958.671 465.897   4
   0   8  -3 11601.6 1371.29   4
   0   8  -2 12121.9 1396.16   4
   0   8  -1-75.0404 287.783   4
   0   8   0 17690.7 1598.41   4
   0   8   1 253.495 292.287   4
   0   8   2 18431.1 1628.58   4
   0   8   3 6947.32 957.981   4
   0   9  -9 109.963 404.308   4
   0   9  -8 1165.01 680.025   4
   0   9  -7 9372.31 1468.02   4
   0   9  -6-154.886 390.232   4
   0   9  -5 165.707 365.811   4
   0   9  -4 1212.44 540.627   4
   0   9  -3 6298.48 1087.44   4
   0   9  -2 5153.45 970.231   4
   0   9  -1 525.767 333.158   4
   0   9   0 563.568 371.898   4
   0   9   1 3669.24 781.571   4
   0   9   2 7455.07 1166.53   4
   0   9   3 1083.29 493.123   4
   0  10  -6 1197.25 671.496   4
   0  10  -5 829.341 556.087   4
   0  10  -4 1130.00 651.940   4
   0  10  -3 4577.20 1011.44   4
   0  10  -2 2626.40 746.532   4
   0  10  -1 268.788 314.972   4
   0  10   0 1752.94 656.284   4
   0  10   1 4359.62 939.613   4
   0  10   2 11087.6 1453.61   4
   0  11  -3 1223.08 709.855   4
   0  11  -2 367.280 468.435   4
   0  11  -1 174.744 491.148   4
   0  11   0-822.271 492.891   4
   0  11   1 3779.84 970.085   4
   1 -11 -12 981.708 589.455   6
   1 -11 -11 1108.19 698.866   6
   1 -11 -10 1760.83 777.740   6
   1 -11  -9 397.494 457.762   6
   1 -11  -8 1536.04 582.605   6
   1 -11  -7 552.726 432.931   6
   1 -11  -6 2786.10 813.430   6
   1 -11  -5 135.886 329.982   6
   1 -11  -4 1079.50 614.769   6
   1 -11  -3 1747.41 748.951   6
   1 -11  -2 2303.74 772.445   6
   1 -11  -1 3445.75 957.588   6
   1 -10 -15 409.211 543.842   3
   1 -10 -15-22.9579 364.286   6
   1 -10 -14 1628.50 688.765   3
   1 -10 -14 139.320 427.935   6
   1 -10 -13 15167.3 1992.40   6
   1 -10 -13 14398.4 1749.33   3
   1 -10 -12-356.006 446.033   3
   1 -10 -12-403.245 340.732   6
   1 -10 -11 2142.35 648.456   3
   1 -10 -11 1123.35 599.936   6
   1 -10 -10 930.250 485.947   3
   1 -10 -10 47.8942 367.026   6
   1 -10  -9 5044.49 1129.02   6
   1 -10  -9 6183.23 1102.17   3
   1 -10  -8 1742.88 629.223   3
   1 -10  -8 2190.84 698.048   6
   1 -10  -7 4066.77 928.832   6
   1 -10  -7 3910.22 813.503   3
   1 -10  -6 499.295 364.099   6
   1 -10  -6 432.990 304.041   3
   1 -10  -5 3794.40 892.618   6
   1 -10  -5 1921.57 618.983   3
   1 -10  -4 1622.74 550.179   6
   1 -10  -4 2774.86 718.649   3
   1 -10  -3 302.558 454.618   6
   1 -10  -3-387.296 378.842   3
   1 -10  -2 1550.43 601.458   3
   1 -10  -2 2110.20 704.151   6
   1 -10  -1 4256.10 900.789   3
   1  -9 -17 3058.19 947.268   3
   1  -9 -16 3652.79 1015.44   3
   1  -9 -16 4015.90 1076.62   6
   1  -9 -15 1491.01 678.175   3
   1  -9 -15 544.001 506.867   6
   1  -9 -14 5589.29 1183.39   3
   1  -9 -14 4792.21 1211.01   6
   1  -9 -13 6864.33 1203.15   3
   1  -9 -13 7095.20 1355.21   6
   1  -9 -12 934.948 485.708   3
   1  -9 -12 541.458 471.055   6
   1  -9 -11 111.140 357.800   3
   1  -9 -11-76.1965 458.680   6
   1  -9 -10 155.147 337.934   3
   1  -9 -10 993.876 538.343   6
   1  -9  -9 17797.2 1878.75   6
   1  -9  -9 17619.2 1731.81   3
   1  -9  -8 9109.94 1313.28   6
   1  -9  -8 8213.48 1153.44   3
   1  -9  -7 542.609 332.870   6
   1  -9  -7 743.905 470.082   3
   1  -9  -6 383.396 252.734   3
   1  -9  -6 878.513 424.965   6
   1  -9  -5 3307.98 819.118   6
   1  -9  -5 3041.39 755.108   3
   1  -9  -4 11488.2 1451.38   6
   1  -9  -4 10782.9 1295.23   3
   1  -9  -3 86.9799 411.643   6
   1  -9  -3 696.960 468.735   3
   1  -9  -2 9201.10 1240.07   3
   1  -8 -18 1107.84 702.370   6
   1  -8 -18 1490.73 868.041   3
   1  -8 -17 8198.85 1574.21   6
   1  -8 -17 4999.13 1146.02   3
   1  -8 -16 1906.24 803.238   3
   1  -8 -16 1004.89 505.610   6
   1  -8 -15 1321.39 695.278   3
   1  -8 -15-24.5534 477.086   6
   1  -8 -14 8624.95 1413.87   3
   1  -8 -14 6921.75 1340.02   6
   1  -8 -13 6365.85 1087.02   3
   1  -8 -13 8857.48 1439.79   6
   1  -8 -12 1084.49 446.331   3
   1  -8 -12 1651.70 601.733   6
   1  -8 -11 1127.53 461.400   3
   1  -8 -11 577.871 393.225   6
   1  -8 -10 14470.3 1682.47   6
   1  -8 -10 12162.5 1394.10   3
   1  -8  -9 23941.4 2039.11   6
   1  -8  -9 20701.1 1811.46   3
   1  -8  -8 1007.87 472.272   6
   1  -8  -8 864.580 479.604   3
   1  -8  -7 752.397 413.385   6
   1  -8  -7 914.065 418.044   3
   1  -8  -6-128.573 381.447   6
   1  -8  -6 212.466 229.034   3
   1  -8  -5 16740.5 1592.25   6
   1  -8  -5 16933.1 1543.76   3
   1  -8  -4 20156.6 1770.18   6
   1  -8  -4 16644.0 1572.97   3
   1  -8  -3 388.952 406.124   6
   1  -8  -3 290.454 232.134   3
   1  -7 -19-424.642 705.185   6
   1  -7 -19-295.967 415.410   3
   1  -7 -18 123.923 566.020   6
   1  -7 -18 52.5295 485.764   3
   1  -7 -17 13077.9 1935.04   6
   1  -7 -17 12576.1 1760.02   3
   1  -7 -16 13133.8 1850.51   6
   1  -7 -16 13382.1 1806.40   3
   1  -7 -15 2695.26 844.856   3
   1  -7 -15 2740.64 884.918   6
   1  -7 -14 14751.4 1799.47   6
   1  -7 -14 13885.6 1692.23   3
   1  -7 -13 6071.58 1156.19   3
   1  -7 -13 5761.12 1109.97   6
   1  -7 -12 11747.1 1508.83   6
   1  -7 -12 13201.9 1483.90   3
   1  -7 -11 9300.01 1181.84   3
   1  -7 -11 9862.53 1333.67   6
   1  -7 -10 15951.9 1662.47   6
   1  -7 -10 14299.8 1463.20   3
   1  -7  -9 29577.4 2241.57   6
   1  -7  -9 31299.6 2113.93   3
   1  -7  -8 2770.76 605.637   3
   1  -7  -8 3353.68 711.966   6
   1  -7  -7 1333.40 455.742   6
   1  -7  -7 351.401 336.890   3
   1  -7  -6 428.815 366.876   6
   1  -7  -6 138.417 219.975   3
   1  -7  -5 63545.5 3105.48   6
   1  -7  -5 58292.3 2901.22   3
   1  -7  -4 21762.1 1675.08   6
   1  -7  -4 19363.5 1551.44   3
   1  -7  -3-77.2117 258.730   6
   1  -7  -3-541.891 393.561   3
   1  -6 -19 2448.03 951.117   6
   1  -6 -19 2725.42 981.286   3
   1  -6 -18 4367.06 1086.19   6
   1  -6 -18 5558.89 1167.94   3
   1  -6 -17 4460.16 1122.12   6
   1  -6 -17 4464.66 969.738   3
   1  -6 -16 12432.0 1748.78   6
   1  -6 -16 11028.4 1574.64   3
   1  -6 -15 1075.31 609.442   3
   1  -6 -15 612.468 478.214   6
   1  -6 -14 2087.07 719.532   3
   1  -6 -14 935.136 373.320   6
   1  -6 -13 13398.8 1655.01   6
   1  -6 -13 12847.7 1508.38   3
   1  -6 -12 32992.0 2506.11   6
   1  -6 -12 32801.7 2353.10   3
   1  -6 -11 212.731 302.210   3
   1  -6 -11 197.788 274.005   6
   1  -6 -10 29812.0 2206.49   6
   1  -6 -10 26971.0 1957.77   3
   1  -6  -9 1721.92 569.213   6
   1  -6  -9 2018.97 548.229   3
   1  -6  -8 8617.89 1044.61   6
   1  -6  -8 9333.41 1034.64   3
   1  -6  -7 27039.3 1842.74   6
   1  -6  -7 25442.6 1709.85   3
   1  -6  -7 23664.4 896.338   1
   1  -6  -6 7858.06 957.035   6
   1  -6  -6 7316.54 889.058   3
   1  -6  -6 7883.82 567.619   1
   1  -6  -5 95003.6 3724.19   6
   1  -6  -5 94775.5 3642.89   3
   1  -6  -4 22636.6 1597.02   6
   1  -6  -4 21983.2 1529.85   3
   1  -6  -3 5132.65 704.965   3
   1  -6  -3 6983.03 844.396   6
   1  -5 -20 6376.05 1447.52   6
   1  -5 -20 4944.82 1139.47   3
   1  -5 -19 3043.49 960.954   6
   1  -5 -19 1541.05 732.667   3
   1  -5 -18 5485.09 1241.53   6
   1  -5 -18 4834.30 1089.45   3
   1  -5 -17 26850.4 2572.25   3
   1  -5 -17 29997.9 2839.52   6
   1  -5 -16 5633.25 1213.68   6
   1  -5 -16 4848.20 1062.52   3
   1  -5 -15 458.290 501.742   6
   1  -5 -15-73.1423 323.820   3
   1  -5 -14 192.994 441.916   3
   1  -5 -14 82.3970 301.766   6
   1  -5 -13 24031.6 2164.54   6
   1  -5 -13 23262.1 2016.00   3
   1  -5 -12 41789.6 2773.98   6
   1  -5 -12 40693.0 2611.03   3
   1  -5 -11 319.440 234.980   3
   1  -5 -11 229.578 254.039   6
   1  -5 -10 25452.2 1931.65   6
   1  -5 -10 21938.7 1712.29   3
   1  -5  -9 17356.8 1524.15   6
   1  -5  -9 15920.7 1377.16   3
   1  -5  -8 36018.8 2183.12   6
   1  -5  -8 34822.6 2005.76   3
   1  -5  -7 63005.0 2762.77   3
   1  -5  -7 64597.0 2913.16   6
   1  -5  -6 24404.3 1575.82   6
   1  -5  -6 20984.2 1460.46   3
   1  -5  -6 23782.0 976.608   1
   1  -5  -5 47369.2 2257.02   6
   1  -5  -5 45786.2 2215.16   3
   1  -5  -4 44988.2 2148.14   6
   1  -5  -4 43222.3 2115.33   3
   1  -5  -3-88.6423 162.053   6
   1  -5  -3 84.2320 203.067   3
   1  -4 -20 17134.1 2188.32   3
   1  -4 -19 669.148 739.275   6
   1  -4 -19 607.489 705.182   3
   1  -4 -18 1925.24 943.467   6
   1  -4 -18 2239.57 787.341   3
   1  -4 -17 10569.7 1660.84   6
   1  -4 -17 10357.0 1562.98   3
   1  -4 -16 12865.9 1785.98   6
   1  -4 -16 11056.8 1543.53   3
   1  -4 -15 8849.72 1380.57   6
   1  -4 -15 8030.61 1308.17   3
   1  -4 -14 596.723 454.219   6
   1  -4 -14 740.214 416.220   3
   1  -4 -13 48983.4 3128.63   6
   1  -4 -13 48221.8 2998.07   3
   1  -4 -12 59738.5 3325.50   6
   1  -4 -12 54739.4 3044.42   3
   1  -4 -11 608.506 439.077   3
   1  -4 -11-279.540 370.650   6
   1  -4 -10 108.203 285.230   3
   1  -4 -10-89.0331 303.670   6
   1  -4  -9 4011.03 673.344   3
   1  -4  -9 5382.74 808.930   6
   1  -4  -8 138901. 4688.40   6
   1  -4  -8 126236. 4402.03   3
   1  -4  -7 32248.9 1860.98   6
   1  -4  -7 30183.0 1737.39   3
   1  -4  -7 32550.2 1185.95   5
   1  -4  -6 53851.2 1600.07   1
   1  -4  -6 54397.1 2353.35   3
   1  -4  -6 52618.5 2390.51   6
   1  -4  -6 58816.1 2046.63   5
   1  -4  -5 86559.5 3168.76   6
   1  -4  -5 92451.9 2522.73   1
   1  -4  -5 93772.2 3237.25   3
   1  -4  -4 3740.30 531.025   6
   1  -4  -4 3064.99 489.310   3
   1  -4  -3 29279.1 1506.32   6
   1  -4  -3 28326.1 1513.49   3
   1  -3 -20 14720.1 2025.10   3
   1  -3 -19 1679.09 835.100   3
   1  -3 -18 6913.49 1342.14   3
   1  -3 -17 5451.45 1221.80   6
   1  -3 -17 6718.66 1313.44   3
   1  -3 -16 5634.62 1210.53   6
   1  -3 -16 4695.33 982.954   3
   1  -3 -15 17147.7 1930.20   6
   1  -3 -15 14070.1 1671.48   3
   1  -3 -14 12354.4 1628.96   6
   1  -3 -14 10299.5 1385.00   3
   1  -3 -13 54239.2 3296.13   6
   1  -3 -13 52101.4 3125.83   3
   1  -3 -12 8730.57 1221.98   6
   1  -3 -12 8872.07 1159.25   3
   1  -3 -11 3069.69 683.072   3
   1  -3 -11 2569.56 634.215   6
   1  -3 -10 4209.67 743.230   3
   1  -3 -10 3496.39 692.336   6
   1  -3  -9 16637.9 1401.64   6
   1  -3  -9 14989.7 1290.41   3
   1  -3  -8 164112. 5181.82   3
   1  -3  -8 167647. 5320.54   6
   1  -3  -7 7503.69 822.907   6
   1  -3  -7 7085.35 781.296   3
   1  -3  -6 12924.4 1034.67   6
   1  -3  -6 12629.5 1004.60   3
   1  -3  -6 14205.3 759.684   5
   1  -3  -5 136134. 4132.93   6
   1  -3  -5 131575. 4070.81   3
   1  -3  -5 134979. 3388.18   1
   1  -3  -4 80710.3 2743.41   6
   1  -3  -4 84961.0 2728.49   5
   1  -3  -4 85315.9 2852.40   3
   1  -3  -4 83728.3 2333.37   1
   1  -3  -3 124332. 3699.91   3
   1  -3  -3 122076. 3570.00   6
   1  -2 -20 5795.30 1296.16   3
   1  -2 -19 127.410 464.053   3
   1  -2 -18 1005.41 512.945   3
   1  -2 -17 4164.75 959.476   3
   1  -2 -16 28111.0 2488.78   3
   1  -2 -15 22417.9 2179.34   3
   1  -2 -15 23237.5 2255.74   6
   1  -2 -14-493.044 346.867   6
   1  -2 -14-154.336 590.873   3
   1  -2 -13 79416.9 4022.16   6
   1  -2 -13 74504.4 3832.27   3
   1  -2 -12 19016.5 1793.96   6
   1  -2 -12 19318.2 1736.91   3
   1  -2 -11 9494.67 1183.53   6
   1  -2 -11 9394.59 1131.21   3
   1  -2 -10 10602.6 1187.99   6
   1  -2 -10 10050.7 1140.65   3
   1  -2  -9 103156. 4012.79   6
   1  -2  -9 102909. 3899.92   3
   1  -2  -8 145947. 4828.49   3
   1  -2  -8 155089. 4983.66   6
   1  -2  -7 19660.7 1365.76   6
   1  -2  -7 19924.2 1308.37   3
   1  -2  -6 66907.5 2485.05   3
   1  -2  -6 61511.2 1584.06   5
   1  -2  -6 62573.9 2482.45   6
   1  -2  -5 24471.7 1296.12   6
   1  -2  -5 23007.1 1261.53   3
   1  -2  -4 94481.3 2913.96   6
   1  -2  -4 90814.8 2896.03   3
   1  -2  -4 96342.1 2492.80   1
   1  -2  -3 194756. 4946.44   6
   1  -2  -3 193875. 5107.60   3
   1  -2  -3 201209. 4710.53   1
   1  -2  -2 7034.54 510.862   6
   1  -2  -2 7801.22 611.952   3
   1  -1 -20 7872.97 1446.12   4
   1  -1 -20 7428.39 1447.59   3
   1  -1 -19 1595.95 743.774   3
   1  -1 -18 1250.03 795.091   3
   1  -1 -17 4283.24 1021.97   3
   1  -1 -16 43860.1 3140.13   3
   1  -1 -15 1707.93 646.488   3
   1  -1 -14 9923.97 1376.25   3
   1  -1 -13 544.193 489.408   3
   1  -1 -12 10475.0 1365.25   6
   1  -1 -12 8211.71 1124.30   3
   1  -1 -11 65045.8 3310.70   6
   1  -1 -11 63338.3 3246.18   3
   1  -1 -10 5736.34 896.715   6
   1  -1 -10 4917.37 531.231   5
   1  -1 -10 5254.17 840.249   3
   1  -1  -9 108124. 4217.84   6
   1  -1  -9 102015. 4041.46   3
   1  -1  -8 111595. 3123.56   5
   1  -1  -8 104932. 3858.90   3
   1  -1  -7 35191.5 1876.54   3
   1  -1  -7 38499.8 1390.18   5
   1  -1  -7 41108.2 2037.57   6
   1  -1  -6 2409.46 457.841   3
   1  -1  -6 2289.00 434.464   6
   1  -1  -6 2467.71 246.440   5
   1  -1  -5 30797.6 1483.39   6
   1  -1  -5 29531.1 974.578   5
   1  -1  -5 28007.6 1392.11   3
   1  -1  -4 270356. 6812.96   6
   1  -1  -4 287432. 6825.50   3
   1  -1  -3 1331.10 239.149   6
   1  -1  -3 1297.44 237.281   3
   1  -1  -3 1331.67 177.642   1
   1  -1  -2 837.989 107.119   2
   1  -1  -2 1297.58 181.176   6
   1  -1  -2 859.195 185.986   3
   1  -1  -2 1228.10 176.992   1
   1  -1  -1 302780. 6646.62   6
   1  -1   3 91008.9 2756.72   6
   1   0 -19 1756.48 699.214   4
   1   0 -18 2526.21 882.459   4
   1   0 -18 2064.96 719.603   3
   1   0 -17 7004.58 1268.21   3
   1   0 -16 17145.6 1931.34   3
   1   0 -15 19955.7 1999.74   3
   1   0 -14 12292.9 1517.16   3
   1   0 -13 20242.2 1870.19   3
   1   0 -12 27720.7 2112.24   3
   1   0 -11 70683.4 2778.39   5
   1   0 -11 61704.8 3243.33   3
   1   0 -10 823.571 325.940   5
   1   0 -10 1196.21 414.646   3
   1   0  -9 51875.3 2381.09   5
   1   0  -9 41976.9 2393.89   3
   1   0  -8 105070. 3949.36   3
   1   0  -8 113805. 3628.77   5
   1   0  -7 691.754 215.246   5
   1   0  -7 404.994 154.915   3
   1   0  -6 76768.2 2453.42   5
   1   0  -6 75794.8 2810.43   3
   1   0  -5 63664.2 2336.54   3
   1   0  -5 61444.2 2362.31   6
   1   0  -5 64863.1 2013.74   5
   1   0  -4 276537. 7047.83   3
   1   0  -4 287501. 7119.09   6
   1   0  -4 302055. 6693.00   5
   1   0  -3 95770.6 2828.49   6
   1   0  -3 91579.9 2777.93   3
   1   0  -2 101917. 2659.71   6
   1   0  -2 106806. 2690.53   1
   1   0  -2 103239. 2709.94   3
   1   0  -1 34862.3 1063.47   2
   1   0  -1 32684.0 1116.55   1
   1   0  -1 33359.7 1091.38   3
   1   0   0 564458. 12314.5   2
   1   0   1 117317. 2717.09   6
   1   0   2 18343.1 774.709   6
   1   0   3 56705.5 1869.40   6
   1   1 -19 5466.66 1191.44   4
   1   1 -18-697.884 633.611   4
   1   1 -17 13636.8 1771.18   4
   1   1 -16 9523.62 1443.24   4
   1   1 -15 401.942 502.478   4
   1   1 -15 145.446 375.127   3
   1   1 -14 12221.2 1486.05   4
   1   1 -14 11276.5 1451.91   3
   1   1 -13 717.993 503.408   3
   1   1 -12 65621.3 3006.71   5
   1   1 -12 67021.4 3448.53   3
   1   1 -11 52943.3 2615.58   5
   1   1 -11 45377.5 2709.80   3
   1   1 -10 487.880 320.664   3
   1   1 -10 829.748 384.910   5
   1   1  -9 27826.2 1880.46   3
   1   1  -9 38557.0 2239.38   5
   1   1  -8 41629.7 2142.25   5
   1   1  -8 36744.7 2084.37   3
   1   1  -7 39810.8 2074.23   3
   1   1  -7 46228.0 2147.84   5
   1   1  -6 12045.6 1005.13   3
   1   1  -6 14396.2 1041.05   5
   1   1  -5 158053. 4528.92   3
   1   1  -5 150440. 4355.17   5
   1   1  -4 73364.8 2403.65   5
   1   1  -4 72998.7 2480.15   3
   1   1  -3 166381. 4311.64   5
   1   1  -3 167134. 4315.03   3
   1   1  -2 34944.1 1241.14   3
   1   1  -2 38211.7 1333.67   5
   1   1  -1 3794.90 332.395   5
   1   1  -1 3470.07 250.252   3
   1   1   1 4998.81 372.784   2
   1   1   1 4986.30 351.169   1
   1   1   2 127.004 69.8196   6
   1   1   2 483.167 129.878   2
   1   1   3 58755.6 1878.12   6
   1   2 -18 420.538 517.199   4
   1   2 -17 3180.73 917.644   4
   1   2 -16 20533.9 2101.92   4
   1   2 -15 2784.88 793.788   4
   1   2 -14 1311.49 590.532   4
   1   2 -13 2835.69 710.195   4
   1   2 -12 36919.8 2341.17   5
   1   2 -12 31656.5 2324.05   4
   1   2 -11 15133.1 1473.85   5
   1   2 -11 11768.3 1299.42   3
   1   2 -11 12009.5 1330.79   4
   1   2 -10 468.526 328.244   4
   1   2 -10-196.325 202.957   3
   1   2  -9 27899.3 1852.64   4
   1   2  -9 30607.8 1965.79   3
   1   2  -8 17389.8 1344.86   4
   1   2  -8 17702.9 1377.96   3
   1   2  -7 143066. 4643.44   4
   1   2  -7 158705. 5173.86   5
   1   2  -7 145406. 4700.67   3
   1   2  -6 3568.47 586.910   5
   1   2  -6 2898.20 493.780   4
   1   2  -6 2826.99 484.050   3
   1   2  -5 16978.5 1074.04   4
   1   2  -5 15929.1 1072.35   3
   1   2  -4 11614.7 946.423   5
   1   2  -4 13207.4 881.778   3
   1   2  -4 13744.3 877.902   4
   1   2  -3 112526. 3226.86   3
   1   2  -3 110140. 3227.94   4
   1   2  -2 594910. 13874.0   5
   1   2  -2 608934. 13378.2   3
   1   2  -2 619835. 13428.1   4
   1   2  -1 502638. 11723.3   5
   1   2  -1 522028. 11235.6   4
   1   2   0 555472. 12260.4   5
   1   2   0 545819. 11710.7   4
   1   2   1 37249.7 1343.65   5
   1   2   1 36759.9 979.350   4
   1   2   2 43358.5 1471.62   5
   1   2   2 43517.1 1306.82   1
   1   2   2 43396.9 1149.92   3
   1   2   3 2225.37 317.034   6
   1   2   3 2210.98 238.533   3
   1   2   3 2592.82 306.473   2
   1   2   3 2337.21 230.526   1
   1   2   4 23862.4 1043.27   3
   1   2   4 23777.2 1070.95   2
   1   3 -17 3181.83 960.185   4
   1   3 -16 181.507 357.966   4
   1   3 -15 14504.3 1739.47   4
   1   3 -14 11014.5 1483.81   4
   1   3 -13 7936.46 1214.92   4
   1   3 -12 19377.1 1807.12   5
   1   3 -12 16753.3 1660.53   4
   1   3 -11 32104.0 2304.90   5
   1   3 -11 25785.2 1999.06   4
   1   3 -10 3582.10 732.945   4
   1   3 -10 5589.49 1016.83   5
   1   3  -9 1737.80 460.147   4
   1   3  -9 1832.04 609.433   5
   1   3  -8 61289.6 3344.73   5
   1   3  -8 46044.4 2414.57   4
   1   3  -7 89287.4 3895.75   5
   1   3  -7 68826.3 2969.07   4
   1   3  -6 242.850 168.297   4
   1   3  -6-150.997 285.556   5
   1   3  -5 4171.66 534.084   4
   1   3  -5 4620.52 763.425   5
   1   3  -4 70132.6 2985.92   5
   1   3  -4 57250.7 2240.89   4
   1   3  -3 8281.22 881.075   5
   1   3  -3 7524.36 638.774   4
   1   3  -2 21510.5 1398.68   5
   1   3  -2 22945.6 1065.07   4
   1   3  -1 56089.7 2233.41   5
   1   3  -1 52402.5 1704.71   4
   1   3   0 18838.4 1103.36   5
   1   3   0 18116.3 802.946   4
   1   3   1 103838. 3106.48   5
   1   3   1 98254.3 2604.72   4
   1   3   2 34647.3 1416.93   5
   1   3   3 367.781 102.967   3
   1   3   3 346.036 131.492   5
   1   3   4 85015.3 2477.18   5
   1   3   4 91297.6 2437.66   3
   1   3   4 84405.7 2170.01   1
   1   3   5 323233. 7754.83   2
   1   3   5 340940. 7325.06   1
   1   3   5 319015. 7585.73   5
   1   3   6 736.346 196.088   2
   1   3   6 902.035 181.220   5
   1   3   7 54546.1 2013.30   2
   1   3   8 53657.8 2142.08   2
   1   3  10 110119. 3183.24   5
   1   4 -17 206.343 452.671   4
   1   4 -16-331.263 498.143   4
   1   4 -15 4704.86 1055.21   4
   1   4 -14 1091.96 494.847   4
   1   4 -13 4400.07 963.978   4
   1   4 -12 8898.93 1221.89   4
   1   4 -12 10265.6 1433.46   5
   1   4 -11 7496.50 1053.02   4
   1   4 -11 8967.60 1355.74   5
   1   4 -10 4375.18 819.878   4
   1   4 -10 5545.96 1109.84   5
   1   4  -9 1273.12 601.940   5
   1   4  -9 514.484 361.548   4
   1   4  -8 62324.2 3614.10   5
   1   4  -8 46292.9 2539.07   4
   1   4  -7 18003.6 1937.98   5
   1   4  -7 14652.7 1284.12   4
   1   4  -6 1146.00 398.480   4
   1   4  -6 1833.04 569.065   5
   1   4  -5 15.6253 282.508   4
   1   4  -5 604.007 316.700   5
   1   4  -4 7389.54 1016.70   5
   1   4  -4 6275.14 692.308   4
   1   4  -3 679680. 16452.8   5
   1   4  -3 643464. 14973.4   4
   1   4  -2 382.758 160.497   4
   1   4  -2 579.810 420.111   5
   1   4  -1 120984. 4219.15   5
   1   4  -1 115476. 3340.47   4
   1   4   0 13494.9 1090.54   5
   1   4   0 13816.1 809.009   4
   1   4   1 43080.4 2021.95   5
   1   4   1 45870.6 1619.76   4
   1   4   2 27959.7 1469.75   5
   1   4   2 28394.6 1214.17   4
   1   4   3 896.482 236.961   5
   1   4   4 218699. 5283.93   3
   1   4   4 216640. 5645.76   5
   1   4   5 100356. 2986.24   5
   1   4   6 17035.4 898.177   5
   1   4   7 717.164 175.842   5
   1   4   7 231.718 144.931   2
   1   4   8 2125.08 249.823   5
   1   4   8 1837.06 187.325   1
   1   4   8 1933.40 329.879   2
   1   4   9 91246.4 2360.69   1
   1   4   9 85032.6 2356.00   5
   1   4   9 90361.8 2898.45   2
   1   4  10 35862.5 1150.44   5
   1   4  10 36771.4 1668.48   2
   1   4  11 5860.33 339.707   5
   1   4  11 6357.34 664.261   2
   1   4  12 21537.0 1388.07   2
   1   4  13 34055.3 1913.04   2
   1   4  14 28034.9 1796.48   2
   1   5 -16 3967.74 1083.87   4
   1   5 -15 9303.91 1506.18   4
   1   5 -14 627.100 417.780   4
   1   5 -13 556.824 400.053   4
   1   5 -12 6929.58 1152.15   4
   1   5 -11 21049.9 2124.11   5
   1   5 -11 16165.8 1691.58   4
   1   5 -10 6131.80 986.932   4
   1   5 -10 10515.3 1535.83   5
   1   5  -9 3927.85 968.205   5
   1   5  -9 3437.95 751.128   4
   1   5  -8 33356.2 2654.62   5
   1   5  -8 27798.0 1973.97   4
   1   5  -7 10972.9 1553.27   5
   1   5  -7 8807.95 1009.87   4
   1   5  -6 10927.6 1531.57   5
   1   5  -6 7873.03 923.169   4
   1   5  -5 1048.74 370.541   4
   1   5  -5 1075.62 603.465   5
   1   5  -4 19348.5 1840.04   5
   1   5  -4 15684.2 1182.49   4
   1   5  -3 85743.8 3903.32   5
   1   5  -3 64550.1 2490.28   4
   1   5  -2 1636.09 362.159   4
   1   5  -2 1792.01 561.564   5
   1   5  -1 1397.09 329.436   4
   1   5  -1 758.177 409.258   5
   1   5   0 15277.5 1419.12   5
   1   5   0 12990.0 916.249   4
   1   5   1 42440.4 2321.29   5
   1   5   1 39622.8 1685.17   4
   1   5   2 91537.6 3607.07   5
   1   5   2 95176.5 2973.89   4
   1   5   3 654.311 279.613   5
   1   5   4 104108. 3600.51   5
   1   5   5 56034.2 2288.31   5
   1   5   6 8505.13 722.735   5
   1   5   7 1715.85 289.260   5
   1   5   8 44552.3 1694.51   5
   1   5   9 238800. 5763.89   5
   1   5  10 25588.3 936.360   5
   1   5  11 511.161 181.196   2
   1   5  12 3546.97 487.142   2
   1   6 -14 461.501 568.191   4
   1   6 -13-2.07275 349.324   4
   1   6 -12 688.345 472.688   4
   1   6 -11 5705.27 1086.84   4
   1   6 -11 7086.23 1346.52   5
   1   6 -10 7511.72 1124.68   4
   1   6 -10 8864.52 1412.25   5
   1   6  -9 2961.50 713.515   4
   1   6  -9 4709.90 1083.86   5
   1   6  -8 4911.49 869.779   4
   1   6  -8 7209.25 1272.74   5
   1   6  -7 10023.7 1560.03   5
   1   6  -7 7097.82 977.368   4
   1   6  -6 7117.38 893.762   4
   1   6  -6 11451.4 1642.12   5
   1   6  -5 46904.3 3352.49   5
   1   6  -5 26209.4 1688.41   4
   1   6  -4 176696. 6839.70   5
   1   6  -4 123194. 4409.44   4
   1   6  -3 32123.2 2664.22   5
   1   6  -3 26095.1 1675.10   4
   1   6  -2 2800.13 531.111   4
   1   6  -2 3823.12 860.243   5
   1   6  -1 104.364 278.907   5
   1   6  -1 286.781 185.358   4
   1   6   0 21282.9 1837.36   5
   1   6   0 17765.7 1221.95   4
   1   6   1 70359.7 3519.76   5
   1   6   1 69682.3 2662.30   4
   1   6   2 42342.6 2551.15   5
   1   6   2 42978.4 1943.24   4
   1   6   3 3778.53 695.685   5
   1   6   3 3941.71 519.437   4
   1   6   4 29563.6 1920.17   5
   1   6   5 33222.9 1967.54   5
   1   6   6 11935.7 1094.29   5
   1   6   7 14470.5 1140.27   5
   1   6   8 43199.4 1976.65   5
   1   6   9 86704.3 2882.09   5
   1   7 -13 180.502 369.524   4
   1   7 -12 4631.31 1008.48   4
   1   7 -11 8515.35 1339.16   4
   1   7 -10 533.078 441.148   4
   1   7  -9 2142.53 921.624   5
   1   7  -9 467.182 357.348   4
   1   7  -8 493.050 394.624   4
   1   7  -8 1460.00 758.494   5
   1   7  -7 2886.13 660.521   4
   1   7  -7 5110.24 1185.44   5
   1   7  -6 36130.3 2967.20   5
   1   7  -6 24605.4 1918.71   4
   1   7  -5 548.647 397.876   4
   1   7  -5 240.492 516.065   5
   1   7  -4 39498.9 3145.53   5
   1   7  -4 31524.7 2084.57   4
   1   7  -3 11637.7 1676.09   5
   1   7  -3 8786.57 1012.34   4
   1   7  -2 6788.53 875.531   4
   1   7  -2 11090.4 1605.34   5
   1   7  -1 6381.11 794.563   4
   1   7  -1 9607.55 1409.04   5
   1   7   0 311.846 175.947   4
   1   7   0 636.720 433.574   5
   1   7   1 98171.2 4581.89   5
   1   7   1 72706.5 3042.64   4
   1   7   2 28761.7 2308.16   5
   1   7   2 27057.9 1638.28   4
   1   7   3 82.4873 218.646   4
   1   7   3 224.270 235.856   5
   1   7   4 19317.7 1747.11   5
   1   7   5 23553.0 1857.74   5
   1   7   6 45993.3 2638.98   5
   1   7   7 3264.78 649.144   5
   1   7   8 137273. 4778.33   5
   1   7   9 2594.18 483.823   5
   1   8 -12 708.653 468.114   4
   1   8 -11 4897.51 1051.23   4
   1   8 -10 679.368 463.691   4
   1   8  -9-720.721 405.361   4
   1   8  -8 85.7059 283.217   4
   1   8  -8 1964.27 960.975   5
   1   8  -7 1635.30 633.723   4
   1   8  -7 3174.20 1052.26   5
   1   8  -6 35015.4 3063.66   5
   1   8  -6 28970.9 2278.63   4
   1   8  -5 5901.94 981.070   4
   1   8  -5 8860.51 1595.04   5
   1   8  -4 11120.1 1714.18   5
   1   8  -4 7689.02 1140.10   4
   1   8  -3 2983.28 656.177   4
   1   8  -3 2967.40 993.836   5
   1   8  -2 13824.8 1828.15   5
   1   8  -2 10530.3 1170.89   4
   1   8  -1 2875.61 630.523   4
   1   8  -1 3404.98 1013.30   5
   1   8   0 18055.2 2045.34   5
   1   8   0 14308.2 1338.44   4
   1   8   1 11953.1 1649.78   5
   1   8   1 10375.0 1116.39   4
   1   8   2 4887.77 746.611   4
   1   8   2 5862.34 1161.56   5
   1   8   3 792.850 441.043   5
   1   8   3 351.335 197.795   4
   1   8   4 8154.35 1280.84   5
   1   8   5 23786.8 2097.02   5
   1   8   6 57709.7 3207.89   5
   1   8   7 154.909 204.029   5
   1   8   8 5140.55 781.558   5
   1   9 -10 265.094 367.331   4
   1   9  -9 390.143 388.948   4
   1   9  -8 575.319 483.213   4
   1   9  -7 15180.1 1779.24   4
   1   9  -6 7727.53 1566.92   5
   1   9  -6 7303.73 1180.20   4
   1   9  -5 1340.71 483.591   4
   1   9  -5 3516.96 1177.58   5
   1   9  -4 836.428 419.334   4
   1   9  -4 2297.16 992.677   5
   1   9  -3 1132.56 511.346   4
   1   9  -3 2176.41 914.438   5
   1   9  -2 6931.36 1070.03   4
   1   9  -2 10380.0 1664.29   5
   1   9  -1 8036.32 1078.52   4
   1   9  -1 8834.68 1550.22   5
   1   9   0 8727.70 1102.64   4
   1   9   0 11577.3 1686.22   5
   1   9   1 21251.6 2230.82   5
   1   9   1 18282.3 1609.07   4
   1   9   2 13953.2 1769.13   5
   1   9   2 9637.53 1137.05   4
   1   9   3 2668.28 806.097   5
   1   9   4 2731.76 863.125   5
   1   9   5 19523.5 1926.99   5
   1   9   6 26202.1 2128.10   5
   1   9   7 9215.02 1165.85   5
   1  10  -8 705.012 469.921   4
   1  10  -7 5564.39 1140.57   4
   1  10  -6 482.327 388.611   4
   1  10  -5 299.640 365.153   4
   1  10  -4-530.099 454.050   4
   1  10  -3 2269.93 700.406   4
   1  10  -3 4434.18 1389.77   5
   1  10  -2 7342.36 1141.58   4
   1  10  -2 11056.0 1826.72   5
   1  10  -1 146.794 297.350   4
   1  10  -1 240.091 539.659   5
   1  10   0 199.305 253.735   4
   1  10   0 977.524 697.887   5
   1  10   1 2349.36 657.662   4
   1  10   1 2876.41 913.771   5
   1  10   2 8940.73 1209.15   4
   1  10   2 9851.74 1560.62   5
   1  10   3 4338.84 1031.35   5
   1  10   4 941.829 561.817   5
   1  10   5 23046.6 2132.12   5
   1  10   6 1282.48 587.380   5
   1  11  -5 232.634 319.333   4
   1  11  -4-478.074 397.513   4
   1  11  -3 1138.12 413.627   4
   1  11  -2 4047.07 939.675   4
   1  11  -1-408.334 435.403   4
   1  11   0 1719.06 699.795   4
   1  11   1 3017.15 867.175   4
   2 -11  -8 166.613 336.000   3
   2 -11  -7 203.502 380.806   3
   2 -11  -6 923.421 559.397   3
   2 -11  -5 2620.92 809.713   3
   2 -11  -4 613.109 504.532   3
   2 -11  -3 1668.66 727.563   3
   2 -10 -13 21290.5 2295.90   3
   2 -10 -12 1200.25 692.755   3
   2 -10 -11 3562.25 874.638   3
   2 -10 -10 2207.24 737.190   3
   2 -10  -9 234.340 364.313   3
   2 -10  -8 1926.13 782.396   3
   2 -10  -7-122.630 345.155   3
   2 -10  -6 1205.73 639.268   3
   2 -10  -5 3054.89 845.644   3
   2 -10  -4-161.757 381.226   3
   2 -10  -3 323.318 302.968   3
   2 -10  -2 229.798 356.580   3
   2 -10  -1 1050.12 508.761   3
   2 -10   0 4011.59 947.767   3
   2  -9 -15 1322.54 705.056   3
   2  -9 -14-3.43376 537.166   3
   2  -9 -13 6415.31 1250.25   3
   2  -9 -12 2305.73 801.410   3
   2  -9 -12 3345.66 885.662   6
   2  -9 -11 12.7362 373.502   3
   2  -9 -11 369.188 408.245   6
   2  -9 -10 1373.03 510.201   3
   2  -9 -10 869.424 480.696   6
   2  -9  -9 831.627 430.095   3
   2  -9  -9 873.734 485.316   6
   2  -9  -8 7378.81 1175.17   6
   2  -9  -8 6511.90 1162.59   3
   2  -9  -7 331.262 289.569   6
   2  -9  -7-271.450 396.927   3
   2  -9  -6 2652.77 742.563   6
   2  -9  -6 2934.48 854.081   3
   2  -9  -5 9044.65 1308.38   6
   2  -9  -5 7730.11 1207.48   3
   2  -9  -4-11.1701 411.510   6
   2  -9  -4 240.112 397.001   3
   2  -9  -3-166.959 271.447   6
   2  -9  -3-316.840 445.475   3
   2  -9  -2 1179.18 551.093   3
   2  -8 -17 1278.63 763.487   6
   2  -8 -16 902.363 695.771   3
   2  -8 -16 2169.48 929.114   6
   2  -8 -15 11579.2 1726.20   3
   2  -8 -15 11396.1 1753.03   6
   2  -8 -14 18008.6 2130.00   6
   2  -8 -14 18281.7 2031.76   3
   2  -8 -13 14258.9 1726.27   3
   2  -8 -13 16163.2 1940.07   6
   2  -8 -12 414.573 473.352   3
   2  -8 -12 492.107 532.332   6
   2  -8 -11 268.726 470.030   3
   2  -8 -11 867.918 597.381   6
   2  -8 -10-216.888 356.867   3
   2  -8 -10-66.5610 336.938   6
   2  -8  -9 10138.2 1406.75   6
   2  -8  -9 8406.94 1259.60   3
   2  -8  -8 3110.05 787.912   6
   2  -8  -8 3068.94 789.072   3
   2  -8  -7-16.5033 315.075   6
   2  -8  -7 693.510 347.333   3
   2  -8  -6 4524.63 940.481   3
   2  -8  -6 5405.57 902.447   6
   2  -8  -5 6738.72 1006.21   6
   2  -8  -5 6057.97 1029.85   3
   2  -8  -4 2195.32 615.177   6
   2  -8  -4 1445.18 547.031   3
   2  -8  -3 8422.50 1151.05   6
   2  -8  -3 6629.08 1069.44   3
   2  -8  -2-78.8630 286.778   6
   2  -8  -2-52.8264 317.347   3
   2  -7 -18 2644.11 930.930   6
   2  -7 -17 297.396 582.921   3
   2  -7 -17 855.034 526.253   6
   2  -7 -16 8232.90 1445.02   3
   2  -7 -16 7625.22 1493.43   6
   2  -7 -15 4804.57 1133.99   3
   2  -7 -15 4389.93 1082.29   6
   2  -7 -14 5673.67 1180.39   3
   2  -7 -14 4804.63 1063.42   6
   2  -7 -13 10111.6 1443.45   3
   2  -7 -13 8817.39 1411.06   6
   2  -7 -12 1355.88 641.005   3
   2  -7 -12 1876.13 669.361   6
   2  -7 -11 2259.95 657.072   3
   2  -7 -11 3325.81 832.953   6
   2  -7 -10-320.728 384.972   3
   2  -7 -10 271.778 273.010   6
   2  -7  -9 24393.8 2030.26   6
   2  -7  -9 22301.5 1910.41   3
   2  -7  -8 11977.0 1355.71   6
   2  -7  -8 10278.5 1267.58   3
   2  -7  -7 1660.84 523.249   6
   2  -7  -7 2096.82 570.418   3
   2  -7  -6 3432.47 685.790   6
   2  -7  -6 4031.43 789.611   3
   2  -7  -5 7517.72 1017.18   6
   2  -7  -5 7181.85 1042.42   3
   2  -7  -4 16377.6 1480.52   6
   2  -7  -4 15104.2 1501.71   3
   2  -7  -3 1627.37 505.589   3
   2  -7  -3 2055.25 572.936   6
   2  -7  -2 39751.5 2355.56   6
   2  -6 -19 302.251 523.275   6
   2  -6 -18 2688.89 965.456   6
   2  -6 -18 1375.54 605.556   3
   2  -6 -17 1168.10 696.694   6
   2  -6 -17 795.942 682.392   3
   2  -6 -16 27688.6 2708.50   6
   2  -6 -16 28805.2 2659.95   3
   2  -6 -15 614.470 487.596   3
   2  -6 -15 18.0054 420.066   6
   2  -6 -14 9544.39 1457.52   3
   2  -6 -14 9071.40 1470.04   6
   2  -6 -13 5205.81 1049.11   3
   2  -6 -13 6354.34 1131.69   6
   2  -6 -12 4383.79 902.259   3
   2  -6 -12 5110.11 1019.66   6
   2  -6 -11 3723.86 802.094   3
   2  -6 -11 3061.34 760.281   6
   2  -6 -10 12746.0 1438.69   6
   2  -6 -10 13893.7 1475.60   3
   2  -6  -9 8021.34 1082.03   3
   2  -6  -9 7976.62 1109.95   6
   2  -6  -8 21489.4 1767.11   6
   2  -6  -8 19174.4 1660.47   3
   2  -6  -7 3233.83 653.562   6
   2  -6  -7 3022.80 617.081   3
   2  -6  -6 975.514 324.622   6
   2  -6  -6 641.857 362.537   3
   2  -6  -6 764.643 254.472   1
   2  -6  -5 9694.77 880.268   1
   2  -6  -5 8956.66 1136.83   3
   2  -6  -5 8917.40 1023.17   6
   2  -6  -4 32192.3 2142.97   3
   2  -6  -4 35373.9 2060.41   6
   2  -6  -3 5969.72 793.482   6
   2  -6  -3 5089.82 842.041   3
   2  -6  -2 8676.06 950.594   6
   2  -5 -19 1300.86 767.271   6
   2  -5 -19 242.909 522.805   3
   2  -5 -18 689.348 604.921   6
   2  -5 -18-467.293 685.652   3
   2  -5 -17 16880.6 2146.63   6
   2  -5 -17 14208.7 1911.72   3
   2  -5 -16 18807.4 2180.39   6
   2  -5 -16 19063.9 2128.24   3
   2  -5 -15 382.118 394.930   3
   2  -5 -15-399.363 545.793   6
   2  -5 -14 5447.76 1107.80   3
   2  -5 -14 6334.05 1167.05   6
   2  -5 -13 3194.70 866.442   3
   2  -5 -13 3710.58 920.641   6
   2  -5 -12 31352.1 2416.63   6
   2  -5 -12 29131.9 2247.87   3
   2  -5 -11 22841.6 1983.01   6
   2  -5 -11 21238.0 1850.74   3
   2  -5 -10 6483.52 1012.26   3
   2  -5 -10 8400.79 1133.41   6
   2  -5  -9 18017.4 1568.16   6
   2  -5  -9 14576.0 1428.35   3
   2  -5  -8 20660.9 1632.88   6
   2  -5  -8 18918.6 1569.60   3
   2  -5  -7 11184.7 1147.39   6
   2  -5  -7 11580.3 785.213   1
   2  -5  -7 10835.6 1139.84   3
   2  -5  -6 514.267 101.716   2
   2  -5  -6 489.886 198.794   6
   2  -5  -6 743.929 225.939   1
   2  -5  -6 402.681 241.157   3
   2  -5  -5 37594.4 2017.90   6
   2  -5  -5 39012.8 2236.22   3
   2  -5  -5 41638.6 1844.10   1
   2  -5  -4 48867.3 2286.75   6
   2  -5  -4 47989.2 2500.71   3
   2  -5  -3 5912.50 802.389   3
   2  -5  -3 6740.34 745.164   6
   2  -5  -2 85.0726 216.086   6
   2  -4 -19-536.906 765.501   3
   2  -4 -18 3434.69 1087.19   6
   2  -4 -18 133.997 626.790   3
   2  -4 -17 13646.5 1928.87   6
   2  -4 -17 12430.0 1738.40   3
   2  -4 -16 14255.5 1875.25   6
   2  -4 -16 11991.9 1650.60   3
   2  -4 -15 697.316 558.471   3
   2  -4 -15 1305.85 504.677   6
   2  -4 -14 89.4348 344.840   3
   2  -4 -14 135.834 337.979   6
   2  -4 -13 13126.4 1571.85   6
   2  -4 -13 12345.4 1510.39   3
   2  -4 -12 42180.0 2803.90   6
   2  -4 -12 44203.3 2766.36   3
   2  -4 -11 427.822 313.074   3
   2  -4 -11 1232.31 521.972   6
   2  -4 -10-223.266 238.428   3
   2  -4 -10-112.461 352.946   6
   2  -4  -9 12524.0 1275.95   6
   2  -4  -9 11979.5 1230.65   3
   2  -4  -8 29536.7 1892.98   6
   2  -4  -8 28913.1 1885.94   3
   2  -4  -7 29406.3 1800.24   6
   2  -4  -7 27953.7 1266.69   1
   2  -4  -7 26763.2 1770.82   3
   2  -4  -6 5549.04 714.689   6
   2  -4  -6 4715.19 730.467   3
   2  -4  -6 6101.77 569.900   1
   2  -4  -5 83594.9 3058.01   6
   2  -4  -5 79771.7 3244.27   3
   2  -4  -5 79831.8 2231.49   2
   2  -4  -5 83393.0 2758.49   1
   2  -4  -4 45696.9 1932.05   1
   2  -4  -4 43577.1 1960.31   6
   2  -4  -4 41271.1 2170.32   3
   2  -4  -3 7237.51 696.777   6
   2  -4  -3 6391.11 768.503   3
   2  -4  -2 294.698 151.923   6
   2  -3 -19 8007.98 1515.01   3
   2  -3 -18 2918.39 824.186   3
   2  -3 -17 21646.4 2306.72   3
   2  -3 -16 6396.34 1239.31   6
   2  -3 -16 5838.82 1199.65   3
   2  -3 -15 2746.33 794.541   6
   2  -3 -15 1503.49 471.349   3
   2  -3 -14 2494.87 708.809   3
   2  -3 -14 3435.23 857.818   6
   2  -3 -13 25879.7 2239.33   6
   2  -3 -13 23249.6 2059.87   3
   2  -3 -12 41576.6 2717.39   3
   2  -3 -12 52172.0 3067.35   6
   2  -3 -11 2698.08 674.788   3
   2  -3 -11 2789.81 649.240   6
   2  -3 -10 1421.16 457.868   6
   2  -3 -10 985.176 410.899   3
   2  -3 -10 1004.00 128.750   5
   2  -3  -9 13168.6 1248.19   6
   2  -3  -9 10468.9 566.442   5
   2  -3  -9 11729.9 1198.57   3
   2  -3  -8 95428.3 3694.80   6
   2  -3  -8 88950.7 3576.99   3
   2  -3  -7 44440.0 2197.32   6
   2  -3  -7 42883.4 2208.62   3
   2  -3  -6-143.118 233.898   6
   2  -3  -6 146.787 209.356   3
   2  -3  -6 372.939 136.524   1
   2  -3  -5 64967.8 2468.11   6
   2  -3  -5 64402.1 2675.07   3
   2  -3  -5 61990.9 2212.13   1
   2  -3  -4 11444.4 850.674   6
   2  -3  -4 11477.6 988.410   3
   2  -3  -4 11554.8 642.592   2
   2  -3  -4 10621.3 803.635   1
   2  -3  -3 13600.5 868.920   6
   2  -3  -3 14169.6 1090.21   3
   2  -3  -2 35333.4 1485.20   6
   2  -2 -19 9424.58 1639.31   3
   2  -2 -18-308.022 494.338   3
   2  -2 -17 7067.83 1313.17   3
   2  -2 -16 8870.67 1430.88   3
   2  -2 -15 14650.2 1777.55   3
   2  -2 -14 1504.99 588.963   6
   2  -2 -14 1196.23 562.150   3
   2  -2 -13 46777.6 3022.75   6
   2  -2 -13 44893.6 2872.67   3
   2  -2 -12 6938.49 1111.86   3
   2  -2 -12 7092.73 1090.60   6
   2  -2 -11 13361.5 771.779   5
   2  -2 -11 12396.3 1372.30   3
   2  -2 -10 8606.42 1042.73   6
   2  -2 -10 7359.06 1015.30   3
   2  -2 -10 7660.31 539.244   5
   2  -2  -9 13392.5 1279.07   6
   2  -2  -9 14386.8 758.006   5
   2  -2  -9 12690.0 1190.74   3
   2  -2  -8 148752. 5006.20   6
   2  -2  -8 153786. 3901.16   5
   2  -2  -8 152920. 5011.07   3
   2  -2  -7 27355.0 1639.31   6
   2  -2  -7 24787.0 1586.15   3
   2  -2  -6 31405.7 1664.74   6
   2  -2  -6 29483.6 1666.99   3
   2  -2  -5 15103.3 1017.99   6
   2  -2  -5 13536.7 1044.16   3
   2  -2  -5 15101.7 903.804   1
   2  -2  -4 7467.59 623.250   6
   2  -2  -4 7222.91 464.933   2
   2  -2  -4 6670.04 691.612   3
   2  -2  -4 7178.59 625.725   1
   2  -2  -3 76772.2 2840.63   3
   2  -2  -3 84050.7 2402.24   2
   2  -2  -3 83261.2 2493.12   6
   2  -2  -3 81130.9 2678.88   1
   2  -2  -2 19912.2 889.242   6
   2  -2  -1 189638. 4553.02   6
   2  -1 -19 2839.37 995.141   3
   2  -1 -18 2409.09 806.554   3
   2  -1 -17 1745.39 684.633   3
   2  -1 -16 9184.28 1509.91   3
   2  -1 -15 17339.4 1877.60   3
   2  -1 -14 4205.60 910.865   3
   2  -1 -13 22848.4 2062.89   3
   2  -1 -12 19724.7 1292.80   5
   2  -1 -12 14348.5 1537.07   3
   2  -1 -11 17679.7 1142.18   5
   2  -1 -11 18676.7 1662.47   3
   2  -1 -10 24502.2 1282.71   5
   2  -1 -10 27415.3 1946.95   6
   2  -1 -10 26851.5 1920.87   3
   2  -1  -9 43802.3 2405.41   6
   2  -1  -9 39148.9 1592.83   5
   2  -1  -9 38710.1 2247.47   3
   2  -1  -8 79592.8 3264.70   6
   2  -1  -8 76641.2 2428.60   5
   2  -1  -8 75525.1 3167.26   3
   2  -1  -7 54947.5 2476.79   6
   2  -1  -7 57609.5 1937.29   5
   2  -1  -7 52436.1 2423.74   3
   2  -1  -6 5370.50 509.241   5
   2  -1  -6 5477.67 649.846   6
   2  -1  -6 5858.14 688.716   3
   2  -1  -5 28585.9 1437.59   6
   2  -1  -5 30064.4 1532.69   3
   2  -1  -4 79846.0 2570.38   6
   2  -1  -4 79653.4 2578.95   1
   2  -1  -4 83511.8 2770.55   3
   2  -1  -3 246751. 5834.68   6
   2  -1  -3 236588. 5778.13   2
   2  -1  -3 254609. 6151.29   1
   2  -1  -3 236422. 6242.36   3
   2  -1  -2 5395.38 360.110   6
   2  -1  -2 5514.14 537.481   3
   2  -1  -2 5227.91 453.357   2
   2  -1  -2 4698.95 489.445   1
   2  -1  -1 43847.5 1169.99   6
   2  -1   1 129975. 3165.15   6
   2  -1   2 33475.9 1257.38   6
   2  -1   3 71545.5 2342.33   6
   2   0 -19 3634.44 986.192   3
   2   0 -18 8.96769 441.627   3
   2   0 -17 1589.52 747.332   3
   2   0 -16 19065.3 2106.20   3
   2   0 -15 40776.7 2979.40   3
   2   0 -14 4196.78 951.679   3
   2   0 -13 5511.35 801.670   5
   2   0 -13 4569.66 923.929   3
   2   0 -12 15448.4 1343.06   5
   2   0 -12 10531.9 1305.58   3
   2   0 -11 62573.0 2678.17   5
   2   0 -11 53562.9 3023.79   3
   2   0 -10 16885.6 1512.93   3
   2   0 -10 20170.6 1317.31   5
   2   0  -9 84373.6 2933.11   5
   2   0  -9 77461.5 3409.51   3
   2   0  -8 92712.2 3586.41   3
   2   0  -8 89830.2 3016.71   5
   2   0  -7 1297.44 406.908   3
   2   0  -7 1097.91 262.943   5
   2   0  -6 3426.38 523.136   3
   2   0  -6 3724.90 423.033   5
   2   0  -5 20995.3 1097.46   5
   2   0  -5 24431.9 1320.99   3
   2   0  -4 131297. 3807.68   3
   2   0  -3 231891. 5833.30   1
   2   0  -3 230483. 5796.44   3
   2   0  -2 3924.27 390.069   2
   2   0  -2 3580.93 418.347   1
   2   0  -2 2891.73 351.536   3
   2   0  -1 125927. 3376.25   2
   2   0  -1 119428. 3320.32   3
   2   0  -1 113182. 3195.90   4
   2   0  -1 125061. 3529.30   1
   2   0   0 24096.0 1185.53   2
   2   0   0 24031.6 1009.68   4
   2   0   1 26745.9 1072.20   4
   2   0   2 100484. 2596.34   6
   2   0   3 142684. 3734.24   6
   2   1 -19 1146.95 749.703   4
   2   1 -18 392.493 458.472   4
   2   1 -18 1606.31 789.946   3
   2   1 -17 2700.30 776.658   4
   2   1 -17 3981.82 1030.75   3
   2   1 -16 19663.9 2109.20   3
   2   1 -15 1257.51 631.791   3
   2   1 -14 92.2434 257.638   5
   2   1 -14 376.273 402.278   3
   2   1 -13 606.232 411.142   5
   2   1 -13 803.928 447.361   3
   2   1 -12 9520.48 1165.44   5
   2   1 -12 6617.48 1028.84   3
   2   1 -11 73043.5 3641.37   3
   2   1 -11 78724.3 3419.14   5
   2   1 -10 256.864 179.031   5
   2   1 -10-45.5355 273.823   3
   2   1  -9 30560.1 1770.87   5
   2   1  -9 26530.4 1876.06   3
   2   1  -8 80415.1 3408.10   3
   2   1  -8 87356.4 3138.69   5
   2   1  -7 36079.0 1945.31   3
   2   1  -7 35993.0 1761.45   5
   2   1  -6 21708.1 1250.79   5
   2   1  -6 18668.8 1282.37   3
   2   1  -5 7508.16 674.607   5
   2   1  -5 8935.49 792.269   3
   2   1  -4 147874. 4230.07   5
   2   1  -4 159678. 4315.79   3
   2   1  -3 104644. 3151.41   5
   2   1  -3 100124. 2956.35   3
   2   1  -2 2726.34 379.878   1
   2   1  -2 2922.35 337.323   3
   2   1  -1 10800.0 727.329   1
   2   1  -1 10304.2 600.910   3
   2   1   0 201443. 4768.19   2
   2   1   0 180435. 4167.11   4
   2   1   1 392757. 8833.87   4
   2   1   1 404448. 9496.23   1
   2   1   2 32312.8 1124.67   6
   2   1   2 30289.7 1458.43   2
   2   1   2 29646.4 1021.77   4
   2   1   3 44645.0 1560.64   6
   2   1   3 43062.6 1443.36   4
   2   2 -18 2979.73 1005.52   4
   2   2 -17 128.718 470.638   4
   2   2 -16 34223.1 2769.40   3
   2   2 -16 30395.2 2634.74   4
   2   2 -15 3234.54 812.525   4
   2   2 -15 4203.10 873.416   5
   2   2 -15 3149.61 806.973   3
   2   2 -14 453.925 501.915   5
   2   2 -14 27.1955 323.557   4
   2   2 -14-457.175 323.536   3
   2   2 -13-149.584 348.244   5
   2   2 -13-336.999 309.028   3
   2   2 -12 32448.8 2375.05   3
   2   2 -12 42599.7 2803.06   5
   2   2 -11 68191.3 3428.79   5
   2   2 -11 64670.8 3347.03   3
   2   2 -10 840.493 332.538   5
   2   2 -10 442.046 373.842   3
   2   2  -9 33408.0 2117.03   5
   2   2  -9 31621.6 2032.28   3
   2   2  -8 1053.40 270.270   5
   2   2  -8 1580.55 416.009   3
   2   2  -7 25143.8 1591.98   5
   2   2  -7 24795.6 1617.06   3
   2   2  -6 117279. 3881.60   5
   2   2  -6 106727. 3779.85   3
   2   2  -5 14734.0 1090.77   5
   2   2  -5 12987.3 989.454   3
   2   2  -4 115695. 3552.10   5
   2   2  -4 106660. 3374.94   3
   2   2  -3 75866.0 2498.49   3
   2   2  -3 84581.0 2796.97   5
   2   2  -2 22799.1 1012.67   3
   2   2  -2 23668.9 1272.50   5
   2   2  -1 84.2648 64.5499   3
   2   2  -1 113.632 138.974   5
   2   2   0 46709.4 1736.94   1
   2   2   0 46299.0 1302.87   3
   2   2   1 253263. 6246.74   2
   2   2   1 241029. 6074.06   1
   2   2   2 626.398 194.394   2
   2   2   2 584.490 183.257   1
   2   2   3 33365.6 1531.80   2
   2   2   3 35989.7 1491.98   1
   2   2   4 80711.4 2880.90   2
   2   2   4 90068.3 2594.30   3
   2   2   5 31438.6 1670.24   2
   2   3 -17 4671.41 1082.03   4
   2   3 -16 801.167 537.324   4
   2   3 -15 1343.19 671.418   4
   2   3 -15 3071.66 877.480   5
   2   3 -14 10992.2 1464.44   4
   2   3 -14 12808.7 1549.24   5
   2   3 -13 899.282 526.955   4
   2   3 -13 2486.59 712.445   5
   2   3 -12 43414.6 2766.21   3
   2   3 -12 49741.3 3316.84   5
   2   3 -12 42095.2 2751.96   4
   2   3 -11 24738.0 1952.06   3
   2   3 -11 28613.5 2355.57   5
   2   3 -11 23970.5 1959.07   4
   2   3 -10 1382.33 459.804   4
   2   3 -10 1982.75 534.275   5
   2   3 -10 2164.03 579.730   3
   2   3  -9 4331.19 708.300   4
   2   3  -9 4580.87 871.618   5
   2   3  -9 4422.94 770.402   3
   2   3  -8 7345.41 924.569   3
   2   3  -8 9009.40 1134.67   5
   2   3  -8 7646.49 888.095   4
   2   3  -7 54236.2 2816.66   5
   2   3  -7 58788.9 2574.13   3
   2   3  -7 54142.3 2498.73   4
   2   3  -6 11067.4 965.875   4
   2   3  -6 11824.3 1020.21   3
   2   3  -6 12455.9 1166.30   5
   2   3  -5 20968.5 1280.23   3
   2   3  -5 19663.1 1419.01   5
   2   3  -5 20497.2 1242.45   4
   2   3  -4 151796. 4431.05   3
   2   3  -4 157317. 4465.24   4
   2   3  -3 28823.6 1283.73   3
   2   3  -3 29462.1 1659.48   5
   2   3  -3 27694.0 1282.66   4
   2   3  -2 24659.2 1063.60   3
   2   3  -2 25907.1 1448.93   5
   2   3  -2 24229.0 1075.05   4
   2   3  -1 763.176 152.103   4
   2   3  -1 768.711 276.937   5
   2   3  -1 513.985 113.749   3
   2   3   0 127941. 3791.16   5
   2   3   0 119585. 2847.74   4
   2   3   1 91270.6 2990.15   5
   2   3   2 9035.04 666.667   1
   2   3   2 9273.06 765.971   5
   2   3   3 24733.0 860.467   3
   2   3   3 24103.0 1150.21   1
   2   3   3 26258.6 1328.21   2
   2   3   4 2759.08 359.275   1
   2   3   4 2731.60 302.172   3
   2   3   4 2523.45 389.253   2
   2   3   5 460129. 10514.4   3
   2   3   5 452870. 10985.4   2
   2   3   5 459706. 10609.6   1
   2   3   6 113796. 3403.01   1
   2   3   6 117934. 3726.12   2
   2   3   7 33446.5 1756.85   2
   2   3   8 39338.4 2071.90   2
   2   4 -17 6303.19 1302.04   4
   2   4 -16 3608.09 1012.40   4
   2   4 -15 863.416 514.178   4
   2   4 -15 2876.04 890.858   5
   2   4 -14 7474.46 1241.29   4
   2   4 -14 9558.39 1457.60   5
   2   4 -13 144.267 318.122   4
   2   4 -13 2026.61 818.363   5
   2   4 -12 24604.3 2368.59   5
   2   4 -12 18474.7 1766.71   4
   2   4 -11 18554.4 2094.94   5
   2   4 -11 13376.6 1457.01   4
   2   4 -10 598.138 314.193   4
   2   4 -10 157.769 408.714   5
   2   4  -9 1444.13 473.617   4
   2   4  -9 4055.13 837.406   5
   2   4  -8 8112.99 1119.52   5
   2   4  -8 8965.30 1002.12   4
   2   4  -7 91130.3 4172.69   5
   2   4  -7 77764.8 3231.23   4
   2   4  -6 11465.4 1310.87   5
   2   4  -6 10187.5 970.720   4
   2   4  -5 575.213 242.545   4
   2   4  -5 66.0297 323.735   5
   2   4  -4 5794.28 811.098   5
   2   4  -4 5575.06 605.467   4
   2   4  -3 162281. 5109.55   5
   2   4  -3 144931. 4183.22   4
   2   4  -2 77984.8 3092.86   5
   2   4  -2 69450.9 2278.50   4
   2   4  -1 9322.51 938.290   5
   2   4  -1 7937.52 548.327   4
   2   4   0 111853. 3715.36   5
   2   4   0 109698. 2874.41   4
   2   4   1 63377.7 2462.21   5
   2   4   1 63758.6 1777.95   4
   2   4   2 16177.6 1093.93   5
   2   4   3 101.062 151.777   5
   2   4   4 22633.6 1097.64   1
   2   4   4 24251.5 1310.18   5
   2   4   4 23529.4 843.666   3
   2   4   5 112934. 3232.74   1
   2   4   5 116856. 3590.29   5
   2   4   5 116660. 3061.60   3
   2   4   6 3696.88 413.072   1
   2   4   6 3782.06 496.612   5
   2   4   6 3961.49 533.963   2
   2   4   7 174.341 146.649   2
   2   4   7 280.163 143.606   1
   2   4   8 23916.2 1486.45   2
   2   4   8 26964.2 1262.89   1
   2   4   9 41313.8 1687.86   1
   2   4   9 34033.3 1858.75   2
   2   4  10 53789.7 2497.41   2
   2   4  11 11256.9 1103.17   2
   2   4  12 17399.8 1441.88   2
   2   4  13 25077.5 1846.13   2
   2   4  14 12776.4 1375.42   2
   2   4  15 1354.69 467.832   2
   2   4  16 8459.42 1196.43   2
   2   5 -16 194.735 510.808   4
   2   5 -15 7682.43 1295.15   4
   2   5 -14 9309.30 1386.71   4
   2   5 -14 10657.7 1545.59   5
   2   5 -13 1141.76 622.925   4
   2   5 -13 1154.54 616.603   5
   2   5 -12 8929.61 1308.69   4
   2   5 -12 11421.4 1649.14   5
   2   5 -11 6183.24 1040.67   4
   2   5 -11 8824.52 1491.48   5
   2   5 -10 3594.77 1030.02   5
   2   5 -10 2758.68 664.987   4
   2   5  -9 2755.95 651.174   4
   2   5  -9 2428.22 783.903   5
   2   5  -8 29377.1 2459.07   5
   2   5  -8 22801.4 1718.23   4
   2   5  -7 33827.7 2621.84   5
   2   5  -7 29474.4 1870.00   4
   2   5  -6 17951.1 1815.57   5
   2   5  -6 13924.1 1204.07   4
   2   5  -5 17953.1 1709.61   5
   2   5  -5 16873.9 1257.99   4
   2   5  -4 3277.77 514.467   4
   2   5  -4 4115.04 758.022   5
   2   5  -3 15794.5 1446.13   5
   2   5  -3 15086.3 1025.02   4
   2   5  -2 24484.8 1756.64   5
   2   5  -2 20290.9 1094.59   4
   2   5  -1 1875.03 309.645   4
   2   5  -1 1482.50 435.099   5
   2   5   0 35466.3 1988.78   5
   2   5   0 30901.3 1302.13   4
   2   5   1 70279.2 2942.95   5
   2   5   1 68645.0 2144.80   4
   2   5   2 15529.5 1220.06   5
   2   5   2 14677.3 788.541   4
   2   5   3 83564.9 3104.07   5
   2   5   4 131238. 4106.92   5
   2   5   5 138166. 4238.76   5
   2   5   5 143941. 3596.38   3
   2   5   6 5634.18 633.752   5
   2   5   7 312.067 191.091   5
   2   5   8 15656.2 798.690   1
   2   5   8 14897.1 1011.71   5
   2   5   8 15385.2 1127.79   2
   2   5   9 143372. 4174.04   5
   2   5   9 144519. 3774.01   1
   2   5   9 144978. 4537.81   2
   2   5  10 21879.0 1203.83   5
   2   5  10 22508.5 1454.70   2
   2   5  10 24520.9 1103.86   1
   2   5  11 268.295 243.455   2
   2   5  11 198.830 149.591   1
   2   5  11 54.4847 111.129   5
   2   5  12 9545.78 1010.64   2
   2   5  13 20610.2 1541.16   2
   2   5  14 14711.9 1303.33   2
   2   6 -15 4347.32 1070.62   4
   2   6 -14 2319.25 815.850   4
   2   6 -14 3332.47 1026.16   5
   2   6 -13 614.276 494.169   4
   2   6 -13 2558.08 922.343   5
   2   6 -12 6182.36 1146.97   4
   2   6 -12 6763.30 1399.05   5
   2   6 -11 660.431 513.059   4
   2   6 -11 3408.45 1175.52   5
   2   6 -10 9000.19 1247.28   4
   2   6 -10 12278.4 1846.20   5
   2   6  -9 1608.17 593.666   4
   2   6  -9 659.838 707.304   5
   2   6  -8 16953.9 2132.76   5
   2   6  -8 12827.2 1327.32   4
   2   6  -7 5676.86 806.053   4
   2   6  -7 7203.63 1276.36   5
   2   6  -6 9926.48 1453.09   5
   2   6  -6 8716.42 995.249   4
   2   6  -5 30595.7 2520.30   5
   2   6  -5 25043.6 1636.60   4
   2   6  -4 61174.1 3589.84   5
   2   6  -4 50662.3 2307.15   4
   2   6  -3 113288. 4827.24   5
   2   6  -3 94610.2 3262.88   4
   2   6  -2 8502.03 1184.16   5
   2   6  -2 9089.13 814.951   4
   2   6  -1 1100.85 288.680   4
   2   6  -1 615.304 417.053   5
   2   6   0 12744.2 1305.30   5
   2   6   0 13817.3 924.715   4
   2   6   1 19232.7 1550.71   5
   2   6   1 17475.7 1025.05   4
   2   6   2 53259.8 2676.31   5
   2   6   2 55278.7 2023.59   4
   2   6   3 2528.78 571.757   5
   2   6   4 57669.2 2655.28   5
   2   6   5 26810.8 1655.28   5
   2   6   6 24589.3 1535.00   5
   2   6   7 6566.08 754.496   5
   2   6   8 668.490 291.936   5
   2   6   9 85419.9 2993.17   5
   2   6  10 10934.2 857.603   5
   2   6  13 22565.2 1537.16   2
   2   7 -14 2079.43 760.057   4
   2   7 -13-578.987 448.778   4
   2   7 -13 1525.88 821.391   5
   2   7 -12 1474.35 650.624   4
   2   7 -12 1589.79 843.805   5
   2   7 -11 3296.84 794.846   4
   2   7 -11 6242.36 1404.57   5
   2   7 -10 9331.37 1301.21   4
   2   7 -10 11945.9 1831.31   5
   2   7  -9 220.520 332.943   4
   2   7  -9 1284.86 837.200   5
   2   7  -8 3313.47 1188.21   5
   2   7  -8 2049.72 570.926   4
   2   7  -7 16598.1 2305.89   5
   2   7  -7 10707.3 1187.76   4
   2   7  -6 770.000 345.860   4
   2   7  -6 1982.55 801.611   5
   2   7  -5 2081.96 556.828   4
   2   7  -5 2658.83 827.160   5
   2   7  -4 3579.94 642.406   4
   2   7  -4 3618.12 980.777   5
   2   7  -3 17283.1 1956.27   5
   2   7  -3 16052.4 1297.21   4
   2   7  -2 13426.0 1646.49   5
   2   7  -2 11619.9 1035.60   4
   2   7  -1 3517.54 539.735   4
   2   7  -1 2782.50 794.187   5
   2   7   0 2637.45 461.258   4
   2   7   0 4597.24 932.998   5
   2   7   1 15721.6 1630.04   5
   2   7   1 12652.2 984.186   4
   2   7   2 89380.9 4086.93   5
   2   7   2 90070.4 3100.63   4
   2   7   3 1662.73 422.545   5
   2   7   4 34971.6 2195.69   5
   2   7   5 20089.7 1584.30   5
   2   7   6 32092.5 1962.99   5
   2   7   7 23189.0 1604.76   5
   2   7   8 91338.5 3495.82   5
   2   7   9 20054.5 1364.56   5
   2   8 -12-306.196 372.341   4
   2   8 -11 1555.53 578.388   4
   2   8 -11 5721.67 1432.60   5
   2   8 -10 1815.45 623.439   4
   2   8 -10 1602.00 845.971   5
   2   8  -9 185.994 318.718   4
   2   8  -9 1017.53 790.047   5
   2   8  -8 1321.50 506.697   4
   2   8  -8 1435.85 803.966   5
   2   8  -7 896.710 464.720   4
   2   8  -7 1326.30 844.169   5
   2   8  -6 60762.9 4440.73   5
   2   8  -6 42505.1 2656.96   4
   2   8  -5-301.199 260.788   4
   2   8  -5-275.423 527.475   5
   2   8  -4 31096.3 2972.47   5
   2   8  -4 24422.5 1823.90   4
   2   8  -3 4859.51 778.972   4
   2   8  -3 6376.70 1225.89   5
   2   8  -2 4076.21 673.054   4
   2   8  -2 3942.32 974.934   5
   2   8  -1 292.920 269.475   4
   2   8  -1 135.548 504.247   5
   2   8   0 694.336 280.486   4
   2   8   0 305.486 407.725   5
   2   8   1 43096.0 3050.15   5
   2   8   1 36515.0 1982.15   4
   2   8   2 37693.8 2768.41   5
   2   8   2 34034.7 1854.14   4
   2   8   3 334.571 457.156   5
   2   8   4 2905.81 758.905   5
   2   8   5 7071.57 1084.35   5
   2   8   6 22407.6 1897.28   5
   2   8   7 28151.9 2050.57   5
   2   8   8 13843.2 1349.80   5
   2   8   9 26795.3 1868.52   5
   2   9 -11 3168.15 900.753   4
   2   9 -10-210.787 342.869   4
   2   9  -9 763.458 569.908   4
   2   9  -9 1641.22 975.734   5
   2   9  -8 198.832 292.631   4
   2   9  -8 1285.99 943.069   5
   2   9  -7 1989.70 686.829   4
   2   9  -7 4938.98 1397.14   5
   2   9  -6 8655.75 1236.51   4
   2   9  -6 12355.3 2041.53   5
   2   9  -5 976.619 456.125   4
   2   9  -5 1754.88 951.259   5
   2   9  -4 460.438 371.380   4
   2   9  -4 1909.52 930.013   5
   2   9  -3 1979.00 512.253   4
   2   9  -3 4527.52 1358.33   5
   2   9  -2 6164.88 934.537   4
   2   9  -2 8542.85 1684.24   5
   2   9  -1 9792.79 1686.34   5
   2   9  -1 8641.40 1054.19   4
   2   9   0-279.113 205.564   4
   2   9   0 624.376 564.451   5
   2   9   1 37521.5 3042.01   5
   2   9   1 35359.1 2120.27   4
   2   9   2 8714.02 1428.14   5
   2   9   2 8707.26 976.908   4
   2   9   3-50.1708 356.742   5
   2   9   4 6.01561 504.891   5
   2   9   5 8590.69 1275.01   5
   2   9   6 70943.2 3867.22   5
   2   9   7 19634.5 1857.75   5
   2   9   8 5020.63 876.860   5
   2  10  -9-190.505 409.950   4
   2  10  -8 2542.65 758.356   4
   2  10  -7 8750.54 1351.85   4
   2  10  -7 11056.6 2025.42   5
   2  10  -6 2988.37 798.872   4
   2  10  -6 2975.98 1248.02   5
   2  10  -5 1535.44 596.822   4
   2  10  -5 2692.02 1127.08   5
   2  10  -4 1026.00 741.049   5
   2  10  -4 174.130 303.543   4
   2  10  -3 2850.50 736.667   4
   2  10  -3 5663.22 1502.05   5
   2  10  -2 3138.31 736.776   4
   2  10  -2 8109.37 1702.47   5
   2  10  -1 4170.54 817.804   4
   2  10  -1 3856.88 1231.65   5
   2  10   0 1178.34 468.993   4
   2  10   0 2296.18 1076.40   5
   2  10   1 11170.4 1853.90   5
   2  10   1 9356.98 1166.46   4
   2  10   2 2480.91 885.061   5
   2  10   2 2174.70 553.902   4
   2  10   3 1082.83 699.876   5
   2  10   4 787.763 550.767   5
   2  10   5 12149.2 1848.05   5
   2  10   6 38776.3 3171.20   5
   2  10   7 5743.53 1166.46   5
   2  11  -4 464.667 602.512   5
   2  11  -3 837.229 824.962   5
   2  11  -2 9937.29 1819.64   5
   2  11  -1 8134.02 1686.12   5
   2  11   0 2639.90 1072.86   5
   2  11   1 5685.99 1333.86   5
   2  11   2 2281.42 868.307   5
   2  11   3 4444.96 1186.81   5
   2  11   4 2542.13 886.314   5
   2  11   5 33519.5 2952.25   5
   2  12  -1 1471.55 847.773   5
   2  12   0 1689.43 962.707   5
   2  12   1 1705.25 817.775   5
   2  12   2 1715.35 814.226   5
   2  12   3 6060.73 1354.84   5
   2  12   4 1200.55 707.691   5
   3  -9 -11 152.823 479.347   3
   3  -9 -10 2527.97 784.573   3
   3  -9  -9 582.476 455.295   3
   3  -9  -8-367.563 504.445   3
   3  -9  -7 6161.69 1167.30   3
   3  -9  -6 2011.81 741.191   3
   3  -9  -5 8552.51 1368.66   3
   3  -9  -4 567.173 519.790   3
   3  -9  -3-600.950 637.089   3
   3  -9  -2 656.496 529.996   3
   3  -9  -1 5351.53 1127.34   3
   3  -8 -14 2739.74 907.537   3
   3  -8 -13 12106.8 1716.69   3
   3  -8 -12 1200.76 685.249   3
   3  -8 -11 679.166 530.837   3
   3  -8 -10 1218.16 543.859   3
   3  -8  -9 1127.02 604.632   3
   3  -8  -8 6265.40 1153.81   3
   3  -8  -7 2491.58 828.554   3
   3  -8  -6 1605.61 645.397   3
   3  -8  -5 2783.61 755.158   3
   3  -8  -4 745.225 546.339   3
   3  -8  -3-220.944 550.285   3
   3  -8  -2 1725.12 684.933   3
   3  -7 -15 5591.57 1266.15   3
   3  -7 -14 367.594 469.079   3
   3  -7 -13 6469.25 1217.44   3
   3  -7 -12 2871.15 835.247   3
   3  -7 -11 91.7968 338.328   3
   3  -7 -10 397.958 440.938   3
   3  -7  -9 626.966 531.599   3
   3  -7  -8 23554.7 2105.80   3
   3  -7  -7 904.844 416.663   3
   3  -7  -6 8510.63 1258.52   3
   3  -7  -5 4470.01 919.809   3
   3  -7  -4 1349.57 471.694   1
   3  -7  -4 377.777 342.803   3
   3  -7  -3 14285.6 1624.08   3
   3  -7  -2 19148.3 1889.71   3
   3  -6 -16 28172.7 2716.04   3
   3  -6 -15 2353.66 874.979   3
   3  -6 -15 1308.23 685.716   6
   3  -6 -14 11993.8 1635.65   3
   3  -6 -14 15257.4 1886.69   6
   3  -6 -13 6405.48 1165.67   3
   3  -6 -13 6685.53 1179.75   6
   3  -6 -12 2877.80 861.509   6
   3  -6 -12 3419.97 913.738   3
   3  -6 -11 142.583 324.195   3
   3  -6 -11 356.461 266.440   6
   3  -6 -10 2044.91 720.902   3
   3  -6 -10 727.556 406.123   6
   3  -6  -9 8605.88 1176.09   6
   3  -6  -9 9253.25 1276.17   3
   3  -6  -8 19335.6 1669.39   6
   3  -6  -8 18867.5 1769.02   3
   3  -6  -7 584.263 291.688   6
   3  -6  -7 356.195 369.976   3
   3  -6  -6 7367.41 964.549   6
   3  -6  -6 5968.60 966.313   3
   3  -6  -6 6297.58 820.375   1
   3  -6  -5 315.070 207.204   6
   3  -6  -5 263.413 270.826   1
   3  -6  -5 63.9717 429.716   3
   3  -6  -4 5501.65 823.980   1
   3  -6  -4 5248.29 738.316   6
   3  -6  -4 5601.60 948.200   3
   3  -6  -3 41839.3 2215.76   6
   3  -6  -3 38361.3 2542.62   3
   3  -6  -2 3195.87 578.357   6
   3  -6  -1 10398.9 1057.94   6
   3  -5 -18-194.835 419.477   6
   3  -5 -17 1085.64 804.619   3
   3  -5 -17-197.499 438.371   6
   3  -5 -16 18297.3 2133.71   6
   3  -5 -16 15362.8 1954.87   3
   3  -5 -15 4099.36 1056.04   3
   3  -5 -15 3361.15 931.735   6
   3  -5 -14 2236.64 751.385   3
   3  -5 -14 1231.77 636.518   6
   3  -5 -13 4114.92 878.933   3
   3  -5 -13 5352.61 1082.15   6
   3  -5 -12 255.770 433.697   3
   3  -5 -12 957.829 433.626   6
   3  -5 -11 13656.9 1532.11   6
   3  -5 -11 11782.5 1439.11   3
   3  -5 -10 1759.68 595.947   3
   3  -5 -10 1357.70 491.711   6
   3  -5  -9 24870.1 1952.04   6
   3  -5  -9 21607.5 1891.57   3
   3  -5  -8 25951.0 1878.49   6
   3  -5  -8 24458.0 1407.91   1
   3  -5  -8 24940.4 1954.35   3
   3  -5  -7 360.433 281.881   6
   3  -5  -7 417.745 437.706   3
   3  -5  -7 592.450 246.432   1
   3  -5  -6 871.296 325.045   1
   3  -5  -6 761.859 365.465   6
   3  -5  -6-264.588 407.563   3
   3  -5  -5 2540.47 546.649   6
   3  -5  -5 2250.01 633.905   3
   3  -5  -5 2247.23 471.307   1
   3  -5  -4 85864.1 3497.26   1
   3  -5  -4 90082.0 3317.80   6
   3  -5  -4 85875.9 3861.54   3
   3  -5  -3 6992.28 783.529   6
   3  -5  -3 7233.48 1043.64   3
   3  -5  -2 2377.47 426.447   6
   3  -5  -1 346.410 228.697   6
   3  -4 -18 5283.58 1215.70   3
   3  -4 -17 14832.5 1979.46   3
   3  -4 -16 21523.1 2338.47   6
   3  -4 -16 19999.5 2248.42   3
   3  -4 -15-227.837 425.364   3
   3  -4 -15-50.6281 388.476   6
   3  -4 -14 2235.58 743.561   3
   3  -4 -14 1952.35 610.703   6
   3  -4 -13 3994.49 946.996   3
   3  -4 -13 4041.71 870.778   6
   3  -4 -12 6626.52 1104.73   6
   3  -4 -12 5397.69 964.127   3
   3  -4 -11 9155.41 1251.98   3
   3  -4 -11 11217.4 1367.18   6
   3  -4 -10-30.1543 271.755   3
   3  -4 -10 96.6356 363.596   6
   3  -4  -9 33920.5 2182.08   6
   3  -4  -9 28977.4 2125.40   3
   3  -4  -8 26420.2 1833.06   6
   3  -4  -8 26002.3 1455.40   1
   3  -4  -8 27051.3 1970.84   3
   3  -4  -7 472.014 303.369   3
   3  -4  -7 103.708 163.274   6
   3  -4  -7 815.162 280.907   1
   3  -4  -6 12402.4 1085.88   6
   3  -4  -6 12653.0 1025.30   1
   3  -4  -6 12933.5 1276.53   3
   3  -4  -5 1208.10 267.870   2
   3  -4  -5 1078.95 371.413   3
   3  -4  -5 1696.02 429.316   1
   3  -4  -5 1080.72 321.919   6
   3  -4  -4 85362.4 2979.21   6
   3  -4  -4 77136.4 3501.58   3
   3  -4  -4 84189.0 2879.81   2
   3  -4  -4 81680.4 3239.40   1
   3  -4  -3 14148.2 1239.47   1
   3  -4  -3 14403.0 987.176   6
   3  -4  -3 13579.7 1296.53   3
   3  -4  -2 4947.51 554.281   6
   3  -4  -1 7761.96 698.652   6
   3  -3 -18 1174.01 626.913   3
   3  -3 -17 15526.4 2030.76   3
   3  -3 -16 12287.9 1721.49   3
   3  -3 -15 1445.68 698.161   3
   3  -3 -14 70.4201 508.995   3
   3  -3 -14 1521.47 703.207   6
   3  -3 -13 540.257 465.222   3
   3  -3 -13 199.640 384.503   6
   3  -3 -12 36483.3 2574.84   6
   3  -3 -12 34503.5 2508.26   3
   3  -3 -11 28139.6 2183.57   6
   3  -3 -11 25039.6 2043.46   3
   3  -3 -10 405.341 343.039   3
   3  -3 -10-221.198 302.209   6
   3  -3  -9 24363.6 1775.61   6
   3  -3  -9 20672.9 1731.02   3
   3  -3  -8 14268.6 1277.19   6
   3  -3  -8 11983.8 1268.08   3
   3  -3  -7 11007.9 1054.35   6
   3  -3  -7 11191.2 929.466   1
   3  -3  -7 10493.7 1128.99   3
   3  -3  -6 14164.9 1119.51   6
   3  -3  -6 14357.4 1080.72   1
   3  -3  -6 12743.0 1229.68   3
   3  -3  -5 117127. 3733.11   6
   3  -3  -5 114562. 3310.02   2
   3  -3  -5 120308. 4303.59   3
   3  -3  -5 116113. 3875.69   1
   3  -3  -4 1888.66 336.309   2
   3  -3  -4 1859.63 351.984   6
   3  -3  -4 2038.45 500.678   3
   3  -3  -4 2028.86 436.563   1
   3  -3  -3 1249.24 270.081   6
   3  -3  -3 1321.22 304.131   2
   3  -3  -3 703.092 250.891   3
   3  -3  -3 1045.12 288.410   1
   3  -3  -2 7664.53 573.191   6
   3  -3  -1 284.005 116.435   6
   3  -2 -18 191.152 459.320   3
   3  -2 -17 10630.4 1662.85   3
   3  -2 -16 5751.12 1192.00   3
   3  -2 -15 890.127 508.211   3
   3  -2 -14 1274.52 652.455   3
   3  -2 -13 7011.65 1139.26   3
   3  -2 -12 15676.2 1687.21   3
   3  -2 -11 20425.3 1808.34   6
   3  -2 -11 18525.9 1740.84   3
   3  -2 -10-119.250 321.367   3
   3  -2 -10-230.496 377.074   6
   3  -2 -10 260.404 164.496   5
   3  -2  -9 15168.2 1388.65   6
   3  -2  -9 15713.0 1007.69   5
   3  -2  -9 14585.6 1389.87   3
   3  -2  -8 7111.92 891.765   6
   3  -2  -8 7535.98 929.412   3
   3  -2  -7 57913.7 2566.09   6
   3  -2  -7 56177.4 2686.50   3
   3  -2  -6 2978.77 491.482   1
   3  -2  -6 3042.54 585.114   3
   3  -2  -6 3194.55 515.447   6
   3  -2  -5 52920.9 2103.26   6
   3  -2  -5 51264.2 2241.42   1
   3  -2  -5 53599.0 2507.72   3
   3  -2  -4 74396.0 2398.07   6
   3  -2  -4 71761.7 2430.34   2
   3  -2  -4 68333.4 2925.76   3
   3  -2  -4 73344.0 2813.56   1
   3  -2  -3 17549.3 863.560   6
   3  -2  -3 17175.9 1281.90   3
   3  -2  -3 18168.5 1086.20   2
   3  -2  -3 18435.5 1275.01   1
   3  -2  -2 26994.5 1621.81   1
   3  -2  -2 24460.8 939.967   6
   3  -2  -2 29248.5 1511.49   2
   3  -2  -1 11319.2 521.244   6
   3  -2   0 117446. 2893.76   6
   3  -2   1 13564.6 711.956   6
   3  -2   2 171.617 108.230   6
   3  -1 -19 9111.55 1642.45   3
   3  -1 -18 1758.37 779.258   3
   3  -1 -17 7859.22 1460.63   3
   3  -1 -16 3572.27 1005.45   3
   3  -1 -15 5838.38 1164.02   3
   3  -1 -14 13613.6 1672.97   3
   3  -1 -13 11416.9 1482.71   3
   3  -1 -12 34379.6 2475.40   3
   3  -1 -11 20772.4 1268.51   5
   3  -1 -11 21882.9 1859.14   3
   3  -1 -10 434.809 426.352   3
   3  -1 -10 299.595 265.552   5
   3  -1  -9 5367.46 760.519   3
   3  -1  -9 4769.66 570.052   5
   3  -1  -8 26996.4 1416.37   5
   3  -1  -8 28236.0 1830.54   3
   3  -1  -7 125948. 3879.45   5
   3  -1  -7 114166. 4198.36   3
   3  -1  -6 9615.74 942.708   3
   3  -1  -5 3044.07 545.762   3
   3  -1  -5 3729.04 539.939   1
   3  -1  -4 3515.58 555.854   3
   3  -1  -4 3630.17 523.044   1
   3  -1  -3 56537.3 2142.16   2
   3  -1  -3 57126.4 2428.98   3
   3  -1  -3 62284.8 2470.17   1
   3  -1  -2 42736.3 1868.08   2
   3  -1  -2 44177.9 2041.17   3
   3  -1  -2 46131.7 2118.95   1
   3  -1  -1 60446.4 2342.07   2
   3  -1  -1 49925.3 2322.01   1
   3  -1   2 1797.08 223.613   6
   3  -1   3 2117.56 290.114   6
   3   0 -18-581.750 619.800   3
   3   0 -17 1694.08 713.061   3
   3   0 -16 3978.06 1009.21   3
   3   0 -15 14587.1 1798.38   3
   3   0 -14-391.641 461.040   3
   3   0 -13 604.572 330.332   3
   3   0 -12 16380.2 1303.51   5
   3   0 -12 12115.2 1470.47   3
   3   0 -11 17982.6 1281.51   5
   3   0 -11 19317.8 1762.68   3
   3   0 -10 2814.57 662.842   3
   3   0 -10 3289.16 534.469   5
   3   0  -9 2175.21 546.628   3
   3   0  -9 2000.50 447.199   5
   3   0  -8 94868.5 3244.01   5
   3   0  -8 94649.5 3740.63   3
   3   0  -7 27850.4 1511.63   5
   3   0  -7 29600.9 1795.80   3
   3   0  -6 153.429 161.875   3
   3   0  -6 130.737 125.429   5
   3   0  -5 6842.74 739.991   3
   3   0  -4 9493.44 850.943   1
   3   0  -4 10173.0 853.685   3
   3   0  -3 178776. 5052.52   1
   3   0  -3 167982. 4888.25   3
   3   0  -2 9872.39 803.836   2
   3   0  -2 9817.72 879.102   1
   3   0  -2 9311.96 776.333   3
   3   0  -1 139104. 4064.18   2
   3   0  -1 118354. 4060.40   1
   3   0   0 69514.0 2656.36   2
   3   0   0 68284.8 2735.04   1
   3   0   1 29608.0 1709.87   1
   3   0   1 35033.7 1825.67   2
   3   0   2 24427.9 834.959   6
   3   0   3 141.148 75.4986   6
   3   1 -18-249.738 440.366   3
   3   1 -17 779.740 636.739   3
   3   1 -16 4395.95 1045.94   3
   3   1 -15 18464.5 2010.48   3
   3   1 -14 126.566 333.542   3
   3   1 -13 4818.83 819.776   5
   3   1 -13 4344.41 916.347   3
   3   1 -12 19406.7 1594.73   5
   3   1 -12 19747.6 1893.96   3
   3   1 -11 20768.2 1554.33   5
   3   1 -11 20681.3 1825.35   3
   3   1 -10 10381.1 1030.90   5
   3   1 -10 10407.8 1218.19   3
   3   1  -9 477.599 323.628   3
   3   1  -9 396.761 311.004   5
   3   1  -8 87983.1 3189.62   5
   3   1  -8 78468.8 3412.20   3
   3   1  -7 19839.8 1327.31   5
   3   1  -7 20277.1 1467.78   3
   3   1  -6 2104.58 417.002   3
   3   1  -6 2732.26 485.125   5
   3   1  -5 2477.39 429.837   3
   3   1  -5 2164.66 407.717   5
   3   1  -4 71211.0 2763.01   5
   3   1  -4 68477.8 2537.41   3
   3   1  -3 225832. 5715.10   1
   3   1  -3 177246. 5156.70   3
   3   1  -2 1869.88 349.415   3
   3   1  -2 1704.74 376.466   1
   3   1  -1 18087.2 1150.44   2
   3   1  -1 16006.3 1137.19   1
   3   1  -1 15348.0 929.994   3
   3   1   0 81856.4 2828.66   2
   3   1   0 66086.7 2709.81   1
   3   1   1 63339.7 2572.90   2
   3   1   1 75817.6 2777.40   1
   3   1   2 50241.9 2256.18   1
   3   1   2 50989.1 2272.00   2
   3   1   3 31329.6 1246.15   6
   3   1   3 34019.9 1915.77   2
   3   2 -18 1103.76 623.761   4
   3   2 -18 328.514 546.856   3
   3   2 -17-588.845 504.498   4
   3   2 -17 108.335 419.198   3
   3   2 -16 15153.1 1809.84   4
   3   2 -16 15347.1 1860.79   3
   3   2 -15 3655.74 882.791   3
   3   2 -14 3272.33 887.392   5
   3   2 -14 3316.47 802.699   3
   3   2 -13-41.4646 306.518   5
   3   2 -13 234.442 421.692   3
   3   2 -12 11079.4 1309.20   5
   3   2 -12 9971.42 1320.23   3
   3   2 -11 35825.0 2451.90   3
   3   2 -11 34413.0 2277.50   5
   3   2 -10 14160.7 1309.26   5
   3   2 -10 13090.2 1384.59   3
   3   2  -9 28103.1 1837.52   5
   3   2  -9 25930.4 1899.82   3
   3   2  -8 13142.7 1179.89   5
   3   2  -8 12015.7 1200.65   3
   3   2  -7 3629.97 646.866   5
   3   2  -7 3337.87 587.999   3
   3   2  -6 19192.8 1334.14   5
   3   2  -6 21861.8 1452.28   3
   3   2  -5 16297.6 1189.34   5
   3   2  -5 15619.2 1132.56   3
   3   2  -4 152899. 4761.05   5
   3   2  -4 156091. 4481.94   3
   3   2  -3 111474. 3809.65   5
   3   2  -3 116960. 3440.61   3
   3   2  -2 2431.20 333.913   3
   3   2  -2 2244.32 443.342   1
   3   2  -2 2385.90 480.233   5
   3   2  -1 12358.8 975.377   1
   3   2  -1 11438.8 701.849   3
   3   2   0 4853.72 584.565   1
   3   2   0 5151.44 447.977   3
   3   2   0 4159.65 320.086   4
   3   2   1 124570. 3970.07   2
   3   2   1 130175. 3963.75   1
   3   2   1 120823. 2949.12   4
   3   2   2 30557.4 1669.56   1
   3   2   2 30969.0 1025.50   4
   3   2   3 27100.1 1611.43   2
   3   2   3 27505.1 1569.20   1
   3   2   3 28999.3 1053.88   4
   3   2   4 68922.5 2699.78   1
   3   2   4 62548.5 2746.51   2
   3   2   5 25807.9 1696.77   2
   3   2   6 120571. 4485.19   2
   3   3 -17 210.857 403.745   4
   3   3 -16 5392.43 1131.73   4
   3   3 -15 1343.02 630.681   4
   3   3 -15 2274.08 771.677   3
   3   3 -14 2102.27 693.540   4
   3   3 -14 2524.72 787.009   5
   3   3 -14 3139.67 858.790   3
   3   3 -13-36.2523 356.793   4
   3   3 -13 225.114 314.493   5
   3   3 -12 10092.4 1298.97   4
   3   3 -12 10512.9 1324.10   3
   3   3 -12 10174.0 1331.11   5
   3   3 -11 21344.6 1935.68   5
   3   3 -11 18560.8 1734.21   3
   3   3 -10 11749.5 1362.19   5
   3   3 -10 12091.6 1333.58   3
   3   3  -9 11213.6 1215.47   5
   3   3  -9 11691.8 1227.97   3
   3   3  -8 27350.3 1878.51   5
   3   3  -8 25844.5 1796.36   3
   3   3  -7 25029.6 1767.07   5
   3   3  -7 23097.5 1611.10   3
   3   3  -6 56701.4 2710.68   5
   3   3  -6 51165.7 2429.67   3
   3   3  -5 157.888 312.051   5
   3   3  -5 175.798 145.260   3
   3   3  -4 102083. 3594.56   5
   3   3  -4 89231.8 3085.38   3
   3   3  -3 17542.8 1284.94   5
   3   3  -3 17063.7 1016.90   3
   3   3  -2 63273.6 2673.15   5
   3   3  -2 64143.5 2117.72   3
   3   3  -1-126.882 114.926   3
   3   3  -1-87.3685 237.040   5
   3   3   0 61005.0 2464.35   1
   3   3   0 64291.7 1826.21   3
   3   3   0 65092.1 2734.04   5
   3   3   1 214678. 5966.70   1
   3   3   1 219921. 5063.73   3
   3   3   2 13153.3 1075.59   2
   3   3   2 13934.1 1016.40   1
   3   3   3 5836.44 716.641   2
   3   3   3 5961.11 659.750   1
   3   3   4 350.654 231.828   2
   3   3   4 373.542 249.254   1
   3   3   4 667.026 171.098   3
   3   3   5 48245.7 2357.73   2
   3   3   5 51145.9 2223.84   1
   3   3   6 83409.3 3106.77   1
   3   3   6 80227.0 3270.12   2
   3   3   7 31.9108 264.233   2
   3   3   7 69.9406 169.036   1
   3   3   8 94473.7 3867.09   2
   3   3   9 29935.2 2095.02   2
   3   3  10 254.879 278.836   2
   3   4 -17 2957.15 904.904   4
   3   4 -16 2314.91 706.636   4
   3   4 -15 4011.01 1019.69   4
   3   4 -15 4026.95 1027.56   5
   3   4 -14 6417.04 1157.52   4
   3   4 -14 7880.90 1457.16   5
   3   4 -13 960.158 574.447   4
   3   4 -13 304.600 455.064   5
   3   4 -12 15629.5 1815.09   5
   3   4 -12 14115.4 1584.68   4
   3   4 -11 27576.5 2098.96   3
   3   4 -11 28084.0 2415.72   5
   3   4 -11 26690.8 2067.20   4
   3   4 -10 525.537 392.855   4
   3   4 -10 741.645 462.014   5
   3   4 -10 244.604 238.866   3
   3   4  -9-67.6689 245.185   4
   3   4  -9-122.847 239.512   3
   3   4  -8 638.827 271.214   4
   3   4  -8 425.789 431.888   5
   3   4  -8 939.288 375.266   3
   3   4  -7 27801.5 1733.42   3
   3   4  -7 30335.0 2084.91   5
   3   4  -7 27410.3 1755.48   4
   3   4  -6 67281.8 2773.24   3
   3   4  -6 67350.7 3230.10   5
   3   4  -6 68131.9 2790.10   4
   3   4  -5 3790.44 550.121   4
   3   4  -5 4524.04 795.990   5
   3   4  -5 3965.81 570.730   3
   3   4  -4 39322.8 1777.62   3
   3   4  -4 42213.7 2320.88   5
   3   4  -4 39848.4 1784.31   4
   3   4  -3 14516.9 923.834   3
   3   4  -3 16168.2 1332.25   5
   3   4  -3 14966.5 913.542   4
   3   4  -2 9867.80 641.583   3
   3   4  -2 8010.80 921.429   5
   3   4  -2 9167.31 631.690   4
   3   4  -1 24995.4 962.424   3
   3   4  -1 25970.5 1636.08   5
   3   4  -1 25635.7 985.004   4
   3   4   0 67718.0 1641.54   3
   3   4   0 73449.3 2897.93   5
   3   4   1 92479.5 3447.06   5
   3   4   2 17356.8 1166.55   1
   3   4   2 17007.6 1302.71   5
   3   4   3 6529.55 691.002   1
   3   4   3 6700.57 821.117   5
   3   4   3 5626.72 294.780   3
   3   4   4 2928.51 463.554   1
   3   4   4 2815.08 277.925   3
   3   4   5 89982.6 2587.89   3
   3   4   5 87911.9 3360.56   2
   3   4   5 83206.1 3008.88   1
   3   4   6 77322.1 3147.83   2
   3   4   6 73253.3 2760.02   1
   3   4   7 11482.1 1129.24   2
   3   4   7 10512.7 930.950   1
   3   4   8 50864.4 2584.29   2
   3   4   8 54120.0 2340.67   1
   3   4   9 43682.8 2107.80   1
   3   4   9 38754.1 2260.16   2
   3   4  10 24481.1 1582.77   1
   3   4  10 25226.2 1824.53   2
   3   4  11 5800.33 892.984   2
   3   4  12 12882.4 1396.66   2
   3   4  13 47685.0 2903.33   2
   3   4  14 4304.68 880.563   2
   3   4  15-294.907 503.051   2
   3   4  16-138.910 407.257   2
   3   4  17 22313.6 2190.42   2
   3   5 -16-430.988 506.137   4
   3   5 -15 226.775 414.254   4
   3   5 -15 3739.91 1024.70   5
   3   5 -14 8245.75 1311.46   4
   3   5 -14 10065.3 1679.84   5
   3   5 -13 556.651 539.740   4
   3   5 -13 152.762 484.024   5
   3   5 -12 6579.11 1067.29   4
   3   5 -12 7751.15 1432.38   5
   3   5 -11 15970.6 1908.23   5
   3   5 -11 12718.2 1400.43   4
   3   5 -10 2050.11 572.607   4
   3   5 -10 2821.79 795.501   5
   3   5  -9 603.390 391.249   4
   3   5  -9 96.1501 406.849   5
   3   5  -8 1320.49 414.116   4
   3   5  -8 1951.25 718.848   5
   3   5  -7 37556.8 2630.99   5
   3   5  -7 35272.1 2042.96   4
   3   5  -6 29987.4 2208.41   5
   3   5  -6 27112.8 1666.10   4
   3   5  -5 18742.0 1707.57   5
   3   5  -5 18347.8 1250.63   4
   3   5  -4 10160.8 1171.14   5
   3   5  -4 9363.93 826.019   4
   3   5  -3 41091.7 2385.26   5
   3   5  -3 31948.5 1524.88   4
   3   5  -2 59329.1 2881.50   5
   3   5  -2 51747.7 1859.90   4
   3   5  -1 5589.62 894.181   5
   3   5  -1 4255.71 374.175   4
   3   5   0 68491.3 2909.99   5
   3   5   0 61844.0 1814.50   4
   3   5   1 33009.8 1945.29   5
   3   5   1 32104.1 1015.31   4
   3   5   2 1316.33 398.282   5
   3   5   3 45228.0 2257.26   5
   3   5   4 3757.84 570.032   5
   3   5   5 195739. 5352.57   1
   3   5   5 198990. 5832.60   5
   3   5   5 191261. 4439.36   3
   3   5   6 60783.8 2665.37   5
   3   5   6 59202.6 2329.08   1
   3   5   6 60318.1 1879.20   3
   3   5   7 3436.39 478.133   1
   3   5   7 3054.19 538.083   5
   3   5   7 2494.21 516.429   2
   3   5   8 13107.4 1151.64   5
   3   5   8 12657.6 1213.73   2
   3   5   8 13219.1 992.861   1
   3   5   9 3771.29 543.120   1
   3   5   9 3310.04 613.106   2
   3   5  10 24995.3 1821.15   2
   3   5  10 25854.9 1519.01   1
   3   5  11 31233.9 2082.28   2
   3   5  11 31294.0 1714.33   1
   3   5  12 33692.9 2234.01   2
   3   5  12 32965.8 1811.35   1
   3   5  13 36837.1 2373.05   2
   3   5  14 5413.83 876.731   2
   3   5  15 806.657 416.387   2
   3   5  16-186.379 333.943   2
   3   6 -15 4111.54 987.839   4
   3   6 -15 4938.93 1195.09   5
   3   6 -14 4839.26 1032.81   4
   3   6 -14 5729.94 1274.95   5
   3   6 -13 148.368 285.929   4
   3   6 -13 30.2772 422.025   5
   3   6 -12 7393.84 1149.91   4
   3   6 -12 11269.7 1899.49   5
   3   6 -11 923.217 492.195   4
   3   6 -11-98.5113 450.662   5
   3   6 -10 913.494 430.069   4
   3   6 -10 1492.40 777.443   5
   3   6  -9 12922.4 1777.02   5
   3   6  -9 8631.45 1125.80   4
   3   6  -8 3000.54 647.976   4
   3   6  -8 3402.91 905.914   5
   3   6  -7 30468.1 2622.05   5
   3   6  -7 31301.6 1946.38   4
   3   6  -6 9798.38 1373.13   5
   3   6  -6 9517.68 1006.48   4
   3   6  -5 1989.04 447.305   4
   3   6  -5 1801.98 548.088   5
   3   6  -4 1893.09 385.654   4
   3   6  -4 1075.42 389.190   5
   3   6  -3 20354.3 1783.78   5
   3   6  -3 18853.4 1150.38   4
   3   6  -2 69719.8 3409.32   5
   3   6  -2 64477.6 2275.52   4
   3   6  -1 493.820 185.378   4
   3   6  -1 343.284 345.679   5
   3   6   0 25542.0 1892.96   5
   3   6   0 22630.6 1058.77   4
   3   6   1 32241.8 2078.75   5
   3   6   1 28730.9 1151.36   4
   3   6   2 7625.86 969.029   5
   3   6   3 13452.5 1221.88   5
   3   6   4 13144.4 1162.45   5
   3   6   5 65249.5 2855.28   5
   3   6   6 21675.7 1500.66   5
   3   6   7 141.661 210.507   5
   3   6   8 4957.86 696.303   5
   3   6   9 28489.4 1404.21   1
   3   6   9 27086.5 1677.69   5
   3   6  10 30105.8 1761.90   5
   3   6  10 31421.3 1511.88   1
   3   6  11 2006.78 450.188   5
   3   6  11 1860.10 524.029   2
   3   6  12 15900.9 1450.36   2
   3   6  13 20677.9 1690.32   2
   3   6  14 9630.09 1181.17   2
   3   6  15 21584.4 1823.67   2
   3   7 -14 2870.75 782.881   4
   3   7 -13 474.259 314.044   4
   3   7 -13 1463.13 813.041   5
   3   7 -12 1817.16 565.788   4
   3   7 -12 2060.27 1037.43   5
   3   7 -11 1252.09 575.076   4
   3   7 -11 1726.66 852.445   5
   3   7 -10 3727.41 817.064   4
   3   7 -10 5538.95 1337.07   5
   3   7  -9 2998.17 694.581   4
   3   7  -9 1019.85 539.475   5
   3   7  -8 4454.12 828.365   4
   3   7  -8 5128.17 1227.70   5
   3   7  -7 32868.5 2932.88   5
   3   7  -7 30983.7 2062.65   4
   3   7  -6 111.628 211.096   4
   3   7  -6-174.402 451.901   5
   3   7  -5 300.414 247.830   4
   3   7  -5-190.175 394.127   5
   3   7  -4 91.2464 163.628   4
   3   7  -4 58.3113 395.285   5
   3   7  -3 19845.0 1941.37   5
   3   7  -3 17259.1 1245.90   4
   3   7  -2 26371.9 2193.82   5
   3   7  -2 26086.0 1475.68   4
   3   7  -1 410.805 188.149   4
   3   7  -1-14.9665 380.194   5
   3   7   0 13300.5 1445.43   5
   3   7   0 13363.9 912.256   4
   3   7   1 1212.11 234.001   4
   3   7   1 1194.74 504.021   5
   3   7   2 85104.6 3868.72   5
   3   7   3 37185.4 2346.88   5
   3   7   4 43907.1 2497.49   5
   3   7   5 50148.6 2648.73   5
   3   7   6 14757.7 1317.18   5
   3   7   7 2787.27 583.664   5
   3   7   8 1795.03 478.111   5
   3   7   9 23528.1 1579.99   5
   3   7  10 68536.0 2855.12   5
   3   8 -13 184.311 331.594   4
   3   8 -12-834.564 592.629   4
   3   8 -11 3.19691 332.974   4
   3   8 -11 961.833 805.001   5
   3   8 -10 6964.99 1117.62   4
   3   8 -10 6607.12 1555.01   5
   3   8  -9 936.149 423.444   4
   3   8  -9 2294.58 1095.35   5
   3   8  -8 293.155 245.263   4
   3   8  -8 637.649 617.244   5
   3   8  -7 1755.75 517.934   4
   3   8  -7 1796.86 631.172   5
   3   8  -6 15912.7 2102.13   5
   3   8  -6 15727.6 1410.29   4
   3   8  -5 4785.53 750.790   4
   3   8  -5 5894.35 1337.36   5
   3   8  -4 2602.96 551.964   4
   3   8  -4 3781.38 1028.87   5
   3   8  -3 42526.8 3217.56   5
   3   8  -3 32696.6 1918.48   4
   3   8  -2 11309.4 1615.28   5
   3   8  -2 10803.1 981.142   4
   3   8  -1 154.790 182.775   4
   3   8  -1-464.400 652.141   5
   3   8   0 347.495 220.265   4
   3   8   0-186.239 638.786   5
   3   8   1 3846.80 551.161   4
   3   8   1 3429.15 762.057   5
   3   8   2 35424.7 2532.01   5
   3   8   3 2125.74 597.407   5
   3   8   4 5134.83 909.022   5
   3   8   5 15635.1 1525.04   5
   3   8   6 6272.51 961.135   5
   3   8   7 11748.8 1275.87   5
   3   8   8 1084.08 471.062   5
   3   8   9 17139.1 1466.70   5
   3   9  -9 2023.40 929.391   5
   3   9  -8 4538.78 918.176   4
   3   9  -8 7180.46 1725.23   5
   3   9  -7 118.210 277.700   4
   3   9  -7 975.025 860.647   5
   3   9  -6 517.548 378.258   4
   3   9  -6-149.926 816.374   5
   3   9  -5 4433.14 813.685   4
   3   9  -5 6162.97 1555.27   5
   3   9  -4 135.616 213.659   4
   3   9  -4-230.314 569.350   5
   3   9  -3 9164.22 1593.00   5
   3   9  -3 8395.08 998.457   4
   3   9  -2 6776.02 1399.94   5
   3   9  -1-407.496 646.886   5
   3   9   0 7496.80 1332.60   5
   3   9   1 17937.6 2025.37   5
   3   9   2 37870.7 2922.30   5
   3   9   3-454.168 488.168   5
   3   9   4 2560.24 560.995   5
   3   9   5 11009.2 1422.81   5
   3   9   6 32417.1 2451.68   5
   3   9   7 2501.98 613.084   5
   3   9   8 457.796 281.992   5
   3  10  -7 6781.72 1799.15   5
   3  10  -6 12215.4 2294.75   5
   3  10  -5 448.308 699.253   5
   3  10  -4 1284.00 674.361   5
   3  10  -3 3712.32 1140.53   5
   3  10  -2 1973.17 915.339   5
   3  10  -1 2719.53 748.186   5
   3  10   0-83.9672 609.871   5
   3  10   1 14557.6 2008.84   5
   3  10   2 8180.67 1469.23   5
   3  10   3 1594.20 535.267   5
   3  10   4-227.707 510.968   5
   3  10   5 232.503 397.043   5
   3  10   6 17377.8 1960.73   5
   3  10   7 9316.22 1389.85   5
   3  11  -4 1023.28 903.463   5
   3  11  -3 464.463 911.803   5
   3  11  -2-608.253 752.523   5
   3  11  -1 11970.8 2238.75   5
   3  11   0-277.092 830.362   5
   3  11   1 10948.8 1870.15   5
   3  11   2 2224.86 780.403   5
   3  11   3 1933.36 695.992   5
   3  11   4-506.482 664.554   5
   3  11   5 21504.5 2413.98   5
   3  11   6 1797.51 721.691   5
   3  12  -1 5583.80 1508.97   5
   3  12   0 1120.32 808.942   5
   3  12   1 1530.73 880.166   5
   3  12   2 1541.47 1000.84   5
   3  12   3 648.434 681.540   5
   3  12   4 5246.60 1415.07   5
   3  12   5 2527.51 1031.82   5
   3  13   3 7287.64 1635.90   5
   4  -8  -9 4389.55 1118.38   3
   4  -8  -8 505.100 623.606   3
   4  -8  -7 984.606 640.005   3
   4  -8  -6 380.289 537.105   3
   4  -8  -5 54.8048 436.842   3
   4  -8  -4 5131.07 1140.85   3
   4  -8  -3-731.601 614.567   3
   4  -8  -2-762.912 621.882   3
   4  -8  -1 2688.98 895.714   3
   4  -8   0-314.939 495.764   3
   4  -7 -12 2283.63 863.656   3
   4  -7 -11 1478.07 809.828   3
   4  -7 -10 1674.46 725.540   3
   4  -7  -9 916.231 534.067   3
   4  -7  -8 8749.07 1422.76   3
   4  -7  -7 6207.49 1135.94   3
   4  -7  -6 3314.82 883.519   3
   4  -7  -5 4926.34 1103.50   3
   4  -7  -4 487.531 420.432   3
   4  -7  -3-160.354 493.620   3
   4  -7  -2 86.2030 478.227   3
   4  -7  -1 494.446 473.966   3
   4  -6 -14 866.489 623.941   3
   4  -6 -13 4888.50 1106.96   3
   4  -6 -12 5109.62 1085.49   3
   4  -6 -11-187.574 429.490   3
   4  -6 -10 694.131 486.957   3
   4  -6  -9 596.705 502.278   3
   4  -6  -8 9878.26 1408.78   3
   4  -6  -7 1543.01 711.149   3
   4  -6  -6-563.898 525.322   3
   4  -6  -5 8042.30 1312.35   3
   4  -6  -5 6976.31 1011.16   1
   4  -6  -4-51.9036 240.361   1
   4  -6  -4-610.711 477.316   3
   4  -6  -3 10145.8 1312.06   1
   4  -6  -3 11631.5 1530.26   3
   4  -6  -2 825.784 401.944   3
   4  -5 -15 6023.65 1256.40   3
   4  -5 -14 158.067 430.312   3
   4  -5 -13 3520.64 892.805   3
   4  -5 -12 3871.37 934.997   3
   4  -5 -11-425.855 413.575   3
   4  -5 -10 7432.76 1235.64   3
   4  -5  -9 9047.70 1313.53   3
   4  -5  -8 26886.1 2209.52   3
   4  -5  -7 1384.55 543.069   3
   4  -5  -7 1646.44 436.848   1
   4  -5  -6 1394.20 412.798   1
   4  -5  -6 447.306 305.687   3
   4  -5  -5 300.578 221.133   1
   4  -5  -5 832.164 289.104   3
   4  -5  -4 16511.2 1710.74   3
   4  -5  -4 14303.5 1433.05   1
   4  -5  -3 3919.42 819.727   3
   4  -5  -3 4062.59 804.964   1
   4  -5  -2 1005.11 393.140   1
   4  -5  -2 623.284 410.254   3
   4  -4 -16 15775.4 2007.42   3
   4  -4 -15 27.6878 428.811   3
   4  -4 -14 1497.22 587.769   3
   4  -4 -13 6378.86 1257.35   3
   4  -4 -12 2557.50 775.252   3
   4  -4 -11 5048.51 946.039   3
   4  -4 -10 6102.83 1065.30   3
   4  -4  -9 11259.0 1403.50   3
   4  -4  -8 8889.15 1253.06   3
   4  -4  -8 8518.64 933.287   1
   4  -4  -7 2323.45 732.827   3
   4  -4  -7 2087.18 489.656   1
   4  -4  -6 1208.86 513.767   3
   4  -4  -6 2181.26 529.334   1
   4  -4  -5 8819.45 1192.57   3
   4  -4  -5 9809.78 1111.07   1
   4  -4  -4 42534.7 2662.45   3
   4  -4  -4 42734.1 2091.45   2
   4  -4  -4 41898.1 2464.86   1
   4  -4  -3 11734.1 1341.47   3
   4  -4  -3 12032.7 1120.65   2
   4  -4  -3 11937.5 1280.55   1
   4  -4  -2 582.620 320.140   2
   4  -4  -2-821.257 523.288   3
   4  -4  -2-350.898 309.907   1
   4  -3 -17 274.878 424.405   3
   4  -3 -16 8472.20 1475.71   3
   4  -3 -15 3899.50 1019.40   3
   4  -3 -14 998.057 709.833   3
   4  -3 -13 1331.29 708.023   3
   4  -3 -12-38.8117 472.622   3
   4  -3 -11 32464.6 2492.57   3
   4  -3 -10 582.953 501.577   3
   4  -3  -9 17688.6 1477.07   6
   4  -3  -9 14928.9 1543.80   3
   4  -3  -8 11550.9 1094.06   6
   4  -3  -8 12533.9 1161.74   1
   4  -3  -8 12610.7 1376.62   3
   4  -3  -7 2306.62 632.928   3
   4  -3  -7 2106.28 479.766   1
   4  -3  -7 1831.14 404.522   6
   4  -3  -6 10196.8 1050.48   1
   4  -3  -6 10642.7 1223.90   3
   4  -3  -5 42379.4 1897.08   2
   4  -3  -5 38076.9 2228.85   1
   4  -3  -5 42601.4 2525.90   3
   4  -3  -4 24017.5 1471.20   2
   4  -3  -4 23827.7 1851.82   3
   4  -3  -4 21548.2 1685.97   1
   4  -3  -3 893.219 331.539   2
   4  -3  -3 1635.04 441.046   3
   4  -3  -3 1029.98 358.859   1
   4  -3  -2 555.859 214.083   2
   4  -3  -2 504.956 247.747   3
   4  -3  -2 1063.79 351.662   1
   4  -3  -1 1182.41 447.250   2
   4  -3  -1 746.656 330.270   1
   4  -2 -17 15190.6 2020.62   3
   4  -2 -16 5753.28 1255.83   3
   4  -2 -15 3216.43 931.708   3
   4  -2 -14 633.081 581.474   3
   4  -2 -13 331.836 396.034   3
   4  -2 -12 6630.75 1109.59   3
   4  -2 -11 29803.0 2305.77   3
   4  -2 -10 676.903 432.217   3
   4  -2 -10 787.040 273.351   5
   4  -2  -9 12861.9 1145.57   5
   4  -2  -9 14397.0 1501.68   3
   4  -2  -8 7734.53 1052.97   3
   4  -2  -7 1977.09 465.386   1
   4  -2  -7 1633.25 568.879   3
   4  -2  -6 74185.5 3177.64   1
   4  -2  -6 77932.3 3437.51   3
   4  -2  -5 8909.33 981.004   1
   4  -2  -5 11463.5 1195.65   3
   4  -2  -4 45203.5 2070.84   2
   4  -2  -4 41667.2 2293.45   1
   4  -2  -4 39724.4 2334.78   3
   4  -2  -3 22730.9 1488.43   2
   4  -2  -3 20839.6 1591.77   3
   4  -2  -3 18892.6 1572.98   1
   4  -2  -2 1419.09 463.932   1
   4  -2  -2 997.167 291.611   2
   4  -2  -2 335.347 306.824   3
   4  -2  -1 296.213 235.119   1
   4  -2  -1 331.782 231.941   2
   4  -2   0 26260.4 1950.38   1
   4  -2   0 28913.0 1983.00   2
   4  -1 -18 479.757 512.022   3
   4  -1 -17 3290.75 999.508   3
   4  -1 -16 3471.19 983.200   3
   4  -1 -15 1946.95 793.975   3
   4  -1 -14 2812.84 825.543   3
   4  -1 -13 2068.42 700.122   3
   4  -1 -12 31109.3 2469.72   3
   4  -1 -11 18613.4 1829.66   3
   4  -1 -10 180.123 244.423   3
   4  -1 -10-72.5284 166.982   5
   4  -1  -9 7288.23 1002.41   3
   4  -1  -9 7627.21 842.395   5
   4  -1  -8 2066.37 565.342   3
   4  -1  -8 1305.64 378.634   5
   4  -1  -7 87813.8 3665.44   3
   4  -1  -6 5575.67 747.201   1
   4  -1  -6 7841.82 1013.00   3
   4  -1  -5 13147.5 1193.84   1
   4  -1  -5 15405.9 1315.54   3
   4  -1  -4 2722.29 567.977   3
   4  -1  -4 2770.01 550.278   1
   4  -1  -3 12234.8 1042.61   2
   4  -1  -3 9174.93 1023.31   1
   4  -1  -3 12203.7 1135.05   3
   4  -1  -2 12174.8 1092.19   2
   4  -1  -2 10664.8 1050.78   3
   4  -1  -2 10893.1 1171.44   1
   4  -1  -1 1347.76 427.245   1
   4  -1  -1 1304.99 369.337   2
   4  -1   0 76063.0 3417.57   1
   4  -1   0 74825.0 3208.96   2
   4  -1   1 57547.0 2935.40   1
   4  -1   1 57958.1 2937.17   2
   4   0 -18 386.738 512.753   3
   4   0 -17 655.778 576.142   3
   4   0 -16 5039.14 1148.60   3
   4   0 -15-137.039 497.615   3
   4   0 -14 1867.82 651.773   3
   4   0 -13 607.913 440.505   3
   4   0 -12 30446.5 2405.37   3
   4   0 -11 13387.3 1191.75   5
   4   0 -11 12536.0 1450.05   3
   4   0 -10 560.727 459.647   3
   4   0 -10 715.029 330.202   5
   4   0  -9-462.005 444.044   3
   4   0  -9 143.633 243.833   5
   4   0  -8 250.151 266.577   3
   4   0  -8 937.666 301.508   5
   4   0  -7 116995. 4108.73   5
   4   0  -7 107032. 4147.68   3
   4   0  -6 4376.56 731.668   3
   4   0  -5 18374.5 1384.71   1
   4   0  -5 17018.2 1312.21   3
   4   0  -4 43608.4 2271.67   1
   4   0  -4 45148.7 2207.32   3
   4   0  -3 14578.5 1254.06   1
   4   0  -3 14981.8 1188.58   3
   4   0  -2 65903.5 2792.06   2
   4   0  -2 68867.8 2977.62   1
   4   0  -2 68644.0 2803.19   3
   4   0  -1 2607.71 557.089   2
   4   0  -1 2978.16 599.360   1
   4   0  -1 2131.34 419.322   3
   4   0   0 55944.0 2635.17   2
   4   0   0 65955.9 2989.73   1
   4   0   1 35197.7 2062.51   2
   4   0   1 32168.2 2052.94   1
   4   0   2 2794.52 595.650   1
   4   0   2 2439.21 504.199   2
   4   0   3 32.9714 313.359   2
   4   0   4 3594.10 377.871   6
   4   1 -18 958.671 667.461   3
   4   1 -17 1294.85 609.740   3
   4   1 -16 792.204 620.150   3
   4   1 -15 8932.59 1449.39   3
   4   1 -14 16722.6 1918.75   3
   4   1 -13 3775.60 910.486   3
   4   1 -12 19567.1 1585.18   5
   4   1 -12 21509.5 1993.85   3
   4   1 -11 9393.13 1083.65   5
   4   1 -11 8216.16 1190.58   3
   4   1 -10 445.236 412.565   3
   4   1 -10 503.149 282.944   5
   4   1  -9 12094.8 1143.47   5
   4   1  -9 13558.2 1393.87   3
   4   1  -8 82646.7 3351.18   5
   4   1  -8 89240.0 3727.64   3
   4   1  -7 11040.5 1070.05   5
   4   1  -7 9008.05 1037.14   3
   4   1  -6 67.0314 222.229   3
   4   1  -6 378.111 236.087   5
   4   1  -5 896.451 339.589   3
   4   1  -5 879.665 349.867   5
   4   1  -4 3047.71 608.075   1
   4   1  -4 2334.36 462.773   3
   4   1  -3 38159.2 2123.83   1
   4   1  -3 42275.8 1963.61   3
   4   1  -2 37576.3 2073.39   1
   4   1  -2 36724.6 1821.91   3
   4   1  -1 1439.83 336.643   3
   4   1  -1 1959.28 548.169   1
   4   1  -1 1795.98 452.765   2
   4   1   0 55841.9 2622.27   2
   4   1   0 65625.6 2897.72   1
   4   1   1 28238.9 1830.87   2
   4   1   1 29552.5 1911.99   1
   4   1   2 459.762 267.686   2
   4   1   2 654.627 247.802   1
   4   1   3 13530.4 1293.44   1
   4   1   3 15055.0 1382.80   2
   4   1   4 48462.7 2638.50   1
   4   1   4 49322.8 2754.13   2
   4   1   5 124074. 5015.33   2
   4   2 -17-879.856 653.346   3
   4   2 -16 1178.62 615.284   3
   4   2 -15 4718.34 1028.43   3
   4   2 -14 6257.72 1186.66   3
   4   2 -13 874.081 466.577   5
   4   2 -13 1119.66 569.743   3
   4   2 -12 10443.3 1223.05   5
   4   2 -12 8935.73 1288.17   3
   4   2 -11 2315.61 600.476   5
   4   2 -11 2370.66 634.252   3
   4   2 -10 11567.9 1252.94   5
   4   2 -10 11352.6 1310.67   3
   4   2  -9 1218.52 471.202   5
   4   2  -9 832.513 421.322   3
   4   2  -8 55726.8 2734.76   5
   4   2  -8 61322.9 3009.86   3
   4   2  -7 31712.5 1938.43   5
   4   2  -7 30549.7 1930.76   3
   4   2  -6 5183.16 746.006   3
   4   2  -6 4661.52 768.963   5
   4   2  -5-179.952 242.549   3
   4   2  -5 214.515 284.248   5
   4   2  -4 6125.30 699.205   3
   4   2  -4 4830.60 721.796   5
   4   2  -3 123191. 4417.21   1
   4   2  -3 131656. 3980.46   3
   4   2  -2 11418.7 1082.80   1
   4   2  -2 11404.1 860.736   3
   4   2  -1 14344.0 1241.95   1
   4   2  -1 14564.2 965.976   3
   4   2   0 56198.0 2624.05   2
   4   2   0 60472.9 2724.86   1
   4   2   0 55722.7 2166.27   3
   4   2   1 12943.5 1168.63   2
   4   2   1 12258.3 1167.19   1
   4   2   2 45594.5 2382.12   2
   4   2   2 42483.2 2340.50   1
   4   2   3 16751.7 1443.33   2
   4   2   3 17752.7 1441.86   1
   4   2   4 53697.0 2774.95   2
   4   2   4 57222.9 2782.67   1
   4   2   5 1061.45 417.986   2
   4   2   5 1944.88 473.355   1
   4   2   6 43595.8 2521.29   1
   4   2   6 51234.3 2851.76   2
   4   2   7 6918.91 1068.59   2
   4   2   8 20964.8 1925.19   2
   4   3 -17 2547.37 907.662   4
   4   3 -17 744.744 663.621   3
   4   3 -16 850.977 541.124   4
   4   3 -16 2486.38 898.583   3
   4   3 -15 13162.8 1668.87   4
   4   3 -15 14705.5 1825.50   3
   4   3 -14 1702.40 577.478   5
   4   3 -14 1621.71 601.353   3
   4   3 -13 1377.33 561.632   5
   4   3 -13 1430.07 536.608   3
   4   3 -12 6982.55 1149.75   5
   4   3 -12 6311.02 1076.24   3
   4   3 -11 1049.52 277.601   5
   4   3 -11 1404.30 493.913   3
   4   3 -10 52448.7 2950.82   5
   4   3 -10 54533.3 3061.15   3
   4   3  -9 5933.37 932.156   5
   4   3  -9 6017.73 899.904   3
   4   3  -8 10892.5 1251.70   5
   4   3  -8 11419.7 1209.17   3
   4   3  -7 7456.59 990.701   5
   4   3  -7 7975.41 935.522   3
   4   3  -6 14019.4 1297.23   5
   4   3  -6 13812.3 1203.45   3
   4   3  -5 9023.24 1044.10   5
   4   3  -5 9819.50 951.817   3
   4   3  -4 19169.1 1520.92   5
   4   3  -4 21167.5 1321.00   3
   4   3  -3 39809.0 2261.58   5
   4   3  -3 44068.4 1879.08   3
   4   3  -2 46063.5 2497.36   5
   4   3  -2 52670.5 1978.14   3
   4   3  -1 170.928 92.1069   4
   4   3  -1 352.749 314.501   1
   4   3  -1 221.236 124.902   3
   4   3  -1 208.168 245.715   5
   4   3   0 17308.3 1350.92   1
   4   3   0 17999.7 970.006   3
   4   3   0 17567.7 747.572   4
   4   3   1 17125.0 1343.90   1
   4   3   1 18202.7 961.616   3
   4   3   1 16196.2 615.319   4
   4   3   2 65505.8 2875.96   1
   4   3   2 62792.5 1675.00   4
   4   3   3 777.411 301.868   1
   4   3   3 470.341 367.856   2
   4   3   4 59812.1 2931.32   2
   4   3   4 62851.1 2905.95   1
   4   3   5 43910.5 2518.03   2
   4   3   5 43145.6 2358.47   1
   4   3   6 1160.99 516.097   2
   4   3   6 1165.29 451.256   1
   4   3   7 6950.74 933.533   1
   4   3   7 5819.40 915.155   2
   4   3   8 22539.2 1763.97   1
   4   3   8 21796.6 1834.98   2
   4   3   9 46793.3 2904.04   2
   4   3  10 3049.63 728.288   2
   4   3  11 489.685 359.038   2
   4   3  12-157.905 431.058   2
   4   3  13 16710.1 1960.42   2
   4   3  14 35067.3 2959.96   2
   4   3  15-251.539 593.410   2
   4   3  16 6896.65 1354.11   2
   4   3  17 2683.73 892.248   2
   4   3  18 14521.6 2070.44   2
   4   3  19 1356.60 747.995   2
   4   4 -16 1140.75 598.852   4
   4   4 -15 3855.96 883.124   4
   4   4 -15 4900.43 1004.89   3
   4   4 -14 1879.42 682.312   4
   4   4 -14 2026.85 735.803   5
   4   4 -14 2790.04 803.842   3
   4   4 -13 389.907 461.460   4
   4   4 -13-28.0722 411.256   5
   4   4 -13 515.589 418.142   3
   4   4 -12 137.915 278.610   4
   4   4 -12 837.440 542.689   5
   4   4 -12 1016.61 480.061   3
   4   4 -11 17687.1 1702.17   3
   4   4 -11 19897.9 1937.41   5
   4   4 -11 17022.8 1680.75   4
   4   4 -10 9338.33 1165.44   4
   4   4 -10 9514.24 1165.94   3
   4   4 -10 10106.2 1310.64   5
   4   4  -9 3943.10 738.568   4
   4   4  -9 4673.38 893.918   5
   4   4  -9 3567.22 710.470   3
   4   4  -8 4058.77 862.591   5
   4   4  -8 3011.69 640.178   3
   4   4  -7 5126.73 909.111   5
   4   4  -7 4370.10 712.540   3
   4   4  -6 24996.2 1929.84   5
   4   4  -6 23202.4 1600.94   3
   4   4  -5 6210.59 737.972   3
   4   4  -5 5324.39 874.364   5
   4   4  -4 78695.3 3451.71   5
   4   4  -4 76007.1 2858.81   3
   4   4  -3 38444.6 2259.00   5
   4   4  -3 36724.2 1670.94   3
   4   4  -2 7508.34 564.992   4
   4   4  -2 7681.62 987.095   5
   4   4  -2 9143.37 695.458   3
   4   4  -1 526.844 187.382   3
   4   4  -1 436.323 113.792   4
   4   4  -1 677.373 346.048   5
   4   4   0 939.227 171.458   3
   4   4   0 481.765 244.021   5
   4   4   0 616.422 89.7228   4
   4   4   0 782.162 97.1264   4
   4   4   1 47001.4 2351.12   1
   4   4   1 48217.7 2580.41   5
   4   4   1 49724.3 1549.32   3
   4   4   2 60788.8 2708.10   1
   4   4   2 59573.3 1791.35   3
   4   4   3 6060.50 761.692   1
   4   4   4 593.790 273.526   1
   4   4   4 440.894 253.836   2
   4   4   5 63860.6 3029.75   2
   4   4   5 56915.3 2689.85   1
   4   4   6 100318. 4098.84   2
   4   4   6 94116.3 3716.97   1
   4   4   7 9854.64 1209.20   2
   4   4   7 9627.06 1069.61   1
   4   4   8 46168.3 2746.89   2
   4   4   8 43680.6 2406.07   1
   4   4   9 14031.2 1449.78   2
   4   4   9 16391.2 1435.96   1
   4   4  10 10354.6 1168.09   1
   4   4  10 11747.1 1364.06   2
   4   4  11 1556.63 559.866   2
   4   4  11 1425.00 502.328   1
   4   4  12 391.790 418.441   2
   4   4  12 262.367 342.486   1
   4   4  13 36313.0 2765.24   2
   4   4  14 14666.1 1783.92   2
   4   4  15-183.218 303.755   2
   4   4  16 578.119 325.406   2
   4   4  17 1093.58 583.804   2
   4   4  18 375.253 409.722   2
   4   5 -16 1292.77 614.978   4
   4   5 -15 3538.20 896.113   4
   4   5 -15 2785.15 1008.69   5
   4   5 -14 1091.16 532.149   4
   4   5 -14 525.786 462.907   5
   4   5 -13 798.679 587.564   4
   4   5 -13 213.359 402.159   5
   4   5 -12 865.029 498.105   4
   4   5 -12-135.644 407.215   5
   4   5 -11 27466.2 2567.38   5
   4   5 -11 25971.1 2095.73   4
   4   5 -10 3570.94 729.261   4
   4   5 -10 3911.75 819.889   3
   4   5 -10 3026.99 736.082   5
   4   5  -9-222.093 230.482   4
   4   5  -9-10.8585 500.296   5
   4   5  -9 97.3265 247.422   3
   4   5  -8 802.306 316.753   4
   4   5  -8 1535.69 587.059   5
   4   5  -8 1722.66 499.993   3
   4   5  -7 12554.0 1162.36   3
   4   5  -7 11358.6 1391.57   5
   4   5  -7 11894.2 1149.30   4
   4   5  -6 40707.9 2086.42   3
   4   5  -6 41302.7 2702.71   5
   4   5  -6 40106.1 2074.90   4
   4   5  -5 715.653 288.947   4
   4   5  -5 1092.74 631.047   5
   4   5  -5 636.539 253.001   3
   4   5  -4 1277.93 306.949   4
   4   5  -4 1929.66 668.599   5
   4   5  -4 1239.04 286.983   3
   4   5  -3 39461.2 1628.73   3
   4   5  -3 38373.9 2372.82   5
   4   5  -3 38039.2 1610.92   4
   4   5  -2 23736.9 1061.93   3
   4   5  -2 21886.1 1761.52   5
   4   5  -2 22946.9 1055.36   4
   4   5  -1 4064.76 323.931   3
   4   5  -1 3507.89 698.512   5
   4   5  -1 3160.38 289.111   4
   4   5   0 5543.00 872.143   5
   4   5   1 72309.4 3287.52   5
   4   5   2 16225.4 1425.51   5
   4   5   3 2755.22 552.279   1
   4   5   3 1975.54 504.266   5
   4   5   4 5183.58 709.885   1
   4   5   4 4725.42 261.688   3
   4   5   4 4595.78 249.376   3
   4   5   5 11094.4 1190.40   5
   4   5   5 11118.9 1056.44   1
   4   5   6 64597.6 2834.70   1
   4   5   6 68438.6 3236.91   2
   4   5   7-70.5534 209.436   1
   4   5   7 580.514 398.685   2
   4   5   8 27870.5 2028.65   2
   4   5   8 28306.7 1788.91   1
   4   5   9 4019.37 805.769   2
   4   5   9 4040.04 707.381   1
   4   5  10 8778.85 1214.27   2
   4   5  10 8885.99 1052.30   1
   4   5  11 21649.6 1943.51   2
   4   5  11 25571.0 1809.40   1
   4   5  12 3282.26 771.419   2
   4   5  12 3348.53 664.493   1
   4   5  13 44734.4 2965.32   2
   4   5  13 50122.1 2716.79   1
   4   5  14 9629.02 1354.87   2
   4   5  15 251.789 319.291   2
   4   5  16 462.285 366.077   2
   4   5  17 19360.2 2065.02   2
   4   6 -15 2855.96 832.216   4
   4   6 -15 2937.74 971.180   5
   4   6 -14 980.978 434.809   4
   4   6 -14 1916.35 964.713   5
   4   6 -13 2140.69 712.832   4
   4   6 -13 1434.58 684.456   5
   4   6 -12 3944.60 922.258   4
   4   6 -12 5217.67 1221.80   5
   4   6 -11 5285.56 930.441   4
   4   6 -11 3974.63 1039.44   5
   4   6 -10 274.285 390.290   4
   4   6 -10-273.856 430.459   5
   4   6  -9 1893.75 553.466   4
   4   6  -9 1924.69 681.973   5
   4   6  -8 1271.71 487.252   4
   4   6  -8-95.1876 673.660   5
   4   6  -7 14945.7 1742.76   5
   4   6  -7 16998.3 1407.66   4
   4   6  -6 32556.8 2491.44   5
   4   6  -6 29372.2 1792.62   4
   4   6  -5 2212.24 441.795   4
   4   6  -5 2211.83 685.881   5
   4   6  -4 4007.32 892.906   5
   4   6  -4 5419.73 614.545   4
   4   6  -3 6106.23 1089.60   5
   4   6  -3 4998.31 543.132   4
   4   6  -2 14596.4 1537.97   5
   4   6  -2 12696.0 762.961   4
   4   6  -1 8973.21 1201.87   5
   4   6  -1 8460.44 556.949   4
   4   6   0 8655.87 1120.78   5
   4   6   1 57594.6 2991.02   5
   4   6   2 8825.30 1106.32   5
   4   6   3 14447.6 1409.09   5
   4   6   4 714.598 378.935   5
   4   6   5 63096.4 3072.81   5
   4   6   6 52256.5 2458.46   1
   4   6   6 51874.5 2720.44   5
   4   6   7 1607.27 419.454   1
   4   6   7 1187.74 400.656   5
   4   6   8 4916.42 697.878   1
   4   6   8 4476.64 720.379   5
   4   6   9 20786.7 1682.19   5
   4   6   9 21146.3 1462.48   1
   4   6   9 19046.7 1714.77   2
   4   6  10 28930.8 2012.37   5
   4   6  10 26614.5 1675.36   1
   4   6  10 28025.9 2113.67   2
   4   6  11 25849.4 1907.39   5
   4   6  11 27259.2 2115.74   2
   4   6  11 27739.5 1746.99   1
   4   6  12 10090.3 1168.43   5
   4   6  12 11664.3 1399.58   2
   4   6  13 17919.9 1743.58   2
   4   6  14 3133.32 790.188   2
   4   6  15 2129.65 692.860   2
   4   6  16 317.765 326.510   2
   4   7 -13 4054.62 1248.44   5
   4   7 -12 4057.92 873.864   4
   4   7 -12 3237.65 1102.71   5
   4   7 -11 3408.82 809.898   4
   4   7 -11 3498.50 1048.24   5
   4   7 -10 1127.38 406.448   4
   4   7 -10 1137.32 645.485   5
   4   7  -9 2605.80 637.104   4
   4   7  -9 3331.69 940.702   5
   4   7  -8 2.23485 213.301   4
   4   7  -8 588.519 457.735   5
   4   7  -7 20827.3 2248.70   5
   4   7  -7 22922.2 1665.58   4
   4   7  -6 2114.57 498.097   4
   4   7  -6 2190.60 559.799   5
   4   7  -5 2545.11 471.605   4
   4   7  -5 2055.68 660.805   5
   4   7  -4 2769.87 435.791   4
   4   7  -4 2769.87 776.492   5
   4   7  -3 16359.4 1771.16   5
   4   7  -2 32717.1 2484.50   5
   4   7  -1 5336.96 1004.92   5
   4   7   0 11458.8 1420.33   5
   4   7   1 2883.15 783.387   5
   4   7   2 21183.2 1798.73   5
   4   7   3 21697.3 1783.16   5
   4   7   4 751.670 507.073   5
   4   7   5 75345.1 3484.78   5
   4   7   6 17571.9 1557.91   5
   4   7   7 779.557 346.622   5
   4   7   8 1813.70 522.762   5
   4   7   9 460.213 319.292   5
   4   7  10 58820.1 2925.68   5
   4   7  11 10299.3 1148.53   5
   4   7  14 4432.36 883.988   2
   4   8 -11-255.763 570.018   5
   4   8 -10 760.135 504.399   5
   4   8  -9 5345.03 1292.11   5
   4   8  -8-596.474 664.166   5
   4   8  -7 6764.15 1449.83   5
   4   8  -6 1783.26 695.760   5
   4   8  -5 1748.46 723.240   5
   4   8  -4-151.233 642.986   5
   4   8  -3 8632.22 1351.51   5
   4   8  -2 15563.6 1812.43   5
   4   8  -1 2450.64 677.123   5
   4   8   0 6406.79 1138.49   5
   4   8   1 2815.36 838.584   5
   4   8   2 12524.8 1514.38   5
   4   8   3 15201.8 1636.25   5
   4   8   4 4916.95 944.385   5
   4   8   5 39087.1 2558.45   5
   4   8   6 7242.83 1031.18   5
   4   8   7 5524.97 924.748   5
   4   8   8 312.588 418.103   5
   4   8   9 9118.49 1141.73   5
   4   8  10 41944.9 2417.04   5
   4   9  -9 5746.40 1441.38   5
   4   9  -8 3955.61 1191.63   5
   4   9  -7 2092.97 840.670   5
   4   9  -6 884.547 746.072   5
   4   9  -5 2087.37 885.713   5
   4   9  -4 151.892 478.990   5
   4   9  -3 8002.34 1500.17   5
   4   9  -2 7823.17 1420.02   5
   4   9  -1-903.263 774.024   5
   4   9   0 2986.14 746.194   5
   4   9   1 2588.76 753.920   5
   4   9   2 40119.3 2922.27   5
   4   9   3 18823.8 1929.59   5
   4   9   4 8501.43 1275.57   5
   4   9   5 10743.8 1411.52   5
   4   9   6 189.616 278.202   5
   4   9   7 6923.40 1122.66   5
   4   9   8 14554.0 1579.32   5
   4   9   9 24968.3 2004.37   5
   4  10  -6 3024.03 1095.51   5
   4  10  -5 4126.75 1184.89   5
   4  10  -4-976.903 847.605   5
   4  10  -3 5456.50 1348.83   5
   4  10  -2 4414.32 1213.53   5
   4  10  -1 108.871 438.174   5
   4  10   0 2497.39 934.014   5
   4  10   1 850.390 395.240   5
   4  10   2 14121.3 1842.31   5
   4  10   3 2332.85 826.947   5
   4  10   4 3041.40 749.139   5
   4  10   5-119.821 455.264   5
   4  10   6 4112.86 922.479   5
   4  10   7 6365.92 1160.64   5
   4  10   8 117.864 291.686   5
   4  11  -3 1893.31 857.352   5
   4  11  -2-1289.06 916.029   5
   4  11  -1 6221.92 1479.74   5
   4  11   0 2716.06 822.615   5
   4  11   1 6080.47 1402.57   5
   4  11   2 13318.3 2002.92   5
   4  11   3 231.349 517.725   5
   4  11   4-41.0751 397.634   5
   4  11   5 2244.12 920.536   5
   4  11   6 3394.70 966.840   5
   4  11   7 20069.6 2198.00   5
   4  12   0 1593.27 901.175   5
   4  12   1 3657.34 1231.96   5
   4  12   2 3704.99 1105.14   5
   4  12   3-1679.80 869.284   5
   4  12   4 1182.07 704.739   5
   4  12   5 272.012 486.097   5
   4  13   4-838.491 535.097   5
   5  -7  -6 1460.72 671.384   3
   5  -7  -5 2565.23 897.705   3
   5  -7  -4 3171.18 974.071   3
   5  -7  -3 2109.61 887.750   3
   5  -7   0 4367.31 1151.77   1
   5  -6 -10 4391.78 1091.75   3
   5  -6  -9 347.936 541.331   3
   5  -6  -8 824.895 556.759   3
   5  -6  -7 6115.07 1288.19   3
   5  -6  -6 1713.29 719.569   3
   5  -6  -5 8350.64 1353.15   3
   5  -6  -4 1389.08 618.268   3
   5  -6  -3 319.834 424.459   3
   5  -6  -3-234.241 398.940   1
   5  -6  -2 289.206 406.295   3
   5  -6  -2-78.3152 333.392   1
   5  -6  -1 447.088 381.759   1
   5  -6  -1 486.071 438.905   3
   5  -6   0 2477.98 800.549   1
   5  -5 -13 1491.44 627.339   3
   5  -5 -12 5327.87 1207.73   3
   5  -5 -11 167.485 371.050   3
   5  -5 -10 11.7539 374.079   3
   5  -5  -9 699.082 522.895   3
   5  -5  -8 11260.6 1592.66   3
   5  -5  -7 7695.92 1349.01   3
   5  -5  -6 1060.94 565.289   3
   5  -5  -6 132.795 335.686   1
   5  -5  -5 9218.01 1255.46   1
   5  -5  -5 10183.2 1454.76   3
   5  -5  -4 271.237 358.083   1
   5  -5  -4-769.458 557.682   3
   5  -5  -3 1742.84 627.122   3
   5  -5  -3 1373.19 580.828   1
   5  -5  -2 6228.41 1104.76   1
   5  -5  -2 6661.64 1181.71   3
   5  -5  -1 2795.56 841.307   1
   5  -5  -1 1271.30 606.653   3
   5  -5   0 7005.88 1268.97   2
   5  -5   0 7452.63 1309.87   1
   5  -4 -14 104.358 441.717   3
   5  -4 -13 916.075 611.185   3
   5  -4 -12 9210.80 1447.14   3
   5  -4 -11-239.914 385.590   3
   5  -4 -10 1309.11 614.356   3
   5  -4  -9 1214.05 698.080   3
   5  -4  -8 5888.13 901.721   1
   5  -4  -8 7349.72 1276.95   3
   5  -4  -7 12036.5 1322.87   1
   5  -4  -7 13324.5 1599.79   3
   5  -4  -6 2325.86 743.243   3
   5  -4  -6 2435.64 601.266   1
   5  -4  -5 1664.52 652.717   3
   5  -4  -5 2212.45 728.357   1
   5  -4  -4 1602.42 571.752   1
   5  -4  -4 1482.11 638.953   3
   5  -4  -3 4767.88 1046.20   3
   5  -4  -3 3857.23 834.668   1
   5  -4  -2 1054.69 500.452   2
   5  -4  -2 840.726 457.331   1
   5  -4  -2 649.622 389.999   3
   5  -4  -1 864.919 414.650   2
   5  -4  -1 31.4326 477.433   3
   5  -4  -1 1646.75 626.170   1
   5  -4   0 9595.53 1348.34   2
   5  -4   0 11343.5 1542.18   1
   5  -3 -15 5744.10 1301.36   3
   5  -3 -14-473.581 561.559   3
   5  -3 -13 3652.12 948.666   3
   5  -3 -12 541.875 474.807   3
   5  -3 -11 1639.01 642.015   3
   5  -3 -10 9978.88 1379.09   3
   5  -3  -9 7963.83 1282.55   3
   5  -3  -8 16321.9 1493.50   1
   5  -3  -8 17102.7 1767.40   3
   5  -3  -7 10162.2 1356.56   3
   5  -3  -7 9649.60 1162.36   1
   5  -3  -6 983.064 511.234   3
   5  -3  -6 557.493 385.323   1
   5  -3  -5-392.850 435.319   3
   5  -3  -5 235.448 338.784   1
   5  -3  -4 3725.39 821.463   1
   5  -3  -4 3190.53 760.865   3
   5  -3  -4 3307.63 620.510   2
   5  -3  -3 17913.1 1519.01   2
   5  -3  -3 18540.8 1762.40   3
   5  -3  -3 18697.2 1832.19   1
   5  -3  -2 936.093 409.550   2
   5  -3  -2 206.194 352.024   3
   5  -3  -2 484.474 365.880   1
   5  -3  -1 6726.33 991.654   2
   5  -3  -1 6498.58 1050.98   1
   5  -3  -1 5871.58 1009.79   3
   5  -3   0 4978.64 901.899   2
   5  -3   0 4931.11 1016.19   1
   5  -3   1 1282.82 507.027   2
   5  -3   1 1200.78 542.801   1
   5  -2 -16 6989.42 1331.04   3
   5  -2 -15 2003.48 869.162   3
   5  -2 -14 983.812 711.727   3
   5  -2 -13 3828.73 1003.74   3
   5  -2 -12 78.8450 323.316   3
   5  -2 -11 7078.80 1147.29   3
   5  -2 -10 3009.64 782.223   3
   5  -2  -9 688.887 503.656   3
   5  -2  -8 20753.4 1855.26   3
   5  -2  -7 845.265 431.857   1
   5  -2  -7 299.719 394.889   3
   5  -2  -6 3785.51 781.144   3
   5  -2  -6 4627.37 799.201   1
   5  -2  -5 84.7255 296.843   3
   5  -2  -5 394.872 237.229   1
   5  -2  -4 13393.4 1203.43   2
   5  -2  -4 13326.6 1418.33   1
   5  -2  -4 12711.5 1397.15   3
   5  -2  -3 12860.4 1240.46   2
   5  -2  -3 13596.3 1463.11   3
   5  -2  -3 14831.4 1537.40   1
   5  -2  -2 2148.63 561.332   2
   5  -2  -2 1453.83 474.255   3
   5  -2  -2 1068.70 428.590   1
   5  -2  -1 4490.01 841.903   1
   5  -2  -1 5399.73 867.400   2
   5  -2  -1 4361.16 823.151   3
   5  -2   0 279.256 308.199   2
   5  -2   0 480.732 345.640   1
   5  -2   1 48890.7 3108.77   1
   5  -2   1 44881.2 2851.96   2
   5  -2   2-185.039 435.160   1
   5  -2   2 337.203 509.326   2
   5  -1 -16 3061.62 1041.91   3
   5  -1 -15 2660.04 905.606   3
   5  -1 -14 422.932 355.988   3
   5  -1 -13 814.328 588.617   3
   5  -1 -12 4097.31 1020.30   3
   5  -1 -11 26384.7 2266.73   3
   5  -1 -10 976.417 557.812   3
   5  -1 -10 313.732 208.077   5
   5  -1  -9 2449.36 656.226   3
   5  -1  -9 2996.41 609.355   5
   5  -1  -8 14607.6 1397.02   5
   5  -1  -8 14048.5 1500.24   3
   5  -1  -7 8475.81 1116.93   3
   5  -1  -6 2376.28 647.836   1
   5  -1  -6 2898.20 702.639   3
   5  -1  -5 4267.32 823.545   3
   5  -1  -5 4270.73 794.139   1
   5  -1  -4 12922.6 1345.39   1
   5  -1  -4 14072.6 1390.67   3
   5  -1  -3 17399.1 1439.77   2
   5  -1  -3 18256.5 1655.75   1
   5  -1  -3 18883.4 1616.03   3
   5  -1  -2 1481.20 542.357   1
   5  -1  -2 1376.83 418.540   3
   5  -1  -2 1185.94 456.972   2
   5  -1  -1 1170.74 430.018   2
   5  -1  -1 1200.12 485.513   1
   5  -1  -1 479.378 329.574   3
   5  -1   0 3330.57 703.150   1
   5  -1   0 2413.92 573.833   2
   5  -1   1 46869.3 2824.84   2
   5  -1   1 49718.8 3034.57   1
   5  -1   2 891.700 376.917   2
   5  -1   2 922.431 321.259   1
   5  -1   3 3067.37 752.298   1
   5  -1   3 3064.17 747.719   2
   5  -1   4 7423.42 1212.39   2
   5   0 -16 3871.64 993.385   3
   5   0 -15 4114.86 1010.04   3
   5   0 -14 118.578 441.071   3
   5   0 -13 2980.46 820.285   3
   5   0 -12 10281.2 1473.62   3
   5   0 -11 9515.71 1387.93   3
   5   0 -11 11450.0 1149.39   5
   5   0 -10 3375.25 732.110   3
   5   0 -10 2578.90 584.137   5
   5   0  -9 10655.1 1279.90   3
   5   0  -9 9252.71 1081.47   5
   5   0  -8 3113.87 656.153   3
   5   0  -8 1617.96 470.767   5
   5   0  -7 21793.1 1773.15   5
   5   0  -7 22297.2 1804.09   3
   5   0  -6 28231.3 1974.97   3
   5   0  -5 587.431 370.094   1
   5   0  -5 770.638 424.343   3
   5   0  -4 18986.4 1626.30   1
   5   0  -4 18793.0 1525.74   3
   5   0  -3 10901.1 1246.32   1
   5   0  -3 13931.1 1281.47   3
   5   0  -2 721.470 233.704   3
   5   0  -2 379.396 276.855   2
   5   0  -2 645.204 346.994   1
   5   0  -1 15476.0 1404.88   2
   5   0  -1 14213.7 1328.30   3
   5   0  -1 14232.8 1465.48   1
   5   0   0 59746.8 3120.80   2
   5   0   0 70642.2 3525.12   1
   5   0   1 31238.2 2199.77   2
   5   0   1 30241.6 2274.40   1
   5   0   2 1543.16 506.592   2
   5   0   2 2088.80 549.128   1
   5   0   3 53.7744 286.388   2
   5   0   3 728.208 514.735   1
   5   0   4 1052.62 458.974   2
   5   0   4 1255.38 515.829   1
   5   0   5 36652.5 2782.37   2
   5   0   6 9862.31 1480.13   2
   5   1 -16 2041.19 683.695   3
   5   1 -15 735.882 537.239   3
   5   1 -14 6374.37 1256.64   3
   5   1 -13 302.703 353.425   3
   5   1 -12 14036.8 1706.36   3
   5   1 -11 6522.26 1106.84   3
   5   1 -11 7055.39 1000.58   5
   5   1 -10 2214.60 640.488   3
   5   1 -10 1308.04 483.599   5
   5   1  -9 944.539 574.829   3
   5   1  -9 139.532 255.744   5
   5   1  -8 20481.1 1645.66   5
   5   1  -8 21218.5 1775.60   3
   5   1  -7 16577.8 1500.27   5
   5   1  -7 17058.1 1525.29   3
   5   1  -6 223.775 215.642   3
   5   1  -6-260.814 432.685   5
   5   1  -5 87.2319 235.810   3
   5   1  -4 8791.97 1114.45   1
   5   1  -4 8396.99 941.964   3
   5   1  -3 3127.73 571.586   3
   5   1  -3 4640.77 781.380   1
   5   1  -2 35346.0 2266.73   1
   5   1  -2 34100.7 1965.52   3
   5   1  -1 1569.67 400.408   3
   5   1  -1 2059.44 569.158   1
   5   1  -1 1479.86 486.222   2
   5   1   0 65982.4 3218.90   2
   5   1   0 61366.7 3249.52   1
   5   1   0 70268.1 2964.98   3
   5   1   1 25562.1 1945.27   2
   5   1   1 23438.3 1958.81   1
   5   1   2 2489.56 657.072   2
   5   1   2 1390.07 511.826   1
   5   1   3 2265.26 604.130   2
   5   1   3 1857.53 565.785   1
   5   1   4 1329.43 478.533   2
   5   1   4 1774.02 589.558   1
   5   1   5 100055. 4656.49   1
   5   1   5 102315. 4684.13   2
   5   1   6 5047.22 1001.64   2
   5   1   6 6063.23 1004.13   1
   5   1   7 424.655 483.129   2
   5   1   8 15346.7 1874.73   2
   5   1   9 2601.98 848.026   2
   5   2 -16 1602.21 785.010   3
   5   2 -15 441.792 571.849   3
   5   2 -14 8633.30 1397.89   3
   5   2 -13 1345.99 392.834   3
   5   2 -12 7325.53 1075.05   5
   5   2 -12 6993.58 1179.69   3
   5   2 -11 9794.69 1236.44   5
   5   2 -11 10423.1 1393.62   3
   5   2 -10 758.061 444.658   3
   5   2 -10 956.955 522.583   5
   5   2  -9 23616.8 1796.17   5
   5   2  -9 23084.4 1919.22   3
   5   2  -8 7773.87 1059.05   3
   5   2  -8 7230.65 1016.01   5
   5   2  -7 43234.9 2573.70   5
   5   2  -7 47291.8 2583.99   3
   5   2  -6 12415.8 1315.55   5
   5   2  -6 10865.3 1133.33   3
   5   2  -5 2529.86 514.739   3
   5   2  -5 2500.09 573.324   5
   5   2  -4 4353.56 688.509   3
   5   2  -4 5210.59 892.335   5
   5   2  -3 11178.6 1235.69   1
   5   2  -3 12387.3 1089.57   3
   5   2  -2 80214.1 3653.39   1
   5   2  -2 89482.4 3246.90   3
   5   2  -1 2711.67 498.821   3
   5   2  -1 2669.36 612.063   1
   5   2   0 32581.1 2185.72   1
   5   2   0 36304.7 1881.81   3
   5   2   1 2920.02 473.865   3
   5   2   1 2905.21 684.214   2
   5   2   1 3183.20 734.955   1
   5   2   2 971.490 434.203   1
   5   2   2 183.916 246.732   2
   5   2   3 27875.5 2158.78   2
   5   2   3 34254.6 2332.65   1
   5   2   4 29905.6 2248.61   2
   5   2   4 30468.3 2232.85   1
   5   2   5 11655.5 1393.00   2
   5   2   5 14468.4 1521.53   1
   5   2   6 13206.7 1527.95   2
   5   2   6 11719.0 1422.10   1
   5   2   7 174.735 378.570   2
   5   2   7 261.785 366.510   1
   5   2   8 4734.04 956.116   1
   5   2   8 2807.00 742.144   2
   5   2   9 5447.47 1096.56   2
   5   2  10 25511.5 2480.03   2
   5   2  11-835.434 599.434   2
   5   2  12 13834.1 1928.01   2
   5   2  13 8788.00 1608.26   2
   5   2  14-14.9753 457.010   2
   5   2  15 2865.27 953.749   2
   5   2  16 1641.57 790.346   2
   5   3 -16 643.287 476.775   4
   5   3 -16 531.333 432.262   3
   5   3 -15 8694.07 1431.89   3
   5   3 -14 5543.32 1150.60   3
   5   3 -13-39.4336 409.512   5
   5   3 -13 210.725 379.675   3
   5   3 -12 3325.56 741.695   5
   5   3 -12 3936.18 927.635   3
   5   3 -11 1420.58 495.064   5
   5   3 -11 1076.80 510.545   3
   5   3 -10 16472.0 1668.04   5
   5   3 -10 16308.1 1683.70   3
   5   3  -9 1870.39 648.486   5
   5   3  -9 528.948 284.328   3
   5   3  -8 10724.5 1273.22   5
   5   3  -8 11113.6 1252.39   3
   5   3  -7 1136.13 468.860   3
   5   3  -7 1244.71 495.545   5
   5   3  -6 7045.02 927.148   3
   5   3  -6 5475.60 906.247   5
   5   3  -5 404.009 311.720   3
   5   3  -5 316.465 377.183   5
   5   3  -4 196.278 185.257   3
   5   3  -4 223.209 279.537   5
   5   3  -3 39899.8 2551.70   5
   5   3  -3 44873.6 2090.01   3
   5   3  -2 46009.7 2625.63   1
   5   3  -2 48577.9 2856.75   5
   5   3  -2 48741.9 2127.40   3
   5   3  -1 5122.04 892.782   1
   5   3  -1 5418.92 625.459   3
   5   3   0 18829.1 1628.51   1
   5   3   0 19299.0 1204.94   3
   5   3   1 2177.75 394.144   3
   5   3   1 2691.72 615.173   1
   5   3   2 20074.3 1705.58   1
   5   3   2 22684.9 1342.76   3
   5   3   3 48231.4 2845.66   2
   5   3   3 49237.5 2777.70   1
   5   3   4 87590.3 4049.01   2
   5   3   4 83669.7 3889.96   1
   5   3   5 52806.5 3188.65   2
   5   3   5 65234.9 3335.56   1
   5   3   6 8339.68 1205.74   2
   5   3   6 7386.22 1077.46   1
   5   3   7 1063.25 493.421   2
   5   3   7 341.893 320.007   1
   5   3   8 1157.52 613.986   2
   5   3   8 817.603 417.557   1
   5   3   9 19133.0 1837.51   1
   5   3   9 17738.2 1897.34   2
   5   3  10 23943.0 2150.57   1
   5   3  10 22828.9 2248.56   2
   5   3  11-467.527 491.895   2
   5   3  11 574.358 323.117   1
   5   3  12 3224.15 913.641   2
   5   3  13 600.002 513.588   2
   5   3  14 14392.0 1959.45   2
   5   3  15 10909.4 1740.29   2
   5   3  16 8402.16 1546.93   2
   5   3  17 1660.66 760.311   2
   5   4 -16 570.710 522.277   4
   5   4 -15 7162.61 1283.26   4
   5   4 -15 6529.05 1253.34   3
   5   4 -14 1118.55 637.407   4
   5   4 -14 2141.75 763.087   3
   5   4 -13-345.035 407.155   4
   5   4 -13-172.308 316.860   3
   5   4 -12 744.657 554.780   4
   5   4 -12-239.391 448.574   5
   5   4 -11-46.0454 308.776   5
   5   4 -11 698.073 372.820   3
   5   4 -10 28433.1 2304.28   5
   5   4 -10 27375.5 2147.47   3
   5   4  -9 693.947 531.234   5
   5   4  -9 152.093 274.927   3
   5   4  -8 15512.2 1651.83   5
   5   4  -8 15227.8 1489.11   3
   5   4  -7 18676.1 1762.27   5
   5   4  -7 18518.0 1549.87   3
   5   4  -6 6035.91 964.961   5
   5   4  -6 5290.96 800.716   3
   5   4  -5 10298.7 1263.63   5
   5   4  -5 9382.82 979.373   3
   5   4  -4 1304.57 326.064   3
   5   4  -4 648.882 448.259   5
   5   4  -3 74548.7 3621.39   5
   5   4  -3 80140.9 2936.37   3
   5   4  -2 13335.0 1390.34   5
   5   4  -2 13409.6 968.830   3
   5   4  -1 6970.12 653.581   3
   5   4  -1 5924.65 968.353   5
   5   4   0 2963.20 624.947   1
   5   4   0 2473.74 370.661   3
   5   4   0 2951.34 654.956   5
   5   4   1 1035.98 441.072   1
   5   4   1 675.171 191.465   3
   5   4   2 96000.0 4083.48   1
   5   4   2 104980. 3155.43   3
   5   4   3-163.323 181.935   3
   5   4   3-138.690 385.746   1
   5   4   4-192.303 380.765   1
   5   4   4 1010.40 511.035   2
   5   4   5 13365.9 1499.37   2
   5   4   5 13910.0 1423.05   1
   5   4   6 23620.4 2014.61   2
   5   4   6 22339.9 1841.43   1
   5   4   7 7537.02 1222.91   2
   5   4   7 6454.42 1030.79   1
   5   4   8 3583.86 826.631   2
   5   4   8 2743.35 720.829   1
   5   4   9 32703.9 2591.08   2
   5   4   9 34400.5 2439.16   1
   5   4  10 12507.1 1594.90   2
   5   4  10 13306.4 1512.20   1
   5   4  11 801.032 589.628   2
   5   4  11 131.454 324.422   1
   5   4  12 3155.85 870.998   2
   5   4  12 2647.71 745.088   1
   5   4  13 1644.41 519.402   1
   5   4  13-63.0872 480.125   2
   5   4  14 16204.3 1841.21   1
   5   4  14 20237.6 2232.67   2
   5   4  15 281.864 548.383   2
   5   4  15 810.041 385.312   1
   5   4  16 10676.3 1735.80   2
   5   4  17 2485.74 878.226   2
   5   4  18 142.729 482.340   2
   5   5 -14-24.5622 562.831   5
   5   5 -13 2158.93 637.243   4
   5   5 -13-518.514 538.504   5
   5   5 -12 2581.42 662.912   4
   5   5 -12 1416.85 733.138   5
   5   5 -11 12597.6 1656.40   5
   5   5 -11 12503.6 1441.80   4
   5   5 -10 4596.48 876.477   4
   5   5 -10 3843.57 898.777   5
   5   5  -9 368.698 287.325   4
   5   5  -9 1263.88 590.202   5
   5   5  -8 260.168 283.955   4
   5   5  -8 465.706 601.899   5
   5   5  -7 4041.04 642.717   4
   5   5  -7 5987.30 1113.59   5
   5   5  -7 4169.79 717.106   3
   5   5  -6 4969.94 688.995   4
   5   5  -6 4861.61 946.202   5
   5   5  -6 4788.90 713.896   3
   5   5  -5 15528.4 1221.61   3
   5   5  -5 17451.2 1716.04   5
   5   5  -5 16415.0 1161.49   4
   5   5  -4 1559.04 546.028   5
   5   5  -4 1298.84 339.803   3
   5   5  -3 38804.0 2541.88   5
   5   5  -2 8908.53 1176.64   5
   5   5  -1 396.706 433.823   5
   5   5   0 1945.60 624.560   5
   5   5   1 15486.4 1592.48   5
   5   5   2 111283. 4447.19   1
   5   5   2 121891. 4905.91   5
   5   5   3 1743.50 549.165   1
   5   5   3 2318.03 555.053   5
   5   5   4 29314.0 2028.07   1
   5   5   5 11617.9 1263.36   1
   5   5   6 4448.30 920.876   2
   5   5   6 4108.11 736.791   1
   5   5   7 17120.5 1739.48   2
   5   5   7 14860.3 1434.16   1
   5   5   8 6787.21 1143.49   2
   5   5   8 8106.26 1095.34   1
   5   5   9 27576.1 2283.18   2
   5   5   9 28721.3 2140.02   1
   5   5  10 12271.4 1569.51   2
   5   5  10 10810.2 1327.20   1
   5   5  11 2217.06 731.223   2
   5   5  11 1443.12 577.921   1
   5   5  12 3393.81 897.081   2
   5   5  12 3807.89 806.103   1
   5   5  13 12092.9 1679.96   2
   5   5  13 9733.11 1308.57   1
   5   5  14 30068.8 2745.55   2
   5   5  15-525.224 451.646   2
   5   5  16-94.9887 442.138   2
   5   5  17 9150.28 1598.12   2
   5   5  18 4229.03 1128.48   2
   5   6 -14 1095.31 660.824   5
   5   6 -13 229.200 434.365   5
   5   6 -12 127.398 561.194   5
   5   6 -11 11498.3 1773.89   5
   5   6 -10 1353.52 463.218   5
   5   6  -9-410.456 456.160   5
   5   6  -8 579.194 455.609   5
   5   6  -7 2349.88 780.001   5
   5   6  -6 21866.1 2106.50   5
   5   6  -5 6566.69 1172.88   5
   5   6  -4 22760.2 2060.72   5
   5   6  -3 23249.2 2016.74   5
   5   6  -2 2428.82 696.446   5
   5   6  -1 2411.92 720.761   5
   5   6   0 11532.0 1403.27   5
   5   6   1 57524.2 3207.57   5
   5   6   2 4842.64 876.835   5
   5   6   3 16875.2 1648.22   5
   5   6   4 182.782 278.756   5
   5   6   5 22023.0 1713.20   1
   5   6   5 21274.2 1877.63   5
   5   6   6 44941.4 2539.84   1
   5   6   6 47843.7 2910.82   5
   5   6   7 10358.4 1169.22   1
   5   6   7 9705.76 1240.68   5
   5   6   8 2816.18 636.760   1
   5   6   8 2876.84 758.266   5
   5   6   9 11975.8 1261.02   1
   5   6   9 12920.0 1553.21   2
   5   6  10 6365.29 940.643   1
   5   6  10 5920.87 1065.34   2
   5   6  11 3287.69 725.973   1
   5   6  11 2928.26 771.437   2
   5   6  12 1074.32 510.421   2
   5   6  13 22208.1 2231.77   2
   5   6  14 15137.7 1847.26   2
   5   6  15 1026.25 688.265   2
   5   6  16 41.7380 388.451   2
   5   6  17 1312.00 533.463   2
   5   7 -12 194.721 416.030   5
   5   7 -11 5637.15 1330.98   5
   5   7 -10 238.520 591.914   5
   5   7  -9 2211.93 769.403   5
   5   7  -8-360.295 609.517   5
   5   7  -7 1947.20 706.144   5
   5   7  -6 12557.7 1637.58   5
   5   7  -5 10847.1 1559.48   5
   5   7  -4 3180.18 942.772   5
   5   7  -3 9904.87 1453.72   5
   5   7  -2 1933.70 754.919   5
   5   7  -1 14906.2 1654.39   5
   5   7   0 645.832 553.032   5
   5   7   1 38805.4 2620.19   5
   5   7   2 10168.3 1311.98   5
   5   7   3 234.063 369.158   5
   5   7   4-68.7924 310.043   5
   5   7   5 5493.27 966.337   5
   5   7   6 30597.9 2256.60   5
   5   7   7 551.400 239.192   5
   5   7   8 1348.09 469.387   1
   5   7   8 1120.94 498.081   5
   5   7   9 4783.09 798.690   1
   5   7   9 5033.29 953.666   5
   5   7  10 8444.17 1211.74   5
   5   7  11 17811.6 1721.88   5
   5   7  13 25208.4 2328.39   2
   5   7  14 5574.93 1142.21   2
   5   7  15 11508.7 1614.70   2
   5   7  16 654.780 464.419   2
   5   8 -10 801.047 666.463   5
   5   8  -9 1712.04 700.829   5
   5   8  -8 1515.85 832.842   5
   5   8  -7 7080.19 1330.74   5
   5   8  -6 8896.89 1426.61   5
   5   8  -5-128.258 450.295   5
   5   8  -4 1900.49 834.609   5
   5   8  -3 355.478 578.129   5
   5   8  -2 2405.22 826.823   5
   5   8  -1 27744.9 2465.60   5
   5   8   0 10067.4 1472.55   5
   5   8   1 3745.38 965.725   5
   5   8   2 17597.5 1840.70   5
   5   8   3 13708.9 1555.23   5
   5   8   4 801.638 453.925   5
   5   8   5 21035.0 1898.09   5
   5   8   6 14032.4 1546.61   5
   5   8   7 6266.80 1039.55   5
   5   8   8 673.676 405.768   5
   5   8   9 4407.78 867.157   5
   5   8  10 16148.0 1616.92   5
   5   8  11 18287.0 1728.23   5
   5   9  -8 286.321 473.648   5
   5   9  -7 1779.61 876.059   5
   5   9  -6 9795.35 1755.20   5
   5   9  -5 447.644 513.215   5
   5   9  -4-692.224 672.955   5
   5   9  -3 138.818 398.637   5
   5   9  -2 10278.3 1583.65   5
   5   9  -1 6367.71 1250.46   5
   5   9   0 314.553 632.966   5
   5   9   1 1368.16 644.378   5
   5   9   2 3953.71 995.081   5
   5   9   3 10948.0 1554.40   5
   5   9   4 471.243 629.081   5
   5   9   5 18085.7 1907.47   5
   5   9   6 1054.44 483.596   5
   5   9   7 2750.17 835.259   5
   5   9   8 4182.43 900.265   5
   5   9   9 1210.10 529.397   5
   5   9  10 22641.5 1970.04   5
   5  10  -5 206.524 822.104   5
   5  10  -4 998.860 765.190   5
   5  10  -3 422.989 419.243   5
   5  10  -2 13693.9 1916.29   5
   5  10  -1-690.096 773.896   5
   5  10   0-246.431 591.162   5
   5  10   1 1003.08 582.937   5
   5  10   2 7501.23 1400.72   5
   5  10   3 8746.94 1458.08   5
   5  10   4 359.009 357.357   5
   5  10   5 6313.24 1186.61   5
   5  10   6 10823.9 1546.62   5
   5  10   7 4538.61 997.759   5
   5  10   8 2933.71 865.000   5
   5  11  -2 403.377 580.887   5
   5  11  -1 2299.95 1016.64   5
   5  11   0 2788.11 1066.72   5
   5  11   1-928.507 759.362   5
   5  11   2 10880.9 1734.45   5
   5  11   3 3433.25 1035.32   5
   5  11   4-48.0556 581.154   5
   5  11   5 673.420 525.961   5
   5  11   6-922.930 579.860   5
   5  11   7 11257.2 1612.31   5
   5  12   1 1060.70 764.902   5
   5  12   2 3417.86 1053.78   5
   5  12   3 1982.13 907.543   5
   5  12   4 509.713 459.894   5
   5  12   5-287.732 434.230   5
   5  12   6 546.240 492.623   5
   6  -6  -1-311.951 625.108   1
   6  -6   0 1957.39 869.453   1
   6  -5  -7 6286.29 1308.74   3
   6  -5  -6 359.735 442.835   3
   6  -5  -5 3119.99 931.828   3
   6  -5  -4 923.666 531.781   1
   6  -5  -4 236.423 481.041   3
   6  -5  -3 346.298 481.116   1
   6  -5  -3-625.104 611.883   3
   6  -5  -2 1357.55 734.178   3
   6  -5  -2 1866.38 806.594   1
   6  -5  -1-534.889 636.137   3
   6  -5  -1 497.888 630.718   1
   6  -5   0 1710.80 801.575   1
   6  -5   0 1214.29 539.425   3
   6  -5   1 3131.72 985.962   3
   6  -5   1 3365.89 998.767   1
   6  -5   2 20.5847 465.506   1
   6  -5   3-730.996 603.943   1
   6  -5   4 790.744 610.697   2
   6  -4 -10 60.5163 618.049   3
   6  -4  -9 986.315 783.138   3
   6  -4  -8 3561.22 943.223   3
   6  -4  -7 11023.7 1579.96   3
   6  -4  -6-622.056 605.733   3
   6  -4  -6-145.667 288.436   1
   6  -4  -5 2697.96 748.201   3
   6  -4  -5 2737.93 725.317   1
   6  -4  -4 1005.45 465.958   3
   6  -4  -4 2587.71 812.951   1
   6  -4  -3 1265.36 694.007   1
   6  -4  -3 341.988 368.567   3
   6  -4  -2 2859.22 894.993   1
   6  -4  -2 1755.43 679.308   3
   6  -4  -1-150.695 510.920   3
   6  -4  -1 36.0533 428.340   1
   6  -4   0 6399.42 1332.10   1
   6  -4   0 6411.05 1313.84   3
   6  -4   1 2925.99 852.582   2
   6  -4   1 1803.80 737.648   1
   6  -4   2 619.098 469.586   2
   6  -4   2 328.961 446.016   1
   6  -4   3 769.520 568.007   1
   6  -4   3-349.009 616.614   2
   6  -4   4-308.995 646.790   1
   6  -4   4-951.158 703.189   2
   6  -4   5 3214.68 984.742   2
   6  -3 -12 2812.52 836.340   3
   6  -3 -11 348.295 466.381   3
   6  -3 -10 3287.89 902.464   3
   6  -3  -9 1403.90 619.542   3
   6  -3  -8 12327.6 1610.10   3
   6  -3  -8 9994.23 1330.39   1
   6  -3  -7 5782.88 1029.05   1
   6  -3  -7 7537.29 1311.29   3
   6  -3  -6 4053.44 1000.74   3
   6  -3  -6 3430.64 795.275   1
   6  -3  -5 342.484 495.247   3
   6  -3  -5 139.407 294.817   1
   6  -3  -4 1961.82 681.702   3
   6  -3  -4 1817.02 615.021   1
   6  -3  -3 10491.7 1467.82   1
   6  -3  -3 9605.00 1448.24   3
   6  -3  -2 5652.68 1139.27   1
   6  -3  -2 4983.87 1014.39   3
   6  -3  -1 391.429 263.183   2
   6  -3  -1 377.973 472.099   3
   6  -3   0 13012.4 1790.31   1
   6  -3   0 9979.17 1438.39   3
   6  -3   0 12816.8 1579.48   2
   6  -3   1-46.2181 408.285   2
   6  -3   1-125.574 495.579   1
   6  -3   2 1363.32 517.467   2
   6  -3   2 534.686 472.013   1
   6  -3   3-298.778 512.686   2
   6  -3   3 104.144 521.965   1
   6  -3   4 3456.31 1042.92   2
   6  -3   4 3437.51 992.932   1
   6  -3   5 3402.04 1063.07   2
   6  -3   6-545.822 715.462   2
   6  -2 -13 4607.76 1169.87   3
   6  -2 -12 2017.04 765.648   3
   6  -2 -11 845.934 563.338   3
   6  -2 -10 5747.24 1206.66   3
   6  -2  -9 1764.54 753.759   3
   6  -2  -8 13690.1 1647.02   3
   6  -2  -7 4508.61 888.472   1
   6  -2  -7 4148.54 912.159   3
   6  -2  -6 90.8149 292.975   3
   6  -2  -6 660.634 474.503   1
   6  -2  -5 1002.54 556.776   3
   6  -2  -5 1389.16 612.981   1
   6  -2  -4-298.870 388.415   3
   6  -2  -4 1209.43 511.119   1
   6  -2  -3 10306.8 1251.44   2
   6  -2  -3 10828.7 1436.64   1
   6  -2  -2 5372.95 1134.52   1
   6  -2  -2 5809.26 1114.11   3
   6  -2  -2 5750.75 1011.23   2
   6  -2  -1 3181.24 756.705   2
   6  -2  -1 2641.99 852.017   1
   6  -2  -1 1333.07 567.829   3
   6  -2   0 4671.25 981.055   2
   6  -2   0 3550.81 816.425   3
   6  -2   0 3723.33 976.054   1
   6  -2   1 254.457 508.369   1
   6  -2   1 1438.70 620.662   2
   6  -2   2 5968.95 1094.15   2
   6  -2   2 4710.83 1087.83   1
   6  -2   3-981.959 780.770   1
   6  -2   3 218.653 385.588   2
   6  -2   4 4762.64 1116.09   2
   6  -2   4 7163.17 1382.07   1
   6  -2   5 7345.35 1366.69   2
   6  -2   5 5932.52 1180.97   1
   6  -2   6-136.368 534.453   2
   6  -2   7 1640.94 791.344   2
   6  -1 -14 1621.81 828.096   3
   6  -1 -13 294.731 373.166   3
   6  -1 -12 718.018 426.387   3
   6  -1 -11 4818.28 1047.62   3
   6  -1 -10 7098.75 1256.06   3
   6  -1  -9 1653.23 559.117   3
   6  -1  -9 1077.34 440.075   5
   6  -1  -8 19193.7 1912.43   3
   6  -1  -7 640.214 448.864   3
   6  -1  -6 592.798 494.357   1
   6  -1  -6 259.488 409.579   3
   6  -1  -5 11271.5 1375.00   1
   6  -1  -5 10888.0 1341.05   3
   6  -1  -4 6742.80 1077.21   3
   6  -1  -4 5973.12 1074.53   1
   6  -1  -3 18564.1 1804.74   1
   6  -1  -3 17989.0 1760.06   3
   6  -1  -2 4097.25 815.398   3
   6  -1  -2 3627.56 793.432   2
   6  -1  -2 3857.19 920.658   1
   6  -1  -1 10821.1 1454.12   1
   6  -1  -1 10174.5 1272.92   3
   6  -1  -1 11358.0 1386.42   2
   6  -1   0 727.298 520.357   2
   6  -1   0 454.177 443.975   1
   6  -1   0 206.774 401.305   3
   6  -1   1 5318.05 1013.63   2
   6  -1   1 4201.97 1047.31   1
   6  -1   2 7446.29 1203.19   2
   6  -1   2 10450.4 1528.45   1
   6  -1   3 290.512 473.978   2
   6  -1   3-395.410 482.695   1
   6  -1   4 9260.35 1462.20   1
   6  -1   4 7428.24 1302.66   2
   6  -1   5 1482.52 586.397   2
   6  -1   5 689.428 532.628   1
   6  -1   6-357.939 545.580   2
   6  -1   6-323.397 908.294   1
   6  -1   7-621.788 691.729   2
   6  -1   8 282.858 568.584   2
   6  -1   9 7707.06 1537.61   2
   6  -1  10-365.196 951.841   2
   6   0 -15 5789.43 1230.70   3
   6   0 -14 850.298 690.234   3
   6   0 -13 1568.94 773.642   3
   6   0 -12 1497.63 645.857   3
   6   0 -11 8145.64 1420.86   3
   6   0 -10 11943.9 1538.73   3
   6   0  -9 4895.07 992.499   3
   6   0  -9 5741.81 957.478   5
   6   0  -8 5611.56 969.631   3
   6   0  -8 4755.74 882.004   5
   6   0  -7 612.195 358.469   3
   6   0  -7 165.537 414.506   5
   6   0  -6 2956.49 747.719   3
   6   0  -6 3248.90 839.394   1
   6   0  -5 5159.25 974.215   1
   6   0  -5 3408.60 747.963   3
   6   0  -4 7388.68 1114.11   3
   6   0  -4 8338.28 1210.29   1
   6   0  -3 19429.3 1879.33   1
   6   0  -3 21398.3 1817.41   3
   6   0  -2 966.379 462.664   3
   6   0  -2 70.5375 336.085   1
   6   0  -1-296.182 428.793   3
   6   0  -1 271.601 356.935   2
   6   0  -1 66.8616 397.013   1
   6   0   0 2753.02 790.399   1
   6   0   0 2553.03 654.587   3
   6   0   0 3341.64 814.958   2
   6   0   1 25333.6 2174.64   2
   6   0   1 24768.9 2310.60   1
   6   0   2 3772.50 876.191   2
   6   0   2 3859.46 972.581   1
   6   0   3-230.265 581.839   1
   6   0   3 460.097 466.227   2
   6   0   4 4436.23 994.706   2
   6   0   4 3448.40 929.648   1
   6   0   5-729.040 610.860   1
   6   0   5 729.638 465.923   2
   6   0   6 11385.3 1720.97   2
   6   0   6 11787.1 1714.39   1
   6   0   7 1066.39 441.968   2
   6   0   7 2947.51 863.665   1
   6   0   8 13910.7 1906.01   2
   6   0   8 13893.9 1895.69   1
   6   0   9 6686.37 1339.39   2
   6   0  10-1240.79 891.926   2
   6   0  11-788.504 845.751   2
   6   0  12 380.996 519.844   2
   6   1 -15 961.551 618.533   3
   6   1 -14 129.529 444.107   3
   6   1 -13 1901.28 666.306   3
   6   1 -12 3526.54 961.728   3
   6   1 -11 14478.4 1726.49   3
   6   1 -10 5902.07 1103.04   3
   6   1 -10 5521.10 935.385   5
   6   1  -9 3737.46 787.745   3
   6   1  -9 4382.54 831.048   5
   6   1  -8 1901.29 610.183   3
   6   1  -8 2937.93 714.104   5
   6   1  -7 311.673 356.675   3
   6   1  -7 983.884 483.733   5
   6   1  -6 16900.6 1743.55   5
   6   1  -6 16814.9 1588.80   3
   6   1  -5 192.485 286.308   3
   6   1  -5 432.250 517.572   1
   6   1  -4 9760.23 1326.64   1
   6   1  -4 9534.76 1142.43   3
   6   1  -3 21833.4 1952.36   1
   6   1  -3 20137.8 1664.44   3
   6   1  -2 44.8188 245.764   3
   6   1  -2-295.262 441.551   1
   6   1  -1 9840.51 1316.28   1
   6   1  -1 11298.1 1254.63   3
   6   1   0 1076.93 381.061   3
   6   1   0 2105.79 677.460   1
   6   1   0 1464.49 624.219   2
   6   1   1 16120.7 1687.71   2
   6   1   1 16107.4 1774.93   1
   6   1   1 18030.4 1583.93   3
   6   1   2 9860.09 1350.42   2
   6   1   2 12585.8 1627.37   1
   6   1   3 1970.24 692.459   2
   6   1   3 1996.79 735.065   1
   6   1   4 1115.17 516.831   2
   6   1   4 687.060 508.428   1
   6   1   5 4813.67 1011.29   2
   6   1   5 5272.77 1108.47   1
   6   1   6 7166.32 1278.60   2
   6   1   6 7802.39 1337.24   1
   6   1   7 1546.85 520.601   1
   6   1   7 4003.59 1006.42   2
   6   1   8 5754.82 1217.13   2
   6   1   8 6094.84 1296.24   1
   6   1   9 5894.08 1361.29   2
   6   1   9 6313.54 1198.57   1
   6   1  10-677.221 771.422   2
   6   1  10-668.047 811.606   1
   6   1  11 3666.31 1123.61   2
   6   1  12 4097.31 1123.82   2
   6   1  13 6377.22 1382.78   2
   6   2 -15-9.12237 364.158   3
   6   2 -14 896.751 485.104   3
   6   2 -13 2469.49 857.546   3
   6   2 -12-41.8272 439.719   3
   6   2 -11 15296.0 1652.68   5
   6   2 -11 15337.5 1793.26   3
   6   2 -10 850.758 485.592   3
   6   2 -10 1019.35 496.785   5
   6   2  -9 53.8311 291.018   3
   6   2  -9 219.691 391.405   5
   6   2  -8 2291.38 690.087   3
   6   2  -8 1794.35 646.212   5
   6   2  -7 6926.48 1035.87   3
   6   2  -7 8639.44 1216.00   5
   6   2  -6 18141.6 1796.57   5
   6   2  -6 19073.8 1645.42   3
   6   2  -5 889.277 404.406   3
   6   2  -5 499.671 401.095   5
   6   2  -4 13118.8 1559.13   5
   6   2  -4 13243.8 1285.73   3
   6   2  -3 1874.58 632.338   1
   6   2  -3 2420.58 585.013   3
   6   2  -2 14818.0 1582.63   1
   6   2  -2 13779.9 1258.10   3
   6   2  -1 1922.04 477.465   3
   6   2  -1 905.620 541.654   1
   6   2   0 21477.1 1910.24   1
   6   2   0 23397.6 1692.88   3
   6   2   1 5781.75 784.026   3
   6   2   1 4796.92 865.828   1
   6   2   1 5232.78 1007.19   2
   6   2   2 4108.33 934.876   1
   6   2   2 2845.92 552.042   3
   6   2   2 3335.74 843.898   2
   6   2   3-123.485 427.026   1
   6   2   3 482.661 465.175   2
   6   2   4 564.506 525.983   2
   6   2   4 1192.23 659.504   1
   6   2   5 23055.3 2229.69   2
   6   2   5 17802.7 1977.90   1
   6   2   6 23201.9 2315.33   2
   6   2   6 25114.6 2296.42   1
   6   2   7 1107.42 573.547   2
   6   2   7 1709.59 720.337   1
   6   2   8 8118.04 1396.15   2
   6   2   8 8018.29 1331.70   1
   6   2   9 196.866 477.683   1
   6   2   9 113.426 391.830   2
   6   2  10 3442.93 944.614   2
   6   2  10 2919.55 898.712   1
   6   2  11 9188.55 1680.05   2
   6   2  11 7395.91 1369.45   1
   6   2  12 6287.07 1271.45   1
   6   2  12 7179.53 1510.37   2
   6   2  13 4603.52 1154.22   2
   6   2  13 3446.73 951.052   1
   6   2  14 342.798 526.781   2
   6   2  14 1779.70 736.126   1
   6   2  15-633.376 775.110   1
   6   3 -14 5609.89 1164.23   3
   6   3 -13-557.845 550.214   3
   6   3 -12 2670.40 761.812   5
   6   3 -12 1395.32 616.426   3
   6   3 -11 11036.1 1434.48   5
   6   3 -11 10467.5 1441.69   3
   6   3 -10 2186.88 745.303   5
   6   3 -10 1793.87 600.703   3
   6   3  -9 1707.30 633.227   5
   6   3  -9 1459.06 570.234   3
   6   3  -8 486.057 407.346   3
   6   3  -8 860.343 540.395   5
   6   3  -7 10691.2 1277.88   3
   6   3  -7 9236.89 1293.93   5
   6   3  -6 7609.40 1048.26   3
   6   3  -6 6739.50 1119.49   5
   6   3  -5 103.314 239.320   3
   6   3  -5 85.8958 272.821   5
   6   3  -4 4601.11 750.500   3
   6   3  -4 4351.30 918.704   5
   6   3  -3 1425.41 390.200   3
   6   3  -3 1016.59 466.123   5
   6   3  -2 36556.2 2529.99   1
   6   3  -2 34132.2 1946.74   3
   6   3  -1 1174.95 631.725   1
   6   3  -1 861.446 310.829   3
   6   3   0 5812.76 1005.20   1
   6   3   0 6871.89 796.524   3
   6   3   1 19010.2 1845.54   1
   6   3   1 20324.6 1451.65   3
   6   3   2 3056.38 557.862   3
   6   3   2 2424.55 660.883   1
   6   3   3 20122.4 1976.47   2
   6   3   3 21813.5 2011.23   1
   6   3   3 21565.9 1541.48   3
   6   3   4 1424.00 564.253   1
   6   3   4 1528.13 684.814   2
   6   3   5 15687.4 1843.58   2
   6   3   5 19838.3 2005.74   1
   6   3   6 17676.2 2013.82   2
   6   3   6 16705.1 1872.10   1
   6   3   7-109.631 334.921   2
   6   3   7 334.370 512.118   1
   6   3   8 5123.71 1137.70   2
   6   3   8 4311.38 1039.40   1
   6   3   9-366.113 436.699   2
   6   3   9-1155.27 694.855   1
   6   3  10 27695.6 2616.27   2
   6   3  10 26981.3 2575.18   1
   6   3  11 195.087 480.912   2
   6   3  11-576.622 550.932   1
   6   3  12 2658.28 852.322   2
   6   3  12 807.937 426.811   1
   6   3  13-361.821 549.237   1
   6   3  13 72.1408 490.745   2
   6   3  14 1516.12 665.096   2
   6   3  14 1154.40 633.506   1
   6   3  15 2322.28 805.778   1
   6   3  16-56.4070 585.781   1
   6   4 -12 5885.74 1140.04   5
   6   4 -11 577.555 486.025   5
   6   4 -10 2506.40 766.376   5
   6   4  -9 14196.6 1670.40   5
   6   4  -8 158.056 359.692   5
   6   4  -7 15175.8 1674.73   5
   6   4  -6 10570.7 1394.06   5
   6   4  -5 181.604 363.164   5
   6   4  -4 750.672 343.871   5
   6   4  -3 19550.6 1886.03   5
   6   4  -2 22848.2 2069.74   5
   6   4  -1 2610.96 761.983   5
   6   4   0 1586.86 581.265   1
   6   4   0 1861.38 681.669   5
   6   4   1 1449.40 525.524   1
   6   4   2 8764.94 1218.64   1
   6   4   3 6260.65 1000.46   1
   6   4   4 3551.74 901.656   2
   6   4   4 1788.30 542.094   1
   6   4   5 18126.7 1926.10   2
   6   4   5 19128.4 1897.92   1
   6   4   6 8960.02 1290.65   1
   6   4   6 9953.36 1495.30   2
   6   4   7 569.868 438.120   1
   6   4   7 818.098 675.834   2
   6   4   8 798.118 494.192   2
   6   4   8 653.501 538.924   1
   6   4   9 6776.63 1292.53   2
   6   4   9 6564.51 1160.75   1
   6   4  10 32924.0 2919.60   2
   6   4  10 34376.0 2793.07   1
   6   4  11 895.810 637.786   2
   6   4  11 468.093 470.118   1
   6   4  12 2088.51 752.737   1
   6   4  12 3986.06 1131.00   2
   6   4  13 1545.71 718.624   2
   6   4  13 1570.69 669.273   1
   6   4  14 4050.38 1144.78   2
   6   4  14 2023.96 764.470   1
   6   4  15 7386.35 1413.26   2
   6   5 -13 1420.23 742.971   5
   6   5 -12 1765.33 697.256   5
   6   5 -11 3329.20 915.538   5
   6   5 -10 1235.37 613.597   5
   6   5  -9 235.455 402.938   5
   6   5  -8 328.689 499.083   5
   6   5  -7 4058.03 1044.52   5
   6   5  -6 3242.33 887.113   5
   6   5  -5 1120.15 632.538   5
   6   5  -4 844.063 498.233   5
   6   5  -3 32329.8 2510.23   5
   6   5  -2 11802.3 1463.13   5
   6   5  -1 601.221 442.143   5
   6   5   0 1360.76 485.055   5
   6   5   1-45.5769 477.645   5
   6   5   2 64325.0 3477.45   1
   6   5   2 68616.6 3879.42   5
   6   5   3 7555.74 1150.49   1
   6   5   4 11348.5 1350.84   1
   6   5   5 25322.5 2098.33   1
   6   5   6 4122.77 836.837   1
   6   5   7 1038.11 417.539   1
   6   5   7 1322.05 607.621   2
   6   5   8 10863.1 1440.11   1
   6   5   8 9752.10 1553.44   2
   6   5   9 22780.3 2292.09   2
   6   5   9 25734.2 2240.01   1
   6   5  10 5298.79 1058.30   1
   6   5  10 5510.15 1179.42   2
   6   5  11 898.116 718.894   2
   6   5  11 701.263 539.511   1
   6   5  12 741.220 621.019   2
   6   5  12 792.576 588.545   1
   6   5  13 1454.11 827.033   2
   6   5  13 250.987 491.524   1
   6   5  14 25171.8 2693.87   2
   6   5  15 1620.95 803.907   2
   6   5  16 405.256 413.966   2
   6   6 -12 1813.30 867.240   5
   6   6 -11-756.003 656.587   5
   6   6 -10 10293.1 1629.41   5
   6   6  -9 1032.78 661.797   5
   6   6  -8 1755.01 788.003   5
   6   6  -7 4744.24 1076.47   5
   6   6  -6 2314.85 766.402   5
   6   6  -5 16194.9 1829.48   5
   6   6  -4 899.517 501.096   5
   6   6  -3 20102.9 2009.58   5
   6   6  -2 988.827 570.149   5
   6   6  -1 676.022 499.651   5
   6   6   0 3683.36 902.708   5
   6   6   1 9136.78 1334.74   5
   6   6   2 8645.22 1329.16   5
   6   6   3 5885.37 1093.37   5
   6   6   4 766.936 537.848   1
   6   6   4 129.082 328.413   5
   6   6   5 8318.08 1237.88   1
   6   6   5 9249.20 1388.97   5
   6   6   6 2582.77 625.066   1
   6   6   6 2491.81 561.077   5
   6   6   7 13162.2 1523.69   1
   6   6   8-375.150 352.262   1
   6   6   9 26725.5 2534.08   2
   6   6   9 28892.3 2270.61   1
   6   6  10 8174.63 1199.58   1
   6   6  10 6794.85 1325.82   2
   6   6  11 125.432 276.623   1
   6   6  11 858.839 613.274   2
   6   6  12 909.650 635.840   2
   6   6  13 2100.59 843.789   2
   6   6  14 23597.6 2505.31   2
   6   6  15 1197.02 783.002   2
   6   6  16 182.385 505.620   2
   6   7 -10-1449.41 910.682   5
   6   7  -9 830.922 589.932   5
   6   7  -8 279.350 438.984   5
   6   7  -7-295.291 420.788   5
   6   7  -6 3677.98 957.687   5
   6   7  -5 15127.6 1890.88   5
   6   7  -4 5811.06 1162.10   5
   6   7  -3 6009.00 1229.26   5
   6   7  -2 1985.81 701.454   5
   6   7  -1 1610.68 643.919   5
   6   7   0 17718.1 1936.74   5
   6   7   1 41141.5 2925.66   5
   6   7   2 32254.4 2567.11   5
   6   7   3 453.076 432.647   5
   6   7   4 5767.44 1071.96   5
   6   7   5 519.361 518.646   5
   6   7   6 5027.49 1032.40   5
   6   7   7 26607.3 2135.96   1
   6   7   7 26783.6 2330.83   5
   6   7   8 4699.02 939.018   1
   6   7   8 4591.91 984.788   5
   6   7   9 7244.77 1054.94   1
   6   7   9 7488.68 1207.49   5
   6   7  10 2215.83 653.506   1
   6   7  10 2165.05 741.811   5
   6   7  11 8054.26 1347.54   5
   6   7  12 12032.3 1616.75   5
   6   7  14 6668.65 1352.82   2
   6   7  15 3025.12 934.217   2
   6   7  16 393.066 521.700   2
   6   8  -8-169.309 544.527   5
   6   8  -7 658.668 429.453   5
   6   8  -6 18211.0 2192.36   5
   6   8  -5 862.365 597.515   5
   6   8  -4 6503.65 1328.39   5
   6   8  -3 2043.14 763.690   5
   6   8  -2 989.263 747.306   5
   6   8  -1 18557.1 2043.85   5
   6   8   0 775.440 653.834   5
   6   8   1 1456.89 717.611   5
   6   8   2 5963.47 1154.33   5
   6   8   3 12198.2 1565.93   5
   6   8   4 329.813 430.779   5
   6   8   5 889.418 544.613   5
   6   8   6 19394.1 1982.67   5
   6   8   7 12120.3 1592.00   5
   6   8   8 1863.23 682.166   5
   6   8   9 3253.55 805.958   5
   6   8  10 266.908 315.975   5
   6   8  11 8834.27 1341.99   5
   6   9  -6 8266.63 1592.00   5
   6   9  -5 1016.94 447.683   5
   6   9  -4 794.933 533.440   5
   6   9  -3-138.142 408.765   5
   6   9  -2 1016.81 714.700   5
   6   9  -1 26484.2 2618.26   5
   6   9   0 2612.83 1002.89   5
   6   9   1 12924.1 1772.86   5
   6   9   2 2117.31 854.783   5
   6   9   3 452.338 447.368   5
   6   9   4 1467.31 700.502   5
   6   9   5 642.673 461.632   5
   6   9   6 17726.4 1917.16   5
   6   9   7 1926.76 686.216   5
   6   9   8 332.477 375.751   5
   6   9   9 485.252 461.442   5
   6   9  10 4206.58 978.509   5
   6  10  -3 1361.01 556.731   5
   6  10  -2 10124.1 1737.54   5
   6  10  -1 1872.14 862.456   5
   6  10   0 2652.97 966.271   5
   6  10   1 686.624 547.324   5
   6  10   2 9660.20 1617.05   5
   6  10   3 4734.62 1184.49   5
   6  10   4 5898.96 1283.48   5
   6  10   5 1729.52 747.374   5
   6  10   6 9715.87 1542.29   5
   6  10   7 1292.27 652.832   5
   6  10   8 220.729 421.776   5
   6  10   9 1052.10 517.178   5
   6  11   0-887.132 757.909   5
   6  11   1-284.306 705.798   5
   6  11   2 1081.63 523.493   5
   6  11   3 2954.53 930.118   5
   6  11   4 467.713 529.858   5
   6  11   5 858.868 599.861   5
   6  11   6 2100.47 809.993   5
   6  11   7 722.217 665.540   5
   6  11   8 2625.40 870.972   5
   6  12   5-188.926 637.085   5
   6  12   6 1943.76 822.036   5
   7  -4  -4 3643.96 986.577   1
   7  -4  -3 1942.73 821.226   1
   7  -4  -2-1194.46 732.693   1
   7  -4  -1 1041.55 625.452   1
   7  -3  -7 2763.01 828.372   1
   7  -3  -7 3049.10 933.770   3
   7  -3  -6-633.535 510.556   1
   7  -3  -6 318.036 508.807   3
   7  -3  -5 1680.84 760.637   3
   7  -3  -5-500.439 483.494   1
   7  -3  -4 1298.43 697.316   3
   7  -3  -4 107.847 340.800   1
   7  -3  -3 112.532 505.861   3
   7  -3  -3-996.033 585.066   1
   7  -3  -2 1463.84 688.607   3
   7  -3  -2 2040.65 872.666   1
   7  -3  -1 1916.84 817.423   1
   7  -3  -1 1512.24 627.515   3
   7  -3   0 3586.90 1172.12   1
   7  -3   0 5627.55 1204.88   3
   7  -3   1-5.18175 464.007   3
   7  -3   1 296.659 432.831   1
   7  -3   2 1292.21 746.342   2
   7  -3   2 1763.44 611.338   3
   7  -3   2 774.037 544.532   1
   7  -3   3-280.619 471.805   2
   7  -3   4-6.70168 350.475   2
   7  -2 -10 448.515 354.779   3
   7  -2  -9-262.792 498.394   3
   7  -2  -8 2400.98 854.876   3
   7  -2  -7 2718.60 913.468   3
   7  -2  -7 2642.66 805.139   1
   7  -2  -6 2348.96 752.962   1
   7  -2  -6 2601.44 843.155   3
   7  -2  -5 1923.93 733.793   3
   7  -2  -5 1845.21 627.576   1
   7  -2  -4-589.114 556.202   3
   7  -2  -4-231.118 506.407   1
   7  -2  -3-89.9172 376.922   3
   7  -2  -3 207.546 498.839   1
   7  -2  -2 6307.42 1263.05   3
   7  -2  -2 5382.62 1192.29   1
   7  -2  -1 215.118 462.122   1
   7  -2  -1-52.5489 430.638   3
   7  -2  -1 70.1441 446.685   2
   7  -2   0 8082.37 1548.21   1
   7  -2   0 12476.1 1695.62   3
   7  -2   0 8137.82 1386.57   2
   7  -2   1-120.907 322.209   2
   7  -2   1-363.665 736.956   1
   7  -2   1-468.158 530.508   3
   7  -2   2 119.251 387.783   2
   7  -2   2-555.682 647.467   3
   7  -2   2 766.877 651.462   1
   7  -2   3 5795.33 1249.61   2
   7  -2   3 5380.08 1300.39   1
   7  -2   4 1094.23 521.604   2
   7  -2   4 567.015 510.747   1
   7  -2   5 4262.73 1091.75   2
   7  -2   6 247.911 514.932   2
   7  -1 -11-686.947 635.476   3
   7  -1 -10 1562.70 654.929   3
   7  -1  -9 1418.94 747.521   3
   7  -1  -8 6188.11 1188.95   3
   7  -1  -7 1100.29 569.604   3
   7  -1  -6-626.613 442.498   1
   7  -1  -6 1080.46 625.422   3
   7  -1  -5 359.112 502.877   1
   7  -1  -5-355.042 457.488   3
   7  -1  -4 23.6606 344.701   3
   7  -1  -4 367.897 465.020   1
   7  -1  -3 6675.03 1220.47   3
   7  -1  -3 4521.64 1078.76   1
   7  -1  -2 7729.29 1292.81   3
   7  -1  -2 10571.2 1603.19   1
   7  -1  -1 3753.03 927.682   3
   7  -1  -1 4996.15 1023.86   2
   7  -1  -1 3962.87 1008.17   1
   7  -1   0 1070.60 448.384   3
   7  -1   0 1227.71 483.963   2
   7  -1   1 1135.36 561.780   2
   7  -1   1 367.291 563.485   1
   7  -1   1 731.227 407.563   3
   7  -1   2 1879.93 771.909   2
   7  -1   2 1324.48 502.592   1
   7  -1   2 1505.14 608.355   3
   7  -1   3 965.199 650.565   2
   7  -1   3-535.903 569.789   1
   7  -1   4 3842.78 1050.45   1
   7  -1   4 2952.87 920.192   2
   7  -1   5 2074.30 854.687   2
   7  -1   5 1640.98 709.812   1
   7  -1   6 73.3755 438.973   2
   7  -1   6-821.827 673.963   1
   7  -1   7-425.641 551.318   2
   7  -1   7-860.846 784.267   1
   7   0 -12 853.982 688.130   3
   7   0 -11 1499.70 742.173   3
   7   0 -10 5467.56 1150.69   3
   7   0  -9-211.875 360.299   3
   7   0  -8 2241.51 739.401   3
   7   0  -8 2217.01 666.148   5
   7   0  -7 6584.15 1166.10   3
   7   0  -7 5723.35 1108.03   5
   7   0  -6-97.2985 303.446   3
   7   0  -5 533.869 551.168   1
   7   0  -5 725.413 526.279   3
   7   0  -4 3.05165 365.957   1
   7   0  -4 99.5733 364.769   3
   7   0  -3 10799.9 1602.57   1
   7   0  -3 12656.4 1549.37   3
   7   0  -2 5439.00 978.641   3
   7   0  -2 5061.59 1060.86   1
   7   0  -1 2679.05 736.182   3
   7   0  -1 2602.69 747.473   1
   7   0   0-259.446 361.080   3
   7   0   0 194.559 488.650   2
   7   0   0 594.436 634.224   1
   7   0   1 224.027 541.664   1
   7   0   1-931.096 659.343   3
   7   0   1 119.671 443.577   2
   7   0   2 15840.4 2014.82   1
   7   0   2 14732.5 1880.34   2
   7   0   2 16646.7 1823.34   3
   7   0   3 2174.96 897.467   2
   7   0   3 1188.69 840.885   1
   7   0   4 7506.22 1460.15   2
   7   0   4 7525.72 1508.03   1
   7   0   5 1836.88 796.525   2
   7   0   5 768.207 723.105   1
   7   0   6 225.020 432.601   2
   7   0   6 312.070 569.154   1
   7   0   7 5875.67 1416.72   2
   7   0   7 4448.34 1235.60   1
   7   0   8 609.644 742.384   2
   7   0   8-609.798 797.520   1
   7   1 -13 741.118 511.662   3
   7   1 -12 198.814 427.322   3
   7   1 -11 7516.73 1328.94   3
   7   1 -10 4785.39 1071.75   3
   7   1  -9 2279.39 680.904   3
   7   1  -9 2079.97 622.499   5
   7   1  -8-100.395 302.596   3
   7   1  -8-116.989 377.701   5
   7   1  -7-20.4457 434.127   3
   7   1  -7 14.1665 303.559   5
   7   1  -6 4550.89 931.637   3
   7   1  -6 3851.56 928.365   5
   7   1  -5 6174.53 1076.88   3
   7   1  -4 985.383 591.378   1
   7   1  -4 1895.92 682.765   3
   7   1  -3 18433.1 2004.00   1
   7   1  -3 19270.3 1828.54   3
   7   1  -2 936.133 518.303   3
   7   1  -2 371.715 350.983   1
   7   1  -1 57.1754 302.905   3
   7   1  -1 314.858 402.422   1
   7   1   0 550.897 325.023   3
   7   1   0 498.660 500.911   1
   7   1   1 5510.14 984.179   3
   7   1   1 6937.59 1394.85   1
   7   1   1 6170.43 1237.54   2
   7   1   2 8988.08 1499.83   1
   7   1   2 7684.94 1170.04   3
   7   1   2 9797.96 1495.07   2
   7   1   3 1478.86 791.983   1
   7   1   3 694.209 540.892   2
   7   1   4 4288.41 1087.28   2
   7   1   4 4089.63 1057.21   1
   7   1   5 448.871 345.183   2
   7   1   5-464.407 635.160   1
   7   1   6 909.053 730.642   2
   7   1   6 240.459 552.442   1
   7   1   7 6225.99 1420.47   1
   7   1   7 6900.78 1414.71   2
   7   1   8 2479.90 823.695   2
   7   1   8 1209.17 482.894   1
   7   1   9 5934.84 1325.52   2
   7   1   9 6779.86 1408.18   1
   7   1  10 71.4191 608.692   2
   7   1  10-166.660 762.639   1
   7   2 -11 7313.55 1287.11   3
   7   2 -10 1280.30 636.459   3
   7   2 -10 990.000 503.898   5
   7   2  -9 537.584 377.098   3
   7   2  -9 3.80118 297.001   5
   7   2  -8 2545.46 721.813   3
   7   2  -8 2702.63 747.567   5
   7   2  -7 253.006 304.758   3
   7   2  -7 413.722 426.297   5
   7   2  -6 6469.62 1060.46   3
   7   2  -6 8331.53 1308.25   5
   7   2  -5 2713.45 639.372   3
   7   2  -5 2695.71 758.283   5
   7   2  -4 4421.43 798.060   3
   7   2  -4 3601.36 972.022   5
   7   2  -3 10477.8 1510.28   1
   7   2  -3 9265.20 1181.00   3
   7   2  -2 906.739 559.295   1
   7   2  -2 321.677 242.333   3
   7   2  -1 1127.90 414.758   3
   7   2  -1 1278.66 576.183   1
   7   2   0-74.5980 305.838   3
   7   2   0-3.12686 316.931   1
   7   2   1 13765.1 1747.44   1
   7   2   1 16886.3 1638.45   3
   7   2   2 8835.19 1161.98   3
   7   2   2 9927.40 1537.67   1
   7   2   2 10191.5 1596.81   2
   7   2   3 136.145 291.477   3
   7   2   3 1303.13 755.401   2
   7   2   3 616.368 643.737   1
   7   2   4 683.402 674.663   1
   7   2   4 256.976 556.534   2
   7   2   5 601.596 611.605   2
   7   2   5 92.9645 567.802   1
   7   2   6 23214.4 2510.03   2
   7   2   6 23836.5 2556.41   1
   7   2   7 891.416 603.382   2
   7   2   7 1968.77 799.796   1
   7   2   8 7996.49 1568.76   2
   7   2   8 5170.79 1274.19   1
   7   2   9 3989.74 1069.78   1
   7   2   9 4168.69 1157.95   2
   7   2  10-169.120 415.572   2
   7   2  10-312.612 714.278   1
   7   2  11 1076.35 500.006   1
   7   3 -11 9315.24 1418.41   5
   7   3 -10 480.534 449.101   5
   7   3  -9 446.052 433.193   5
   7   3  -8 758.193 537.576   5
   7   3  -7 2509.09 712.406   5
   7   3  -6 10165.5 1473.85   5
   7   3  -5 2172.47 666.237   5
   7   3  -4 11822.5 1618.51   5
   7   3  -3-126.674 593.248   5
   7   3  -2 390.874 464.086   1
   7   3  -1 11677.5 1541.21   1
   7   3   0 156.710 378.461   1
   7   3   1 15462.9 1848.33   1
   7   3   2 2130.16 572.039   1
   7   3   3 1326.31 820.166   2
   7   3   3 81.3527 502.230   1
   7   3   4-362.695 376.686   1
   7   3   4 69.3159 325.032   2
   7   3   5 816.658 638.311   1
   7   3   5 990.457 740.371   2
   7   3   6 19773.1 2295.14   2
   7   3   6 21144.6 2298.80   1
   7   3   7 2106.35 858.110   2
   7   3   7 1511.55 758.851   1
   7   3   8 5515.45 1370.21   2
   7   3   8 5745.53 1356.17   1
   7   3   9 917.944 707.802   2
   7   3   9 969.447 780.939   1
   7   3  10 1945.66 978.764   2
   7   3  10 1436.91 801.138   1
   7   3  11 4406.08 1301.02   2
   7   3  11 2070.47 771.462   1
   7   3  12-602.811 609.462   1
   7   3  13 6678.95 1381.56   1
   7   4 -11 1312.60 626.597   5
   7   4 -10 1037.43 563.491   5
   7   4  -9-33.7986 376.709   5
   7   4  -8 3428.12 884.512   5
   7   4  -7 3912.93 962.820   5
   7   4  -6 8844.69 1378.99   5
   7   4  -5 375.810 579.040   5
   7   4  -4 3359.11 931.290   5
   7   4  -3 1328.87 590.257   5
   7   4  -2 7629.76 1304.88   5
   7   4  -1 816.688 518.927   5
   7   4   0 2581.26 845.072   1
   7   4   0 1732.25 735.467   5
   7   4   1 11590.7 1583.78   1
   7   4   2 223.910 411.302   1
   7   4   3 3625.38 919.770   1
   7   4   4 2927.56 897.836   1
   7   4   5 23986.8 2422.62   2
   7   4   5 23872.0 2331.72   1
   7   4   6 13731.8 1905.45   2
   7   4   6 14034.0 1788.64   1
   7   4   7 655.012 692.757   2
   7   4   7-356.882 419.398   1
   7   4   8 3683.39 1018.49   1
   7   4   8 4217.29 1145.94   2
   7   4   9 2754.57 1019.45   1
   7   4   9 1382.37 778.492   2
   7   4  10 12636.1 1996.66   2
   7   4  10 10528.3 1744.33   1
   7   4  11 3596.58 1221.94   2
   7   4  11 2836.27 961.851   1
   7   4  12 1064.21 829.934   2
   7   4  12-54.3853 398.267   1
   7   4  13 3148.37 962.064   1
   7   4  14 1295.73 723.617   1
   7   5 -11 1650.32 660.033   5
   7   5 -10 309.883 523.855   5
   7   5  -9 2305.13 845.625   5
   7   5  -8 1315.86 603.901   5
   7   5  -7 3784.89 933.705   5
   7   5  -6 10332.9 1538.37   5
   7   5  -5 1126.70 702.546   5
   7   5  -4 817.794 496.205   5
   7   5  -3 189.493 475.915   5
   7   5  -2 10555.5 1550.50   5
   7   5  -1 8477.32 1421.44   5
   7   5   0 3612.80 874.974   5
   7   5   1 2950.01 839.629   5
   7   5   2 2896.06 866.243   1
   7   5   2 1671.53 682.755   5
   7   5   3 5768.99 1143.66   1
   7   5   4 4029.00 1004.34   1
   7   5   5 11399.5 1530.50   1
   7   5   6 9000.42 1409.60   1
   7   5   7 1321.31 733.449   2
   7   5   7 1079.67 649.113   1
   7   5   8-203.197 530.684   1
   7   5   8 826.767 647.548   2
   7   5   9 4235.51 1113.01   1
   7   5   9 2869.56 989.981   2
   7   5  10 8439.14 1463.49   1
   7   5  10 7439.47 1520.99   2
   7   5  11 1703.59 770.618   1
   7   5  11 1466.19 719.021   2
   7   5  12-360.025 397.121   1
   7   5  12 1253.91 871.808   2
   7   5  13 2876.41 997.736   1
   7   6  -9 5653.90 1254.81   5
   7   6  -8 669.361 555.052   5
   7   6  -7 6514.79 1323.74   5
   7   6  -6 1680.40 774.843   5
   7   6  -5 1013.57 606.218   5
   7   6  -4 224.727 508.441   5
   7   6  -3 7607.16 1343.60   5
   7   6  -2 4502.18 1075.38   5
   7   6  -1 1833.72 720.884   5
   7   6   0 516.601 495.621   5
   7   6   1 586.946 573.353   5
   7   6   2 4468.16 1036.14   5
   7   6   3 16427.0 1955.39   5
   7   6   4 2483.83 880.268   1
   7   6   4 1633.01 593.408   5
   7   6   5 10986.8 1532.67   1
   7   6   5 11179.1 1653.77   5
   7   6   6 2103.72 725.471   1
   7   6   6 1995.06 731.572   5
   7   6   7 1624.73 665.530   1
   7   6   8 7878.37 1309.50   1
   7   6   9 9260.42 1442.94   1
   7   6  10 11894.0 1836.47   2
   7   6  10 11202.3 1578.54   1
   7   6  11 5257.99 1313.42   2
   7   6  11 3759.67 994.249   1
   7   6  12 960.472 782.327   2
   7   7  -8 195.199 549.549   5
   7   7  -7 1998.54 800.726   5
   7   7  -6 532.280 655.342   5
   7   7  -5 3702.37 1126.57   5
   7   7  -4 916.270 615.849   5
   7   7  -3 3553.38 1027.23   5
   7   7  -2 9998.03 1546.51   5
   7   7  -1 2021.92 845.435   5
   7   7   0 2215.77 850.080   5
   7   7   1-266.265 380.002   5
   7   7   2 13132.4 1727.59   5
   7   7   3 9695.11 1514.69   5
   7   7   4 824.005 619.920   5
   7   7   5 8527.35 1414.09   5
   7   7   6 402.236 408.677   5
   7   7   7 12528.9 1592.32   1
   7   7   7 9958.03 1543.16   5
   7   7   8 971.930 614.468   1
   7   7   8 40.0942 480.033   5
   7   7   9 2257.60 722.287   1
   7   7   9 2873.99 865.121   5
   7   7  10 1067.46 639.886   1
   7   7  10 8.80607 514.939   5
   7   7  11 438.347 502.666   5
   7   7  12-643.075 659.037   5
   7   8  -5 4106.80 1142.41   5
   7   8  -4 1762.31 781.980   5
   7   8  -3 1526.54 779.275   5
   7   8  -2 2942.61 1007.76   5
   7   8  -1 564.815 572.146   5
   7   8   0 947.896 544.441   5
   7   8   1 137.413 507.451   5
   7   8   2 9308.29 1555.05   5
   7   8   3 3012.47 946.509   5
   7   8   4 902.223 607.310   5
   7   8   5 1842.93 750.382   5
   7   8   6 1326.06 631.225   5
   7   8   7 17272.2 2053.58   5
   7   8   8 202.928 397.511   5
   7   8   9 4170.79 1010.50   5
   7   8  10 3834.35 905.288   5
   7   8  11 1525.63 673.558   5
   7   9  -3 2367.75 1015.94   5
   7   9  -2 567.058 508.308   5
   7   9  -1 10827.0 1687.31   5
   7   9   0 3501.21 993.721   5
   7   9   1 6967.14 1421.29   5
   7   9   2 11712.7 1772.93   5
   7   9   3 1353.76 672.516   5
   7   9   4 720.204 610.990   5
   7   9   5 2500.07 849.077   5
   7   9   6 10405.5 1611.68   5
   7   9   7 5313.66 1186.17   5
   7   9   8 1262.78 655.677   5
   7   9   9 167.999 409.703   5
   7   9  10 1263.20 606.664   5
   7  10   1 134.940 427.169   5
   7  10   2 5892.32 1330.92   5
   7  10   3 1184.08 719.724   5
   7  10   4 2270.24 902.160   5
   7  10   5 1884.35 822.820   5
   7  10   6 11293.7 1721.43   5
   7  10   7 3588.13 1070.41   5
   7  10   8-68.7898 386.856   5
   7  10   9 1368.69 697.105   5
   7  11   8 2039.56 806.273   5
   8  -1  -5 1294.90 658.627   3
   8  -1  -4 319.625 487.616   3
   8  -1  -3 84.2569 405.802   3
   8  -1  -2 8520.08 1425.36   3
   8  -1  -1 383.059 607.941   3
   8  -1   0 14.7251 475.513   3
   8  -1   1 6405.83 1308.04   3
   8  -1   1 5076.80 1255.52   2
   8  -1   2-156.624 467.102   3
   8  -1   2 99.1295 440.787   2
   8   0  -8-221.690 415.595   3
   8   0  -7 4898.13 1134.79   3
   8   0  -7 3271.99 966.035   5
   8   0  -6 989.604 644.476   3
   8   0  -6-285.689 567.210   5
   8   0  -5 296.134 419.051   3
   8   0  -5 1653.17 908.082   1
   8   0  -4 297.344 475.923   1
   8   0  -4 1779.28 734.430   3
   8   0  -3 850.650 474.047   1
   8   0  -3 597.977 537.797   3
   8   0  -2 10645.6 1567.83   3
   8   0  -2 7435.77 1455.85   1
   8   0  -1 2433.31 882.327   3
   8   0  -1 1758.21 838.230   1
   8   0   0 1189.24 635.099   3
   8   0   0 724.424 419.823   1
   8   0   1-764.219 604.467   3
   8   0   1 1017.47 627.373   2
   8   0   1 1001.07 770.812   1
   8   0   2-893.572 604.531   3
   8   0   2 1366.97 758.616   2
   8   0   3 4157.65 1036.73   3
   8   0   3 3245.44 1050.00   2
   8   0   4 263.267 372.511   3
   8   0   4 1599.77 820.627   2
   8   1  -8 269.499 388.371   5
   8   1  -7 1269.63 479.123   5
   8   1  -6 16.6294 326.896   5
   8   1  -5 350.701 344.708   3
   8   1  -5 125.971 400.933   5
   8   1  -4 1376.66 632.609   3
   8   1  -4 2560.23 906.832   1
   8   1  -3 8862.07 1523.97   1
   8   1  -3 8384.25 1299.53   3
   8   1  -2 1009.39 583.570   1
   8   1  -2 3260.22 865.524   3
   8   1  -1 650.098 374.178   3
   8   1  -1 697.501 517.460   1
   8   1   0 2683.95 810.556   3
   8   1   0 5360.59 1279.81   1
   8   1   1 1260.57 528.031   3
   8   1   1 295.519 454.044   1
   8   1   2 245.530 413.017   3
   8   1   2 1994.18 858.737   2
   8   1   2 855.217 592.562   1
   8   1   3 620.286 552.875   2
   8   1   3 1797.84 940.013   1
   8   1   4 770.655 668.169   1
   8   1   4 429.256 570.139   2
   8   1   5 3018.28 1104.70   2
   8   2  -8 2461.96 778.467   5
   8   2  -7 594.793 413.600   5
   8   2  -6 55.1554 439.346   5
   8   2  -5 1374.25 649.863   5
   8   2  -4 190.165 547.992   5
   8   2  -3 11325.1 1758.72   1
   8   2  -2 1343.06 794.560   1
   8   2  -1 947.759 711.652   1
   8   2   0 2836.27 968.343   1
   8   2   1 927.831 822.641   1
   8   2   2 7800.01 1474.06   1
   8   2   3 411.847 494.686   2
   8   2   3-812.854 685.907   1
   8   2   4 1218.90 778.896   1
   8   2   4 2006.34 994.311   2
   8   2   5 2214.39 1015.97   1
   8   2   5 3208.12 1091.58   2
   8   2   6 901.709 825.466   1
   8   2   6 1726.94 900.987   2
   8   3  -9 666.573 528.304   5
   8   3  -8 19.3760 328.141   5
   8   3  -7-187.204 389.604   5
   8   3  -6 455.707 380.625   5
   8   3  -5 6722.07 1280.80   5
   8   3  -4 3100.67 932.519   5
   8   3  -3 1479.17 675.701   5
   8   3  -2 1613.32 842.335   1
   8   3  -2-50.2888 680.287   5
   8   3  -1 1336.43 840.058   1
   8   3   0 1081.01 814.504   1
   8   3   1 2353.75 903.903   1
   8   3   2 2053.95 857.804   1
   8   3   3-828.210 670.721   1
   8   3   4 1995.91 675.623   1
   8   3   5 1201.09 851.586   2
   8   3   5-520.418 588.404   1
   8   3   6 4347.23 1365.42   1
   8   3   6 2407.62 943.031   2
   8   3   7 4669.16 1265.73   2
   8   3   7 4565.38 1296.83   1
   8   4  -8 1309.55 701.466   5
   8   4  -7 841.006 657.488   5
   8   4  -6 3115.56 868.433   5
   8   4  -5 3918.49 1063.99   5
   8   4  -4 1513.47 593.279   5
   8   4  -3 948.380 604.407   5
   8   4  -2-277.660 445.280   5
   8   4  -1 6213.09 1332.81   5
   8   4   0 908.721 673.261   1
   8   4   0-172.539 458.774   5
   8   4   1 9739.98 1659.25   1
   8   4   2 2429.90 884.561   1
   8   4   3 2024.06 820.640   1
   8   4   4 282.790 703.452   1
   8   4   5 649.068 454.445   1
   8   4   6 7992.08 1488.25   1
   8   4   7 2957.87 1117.60   2
   8   4   7 1795.30 854.221   1
   8   4   8 5142.35 1244.58   1
   8   4   9 929.636 888.782   1
   8   5  -7 1103.08 638.631   5
   8   5  -6 11654.4 1765.65   5
   8   5  -5 277.986 559.416   5
   8   5  -4 1306.26 603.126   5
   8   5  -3-440.257 421.086   5
   8   5  -2 1854.07 722.171   5
   8   5  -1 6015.07 1241.69   5
   8   5   0-644.316 583.906   5
   8   5   1 4005.40 1096.72   5
   8   5   2 2854.05 1029.01   1
   8   5   2 748.795 559.501   5
   8   5   3 1936.74 922.866   1
   8   5   3-1006.33 824.286   5
   8   5   4 2900.87 981.814   1
   8   5   5 1060.29 727.344   1
   8   5   6 7473.06 1429.80   1
   8   5   7 1233.33 683.711   1
   8   5   8 1650.12 784.136   1
   8   5   9-341.721 525.230   1
   8   5  10 540.593 604.709   1
   8   6  -5 1366.35 804.216   5
   8   6  -4 1009.46 655.450   5
   8   6  -3 376.022 538.742   5
   8   6  -2 4647.41 1122.58   5
   8   6  -1 4235.96 1120.30   5
   8   6   0 1265.81 652.112   5
   8   6   1 307.031 620.448   5
   8   6   2 1284.19 789.493   5
   8   6   3 7747.07 1415.46   5
   8   6   4 1276.22 819.962   1
   8   6   4 2146.90 887.732   5
   8   6   5 7154.95 1426.21   1
   8   6   5 6642.76 1285.25   5
   8   6   6 5233.08 1220.62   1
   8   6   6 6038.59 1279.86   5
   8   6   7 989.374 579.316   1
   8   6   7 311.938 524.177   5
   8   6   8 965.563 565.840   1
   8   6   9 149.871 392.262   1
   8   6  10 888.023 357.257   1
   8   7  -2 8925.84 1580.61   5
   8   7  -1 2408.32 929.009   5
   8   7   0-299.490 528.511   5
   8   7   1 773.999 596.788   5
   8   7   2 148.875 333.928   5
   8   7   3 9479.36 1658.22   5
   8   7   4 486.238 465.962   5
   8   7   5 6725.14 1420.98   5
   8   7   6 1544.50 667.203   5
   8   7   7 775.011 679.919   1
   8   7   7-629.455 687.987   5
   8   7   8 1178.05 763.623   1
   8   7   8 879.025 549.773   5
   8   7   9 1387.48 711.522   1
   8   8   2 7167.40 1480.59   5
   8   8   3 6629.27 1371.79   5
   8   8   4 773.336 575.701   5
   8   8   5 5371.32 1347.57   5
   8   8   6-7.61228 411.990   5
   8   8   7 2135.47 943.461   5
   0   0   0    0.00    0.00   0
TITL VSN-L1 in P1
REM P1 (#1 in standard setting)
CELL 0.71073   5.974482   8.663577  14.303857  74.7309  88.1456  70.3339
ZERR    2.00   0.000582   0.000693   0.001186   0.0071   0.0074   0.0080
LATT -1
SFAC C H O S Br
UNIT 30.00 26.00 2.00 2.00 2.00
TREF
HKLF 4
END
;
_shelx_hkl_checksum              55048
_shelx_res_file
;
TITL licg
CELL 0.71073 5.9745 8.6636 14.30389 74.731 88.146 70.334
ZERR 2 0.0006 0.0007 0.0012 0.007 0.007 0.008
LATT 1
SFAC C H Br O S
UNIT 30 26 2 2 2
L.S. 20
PLAN  20
TEMP -100
SIZE 0.45 0.22 0.16
OMIT -2 60.0
ACTA
BOND $H
CONF
HTAB
fmap 2 53
MPLA C31 C32 C33 C34 C35 C36
MPLA S11 C12 C13 C14 C15
MPLA C12 C1 C2 C3 C31
MPLA C31 C32 C33 C34 C35 C36
WGHT    0.028400
EXTI    0.004642
FVAR       7.24724
C1    1    0.690451    0.259889    0.546922    11.00000    0.02299    0.02022 =
         0.02309   -0.00507    0.00084   -0.00464
O1    4    0.905475    0.230584    0.541848    11.00000    0.02240    0.04397 =
         0.03236   -0.01763    0.00340   -0.00769
C2    1    0.545806    0.227049    0.478385    11.00000    0.02091    0.02842 =
         0.02494   -0.00960    0.00314   -0.00831
AFIX  43
H2    2    0.377546    0.265169    0.481314    11.00000   -1.20000
AFIX   0
C3    1    0.643007    0.145698    0.412442    11.00000    0.02529    0.02584 =
         0.02321   -0.00705    0.00255   -0.00950
AFIX  43
H3    2    0.812069    0.102383    0.414916    11.00000   -1.20000
AFIX   0
S11   5    0.739103    0.363814    0.707218    11.00000    0.01929    0.03155 =
         0.02563   -0.01113    0.00041   -0.00886
C12   1    0.567234    0.333363    0.623369    11.00000    0.02052    0.02132 =
         0.02077   -0.00714    0.00059   -0.00898
C13   1    0.332056    0.382620    0.643076    11.00000    0.02157    0.02723 =
         0.02609   -0.01070    0.00111   -0.01055
AFIX  43
H13   2    0.210469    0.375247    0.605062    11.00000   -1.20000
AFIX   0
C14   1    0.289156    0.445452    0.725708    11.00000    0.02162    0.02952 =
         0.02934   -0.01310    0.00619   -0.00957
AFIX  43
H14   2    0.136091    0.485482    0.749636    11.00000   -1.20000
AFIX   0
C15   1    0.492830    0.441933    0.767048    11.00000    0.02745    0.02150 =
         0.02072   -0.00725    0.00394   -0.00951
BR15  3    0.521622    0.516023    0.876031    11.00000    0.04273    0.03937 =
         0.02491   -0.01472    0.00177   -0.01791
C31   1    0.518598    0.115468    0.336503    11.00000    0.02655    0.02344 =
         0.02015   -0.00738    0.00460   -0.00998
C32   1    0.649999    0.025657    0.273355    11.00000    0.02785    0.02262 =
         0.02751   -0.01053    0.00442   -0.00603
AFIX  43
H32   2    0.818274   -0.023238    0.283927    11.00000   -1.20000
AFIX   0
C33   1    0.539580    0.006607    0.195703    11.00000    0.03820    0.02532 =
         0.02803   -0.01459    0.00950   -0.01275
AFIX  43
H33   2    0.633494   -0.054173    0.153532    11.00000   -1.20000
AFIX   0
C34   1    0.294923    0.074469    0.178377    11.00000    0.03604    0.02767 =
         0.02484   -0.00882    0.00422   -0.01974
C35   1    0.163273    0.159631    0.243119    11.00000    0.02620    0.03456 =
         0.03294   -0.01400    0.00435   -0.01383
AFIX  43
H35   2   -0.005347    0.205428    0.233459    11.00000   -1.20000
AFIX   0
C36   1    0.271554    0.179096    0.320827    11.00000    0.02714    0.03092 =
         0.02714   -0.01358    0.00705   -0.01133
AFIX  43
H36   2    0.176692    0.236511    0.364148    11.00000   -1.20000
AFIX   0
C37   1    0.173280    0.065375    0.090304    11.00000    0.04211    0.04771 =
         0.03375   -0.02118    0.00524   -0.02436
AFIX  23
H37A  2    0.270750   -0.036788    0.070299    11.00000   -1.20000
H37B  2    0.016846    0.053560    0.107381    11.00000   -1.20000
AFIX   0
C38   1    0.137168    0.219705    0.007172    11.00000    0.05429    0.04825 =
         0.03499   -0.01550   -0.00890   -0.01176
AFIX 137
H38A  2    0.054248    0.210057   -0.047885    11.00000   -1.50000
H38B  2    0.292130    0.229025   -0.011892    11.00000   -1.50000
H38C  2    0.041446    0.321237    0.026776    11.00000   -1.50000
AFIX   0
HKLF 4
REM  licg
REM R1 =  0.0411 for    3089 Fo > 4sig(Fo)  and  0.0588 for all    3915 data
REM    165 parameters refined using      0 restraints
END
WGHT      0.0284      0.0000
REM No hydrogen bonds found for HTAB generation
REM Highest difference peak  0.587,  deepest hole -0.631,  1-sigma level  0.092
Q1    1   0.6839  0.4802  0.8945  11.00000  0.05    0.54
Q2    1   0.5356  0.4184  0.9073  11.00000  0.05    0.49
Q3    1   0.6946  0.3024  0.6791  11.00000  0.05    0.49
Q4    1   0.5642  0.5057  0.8294  11.00000  0.05    0.48
Q5    1   0.3562  0.5401  0.8601  11.00000  0.05    0.46
Q6    1  -0.1791  0.2421  0.0420  11.00000  0.05    0.34
Q7    1   0.5536  0.6189  0.8248  11.00000  0.05    0.34
Q8    1  -0.2992  0.3352  0.2122  11.00000  0.05    0.32
Q9    1   0.5769  0.0038  0.2442  11.00000  0.05    0.32
Q10   1   0.7285  0.4832  0.6744  11.00000  0.05    0.31
Q11   1   0.5368  0.6413  0.9029  11.00000  0.05    0.31
Q12   1   0.5386  0.0978  0.4828  11.00000  0.05    0.30
Q13   1   0.3479  0.4277  0.6786  11.00000  0.05    0.29
Q14   1   0.2039  0.2666  0.0149  11.00000  0.05    0.29
Q15   1   0.4343  0.6516  0.8628  11.00000  0.05    0.29
Q16   1   0.1696  0.2478 -0.1356  11.00000  0.05    0.29
Q17   1   0.1657  0.1542  0.2977  11.00000  0.05    0.28
Q18   1   0.3483  0.3476  0.3202  11.00000  0.05    0.28
Q19   1  -0.2961  0.2369  0.2411  11.00000  0.05    0.28
Q20   1   0.1854  0.1080  0.0383  11.00000  0.05    0.27
;
_shelx_res_checksum              30411
_shelxl_version_number           2.014
loop_
_space_group_symop_operation_xyz
'x, y, z'
'-x, -y, -z'
loop_
_atom_site_type_symbol
_atom_site_label
_atom_site_fract_x
_atom_site_fract_y
_atom_site_fract_z
_atom_site_U_iso_or_equiv
_atom_site_adp_type
_atom_site_calc_flag
_atom_site_occupancy
C C1 0.6905(4) 0.2599(3) 0.54692(19) 0.0229(5) Uani d 1
O O1 0.9055(3) 0.2306(3) 0.54185(14) 0.0324(4) Uani d 1
C C2 0.5458(4) 0.2270(3) 0.47838(18) 0.0243(5) Uani d 1
H H2 0.3775 0.2652 0.4813 0.029 Uiso calc 1
C C3 0.6430(4) 0.1457(3) 0.41244(19) 0.0245(5) Uani d 1
H H3 0.8121 0.1024 0.4149 0.029 Uiso calc 1
S S11 0.73910(10) 0.36381(8) 0.70722(5) 0.02472(15) Uani d 1
C C12 0.5672(4) 0.3334(3) 0.62337(18) 0.0201(5) Uani d 1
C C13 0.3321(4) 0.3826(3) 0.64308(19) 0.0237(5) Uani d 1
H H13 0.2105 0.3752 0.6051 0.028 Uiso calc 1
C C14 0.2892(4) 0.4455(3) 0.72571(19) 0.0257(5) Uani d 1
H H14 0.1361 0.4855 0.7496 0.031 Uiso calc 1
C C15 0.4928(4) 0.4419(3) 0.76705(18) 0.0226(5) Uani d 1
Br Br15 0.52162(5) 0.51602(4) 0.87603(2) 0.03340(11) Uani d 1
C C31 0.5186(4) 0.1155(3) 0.33650(18) 0.0228(5) Uani d 1
C C32 0.6500(4) 0.0257(3) 0.27336(19) 0.0260(5) Uani d 1
H H32 0.8183 -0.0232 0.2839 0.031 Uiso calc 1
C C33 0.5396(5) 0.0066(3) 0.1957(2) 0.0287(6) Uani d 1
H H33 0.6335 -0.0542 0.1535 0.034 Uiso calc 1
C C34 0.2949(5) 0.0745(3) 0.17838(19) 0.0269(5) Uani d 1
C C35 0.1633(4) 0.1596(4) 0.2431(2) 0.0294(6) Uani d 1
H H35 -0.0053 0.2054 0.2335 0.035 Uiso calc 1
C C36 0.2716(4) 0.1791(3) 0.32083(19) 0.0270(5) Uani d 1
H H36 0.1767 0.2365 0.3641 0.032 Uiso calc 1
C C37 0.1733(5) 0.0654(4) 0.0903(2) 0.0368(7) Uani d 1
H H37A 0.2707 -0.0368 0.0703 0.044 Uiso calc 1
H H37B 0.0168 0.0536 0.1074 0.044 Uiso calc 1
C C38 0.1372(6) 0.2197(4) 0.0072(2) 0.0462(8) Uani d 1
H H38A 0.0542 0.2101 -0.0479 0.069 Uiso calc 1
H H38B 0.2921 0.2290 -0.0119 0.069 Uiso calc 1
H H38C 0.0414 0.3212 0.0268 0.069 Uiso calc 1
loop_
_atom_site_aniso_label
_atom_site_aniso_U_11
_atom_site_aniso_U_22
_atom_site_aniso_U_33
_atom_site_aniso_U_12
_atom_site_aniso_U_13
_atom_site_aniso_U_23
C1 0.0230(11) 0.0202(12) 0.0231(13) -0.0046(10) 0.0008(10) -0.0051(10)
O1 0.0224(9) 0.0440(12) 0.0324(11) -0.0077(8) 0.0034(8) -0.0176(10)
C2 0.0209(11) 0.0284(14) 0.0249(13) -0.0083(10) 0.0031(10) -0.0096(11)
C3 0.0253(12) 0.0258(13) 0.0232(13) -0.0095(10) 0.0025(10) -0.0070(11)
S11 0.0193(3) 0.0315(4) 0.0256(3) -0.0089(3) 0.0004(2) -0.0111(3)
C12 0.0205(10) 0.0213(12) 0.0208(12) -0.0090(9) 0.0006(9) -0.0071(10)
C13 0.0216(11) 0.0272(13) 0.0261(13) -0.0106(10) 0.0011(10) -0.0107(11)
C14 0.0216(11) 0.0295(14) 0.0293(14) -0.0096(10) 0.0062(10) -0.0131(12)
C15 0.0275(11) 0.0215(12) 0.0207(12) -0.0095(10) 0.0039(10) -0.0073(10)
Br15 0.04273(18) 0.03937(19) 0.02491(16) -0.01791(13) 0.00177(11) -0.01472(13)
C31 0.0266(12) 0.0234(13) 0.0202(12) -0.0100(10) 0.0046(10) -0.0074(10)
C32 0.0278(12) 0.0226(13) 0.0275(14) -0.0060(10) 0.0044(10) -0.0105(11)
C33 0.0382(14) 0.0253(14) 0.0280(15) -0.0127(11) 0.0095(11) -0.0146(12)
C34 0.0360(13) 0.0277(14) 0.0248(13) -0.0197(11) 0.0042(11) -0.0088(11)
C35 0.0262(12) 0.0346(15) 0.0329(15) -0.0138(11) 0.0044(11) -0.0140(13)
C36 0.0271(12) 0.0309(14) 0.0271(14) -0.0113(11) 0.0070(10) -0.0136(12)
C37 0.0421(15) 0.0477(19) 0.0337(16) -0.0244(14) 0.0052(13) -0.0212(15)
C38 0.0543(19) 0.048(2) 0.0350(18) -0.0118(16) -0.0089(15) -0.0155(16)
loop_
_atom_type_symbol
_atom_type_description
_atom_type_scat_dispersion_real
_atom_type_scat_dispersion_imag
_atom_type_scat_source
C C 0.0033 0.0016 'International Tables Vol C Tables 4.2.6.8 and 6.1.1.4'
H H 0.0000 0.0000 'International Tables Vol C Tables 4.2.6.8 and 6.1.1.4'
Br Br -0.2901 2.4595 'International Tables Vol C Tables 4.2.6.8 and 6.1.1.4'
O O 0.0106 0.0060 'International Tables Vol C Tables 4.2.6.8 and 6.1.1.4'
S S 0.1246 0.1234 'International Tables Vol C Tables 4.2.6.8 and 6.1.1.4'
loop_
_geom_angle_atom_site_label_1
_geom_angle_atom_site_label_2
_geom_angle_atom_site_label_3
_geom_angle
O1 C1 C12 119.6(2)
O1 C1 C2 123.1(2)
C12 C1 C2 117.3(2)
C3 C2 C1 122.0(2)
C3 C2 H2 119.0
C1 C2 H2 119.0
C2 C3 C31 127.2(2)
C2 C3 H3 116.4
C31 C3 H3 116.4
C15 S11 C12 90.81(11)
C13 C12 C1 131.3(2)
C13 C12 S11 111.33(17)
C1 C12 S11 117.35(16)
C12 C13 C14 112.9(2)
C12 C13 H13 123.6
C14 C13 H13 123.6
C15 C14 C13 111.9(2)
C15 C14 H14 124.1
C13 C14 H14 124.1
C14 C15 S11 113.11(17)
C14 C15 Br15 126.95(18)
S11 C15 Br15 119.93(13)
C36 C31 C32 117.6(2)
C36 C31 C3 122.8(2)
C32 C31 C3 119.5(2)
C33 C32 C31 121.2(2)
C33 C32 H32 119.4
C31 C32 H32 119.4
C34 C33 C32 121.2(2)
C34 C33 H33 119.4
C32 C33 H33 119.4
C33 C34 C35 117.6(2)
C33 C34 C37 121.8(2)
C35 C34 C37 120.5(2)
C36 C35 C34 121.7(2)
C36 C35 H35 119.2
C34 C35 H35 119.2
C35 C36 C31 120.7(2)
C35 C36 H36 119.6
C31 C36 H36 119.6
C38 C37 C34 112.1(2)
C38 C37 H37A 109.2
C34 C37 H37A 109.2
C38 C37 H37B 109.2
C34 C37 H37B 109.2
H37A C37 H37B 107.9
C37 C38 H38A 109.5
C37 C38 H38B 109.5
H38A C38 H38B 109.5
C37 C38 H38C 109.5
H38A C38 H38C 109.5
H38B C38 H38C 109.5
loop_
_geom_bond_atom_site_label_1
_geom_bond_atom_site_label_2
_geom_bond_distance
C1 O1 1.226(3)
C1 C12 1.464(3)
C1 C2 1.468(3)
C2 C3 1.328(3)
C2 H2 0.9500
C3 C31 1.461(3)
C3 H3 0.9500
S11 C15 1.705(2)
S11 C12 1.729(2)
C12 C13 1.367(3)
C13 C14 1.409(3)
C13 H13 0.9500
C14 C15 1.358(3)
C14 H14 0.9500
C15 Br15 1.868(2)
C31 C36 1.393(3)
C31 C32 1.397(3)
C32 C33 1.383(3)
C32 H32 0.9500
C33 C34 1.383(4)
C33 H33 0.9500
C34 C35 1.394(3)
C34 C37 1.507(3)
C35 C36 1.379(3)
C35 H35 0.9500
C36 H36 0.9500
C37 C38 1.494(5)
C37 H37A 0.9900
C37 H37B 0.9900
C38 H38A 0.9800
C38 H38B 0.9800
C38 H38C 0.9800
loop_
_geom_torsion_atom_site_label_1
_geom_torsion_atom_site_label_2
_geom_torsion_atom_site_label_3
_geom_torsion_atom_site_label_4
_geom_torsion
O1 C1 C2 C3 7.6(4)
C12 C1 C2 C3 -173.3(3)
C1 C2 C3 C31 -175.6(2)
O1 C1 C12 C13 177.6(3)
C2 C1 C12 C13 -1.5(4)
O1 C1 C12 S11 -3.5(3)
C2 C1 C12 S11 177.34(18)
C15 S11 C12 C13 0.0(2)
C15 S11 C12 C1 -179.1(2)
C1 C12 C13 C14 179.0(3)
S11 C12 C13 C14 0.1(3)
C12 C13 C14 C15 -0.2(3)
C13 C14 C15 S11 0.2(3)
C13 C14 C15 Br15 178.79(19)
C12 S11 C15 C14 -0.1(2)
C12 S11 C15 Br15 -178.81(16)
C2 C3 C31 C36 3.5(4)
C2 C3 C31 C32 -179.5(3)
C36 C31 C32 C33 2.6(4)
C3 C31 C32 C33 -174.6(2)
C31 C32 C33 C34 -0.6(4)
C32 C33 C34 C35 -1.3(4)
C32 C33 C34 C37 175.7(2)
C33 C34 C35 C36 1.2(4)
C37 C34 C35 C36 -175.8(3)
C34 C35 C36 C31 0.8(4)
C32 C31 C36 C35 -2.7(4)
C3 C31 C36 C35 174.4(2)
C33 C34 C37 C38 -92.6(3)
C35 C34 C37 C38 84.4(3)

_cod_database_fobs_code 2241053
