#------------------------------------------------------------------------------
#$Date: 2015-09-26 05:23:37 +0300 (Sat, 26 Sep 2015) $
#$Revision: 158358 $
#$URL: svn://www.crystallography.net/cod/cif/2/24/11/2241104.cif $
#------------------------------------------------------------------------------
#
# This file is available in the Crystallography Open Database (COD),
# http://www.crystallography.net/. The original data for this entry
# were provided by IUCr Journals, http://journals.iucr.org/.
#
# The file may be used within the scientific community so long as
# proper attribution is given to the journal article from which the
# data were obtained.
#
data_2241104
loop_
_publ_author_name
'Gotoh, Kazuma'
'Tahara, Yuki'
'Ishida, Hiroyuki'
_publ_section_title
;
 Crystal structures of morpholinium hydrogen bromanilate at 130, 145 and
 180K
;
_journal_issue                   10
_journal_name_full               'Acta Crystallographica Section E'
_journal_page_first              1226
_journal_page_last               1229
_journal_paper_doi               10.1107/S2056989015017272
_journal_volume                  71
_journal_year                    2015
_chemical_formula_moiety         'C4 H10 N O +, C6 H Br2 O4 -'
_chemical_formula_sum            'C10 H11 Br2 N O5'
_chemical_formula_weight         385.01
_space_group_IT_number           2
_symmetry_cell_setting           triclinic
_symmetry_space_group_name_Hall  '-P 1'
_symmetry_space_group_name_H-M   'P -1'
_atom_sites_solution_hydrogens   mixed
_cell_angle_alpha                93.5239(7)
_cell_angle_beta                 112.9190(7)
_cell_angle_gamma                115.9777(7)
_cell_formula_units_Z            2
_cell_length_a                   8.62293(18)
_cell_length_b                   9.21849(19)
_cell_length_c                   9.4354(2)
_cell_measurement_reflns_used    15916
_cell_measurement_temperature    145.0(10)
_cell_measurement_theta_max      30.11
_cell_measurement_theta_min      3.00
_cell_volume                     596.13(2)
_computing_cell_refinement
;
RAPID-AUTO (Rigaku, 2006)
;
_computing_data_collection
;
RAPID-AUTO (Rigaku, 2006)
;
_computing_data_reduction
;
RAPID-AUTO (Rigaku, 2006)
;
_computing_molecular_graphics
;
<i>ORTEP-3 for Windows</i> (Farrugia, 2012)
;
_computing_publication_material
;
CrystalStructure (Rigaku, 2010) and PLATON (Spek, 2009)
;
_computing_structure_refinement
;
SHELXL-2014/7 (Sheldrick, 2015)
;
_computing_structure_solution
;
SIR92 (Altomare <i>et al.</i>, 1994)
;
_diffrn_ambient_temperature      145.0(10)
_diffrn_detector_area_resol_mean 10.000
_diffrn_measured_fraction_theta_full 0.998
_diffrn_measured_fraction_theta_max 0.996
_diffrn_measurement_device_type  'Rigaku R-AXIS RAPIDII'
_diffrn_measurement_method       \w
_diffrn_radiation_type           'Mo K\a'
_diffrn_radiation_wavelength     0.71075
_diffrn_reflns_av_R_equivalents  0.0275
_diffrn_reflns_limit_h_max       12
_diffrn_reflns_limit_h_min       -12
_diffrn_reflns_limit_k_max       12
_diffrn_reflns_limit_k_min       -12
_diffrn_reflns_limit_l_max       13
_diffrn_reflns_limit_l_min       -13
_diffrn_reflns_number            18176
_diffrn_reflns_theta_full        25.242
_diffrn_reflns_theta_max         30.035
_diffrn_reflns_theta_min         3.003
_diffrn_standards_number         0
_exptl_absorpt_coefficient_mu    6.832
_exptl_absorpt_correction_T_max  0.292
_exptl_absorpt_correction_T_min  0.098
_exptl_absorpt_correction_type   numerical
_exptl_absorpt_process_details
;
(NUMABS; Higashi, 1999)
;
_exptl_crystal_colour            brown
_exptl_crystal_density_diffrn    2.145
_exptl_crystal_density_method    'not measured'
_exptl_crystal_description       block
_exptl_crystal_F_000             376.00
_exptl_crystal_size_max          0.400
_exptl_crystal_size_mid          0.340
_exptl_crystal_size_min          0.180
_refine_diff_density_max         0.475
_refine_diff_density_min         -0.441
_refine_ls_extinction_method     none
_refine_ls_goodness_of_fit_ref   1.097
_refine_ls_hydrogen_treatment    mixed
_refine_ls_matrix_type           full
_refine_ls_number_parameters     178
_refine_ls_number_reflns         3473
_refine_ls_number_restraints     2
_refine_ls_restrained_S_all      1.097
_refine_ls_R_factor_all          0.0210
_refine_ls_R_factor_gt           0.0175
_refine_ls_shift/su_max          0.001
_refine_ls_shift/su_mean         0.000
_refine_ls_structure_factor_coef Fsqd
_refine_ls_weighting_details
'w=1/[\s^2^(Fo^2^)+(0.0200P)^2^+0.3611P] where P=(Fo^2^+2Fc^2^)/3'
_refine_ls_weighting_scheme      calc
_refine_ls_wR_factor_gt          0.0422
_refine_ls_wR_factor_ref         0.0457
_reflns_number_gt                3181
_reflns_number_total             3473
_reflns_threshold_expression     'I > 2\s(I)'
_cod_data_source_file            lh5788sup1.cif
_cod_data_source_block           2
_cod_original_cell_volume        596.13(3)
_cod_database_code               2241104
_shelx_hkl_file
;
   0  -1   112451.35  147.91
   0   1  -112360.28  144.27
   0   1  -112589.21  132.81
   0  -1   112613.53  133.21
  -1   1   1  177.20   13.32
  -1   1   1  200.55   13.97
   1  -1  -1  159.55    6.13
   1  -1  -1  143.38   23.25
   1  -1  -1  170.11   12.58
  -1   1   1  193.20    6.34
   0  -1  -1 6811.98   78.49
   0  -1  -1 6712.27   80.26
   0  -1  -1 6856.13   95.04
   0   1   1 6737.93   81.20
   0   1   1 7112.28   97.14
   0   1   1 6807.24   64.02
  -1   1  -119707.85  242.81
   1  -1   118710.30  243.85
  -1   1  -119854.80  257.53
  -1   1  -119021.62  265.62
   1  -1   118725.27  262.51
  -1   1  -119150.26  233.88
   1   1  -1 1133.54   19.96
  -1  -1   1 1079.91   24.73
   1   1  -1 1119.46   36.64
  -1  -1   1 1086.91   36.24
   1   1  -1 1082.30   24.90
  -1  -1   1 1080.83   23.36
   1   0  -212005.39  148.23
   1   0  -212579.07  146.49
  -1   0   212147.95  125.82
  -1   0   212061.48  151.65
   1   0  -212084.23  150.19
  -1   0   211864.39  146.51
  -1   0   211831.34  146.06
   1  -2   0 4663.47   57.42
  -1   2   0 4675.01   93.05
  -1   2   0 4484.98   56.69
   1  -2   0 4620.65   58.09
   1  -2   0 4510.23   63.14
   1  -2   0 4511.30   56.04
  -1   2   0 4582.47   84.60
  -1   0  -1 174181.   3734.
  -1   0  -1 179091.   3669.
   1   0   1 177458.   3679.
   1   0   1 170650.   3477.
  -1   0  -1 179019.   3594.
   1   0   1 174372.   3473.
  -2   1   142437.36  593.96
   2  -1  -142722.05  583.75
  -2   1   141614.87  528.49
   2  -1  -142620.31  599.36
  -2   1   142223.87  572.95
   1   1   0 4646.44   92.21
  -1  -1   0 4812.07   91.75
  -1  -1   0 4663.66   65.48
   1   1   0 4615.84   64.08
   0   1  -2 4078.63   76.62
   0  -1   2 4133.00  129.75
   0  -1   2 4164.29   80.60
   0   1  -2 3998.58   79.38
   0  -1   2 4185.07   50.35
   0   0  -2 1271.60   58.06
   0   0  -2 1088.00   31.93
   0   0  -2 1105.08   39.11
   0   0   2  985.32   51.78
   0   0   2 1201.31   55.12
  -1   1   2 296930.   7020.
   0  -2   1 8123.93  104.79
   1  -1  -2 288398.   6752.
   0   2  -1 7740.31   88.00
  -1   1   2 289049.   6794.
   0  -2   1 7802.93  103.80
  -1   1   2 291608.   6897.
   1  -1  -2 288726.   6784.
   0  -2   1 7772.03  101.55
   1  -1  -2 283401.   6667.
   0   2  -1 7868.00  103.41
   0   2  -1 8096.15  112.28
   0  -2   1 7810.70  109.22
   1  -2   1 313079.   7633.
   1  -2   1 316123.   7826.
  -1   2  -1 312930.   7715.
   1  -2   1 322741.   7683.
  -1   2  -1 322173.   7955.
  -1   2  -1 312794.   7504.
  -1   2   110682.63  120.36
  -1   2   111024.72  145.40
   1  -2  -110819.63  152.54
  -1   2   111119.85  130.08
   1  -2  -111087.85  146.50
   1  -2  -111282.94  131.18
   0  -2   0 188427.   3907.
   0   2   0 182738.   3780.
   0  -2   0 187154.   3828.
   0  -2   0 190673.   3794.
   0   2   0 184505.   3666.
   0   2   0 185126.   3828.
   1   1  -2 177955.   3741.
  -1  -1   2 179088.   3694.
  -1  -1   2 178953.   3524.
  -1  -1   2 180124.   3680.
   1   1  -2 181667.   3634.
  -1  -1   2 178538.   3563.
   2  -1   053220.09  759.20
   2  -1   053491.54  815.34
  -2   1   054529.83  787.30
  -2   1   054671.66  843.60
   2  -1   052534.25  845.55
  -2   1   054484.72  847.52
  -2   0   1 9220.38   95.90
   2   0  -1 9155.77  101.36
   2   0  -1 9105.31  113.94
  -2   0   1 9287.87  101.98
  -2   0   1 9084.70  138.02
   2   0  -1 9498.72  147.55
   2  -2  -1 1447.37   29.82
  -2   2   1 1496.23   44.02
   2  -2  -1 1467.19   42.73
   2  -2  -1 1498.77   26.98
  -2   2   1 1553.19   71.22
   2  -2  -1 1575.15   42.54
  -2   1   2 436206.  11811.
  -2   1   2 426005.  11521.
   2  -1  -2 448309.  12328.
   2  -1  -2 439303.  12097.
   2  -1  -2 463907.  12404.
  -2   1   2 432193.  11311.
   2  -2   0 1337.58   43.87
   2  -2   0 1383.61   65.76
  -2   2   0 1253.70   43.05
   2  -2   0 1397.78   34.03
  -2   2   0 1352.37   31.25
  -2   2   0 1348.27   41.24
  -2   0   243288.73  608.80
  -2   0   244652.25  564.66
  -2   0   243233.78  550.37
   2   0  -243066.60  609.00
  -2   0   242743.98  599.12
   2   0  -242080.30  583.06
  -2   0   014483.22  177.72
  -2   0   013748.71  233.60
   2   0   013433.23  231.10
  -2   0   014962.35  255.79
  -2   0   014364.30  226.28
   0  -2   2 230794.   5148.
   0   2  -2 218771.   4493.
   0  -2   2 224156.   5179.
   0  -2   2 245301.   5078.
   0   2  -2 221037.   5106.
   0   2  -2 224499.   4897.
   0   1   2 1542.50   57.79
   0   1   2 1634.10   50.72
   0   1   2 1626.57   53.72
   0   1   2 1553.86   36.33
   0  -1  -2 1587.61   36.24
   0  -1  -2 1602.67   55.86
   0  -1  -2 1721.80   52.59
  -1   1  -2 9080.40  128.36
   1  -1   2 8654.77  143.76
   1  -1   2 8856.95  183.53
  -1   1  -2 8914.60  176.66
   1  -1   2 8702.50  175.76
  -1   1  -2 8903.93  149.29
  -1  -1  -131209.09  438.67
   0   2   1 214917.   4745.
  -1  -1  -130674.36  483.92
  -1  -1  -132854.40  382.22
   1   1   130629.25  478.92
   1   1   130901.15  432.98
   0   2   1 214443.   4456.
   0   2   1 215175.   4763.
   0  -2  -1 213400.   4729.
   0  -2  -1 214910.   4641.
   1   1   131156.11  388.23
   0  -2  -1 216602.   4502.
  -2   2   2  622.51   37.43
  -2   2   2  639.67   36.28
   2  -2  -2  612.23   33.61
   2  -2  -2  561.53   36.67
  -2   2   2  630.90   16.46
  -1   0   334471.88  443.83
   1   0  -334120.99  506.25
  -1   0   334258.92  500.50
   1   0  -333204.07  510.45
  -1   0   331982.11  511.95
   1   0  -334639.85  450.75
  -2   1  -1 357685.   9472.
  -2   1  -1 356070.   9209.
  -2   1  -1 363489.   9737.
   2  -1   1 339458.   8844.
  -2   1  -1 371631.   9825.
   2  -1   1 348333.   8799.
   2  -1   1 332341.   8687.
   1   2  -1 217030.   4655.
   1   2  -1 208140.   4622.
  -1  -2   1 221660.   4764.
  -1  -2   1 207092.   4450.
  -1  -2   1 214195.   4728.
   1   2  -1 213517.   4515.
  -1   2  -299299.05 1802.78
  -1   2  -298646.43 1833.66
  -1   2  -299865.94 1663.04
   1  -2   295305.12 1901.49
  -1   2  -2 103184.   1733.
   1  -2   2 100348.   1921.
   2  -2   119929.34  295.03
  -2   2  -120240.11  277.62
   2  -2   120024.98  298.87
  -2   2  -120454.62  298.43
  -2   2  -120351.48  302.47
   2  -2   120865.65  281.76
   1  -2  -2 4293.28   66.69
   1  -2  -2 4140.41   86.30
  -1   2   2 4527.88   88.77
  -1   2   2 4317.50   67.33
   1  -2  -2 4141.86   67.04
  -1   2   2 4267.33   69.24
  -1   3   071964.95 1139.13
   1  -3   069314.59 1083.31
  -1   3   068175.73 1087.13
   1  -3   068910.39 1082.66
   1  -3   069129.69 1083.50
  -1   3   068429.16 1078.55
   1  -3   068864.88 1086.92
  -1  -1   3 182657.   3582.
   1   1  -3 179137.   3673.
  -1  -1   3 183505.   3856.
   1   1  -3 175620.   3715.
  -1  -1   3 185862.   3984.
  -2  -1   1 346456.   8596.
  -2  -1   1 351591.   8540.
  -2  -1   1 321604.   8475.
   1   0   242254.36  620.20
  -1   0  -242947.44  687.01
  -1   0  -241334.85  729.98
   2   1  -1 339338.   8254.
  -2  -1   1 338229.   8331.
   1   0   241348.08  673.96
   1   0   242664.10  762.02
  -1   0  -241925.78  617.22
   2   1  -1 301869.   7781.
   1   2  -211542.80  161.63
  -1  -2   211703.46  177.44
  -1  -2   211385.37  158.82
  -1  -2   212119.01  148.93
  -1  -2   211586.08  158.85
   1   2  -211329.39  147.37
   1   2  -211587.52  158.69
  -2  -1   2 235318.   5129.
   2   1  -2 231218.   5044.
  -2  -1   2 224038.   5312.
  -2  -1   2 223946.   5011.
  -2  -1   2 235242.   5113.
  -2  -1   2 229742.   5027.
  -2  -1   2 230951.   5095.
  -1   3  -110911.28  129.67
  -1   3  -111053.56  211.65
   1  -3   111257.48  128.61
   1  -3   111159.51  239.03
   1  -3   111192.50  158.92
  -2   3   0 109401.   2037.
  -2   3   0 108425.   1974.
   2  -3   0 109877.   2030.
   2  -3   0 111000.   1954.
  -2   3   0 110425.   2005.
   2  -3   0 109587.   1992.
   2   0  -330110.01  399.26
  -2   0   329593.35  426.39
   2   0  -330350.66  378.92
  -2   0   329184.97  426.36
  -2   0   330145.20  434.84
  -2   0   330481.32  443.99
   0   1  -320439.35  322.27
   0   1  -319932.94  325.86
   0  -1   321420.45  261.19
   0  -1   320822.60  350.07
   0   1  -320196.17  234.27
   0  -1   321324.90  343.96
  -1  -2   0 3781.70   30.38
   1   2   0 3781.34   98.27
  -1  -2   0 3576.18   74.29
  -1  -2   0 3715.29   96.24
   1   2   0 3666.62   75.26
  -2   1   3 345547.   8696.
   2  -1  -3 332908.   8281.
  -2   1   3 334100.   8394.
  -2   1   3 341877.   8695.
   2  -1  -3 310694.   7859.
   2  -1  -3 339669.   8485.
  -2   3   137684.36  502.10
  -2   3   137752.32  555.31
   2  -3  -138012.79  508.30
   2  -3  -136674.58  491.62
  -2   3   137493.33  541.75
   2  -3  -137868.17  547.69
   2  -3  -137985.31  547.19
   1  -1  -3 308851.   7720.
   1  -1  -3 304810.   7456.
  -1   1   3 320176.   8034.
  -1   1   3 318159.   7843.
  -1   1   3 311667.   7731.
  -1   1   3 307901.   7688.
  -3   1   1 112979.   2036.
  -3   1   1 120351.   2143.
   3  -1  -1 114609.   2047.
   3  -1  -1 113436.   2141.
   3  -1  -1 109577.   1875.
  -3   1   1 113165.   2155.
   3  -2  -1 135819.   2618.
  -3   2   1 134282.   2392.
  -3   2   1 131027.   2533.
  -3   2   1 131576.   2500.
   3  -2  -1 131321.   2507.
  -3   1   231135.81  345.87
   3  -1  -229186.92  407.97
  -3   1   229724.46  442.40
   3  -1  -229705.36  518.93
  -3   1   230103.78  423.78
   0   0  -3 141340.   2933.
   0   0   3 148288.   2991.
   0   0  -3 139405.   2706.
   0   0  -3 143259.   3143.
   0   0   3 142911.   2986.
   0   3  -1 1202.09   46.64
   0  -3   1 1205.44   41.33
   0  -3   1 1194.73   82.99
   0  -3   1 1304.21   38.27
   0  -3   1 1195.96   46.96
   0   3  -1 1182.55   40.33
  -2   0  -122536.61  389.42
   2   0   121156.93  262.69
   2   0   121551.06  317.56
  -2   0  -122423.70  337.38
   2   0   120947.09  483.79
  -2   0  -121937.43  326.10
   1  -3  -166585.21 1085.04
  -1   3   166667.15 1094.56
  -1   3   165304.66 1026.79
   1  -3  -165860.17 1009.43
  -1   3   166840.57 1031.31
   1  -3  -166264.26 1043.52
  -2  -1   079399.14 1319.60
  -2  -1   082735.12 1218.07
  -2  -1   076346.12 1428.20
   2   1   081016.50 1172.46
   2   1   078518.73 1300.05
   2   1   073924.36 1377.55
   3  -2  -2 181076.   3751.
   3  -2  -2 169196.   3202.
  -3   2   2 181800.   3792.
   3  -2  -2 180365.   3380.
  -3   2   2 179575.   3904.
   3  -2  -2 182008.   3793.
  -2   3  -1 451285.  12593.
  -2   3  -1 433545.  11959.
   2  -3   1 439275.  12176.
   2  -3   1 433255.  12152.
  -2   3  -1 425314.  11638.
   2  -3   1 448597.  12395.
   0  -2   394407.00 1792.02
   0   2  -388573.42 1641.52
   0  -2   397350.15 1765.20
   0   2  -393800.06 1661.35
   0  -3   0 3512.50   83.06
   0  -3   0 3421.74   69.20
   0   3   0 3322.94   84.57
   0  -3   0 3337.97   76.56
   0   3   0 3280.06   73.96
  -3   2   0  179.14   34.89
   3  -2   0   74.61   25.63
  -3   2   0  104.63   27.71
  -3   2   0  104.28   27.49
   3  -2   0   -0.15   22.86
   2   1  -327662.05  399.05
  -2  -1   327959.63  372.19
  -2  -1   328511.86  404.28
   2   1  -327653.42  430.70
  -2  -1   327819.70  416.94
   2   1  -327299.46  359.85
  -2  -1   327890.29  409.02
   1  -3   2 263459.   6425.
  -1   3  -2 261735.   6171.
  -1   3  -2 270288.   6545.
   1  -3   2 258761.   6124.
   1  -3   2 271720.   6093.
  -1   3  -2 257040.   5766.
   0  -3   237901.04  471.56
   0  -3   234880.53  673.93
   0   3  -235245.58  523.92
   0  -3   235303.45  530.07
   0   3  -235027.04  488.16
   0   3  -236153.93  567.25
   3   0  -241115.95  571.84
   3   0  -241585.56  669.59
  -3   0   241720.48  656.04
  -3   0   243685.63  575.79
   3   0  -241839.94  591.55
  -3   0   242925.43  612.79
  -1  -2   382713.21 1315.57
  -1  -2   380456.32 1370.34
   1   2  -377586.52 1367.14
  -1  -2   381491.60 1219.67
  -1  -2   380842.86 1470.49
   1   2  -378640.71 1316.53
   3  -1   033701.89  484.21
   3  -1   033784.62  466.18
  -3   1   034648.11  483.20
   3  -1   034429.73  569.25
  -3   1   035830.51  548.24
  -3   1   033137.71  563.77
  -3   1   035883.36  595.71
   0   2   2 177456.   3784.
   0  -2  -2 173673.   3598.
   0   2   2 175246.   3783.
   0  -2  -2 172439.   3681.
   0   2   2 173021.   3448.
   0   2   2 174009.   3531.
  -3   0   1 150931.   3001.
  -3   0   1 153845.   3273.
   3   0  -1 147047.   2803.
  -3   0   1 150404.   2872.
   3   0  -1 146297.   2771.
  -3   0   1 148893.   3129.
   2  -2  -3  585.55   41.69
  -2   2   3  675.19   42.69
  -2   2   3  613.42   44.16
   2  -2  -3  661.02   50.52
  -2   2   3  602.98   26.93
   2  -2  -3  517.84   43.21
  -3   3   119310.55  258.13
   3  -3  -119297.78  285.92
   3  -3  -118955.98  287.71
  -3   3   119117.69  287.13
   3  -3  -119252.71  227.13
   2  -3  -271488.07 1117.28
  -2   3   271531.81 1265.54
  -2   3   270913.63 1107.24
   2  -3  -269210.89 1159.52
   2  -3  -270770.75 1152.14
  -2   3   270708.73 1193.13
   3  -1  -319702.85  205.98
  -3   1   319096.03  277.61
  -3   1   318661.47  280.38
   3  -1  -318984.35  279.10
  -3   1   320024.36  240.69
   3  -1  -318814.43  278.65
  -1  -1  -2 8514.77  255.70
  -1  -1  -2 9012.09  165.51
   1   1   2 8841.69  150.97
  -1  -1  -2 8749.77  111.96
   1   1   2 8714.11  160.50
   1   1   2 8906.68  182.35
   2  -2   2 4444.38  112.35
  -2   2  -2 5075.86  142.65
  -2   2  -2 5146.58  122.81
  -2   2  -2 5057.63  104.08
  -2   2  -2 4843.55  149.73
   2  -2   2 4879.75  135.68
  -3   3   0 104783.   1849.
  -3   3   0 103854.   1916.
   3  -3   0 103370.   1903.
   3  -3   0 104966.   1880.
  -3   3   0 106102.   1944.
   3  -3   0 107677.   1961.
  -1  -2  -1 107646.   2098.
   1   2   1 118636.   1983.
  -1  -2  -1 110359.   2027.
   1   2   1 111110.   2188.
   1   2   1 108677.   2150.
   2  -1   2 181178.   3891.
  -2   1  -2 193270.   4263.
   2  -1   2 180038.   4045.
  -2   1  -2 196842.   4422.
  -2   1  -2 198506.   4557.
   2  -1   2 181092.   3997.
   0   1   320916.78  302.54
   0   1   321257.30  368.04
   0  -1  -320750.20  296.46
   0   1   320494.35  335.01
   0   1   321019.65  329.27
   0  -1  -320412.79  322.83
   0  -1  -321133.81  344.05
  -1   1  -3  318.64   66.03
   1  -1   3  387.71   65.85
   1  -1   3  366.69   48.31
   1  -1   3  247.57  115.14
  -1   1  -3  349.89   80.03
  -3   0   351592.91  741.42
   3   0  -349177.95  761.13
  -3   0   350349.52  782.24
  -3   0   351603.37  714.36
  -3   0   349665.35  776.47
   3   0  -350460.50  805.41
  -3   0   350274.48  781.30
   1  -2   3 136884.   2828.
  -1   2  -3 141534.   2956.
   1  -2   3 139131.   2866.
  -1   2  -3 138804.   2913.
  -1   2  -3 149152.   2947.
   1  -2   3 135500.   2588.
  -1   2  -3 144905.   2780.
  -3   2   316725.85  181.32
   3  -2  -315559.93  240.72
   3  -2  -315628.55  203.67
  -3   2   315690.53  245.30
   3  -2  -315788.20  326.81
  -3   2   316140.33  257.71
  -3   3   283711.24 1470.79
   3  -3  -285581.02 1343.18
   3  -3  -283968.99 1478.09
   3  -3  -285903.87 1502.57
   3  -3  -284564.74 1325.94
  -3   3   284025.53 1578.27
   1  -2  -333706.30  481.07
   1  -2  -333418.99  526.15
  -1   2   334301.77  513.28
  -1   2   333733.92  552.96
  -1   2   334284.69  499.44
  -1   2   334338.51  537.19
   1  -2  -333173.06  579.68
  -2  -2   2 3457.27   58.45
  -2  -2   2 3559.10   69.14
   2   2  -2 3346.14   91.47
  -2  -2   2 3396.49   73.10
  -2  -2   2 3342.96   74.89
   2   2  -2 3314.56   54.28
  -2  -2   2 3552.30   94.91
   2   2  -2 3173.65   70.44
   0   3   130304.74  374.57
   0   3   129944.43  448.89
   0  -3  -130411.06  495.32
   0   3   130506.77  496.22
   0  -3  -130112.53  451.76
   0  -3  -131076.43  380.80
   1  -3  -296941.71 1714.95
   1  -3  -297135.02 1668.54
  -1   3   298444.05 1743.60
  -1   3   297756.47 1809.76
   1  -3  -297021.43 1788.42
  -1   3   296728.65 1671.77
  -2   0   4  714.59   97.48
  -2   0   4  558.48   83.83
   2   0  -4  596.78   37.34
  -2   0   4  632.42   30.04
  -2   0   4  625.22   54.23
   2   0  -4  656.39   31.76
   1   0  -4 2087.00   83.66
  -1   0   4 2354.28   53.71
  -1   0   4 2080.59   97.17
   1   0  -4 2278.40   87.27
  -1   0   4 2183.69   85.89
   1   0  -4 2301.89   99.83
  -1  -1   4 1265.13  126.57
  -1  -1   4 1060.36   65.04
   2   2  -116003.10  232.39
   2   2  -116023.38  395.86
  -2  -2   116847.40  192.81
   1   1  -4  796.28   67.65
  -2  -2   116491.72  240.58
   1   1  -4  903.86   36.38
  -2  -2   117259.44  193.48
  -2   3  -2  655.25   57.82
  -2   3  -2  630.09   32.47
   2  -3   2  564.45   56.16
   2  -3   2  547.95   61.57
  -2   3  -2  770.92   66.30
   2  -3   2  641.49   53.69
  -3   2  -126132.72  403.38
  -3   2  -126131.94  438.15
   3  -2   126027.76  415.23
  -3   2  -127231.71  440.75
   3  -2   124815.97  379.37
  -3   2  -126039.89  444.57
   3  -2   123059.01  405.47
  -2   4   061799.95 1026.10
  -2   4   060833.92  989.65
   2  -4   060049.19  952.75
   2  -4   060900.70  999.28
   2  -4   061185.77  972.64
   2  -4   061841.14 1072.84
  -3   0   015364.69  317.73
  -3   0   015367.54  184.81
  -3   0   015654.11  302.04
  -3   0   014057.25  293.24
   3   0   014685.24  172.91
   3   0   013549.66  420.11
  -1  -3   171809.97 1202.88
  -1  -3   170616.92 1346.19
   1   3  -168423.08 1232.74
  -1  -3   174499.67 1206.93
   1   3  -167657.48 1180.53
   1   3  -168548.82 1056.88
  -2  -1  -1 160604.   3531.
  -2  -1  -1 164287.   3219.
   2   1   1 162093.   3117.
   2   1   1 162812.   3571.
  -2  -1  -1 167266.   3466.
   2   1   1 163041.   3377.
   1   3  -297125.46 1731.02
  -1  -3   294031.32 1739.58
  -1  -3   297910.58 1754.31
  -1  -3   2 101187.   1783.
   1   3  -296373.71 1825.80
  -1  -3   299403.25 1772.73
   0   3  -322562.73  352.98
   0  -3   322557.53  353.17
   0  -3   322154.06  520.87
   0   3  -322431.30  390.16
   1  -4   145197.85  716.35
   1  -4   146831.30  671.22
   1  -4   144735.64  807.44
  -1   4  -148387.57  902.03
  -1   4  -145242.16  683.59
   1  -4   144763.57  703.00
  -2   1   4  661.09   52.16
  -2   1   4  622.61   55.45
   2  -1  -4  848.27   55.49
   2  -1  -4  594.67   43.13
  -1   0  -3 4109.16   99.56
  -1   0  -3 4428.73  144.71
  -1   0  -3 3727.36  167.07
   1   0   3 4252.70  100.16
   1   0   3 4170.10  144.28
   1   0   3 4806.92  118.79
   1  -4   0  404.47   71.12
   1  -4   0  450.43   40.29
   1  -4   0  442.87   56.81
   1  -4   0  419.93   41.73
  -1   4   0  473.84   42.51
  -1   4   0  458.10   36.18
  -1   4   0  433.77   41.68
  -2  -2   3   88.58   32.63
   2   2  -3   99.48   27.65
  -2  -2   3   71.35   26.37
  -2   4  -1 3662.75  113.40
   2  -4   1 3852.49   89.25
  -2   4  -1 3866.92   91.75
  -2   4  -1 3887.62  109.30
   2  -4   1 3868.05   69.76
   2  -4   1 3806.97  109.91
  -2  -1   4 101784.   1837.
   2   1  -496987.76 1645.27
  -2  -1   498888.97 1870.80
  -2  -1   499285.03 1719.93
   2   1  -493505.63 1631.19
   2   1  -496114.63 1930.97
  -2  -1   496988.58 1830.86
  -3  -1   2 5034.83   83.01
  -3  -1   2 4969.43   76.18
   3   1  -2 4778.28  114.88
  -3  -1   2 4939.18  129.61
   3  -3   1 7330.16  132.72
  -3  -1   2 5296.03  152.62
  -3   3  -1 7486.68  203.06
  -3   3  -1 7554.81  232.04
   3  -3   1 7065.52  153.29
  -3   3  -1 7229.90  146.11
   3  -3   1 7212.56  145.96
  -3  -1   2 4968.01   72.36
  -3   1  -117964.12  467.63
   3  -1   117708.32  315.59
  -3   1  -119317.30  346.77
  -3   1  -118457.23  353.43
   3  -1   117162.26  392.20
  -3   1  -118997.81  278.69
   2  -4  -128571.33  421.95
  -2   4   128653.52  407.67
  -2   4   128352.04  422.57
   2  -4  -128358.18  428.84
  -2   4   128318.39  443.10
   2  -4  -128355.85  404.12
   2  -4  -127884.44  396.62
  -2   0  -228421.72  507.39
   2   0   227413.45  466.10
   2   0   226956.91  390.23
  -2   0  -229030.57  429.94
   2   0   227764.66  496.46
  -2   0  -229325.70  503.66
   1  -3   3 5283.52  210.07
  -1   3  -3 5304.89   55.52
  -1   3  -3 5670.17  157.98
   1  -3   3 5262.28  160.32
  -1   3  -3 5376.13  138.64
   0  -1   4 3622.97   70.17
   0   1  -4 3399.67   59.81
   0  -1   4 3714.43  124.38
   0  -1   4 3390.06  133.72
   0   1  -4 3826.84  140.33
   0   1  -4 3352.49  118.99
   4  -2  -229844.22  559.89
  -4   2   229544.12  454.15
  -4   2   230263.44  351.36
   4  -2  -229310.87  478.45
  -4   2   229378.22  483.75
   1  -1  -487985.35 1680.34
  -1   1   489791.87 1844.73
   1  -1  -486516.49 1533.93
  -1   1   489849.68 1616.32
  -1   1   487336.88 1603.64
  -1   1   492829.40 1655.14
   1   3   0  242.03   52.67
   1   3   0  272.90   40.20
  -1  -3   0  318.02   14.54
  -1  -3   0  382.44   54.96
   1   2  -494745.31 1715.96
  -1  -2   497365.06 1572.16
  -1  -2   4 102923.   1631.
  -1  -2   499856.09 1861.89
   1   2  -494339.78 1808.71
  -1  -2   497313.74 1929.89
  -3  -1   1 124388.   2180.
  -3  -1   1 123811.   2322.
   3   1  -1 110782.   2305.
  -3  -1   1 116145.   2402.
  -3  -1   1 125220.   2639.
   3   1  -1 119438.   2073.
   3   1  -1 121051.   2237.
   3   1  -348285.64  824.54
  -3  -1   350578.34  875.76
  -3  -1   350528.96  745.03
  -3  -1   350060.56  770.96
  -3  -1   349928.62  787.98
  -3  -1   350628.40  750.75
  -3  -1   349016.79  772.18
  -3   1   4  545.72   53.85
   3  -1  -4  531.72   44.06
  -3   1   4  471.22   49.26
   3  -1  -4  542.18   22.87
  -3   1   4  494.45   52.01
  -3   1   4  512.69   40.48
  -2  -2   0 2437.28  116.07
   2   2   0 2529.86  133.86
   2   2   0 2741.08  119.36
  -2  -2   0 2516.48  131.80
  -4   2   1 244667.   6057.
   4  -2  -1 230960.   5154.
  -4   2   1 246145.   5704.
   4  -2  -1 240393.   5648.
  -4   2   1 245207.   5763.
   4  -2  -1 238819.   5476.
  -3   4   1 2224.65   81.18
  -3   4   1 2364.90   81.39
   3  -4  -1 2290.52   82.77
   3  -4  -1 2307.92   82.15
   3  -4  -1 2405.69   78.85
   3  -4  -1 2171.93   48.98
   1  -4   293591.36 1698.86
  -1   4  -291768.64 1605.30
   1  -4   289888.16 1723.28
   1  -4   296745.95 1590.25
  -1   4  -294543.95 1805.82
  -1   4  -295072.52 1733.29
   3  -4   067553.78 1317.78
   3  -4   069273.65 1132.78
   3  -4   069101.35 1158.18
  -3   4   070320.19 1142.41
  -3   4   066878.83 1134.45
  -3   4   067773.47 1181.68
  -1  -3   3 1959.33   70.13
  -1  -3   3 1949.70   87.57
  -1  -3   3 1924.44   35.59
   1   3  -3 1858.07   59.88
   1   3  -3 2037.96   72.47
   1   3  -3 1920.16   77.34
  -1  -3   3 1744.27   71.86
   2  -3  -3 157101.   3172.
  -2   3   3 158340.   3229.
   2  -3  -3 153807.   3070.
  -2   3   3 158149.   3162.
  -2   3   3 155987.   3247.
   2  -3  -3 151992.   3160.
   0  -2   415436.24  173.78
   0  -2   415552.01  294.18
   0   2  -414330.40  285.99
   0   2  -415200.42  286.71
   0  -2   415352.75  311.16
  -3   0   4 141890.   2851.
   4  -1  -2 1089.32   33.41
   3   0  -4 141706.   2656.
  -4   1   2  935.01   48.67
  -4   1   2 1113.10   73.40
   4  -1  -2 1025.49   74.76
  -3   0   4 135015.   2621.
   3   0  -4 139439.   2755.
  -3   0   4 145601.   2789.
   4  -1  -2  926.01   48.62
  -4   1   2  998.41   44.61
  -3   0   4 140918.   2839.
  -3   3   3 7555.92  148.99
  -3   3   3 7984.71  159.74
   3  -3  -3 7745.93  157.97
   3  -3  -3 7786.44   95.13
   3  -3  -3 7880.29  151.10
  -3   3   3 7877.34   92.60
   0   0  -4 216590.   4992.
   0   0  -4 208134.   4850.
   0   0   4 214985.   5186.
   0   0   4 231651.   5270.
   0   0  -4 222907.   5310.
  -1   4   185653.30 1564.50
  -1   4   185153.24 1441.84
   1  -4  -184512.59 1522.11
   1  -4  -183597.21 1460.92
   1  -4  -183538.17 1395.98
  -1   4   182668.24 1450.93
   0   4  -1 137588.   2771.
   0   4  -1 142266.   2833.
   0  -4   1 151652.   3025.
   0  -4   1 147628.   2989.
   0  -4   1 144440.   2933.
   0  -4   1 150437.   2972.
   0   4  -1 143987.   2875.
  -4   3   1 4368.13   61.47
   4  -3  -1 4061.98   76.00
   4  -3  -1 4321.82  111.43
  -4   3   1 4597.08  125.33
  -4   3   1 4197.23  109.21
   4  -3  -1 4365.05  118.11
  -4   3   215859.83  385.15
   4  -3  -215870.18  172.95
  -4   3   216136.71  269.29
   4  -3  -216061.64  378.03
   4  -3  -216351.09  272.17
   4  -1  -116805.92  453.02
   4  -1  -115927.33  254.23
  -4   1   116278.43  468.29
   4  -1  -116189.98  233.04
  -4   1   117139.69  306.25
  -4   1   117610.54  343.19
  -4   1   116631.90  236.49
   4  -2  -3 8011.52  164.17
  -4   2   3 7624.34  152.43
  -4   2   3 7795.68  162.24
   4  -2  -3 8007.63  234.51
  -4   1   3 5853.00  137.36
  -4   1   3 6209.88   67.77
   4  -1  -3 5870.70  124.87
   4  -1  -3 6171.53  142.77
  -4   1   3 6362.00   69.56
  -4   1   3 6306.92  127.31
  -2   2   4 7046.91  144.41
  -2   2   4 6789.96  137.61
   2  -2  -4 6798.76  145.08
   2  -2  -4 6730.31  137.85
  -2   2   4 6745.67  211.46
  -2   2   4 6851.55  117.83
   2  -2  -4 6771.49  132.93
   0  -4   2 204945.   4701.
   0  -4   2 218459.   4693.
   0   4  -2 196791.   4246.
   0  -4   2 207407.   4653.
   0  -4   2 216284.   4836.
   0   4  -2 204660.   4607.
   0   2   327601.94  453.78
   0   2   327940.18  475.63
   0   2   327351.79  384.05
   0  -2  -326889.87  470.46
   0   2   327390.54  444.97
   0  -2  -327274.45  558.23
  -1  -2  -2 216252.   5137.
   1   2   2 203118.   4363.
  -1  -2  -2 225255.   5140.
   1   2   2 230921.   5016.
   1   2   2 221079.   5257.
   1   2   2 226588.   5340.
  -2   4  -2  698.04   73.54
   2  -4   2  699.90   75.03
  -2   4  -2  663.89   59.22
   2  -4   2  853.36   54.31
   2  -4   2  723.11   59.87
  -2   4  -2  651.82   31.30
  -3   2   412054.75  206.66
  -3   2   412224.37  146.18
  -3   2   412463.37  225.15
   3  -2  -411840.15  225.98
   3  -2  -411823.45  205.53
   3  -2  -411959.98  216.49
   2  -2   3 1105.93   78.22
   2  -2   3 1142.86   63.80
  -2   2  -3 1170.89   80.54
  -2   2  -3 1078.11   99.11
  -2   2  -3 1056.65   61.31
   2  -2   3 1046.70  167.95
  -2   2  -3 1036.92   99.49
   0   3   237531.43  606.75
   0   3   237587.34  544.78
   0   3   238233.59  663.85
   0  -3  -237180.75  800.34
   0  -3  -237474.99  541.91
   0  -3  -237409.58  600.63
  -3   4   266506.24 1143.09
   3  -4  -266070.70 1103.51
   3  -4  -267684.71 1156.62
   3  -4  -266542.19 1043.21
   3  -4  -265685.54 1141.42
  -2   4   2 1983.71   60.18
  -3   4   267617.87 1125.20
  -3   4   265764.96 1153.64
  -2   4   2 1939.17   66.96
  -2   4   2 2033.29  147.14
   2  -4  -2 1864.70   83.17
   2  -4  -2 1802.00   58.07
   2  -4  -2 1747.44  102.33
  -3   4  -166821.89 1351.17
   3  -4   166309.14 1209.14
   3  -4   170528.71 1176.08
  -3   4  -166300.57 1128.33
  -3   4  -166605.46 1121.15
   3  -4   169631.12 1202.55
   0  -4   0 4322.56  112.44
   0  -4   0 4783.09  118.99
   0  -4   0 4463.43   66.17
   0   4   0 4216.01  107.50
   0   4   0 4818.16  117.91
   0   4   0 4186.25  120.10
   3   0   111128.23  141.30
   3   0   111241.65  268.96
  -3   0  -112160.45  286.74
  -3   0  -111900.56  164.43
  -3   0  -111764.91  224.62
   3   0   111167.26  205.99
  -2  -2   4 3921.69   73.08
   2   2  -4 3613.43  108.23
  -2  -2   4 3835.24   94.21
  -2  -2   4 3940.75  126.54
  -2  -2   4 3944.95   52.75
   2   2  -4 3570.73   86.34
  -4   2   0 156157.   3361.
  -4   2   0 159714.   3407.
  -4   2   0 163058.   3514.
  -4   2   0 152224.   3316.
   4  -2   0 149688.   3024.
   4  -2   0 155892.   3313.
   4  -2   0 145799.   3149.
   1   1   310556.66  228.68
  -1  -1  -3 9729.89  217.69
  -1  -1  -310459.58  221.90
   1   1   310009.32  218.14
   1   1   310524.38  220.20
  -1  -1  -310083.21  155.27
  -4   3   0 5009.52  123.98
  -4   3   0 5069.60  139.92
   4  -3   0 4582.77  113.66
   4  -3   0 4960.21  123.50
  -4   3   0 4902.96  104.28
   4  -3   0 5061.31  129.32
  -3  -1   066275.21  993.64
  -3  -1   064592.00 1096.46
   3   1   058816.47 1388.87
  -3  -1   064687.25 1287.30
   3   1   065152.75  943.57
   3   1   062391.41 1050.86
  -3  -1   453294.68  820.90
   3   1  -450481.71  829.40
  -3  -1   451781.40  877.91
   3   1  -452810.74  794.63
  -3  -1   453678.99  811.58
  -3  -1   451799.30  990.74
  -3  -1   453463.01  825.51
   3  -2   2 8541.64  217.53
  -3   2  -2 9169.00  186.45
   3  -2   2 8586.27  259.51
  -3   2  -2 9219.58  199.96
  -3   2  -2 9135.01  226.36
  -3   2  -2 9228.55  201.57
  -2   1  -3 2252.59   95.47
  -1   3   3 115907.   2497.
  -2   1  -3 2394.77   98.44
  -1   3   3 116280.   2230.
  -1   3   3 117808.   2192.
   1  -3  -3 114189.   2171.
  -2   1  -3 2758.55  136.33
   2  -1   3 2037.36  140.88
   1  -3  -3 114965.   2108.
   2  -1   3 2215.66  126.60
   2  -1   3 2267.36  102.12
   1  -3  -3 111231.   2205.
   4   0  -213811.53  178.54
  -2   3  -385111.80 1686.10
  -2   3  -389395.13 1746.75
  -4   0   214779.36  242.85
   4   0  -214646.96  205.86
  -4   0   215491.61  324.36
   2  -3   385843.10 1653.05
  -4   0   214507.38  293.99
  -2   3  -391727.96 1599.80
   2  -3   383283.22 1636.71
  -2   3  -390708.96 1587.52
  -4   0   214651.98  202.23
   0   3  -4 4273.13  132.35
   0  -3   4 4385.53  269.96
   0   3  -4 4337.91  145.97
   0  -3   4 4586.58  135.88
  -3   3  -289181.93 1746.79
  -3   3  -290720.70 1696.76
  -3   3  -294454.52 1810.90
   3  -3   285482.45 1645.40
   3  -3   292214.59 1685.03
   3  -3   286449.21 1692.96
  -3   3  -294153.14 1731.67
   4  -3  -312688.35  131.33
  -4   3   312747.50  232.88
   4  -3  -313210.57  246.34
   4  -3  -312533.95  231.37
  -4   3   312898.71  240.38
  -4   0   3 141138.   2894.
  -4   0   3 142446.   2665.
   4   0  -3 136741.   2851.
   4   0  -3 135822.   2652.
  -4   0   3 139883.   2763.
  -4   0   3 139428.   2677.
  -1  -3  -1 1625.30   79.59
   1   3   1 1826.90   82.59
   1   3   1 1788.76  106.61
  -1  -3  -1 1711.54  103.09
  -1   2  -4 114979.   2332.
   1  -2   4 115820.   2456.
   1  -2   4 121395.   2515.
  -1   2  -4 112550.   2061.
  -1   2  -4 114469.   2385.
   1  -2   4 118698.   2255.
  -2  -1  -287891.19 1531.01
  -2  -1  -288694.16 1662.86
   2   1   284144.52 1574.45
   2   1   285660.76 1492.65
  -2  -1  -281897.46 1638.22
   2   1   285858.66 1701.70
   1  -4   3 119568.   2082.
  -1   4  -3 113288.   1943.
  -1   4  -3 113758.   2231.
   1  -4   3 116417.   2288.
  -1   4  -3 112703.   2315.
   1  -4   3 109017.   2300.
  -2  -3   2 2478.45   91.01
   0  -1  -483363.78 1610.35
   0   1   486460.39 1598.94
   0   1   482398.67 1512.28
  -1   1  -447605.46  777.90
   0  -1  -483109.75 1500.45
   2   3  -2 2143.67   77.89
   0  -1  -479366.16 1469.58
   2   3  -2 2167.62   93.29
   2   3  -2 2235.47   45.24
  -1   1  -451808.96  994.44
  -2  -3   2 2250.79   81.29
   1  -1   448763.38 1174.09
   1  -1   450310.53  905.32
  -2  -3   2 2317.15   98.02
   1  -1   451882.66  876.84
   0   1   486677.13 1562.97
   0   1   482451.21 1611.59
  -1   1  -449042.50  878.28
  -2  -3   2 2221.15   81.76
  -1   2   4  987.60   70.97
  -1   2   4 1043.00   58.56
   1  -2  -4  931.36   67.45
   1  -2  -4  952.28   73.07
  -1   2   4  918.88   65.49
  -1   2   4  851.42   52.29
   0   4  -318760.10  322.67
   0   4  -319055.42  351.64
   0  -4   319025.98  318.67
   0  -4   317522.11  346.31
   0   4  -318640.50  251.00
  -4   4   1 111547.   1975.
   4  -4  -1 109420.   2130.
   4  -4  -1 113325.   2177.
  -4   4   1 108151.   2095.
   4  -4  -1 110395.   2066.
  -4   4   1 110459.   2136.
  -4   1   014613.80  215.12
   4  -1   013563.43  194.94
  -4   1   014523.23  328.78
   4  -1   013646.29  217.64
  -4   1   013636.34  460.34
  -4   1   014682.50  255.96
  -2   0   516199.73  425.94
  -2   0   516447.78  229.28
   2   0  -515887.27  277.91
  -2   0   516837.85  324.91
  -2   0   516376.80  307.82
   2   0  -516864.06  324.06
   2   0  -515862.78  225.06
  -1  -3   4 167946.   3093.
  -1  -3   4 165346.   3512.
  -1  -3   4 163870.   3671.
   1   3  -4 165867.   3476.
  -1  -3   4 163925.   3032.
   1   3  -4 156331.   3421.
  -2  -2  -1  639.53   61.40
   2   2   1  704.62   87.08
   2   2   1  626.07   61.67
  -2  -2  -1  615.34   86.24
   4  -1  -416388.74  282.78
   4  -1  -415610.52  271.83
  -4   1   417394.92  233.68
  -4   1   416361.15  275.29
  -4   1   416375.97  286.22
  -4   1   416992.14  188.54
  -4   0   171912.19 1144.55
  -4   0   173483.57 1233.54
   4   0  -169336.13 1143.13
   4   0  -169935.86 1109.72
  -4   0   172355.81 1448.51
  -4   0   168058.75 1351.77
  -3   1  -2 194523.   4544.
   3  -1   2 174419.   3979.
  -3   1  -2 192799.   4452.
   3  -1   2 170892.   3801.
  -3   1  -2 190089.   4439.
   3  -1   2 177848.   4021.
  -3   1  -2 194819.   4528.
  -3  -2   2 2669.98  205.38
  -3  -2   2 2639.31   76.66
  -3  -2   2 2617.69   57.14
  -3  -2   2 2707.75   44.25
  -3  -2   2 2537.39  113.39
   3   2  -2 2423.12  112.16
   3   2  -2 2437.40   72.00
   1   1  -582489.85 1596.34
  -1  -1   590030.59 1761.85
   1   1  -584727.38 1843.20
  -1  -1   584396.58 1706.69
  -1  -1   594990.09 1597.99
   1   1  -586131.43 1415.89
   2   1  -568346.12 1164.38
   2   1  -567158.91 1107.35
  -2  -1   571776.08 1111.57
  -2  -1   570916.04 1295.15
   2   1  -566680.11 1234.07
  -2  -1   569576.56 1311.02
  -1   4   2  630.73   69.55
   1  -4  -2  535.16   50.37
   1  -4  -2  612.20   68.85
  -1   4   2  534.72   35.30
   1  -4  -2  483.11   32.52
  -1   4   2  557.10   53.68
   4  -4  -2 156369.   3273.
   4  -4  -2 152463.   2922.
  -4   4   2 152232.   3397.
  -4   4   2 151299.   3154.
   4  -4  -2 153385.   2953.
   4  -4  -2 156534.   3289.
   2   3  -3 142412.   2839.
  -4   2   4 109172.   2101.
   4  -2  -4 113027.   1838.
  -2  -3   3 140595.   3048.
  -2  -3   3 145981.   2913.
  -2  -3   3 141439.   2975.
  -4   2   4 112883.   1821.
   2   3  -3 139465.   2824.
  -4   2   4 109357.   2317.
   4  -2  -4 107193.   2076.
  -2  -3   3 136857.   2759.
   4  -2  -4 106934.   2076.
  -2  -3   3 138568.   2780.
  -2  -3   120135.45  220.27
   2   3  -118536.25  361.51
   2   3  -118280.97  301.25
  -2  -3   120349.94  388.39
  -2  -3   119250.28  322.75
  -2  -3   119944.93  229.40
   2  -5   0 110513.   2098.
   2  -5   0 111725.   2089.
   2  -5   0 109546.   2076.
  -2   5   0 112705.   2164.
  -2   5   0 108335.   2079.
   2  -5   0 112811.   2147.
  -3  -2   327177.38  411.15
  -3  -2   328812.82  447.00
  -3  -2   327884.85  502.14
  -3  -2   327395.53  441.52
  -3  -2   328577.95  507.86
  -3  -2   328594.22  410.15
  -4   4   0  315.70   36.16
  -4   4   0  261.36   56.32
   4  -4   0  369.16   57.54
   4  -4   0  289.23   50.18
  -4   4   0  358.67   51.69
  -1   0   5 1213.71  138.90
  -1   0   5 1092.83   95.54
   1   0  -5 1011.07   50.94
   1   0  -5 1157.16   92.43
  -1   0   5  967.11   50.09
   1   0  -5 1057.42   86.09
   2  -5   115762.90  293.20
  -2   5  -117159.68  430.08
  -2   5  -115950.55  274.68
   2  -5   115506.70  260.90
  -2   5  -115226.13  236.05
   2  -5   115653.06  267.97
   2  -5   115737.00  290.10
   0   4   149539.79  708.18
   0   4   148340.37  877.37
   0  -4  -149872.83  897.22
   0  -4  -148141.08  957.87
   0   4   147471.81  800.24
   0  -4  -150558.30  709.30
   1  -3   413875.90  293.13
   1  -3   413219.59  311.43
  -1   3  -414257.03  194.12
  -1   3  -413676.75  304.30
  -1   3  -414287.11  315.92
   2  -1  -524480.37  559.65
  -2   1   526211.73  448.73
   2  -1  -525346.21  394.67
  -2   1   525995.23  443.29
  -2   1   525977.90  404.57
  -2   1   525609.19  461.82
  -3   3   4  357.46   27.14
  -3   3   4  377.03   56.43
   3  -3  -4  246.87   29.72
   3  -3  -4  305.11   48.72
   3  -3  -4  297.67   53.89
  -3   3   4  352.96   55.96
   1   4  -210079.89  182.37
   1   4  -210174.64  221.40
  -1  -4   211536.00  263.24
  -1  -4   211552.61  190.00
  -1  -4   210712.01  209.61
  -3   0   570985.90 1312.15
  -3   0   573142.62 1210.83
  -3   0   571631.13 1308.06
   3   0  -570799.24 1153.59
   3   0  -571536.95 1211.98
  -3   0   570208.35 1247.17
   3  -4  -383906.61 1751.56
  -3   4   387218.53 1648.11
  -3   4   388983.94 1514.24
   3  -4  -386268.49 1463.24
   3  -4  -385531.26 1683.63
  -3   4   388314.57 1623.42
  -3   1   511320.99  190.58
  -3   1   511602.38  235.44
  -3   5   058559.98 1034.47
   3  -1  -511214.78  193.51
  -3   1   511598.22  188.75
  -3   1   511142.69  242.10
   3  -1  -511093.90  177.40
   3  -5   056694.05  930.53
   3  -5   056189.07  988.54
   3  -5   057170.72  945.35
   3  -5   058094.90 1078.74
  -3   5   055860.65  958.00
  -3   5   058524.27  965.19
  -4   0   4 171312.   3407.
  -3   4  -2 1015.32   55.20
  -3   4  -2 1084.09   78.92
  -4   0   4 166480.   3539.
  -3   4  -2  954.94   88.55
   3  -4   2 1179.80  140.75
   4   0  -4 164792.   3478.
   3  -4   2 1275.33   56.08
   3  -4   2 1152.05  166.61
  -4   0   4 167966.   3380.
  -4   0   4 165869.   3516.
   4   0  -4 159843.   3442.
  -4   0   4 166111.   3532.
  -2   0  -318844.89  389.17
   2   0   317444.41  281.72
  -2   0  -317279.42  283.47
  -2   0  -318151.90  353.11
   2   0   317323.08  528.53
   2   0   318114.65  366.44
  -1  -4   1 126550.   2368.
  -1  -4   1 122865.   2443.
   1   4  -1 114530.   2335.
  -1  -4   1 125536.   2537.
   1   4  -1 119362.   2326.
   1   4  -1 120352.   2206.
   1  -5   127244.17  455.17
   1  -5   127357.47  536.70
  -1   5  -126806.91  429.95
   1  -5   126926.67  447.02
   1  -5   127788.24  404.88
  -1   5  -127128.08  451.68
  -3  -2   116576.35  366.27
   3   2  -115664.78  254.50
  -3  -2   116366.31  272.95
   3   2  -115225.40  342.79
  -3  -2   116441.22  181.11
  -3  -2   116829.31  184.37
  -4   3  -1 3183.63  208.98
  -4   3  -1 3453.10  117.61
   4  -3   1 3201.39  114.03
   4  -3   1 3203.28  124.80
  -4   3  -1 3613.90  125.82
   4  -3   1 3497.98  119.83
  -4   3  -1 3403.16  113.94
   1   2  -569865.90 1349.92
  -1  -2   580812.18 1252.02
   1   2  -571252.63 1306.94
  -1  -2   575415.18 1505.36
  -1  -2   573781.61 1601.21
  -2   4  -3 6210.07  194.06
  -2   4  -3 6025.24  175.29
   2  -4   3 6206.90   92.67
   2  -4   3 6350.54  168.97
  -2   4  -3 5991.11   88.45
   2  -4   3 5457.59  190.67
  -2   4  -3 6462.79   95.95
  -1   0  -4 235676.   5663.
  -1   0  -4 252377.   6257.
   1   0   4 249540.   6042.
   1   0   4 231808.   5820.
  -1   0  -4 227060.   5478.
   1   0   4 244139.   5864.
   4  -2   1 1832.01   98.62
  -4   2  -1 1995.49  111.09
  -4   2  -1 2144.81  193.79
   4  -2   1 1606.26   73.83
  -4   2  -1 1868.38  116.03
  -4   2  -1 1957.67   79.74
   3  -5  -1 8882.33  176.20
   3  -5  -1 8664.15  178.75
   3  -5  -1 8156.44  136.46
  -3   5   1 8492.67  273.38
   3  -5  -1 8196.47  139.92
  -3   5   1 8554.08  183.92
   2  -3  -433966.65  542.24
  -2   3   434030.98  555.59
  -2   3   435105.03  548.84
   2  -3  -433589.84  591.06
  -2   3   434579.87  600.05
   2  -3  -432754.82  527.24
   2  -5  -1 297236.   7500.
   2  -5  -1 291364.   7264.
  -2   5   1 294895.   7282.
   2  -5  -1 288977.   7121.
   2  -5  -1 286033.   7082.
  -2   5   1 286181.   7049.
  -2   5   1 281960.   7089.
  -2   4   327730.59  493.98
   2  -4  -327317.10  489.08
  -2   4   327370.47  517.45
   2  -4  -326750.17  412.24
   2  -4  -326520.26  411.43
  -2   4   326915.78  422.00
  -1   5   0 2861.59  172.31
  -1   5   0 3114.96   84.12
  -1   5   0 2748.61   98.84
   1  -5   0 2780.35   97.91
   1  -5   0 2739.25  117.52
   1  -5   0 2668.30   97.61
   1  -5   0 2822.60  157.53
   1   4  -318392.27  265.14
  -1  -4   317967.43  459.89
   1   4  -318166.17  408.69
  -1  -4   318720.26  328.69
  -1  -4   318592.31  328.23
  -1  -4   319373.43  303.39
   1  -5   297064.78 1845.62
  -1   5  -297874.86 1932.99
   1  -5   2 101231.   1754.
   1  -5   296827.49 2080.05
   1  -5   297918.04 1860.60
  -1   5  -299072.70 1882.19
  -1   5  -295617.33 1718.34
   3  -5   1 6721.18  184.48
  -3   5  -1 6825.64  149.43
  -3   5  -1 6681.02  180.14
  -3   5  -1 6768.71  198.65
   3  -5   1 6778.39  126.70
   3  -5   1 6671.24  144.64
  -3  -2   495871.61 1748.83
  -3  -2   497629.28 1818.09
   3   2  -496890.69 1796.15
  -3  -2   498559.54 2060.25
  -3  -2   498191.70 1754.34
  -3  -2   497713.13 1762.01
  -3  -2   493826.36 1824.09
   0   1  -5 2203.60  123.40
   0   1  -5 2489.66  143.19
  -4   3   4 3428.91  191.27
   0  -1   5 2122.22  143.33
   4  -3  -4 3165.01   51.64
   0   1  -5 2257.67   60.37
  -4   3   4 3443.46  122.58
   0  -1   5 2478.40  125.65
   0  -1   5 2373.25  113.34
  -4   3   4 3295.29   38.46
   4  -3  -4 3461.08  118.10
   4  -3  -4 3246.18  115.79
   3   1   193561.25 1995.15
  -3  -1  -198760.02 1909.44
   3   1   198967.58 1610.08
  -3  -1  -197035.86 2325.56
   3   1   195191.55 1814.72
  -3  -1  -1 101646.   1776.
   2  -5   214069.82  305.14
  -2   5  -214280.63  204.59
   2  -5   214583.25  272.40
   2  -5   214592.31  246.16
  -2   5  -215070.64  320.08
  -2   5  -214419.43  274.49
  -4   4   366319.88 1205.46
   4  -4  -366527.44 1207.65
   4  -4  -366301.23 1351.85
  -4   4   366473.55 1361.38
   4  -4  -366605.86 1004.25
   4  -4  -367228.02 1006.96
   2   2  -515971.21  269.30
   2   2  -515684.48  319.10
  -2  -2   517031.14  295.72
  -2  -2   516705.81  351.57
  -2  -2   516470.87  209.15
   3   1  -511164.92  171.20
  -3  -1   511139.58  154.34
  -3  -1   511358.63  240.34
  -3  -1   512088.78  198.99
   3   1  -511279.38  176.08
  -3  -1   511939.59  248.85
  -2  -3   4 112473.   2062.
   2   3  -4 111448.   2124.
  -2  -3   4 108787.   2437.
  -2  -3   4 112582.   2064.
   2   3  -4 107138.   2108.
  -2  -3   4 111013.   2145.
  -2  -3   4 112306.   2150.
   2   3   0 154261.   3474.
  -2  -3   0 158641.   3586.
  -2  -3   0 165062.   3498.
   2   3   0 158274.   3325.
   0  -2   543389.91  848.70
   0   2  -541124.00  788.92
   0   2  -540456.48  543.58
   0  -2   544301.44  860.81
   0   2  -540179.29  774.12
   0  -2   543885.86  683.73
  -4  -1   3 3820.36   76.44
  -4  -1   3 3651.47   76.92
  -4  -1   3 3989.09  160.96
  -4  -1   3 3762.00  123.37
   4   1  -3 3623.07   72.59
  -4  -1   3 3765.18   78.13
  -4  -1   3 3744.80   86.33
   5  -2  -2 3504.48  170.09
  -5   2   2 3873.17   96.06
   5  -2  -2 3813.63   61.63
   5  -2  -2 4046.82  146.79
  -5   2   2 3752.55  148.40
  -5   2   2 3762.89  171.35
  -4   0   087664.21 1821.65
  -1   1   5 1859.14   90.74
  -1   1   5 1690.98   81.92
  -1   1   5 1693.71  163.09
   4   0   082447.33 1336.11
   4   0   074839.93 1570.30
  -4   0   087200.12 1615.64
   1  -1  -5 2679.67  117.85
  -1   1   5 1758.10  105.71
  -4   0   087063.88 1533.84
   1  -1  -5 1565.67   81.66
  -4   0   080928.64 1688.38
  -4  -1   2 3822.15   94.25
  -4  -1   2 3926.34  107.69
   4   1  -2 4014.91  106.74
  -4  -1   2 3976.38  155.80
   4   1  -2 3620.46   81.99
  -4  -1   2 4005.45  140.70
  -4  -1   2 4135.21  176.98
  -5   3   2  155.42   19.49
  -5   3   2  117.56   58.66
  -5   3   2  180.36   45.76
   5  -3  -2  128.54   47.89
   5  -3  -2  182.52   53.47
   4  -4   1 171989.   3690.
   4  -4   1 164363.   3783.
  -4   4  -1 168335.   3618.
  -4   4  -1 167232.   3654.
  -4   4  -1 173426.   4033.
   4  -4   1 164531.   3628.
  -3   2   5 363220.   9541.
   3  -2  -5 369169.   9837.
   3  -2  -5 341036.   9418.
  -3   2   5 357586.  10013.
   3  -2  -5 350870.   9648.
  -3   2   5 364785.   9792.
  -3   2   5 363769.   9721.
   3   0   214397.30  347.89
  -3   0  -215493.07  360.09
  -3   0  -215651.05  328.97
   3   0   213919.28  205.97
  -3   0  -215372.98  306.12
   3   0   214359.21  431.01
  -5   2   367598.85 1196.79
   5  -2  -368143.25 1446.42
  -5   2   367819.39 1258.01
   5  -2  -364758.24 1148.73
   0   4  -417359.67  330.33
   1   4   0 115475.   2256.
   0  -3  -3  605.74   81.88
   0   3   3  463.00   30.30
   0   3   3  654.03   77.65
   1   4   0 112813.   2344.
   0  -3  -3  497.84   64.36
   0  -4   417826.59  334.35
   0  -4   417115.38  383.62
  -1  -4   0 122873.   2124.
  -1  -4   0 121527.   2764.
  -1  -4   0 120579.   2408.
   0   4  -416776.79  346.63
   0   3   3  477.16   51.71
   1   2   323362.53  438.43
  -1  -2  -322399.39  462.84
   1   2   324060.60  484.59
  -1  -2  -324296.21  447.46
   1   2   323126.47  311.37
   1   2   323094.53  372.16
  -4   1  -1 3306.99  167.60
  -4   1  -1 3944.12   90.52
  -4   1  -1 3600.65  235.75
   4  -1   1 3381.01  116.56
  -4   1  -1 3799.62  169.50
   4  -1   1 3244.65   80.23
  -3   5   2  911.40   78.74
   3  -5  -2  823.96   46.69
  -3   5   2  898.85   65.45
   3  -5  -2  805.68   64.68
  -3   5   2  729.11   47.54
   3  -5  -2  704.93   47.19
   3  -5  -2  812.76   75.15
   5  -3  -154930.05  876.64
   5  -3  -154202.80  948.37
  -5   3   157568.92  995.65
   5  -3  -156357.97 1030.15
  -5   3   156648.26 1067.72
  -5   3   158367.61 1022.82
   2  -2  -5 9759.05  217.97
   2  -2  -5 9560.80  309.24
  -2   2   5 9725.85  293.98
  -2   2   5 9665.02  212.14
  -2   2   5 9242.25  194.01
  -2   2   5 9684.81  190.66
   4  -5  -1   96.79   24.33
  -4   5   1  142.40   86.74
  -4   5   1   61.53   80.79
   4  -5  -1   79.86   43.31
   4  -5  -1   74.47   25.48
   4  -5  -1   68.18   48.02
  -5   3   366027.04 1222.73
  -5   3   365185.99 1341.93
   5  -3  -364370.47 1161.30
   5  -3  -366116.34 1217.53
   4  -1  -5 5795.82  162.19
   1   3   220597.56  239.40
   1   3   219917.37  371.88
   4  -1  -5 5961.40   98.76
  -4   1   5 5768.36  262.74
  -4   1   5 5926.49  134.95
  -1  -3  -219665.33  421.61
  -4   1   5 5903.19  130.11
  -1  -3  -219612.98  361.79
   1   3   220515.74  436.93
   4  -1  -5 5932.29  215.85
  -4   1   5 5949.01  161.62
   0   0   5 2161.67   85.75
   0   0  -5 1993.01  132.95
   0   0  -5 2007.45  107.38
   0   0  -5 2004.54  138.22
   0   0   5 2180.01  137.39
  -5   2   128879.91  469.88
   5  -2  -127567.25  532.68
  -5   2   129321.80  567.94
   5  -2  -126014.94  418.46
  -5   2   129141.98  575.46
   5  -2  -126093.97  366.82
  -5   2   128120.94  776.90
   1  -4   421465.82  413.77
  -1   4  -421195.33  625.80
   1  -4   419557.52  438.62
  -1   4  -420725.17  417.34
  -1   4  -421277.33  234.34
   0  -2  -485969.98 1867.14
   0   2   484791.85 1661.34
   0  -2  -482802.83 1625.65
   0   2   485163.63 1662.23
   0   2   489638.91 1605.95
   0   2   488785.81 1724.61
   3   2   0 9254.25  276.88
   1  -5  -1 119136.   2359.
  -3  -2   0 9272.97  275.13
  -1   5   1 121258.   2300.
  -3  -2   0 9239.32  291.78
  -1   5   1 119058.   2448.
   1  -5  -1 122624.   2484.
   1  -5  -1 121462.   2274.
  -1   5   1 117365.   2313.
   3   2   0 9289.75  193.27
   5  -1  -370409.37 1236.74
  -4  -1   4 2109.65   58.56
   5  -1  -370745.16 1573.46
  -5   1   371333.77 1259.98
  -5   1   376084.83 1225.74
   4   1  -4 2190.80  105.17
  -4  -1   4 2327.35  113.38
  -4  -1   4 2237.26   83.59
  -5   1   370055.56 1336.94
  -4  -1   4 2210.56   78.94
  -4  -1   4 2181.51   54.95
  -4  -1   4 2246.82  141.85
  -5   1   227551.39  558.63
   5  -1  -226608.43  397.29
  -2   2  -4  585.36   85.43
  -4   5   0 2941.40   83.91
   4  -5   0 2967.49  101.20
  -2   2  -4  490.93  171.91
  -4   5   0 2827.68  106.46
  -5   1   228677.09  474.99
   2  -2   4  443.61   74.08
   2  -2   4  384.34   55.67
  -4   5   0 3144.87  126.60
   2  -2   4  495.16   93.00
   4  -5   0 3086.54  125.98
  -5   1   227224.48  422.03
  -2   2  -4  464.43   73.63
  -5   1   229204.02  770.73
   5  -1  -226317.19  498.83
   5  -1  -227280.88  543.52
  -2   2  -4  418.69   55.70
   4  -5   0 2968.35   83.57
  -3   3  -3 2595.42  145.59
  -3   3  -3 3041.49  218.29
   3  -3   3 3148.58  146.44
   3  -3   3 2595.89  127.17
  -3   3  -3 2760.29   98.48
  -3   3  -3 2811.26   97.38
   0   5  -123931.89  532.27
   0   5  -124618.89  477.69
   0  -5   124806.67  440.06
   0  -5   126004.58  425.61
   0  -5   124958.85  442.63
   0   5  -124406.63  424.48
   0  -5   125588.93  375.76
   3  -2   3 3311.59  161.30
   0  -5   2 4968.56   95.19
  -3   2  -3 3674.83  127.97
   0  -5   2 4801.47  142.53
  -3   2  -3 3727.22  133.06
   3  -2   3 3159.02  119.16
  -3   2  -3 3801.83  129.75
  -3   2  -3 3654.38  178.76
   0  -5   2 4840.92  144.93
   0  -5   2 4754.88  121.83
   0   5  -2 4967.32  129.20
   0   5  -2 4560.03  106.19
  -4  -1   111132.82  487.59
  -4  -1   110446.12  121.15
   4   1  -110131.01  122.14
   4   1  -1 9833.91  287.19
  -4  -1   110579.05  190.42
  -4  -1   110176.90  285.90
   4   1  -110008.60  177.77
  -1  -3   5 143575.   3017.
  -1  -3   5 135407.   3013.
   1   3  -5 135403.   2799.
   1   3  -5 132762.   2878.
  -2   5   2 1198.68   64.94
   2  -5  -2 1110.08   64.97
  -2   5   2 1080.11   91.62
   2  -5  -2 1083.06   89.34
  -2   5   2  982.78   59.83
   2  -5  -2 1220.25   59.62
  -4   0   5 2221.91  105.35
   4   0  -5 2111.88   84.57
  -4   0   5 2066.40   73.11
   4   0  -5 2135.36   46.00
  -4   0   5 2166.02  173.34
  -4   0   5 2113.43   58.18
  -4   0   5 2211.07   45.62
   0  -3   512837.51  296.89
   2  -3   4 102909.   2156.
  -2   3  -4 107550.   2015.
   0   3  -512300.93  287.58
  -2   3  -4 109243.   2034.
   0  -3   512166.94  325.12
  -1   3   4 140892.   2870.
  -2   3  -4 103582.   2543.
   1  -3  -4 145085.   3024.
   1  -3  -4 137354.   2963.
  -2   3  -4 109717.   2288.
  -1   3   4 145261.   2938.
   0   3  -512174.47  296.69
  -1   3   4 150151.   3221.
   2  -3   4 100530.   2085.
  -1   3   4 145638.   3267.
  -4   2   573363.00 1317.65
   4  -2  -574908.20 1243.16
  -4   2   571197.80 1343.63
   4  -2  -571113.26 1329.20
  -4   2   574772.45 1156.92
   4  -2  -573017.80 1512.19
   1  -5   317091.40  332.57
  -1   5  -316248.28  206.69
  -1   5  -316811.27  332.25
   1  -5   315625.95  516.02
  -1   5  -317061.72  361.04
   1  -5   317246.80  233.45
  -2  -2  -2 3303.69  165.30
  -1  -4   467214.83 1228.59
   2   2   2 3595.29  177.29
  -1  -4   465198.83 1305.23
  -1  -4   467983.06 1233.69
  -1  -4   468831.51 1059.77
   1   4  -464547.31 1217.45
   1   4  -468522.20 1238.13
  -1  -4   470281.05 1060.58
  -2  -2  -2 3698.16  227.16
   2   2   2 3599.37  140.73
   5  -4  -2  907.74   83.99
  -5   4   2  937.25   86.87
   0  -4  -286296.52 1626.02
   0   4   286155.58 1424.54
   0   4   286348.22 1624.27
   0  -4  -285306.57 1710.34
  -5   4   2  786.37   79.21
   5  -4  -2  669.71  143.10
   5  -4  -2  902.15   25.55
   0   4   287229.75 1746.19
   0  -4  -289273.18 1525.92
   4  -5  -211175.58  157.32
   4  -5  -211672.08  247.92
   4  -5  -211626.81  164.58
  -4   5   211618.61  255.12
  -4   5   211723.43  246.93
   4  -5  -211135.09  233.17
  -3   5  -214244.85  279.28
   3  -5   214835.86  286.52
  -3   5  -213659.69  286.01
   3  -5   213578.06  323.03
   3  -5   214594.50  286.69
  -3   5  -214184.90  316.89
   5  -4  -113879.43  278.42
  -5   4   113492.48  273.15
  -5   4   113217.48  179.85
   5  -4  -112976.75  270.61
  -5   4   112895.27  285.14
   5  -4  -112554.78  202.41
   1  -4  -3 1703.19   55.05
  -1   4   3 1899.19  200.43
  -1   4   3 1699.42   57.58
   1  -4  -3 1714.24   84.47
   1  -4  -3 1660.61  116.80
  -1   4   3 1757.51   89.41
   5  -2  -428374.62  515.79
  -5   2   427541.53  496.54
  -5   2   427837.17  493.41
   5  -2  -427305.90  487.08
  -1  -1  -4 1842.24  216.86
   1   1   4 1882.13  116.15
  -1  -1  -4 1781.28  109.06
   1   1   4 1939.31  129.09
  -1  -1  -4 1873.98   77.51
   1   1   4 1829.95   75.29
   2   1   370654.83 1671.64
   2   1   372165.59 1216.26
  -2  -1  -368673.75 1385.05
  -2  -1  -372502.45 1221.65
  -2  -1  -373319.33 1425.14
   2   1   368949.98 1578.83
  -2   1  -430741.37  651.52
   2  -1   427868.71  505.50
   2  -1   426663.65  588.02
  -2   1  -427585.02  500.39
   2  -1   428489.19  531.68
  -2   1  -427530.35  644.47
  -3   4   442331.43  770.23
   3  -4  -441733.56  945.40
  -3   4   442902.44  650.38
  -3   4   441717.85  721.84
   3  -4  -442206.43  857.42
   3  -4  -441236.44  643.07
  -5   1   462964.90  887.21
   5  -1  -456243.59  992.24
   5  -1  -457551.52 1058.08
  -5   1   463740.29  936.14
  -5   1   460584.61 1081.27
  -5   1   458769.08 1074.03
   0   5   0 9881.03  318.52
   0   5   0 9382.94  337.81
   0  -5   010423.43  225.85
   0  -5   0 9688.09  222.12
   0   5   0 9297.36  147.79
   0  -5   0 9972.38  135.64
  -5   1   1 6592.99  230.59
  -2   5  -3 345911.   9296.
  -2   5  -3 356479.   9752.
   2  -5   3 327534.   9427.
   2  -5   3 344552.   9219.
   5  -1  -1 6193.58  120.36
  -5   1   1 6156.00  230.77
  -5   1   1 6366.02  119.27
  -2   5  -3 331008.   8546.
   2  -5   3 351161.   8843.
   5  -1  -1 6068.54  110.99
  -5   1   1 6493.32  139.36
  -3  -2   5 2383.45   53.73
   3   2  -5 2315.64  178.61
  -3  -2   5 2490.80  111.92
   3   2  -5 2294.58   78.58
  -3  -2   5 2450.25  120.14
  -3  -2   5 2334.02   79.13
  -3  -2   5 2453.02   79.34
  -3  -2   5 2418.77   85.81
  -5   3   027801.58  562.98
   5  -3   027870.95  696.74
   5  -3   026596.85  464.29
  -5   3   027877.42  546.64
  -5   3   028643.42  496.55
  -5   3   027436.29  570.37
   5  -3   026029.78  571.47
  -3   4  -3   60.91   59.04
   3  -4   3  116.78   65.45
  -3   4  -3  117.79  111.36
  -3   4  -3  122.70   34.28
   3  -4   3  153.06   63.38
  -4   3  -213364.25  281.24
  -4   3  -212975.06  281.87
  -4   3  -213588.81  286.96
  -4   3  -213167.36  306.12
   4  -3   212110.59  268.04
   4  -3   212739.94  297.36
   0  -5   3  771.89   28.98
   0   5  -3  738.94   35.91
   0  -5   3  869.39   80.17
   0   5  -3  809.48   81.41
   0   5  -3  702.94   77.14
   0  -5   3  709.81   80.20
   0  -5   3  695.84   84.67
   3  -1   368753.41 1393.89
  -3   1  -373212.22 1345.54
  -3   1  -375626.16 1826.20
  -3   1  -372468.90 1443.29
   3  -1   363318.83 1145.81
   3  -1   368584.57 1356.16
  -5   4   3  595.20   80.47
   5  -4  -3  598.87   78.02
   5  -4  -3  515.32   74.19
  -5   4   3  525.36  131.90
  -1   2  -514355.50  213.42
  -1   2  -514923.33  340.17
  -4   5  -1 2220.79  208.80
   1  -2   515621.82  364.00
   4  -5   1 2072.48   92.20
  -1   2  -515056.22  376.99
   1  -2   515255.16  575.03
   1  -2   515414.81  249.68
   4  -5   1 2157.84  129.12
  -4   5  -1 2037.55   90.34
   4  -5   1 2250.41  142.39
  -4   5  -1 2231.10   92.86
  -5   3   489887.33 1937.42
  -4   4   446966.79  847.58
  -4   4   447717.30  883.20
   5  -3  -492042.92 1783.25
   4  -4  -446023.46  735.42
   4  -4  -446812.75  827.27
   5  -3  -492281.00 1806.84
   4  -4  -446455.79  844.88
  -4   4   449097.80  755.99
   3   3  -3 138689.   2797.
  -3  -3   3 142846.   2939.
  -3  -3   3 143585.   2955.
  -3  -3   3 137725.   2962.
  -3  -3   3 149660.   3065.
  -3  -3   3 147842.   2897.
  -3  -3   3 144977.   3116.
   3   3  -3 139033.   2971.
   2   0  -626853.47  406.94
  -2   0   627419.25  543.91
  -2   0   628390.50  426.60
  -2   0   628827.88  554.29
  -2   0   627965.71  562.89
   2   0  -625534.17  489.15
   2   0  -627587.23  547.48
   2   3  -513958.01  367.09
  -2  -3   514456.88  277.77
  -2  -3   513972.43  336.05
  -2  -3   514440.54  153.83
  -2  -3   514589.71  174.88
   2   3  -514140.76  298.46
  -3  -3   231473.37  398.26
  -3  -3   230810.06  523.57
   3   3  -229053.81  477.76
  -3  -3   231385.55  614.31
   3   3  -227915.18  562.78
  -3  -3   230171.28  427.23
  -4   2  -274676.68 1514.45
  -4   2  -280343.81 1638.20
   4  -2   268442.62 1375.77
  -4   2  -275663.97 1525.00
  -4   2  -276192.11 1431.78
   4  -2   268672.89 1255.92
   2   1  -616136.80  217.59
  -2  -1   616387.33  379.35
  -5   2   0 121904.   2702.
  -2  -1   617606.69  231.54
  -5   2   0 128422.   2815.
  -2  -1   617297.87  378.99
   2   1  -616999.29  541.87
  -2  -3  -1 2109.42  144.45
   2   3   1 1969.41  105.99
   2   3   1 1656.19  142.21
  -5   2   0 127746.   2723.
  -5   2   0 130930.   2763.
  -2  -3  -1 2007.03  109.75
   5  -2   0 121236.   2375.
  -2  -1   616445.97  492.31
   5  -2   0 116415.   2450.
   2   1  -616400.37  314.92
  -2  -4   2 2434.45   60.64
   2   4  -2 2083.64  105.81
  -2  -4   2 2095.57  105.01
  -2  -4   2 2179.51  104.21
   2   4  -2 1813.81   97.65
   2   4  -2 2122.92   47.57
  -2  -4   2 2230.09  107.98
  -1   2   5 1038.53   93.38
   3  -3  -530912.17  514.60
  -1   2   5 1036.69   88.68
  -1   2   5 1182.07   71.32
  -3   3   531402.45  564.55
   3  -3  -531249.59  575.54
  -3   3   531195.78  560.07
  -3   3   530903.55  546.43
   3  -3  -531323.05  555.87
   1  -2  -5 1072.52   94.23
  -3   3   531724.28  474.86
  -1   2   5 1060.53   77.18
   1  -2  -5 1120.35   90.09
  -1  -4  -117475.93  398.06
  -1  -4  -116527.18  329.88
  -1  -4  -117643.97  179.50
   1   4   116939.85  169.52
   1   4   116525.87  383.03
   1   4   116525.65  326.42
  -2   4  -4  159.56   23.05
  -2   4  -4   91.66  124.46
   2  -4   4  118.04   70.88
  -2   4  -4  109.33   22.23
  -2   4  -4   63.41  122.89
   2  -4   4  236.18   80.13
  -5   4   029067.88  527.91
  -5   4   027671.52  443.82
   5  -4   026334.34  458.06
   5  -4   027531.72  512.48
   5  -4   028331.39  517.30
  -5   4   027404.43  536.01
   2   4  -310525.38  208.40
   2   4  -310903.38  181.78
  -2  -4   310558.63  209.29
  -2  -4   310850.14  229.40
  -2  -4   311337.39  206.73
  -2  -4   310806.79  226.00
  -3   0   6 6163.73  166.40
  -3   0   6 6770.89  208.43
   3   0  -6 6190.33  122.43
  -3   0   6 6298.18  196.38
  -5   0   348751.73  724.16
   5   0  -345041.66  728.32
  -3   0   6 6532.18  173.73
  -5   0   345973.48  741.54
   5   0  -345037.51  712.93
   5   0  -344589.90  886.63
   1  -1   5 9912.25  208.20
   3   0  -6 6182.27  131.39
  -1   1  -5 9324.69  181.14
   1  -1   5 9924.04  245.16
   1  -1   510207.02  468.15
  -1   1  -510229.34  300.48
  -5   0   346270.86  884.20
  -1   1  -5 9640.37  245.15
  -5   0   349357.81 1207.56
  -4   4  -2 172206.   3950.
   4  -4   2 168150.   3634.
   0  -1  -517961.49  408.11
   0  -1  -516773.36  317.07
   0   1   516647.99  384.18
   0  -1  -515902.82  316.26
   4  -4   2 159166.   3613.
  -4   4  -2 167510.   3750.
   0   1   517245.36  328.73
   0   1   516797.65  309.27
  -4   4  -2 161506.   3563.
   4  -4   2 157373.   3542.
   0   1   516369.54  315.34
  -4   4  -2 161219.   3669.
   4   0   168912.87 1286.53
  -4   0  -174267.28 1556.57
   4   0   165359.98 1405.83
   4   0   171270.35 1140.86
  -4   0  -172264.02 1387.97
  -4   0  -173654.89 1842.24
  -4   0  -172865.92 1222.20
  -3   5   3 2652.20  103.15
   3  -5  -3 2646.67   97.43
  -3   5   3 2679.03   78.50
  -3   5   3 2611.42  130.94
   3  -5  -3 2504.02   78.18
   3  -5  -3 2751.59  216.84
   1  -3   5  547.90  105.94
  -1   3  -5  632.66   28.81
  -1   3  -5  616.33   97.79
  -4  -1   5 2820.83   72.94
  -4  -1   5 2976.91  110.72
  -4  -1   5 2908.22  116.86
  -4  -1   5 2792.88  104.91
   1  -3   5  770.48  102.32
  -4  -1   5 2766.48   81.18
   4   1  -5 2925.92  106.70
  -1   3  -5  697.19  109.56
   4  -3  -5 7690.87  186.81
  -4   3   5 7902.48  103.03
   4  -3  -5 7730.20  308.25
   4  -3  -5 7519.08  199.83
  -4   3   5 7955.64  336.53
  -4   3   5 7978.15  198.38
   1   1  -6 101561.   2184.
  -1  -1   6 117053.   2148.
   1   1  -6 106410.   1926.
  -1  -1   6 101745.   2245.
  -1  -1   6 110675.   2324.
   1   1  -6 106050.   2222.
  -5   0   291185.97 1950.63
   5   0  -296034.38 1716.35
  -5   0   298381.74 2124.70
   5   0  -293195.66 1655.80
  -5   0   299505.46 1802.81
  -5   0   298076.52 1747.78
  -2   4   445531.63  851.50
   2  -4  -442876.64  730.38
  -2   4   444017.11  747.07
   2  -4  -443230.30  839.52
  -2   4   443825.53  734.66
   2  -4  -444388.60 1043.11
   3  -1  -6  632.17   57.26
  -3   1   6  849.98  108.65
   3  -1  -6  623.64   59.81
  -3   1   6  723.21   93.15
  -3   1   6  766.50   58.10
  -3   1   6  799.24   87.66
  -4   5   316481.24  228.50
   4  -5  -316132.23  332.21
   4  -5  -316294.92  317.08
  -4   5   316776.17  329.61
   4  -5  -316234.98  223.28
   4  -5  -316012.02  221.68
  -4   5   317091.13  355.16
  -4  -1   0 6471.52  166.47
   3  -6   066760.64 1414.60
  -4  -1   0 6463.31  247.91
   3  -6   064247.19 1138.11
  -4  -1   0 7193.07  265.30
  -4  -1   0 6464.08   79.90
   4   1   0 6219.79  241.81
   4   1   0 5944.82  245.27
  -3   6   064175.60 1167.91
   4   1   0 6224.78   70.89
   3  -6   066865.59 1180.48
   3  -6   065638.34 1157.51
  -3   6   066172.82 1232.79
   2  -6   1 1344.25   90.09
   2  -6   1 1577.19   90.69
   2  -6   1 1487.27   65.13
   2  -6   1 1550.85   91.74
  -2   6  -1 1418.15  100.63
  -2   6  -1 1392.39  122.51
  -3  -3   416716.59  292.79
  -3  -3   417214.01  280.99
   2  -6   0  115.74   44.74
   2  -6   0  123.94   45.03
  -3  -3   416360.26  282.04
   2  -6   0  -11.08   41.25
  -3  -3   416332.06  259.83
  -2   6   0  125.12   46.43
  -2   6   0  133.92   48.24
   2  -6   0  136.58   40.43
   3   3  -416569.39  267.93
  -3  -3   417513.46  441.94
  -3  -3   416993.88  396.87
  -2  -4   110449.21  263.05
   2   4  -1 9651.97  252.54
  -2  -4   110262.02  232.13
  -2  -4   110283.38  118.02
   2   4  -1 9579.86  325.15
  -3  -1  -237156.32  786.58
   3   1   235782.17  539.59
   3   1   236525.39  686.79
   3   1   236574.98  783.83
  -3  -1  -238423.02  720.19
  -3  -1  -235901.07  567.93
   1  -5  -261419.07 1112.02
  -1   5   262284.55 1294.16
   1  -5  -263374.31 1018.55
   1  -5  -263325.24 1221.68
  -1   5   262563.51 1022.29
  -1   5   262702.19 1227.91
  -4  -2   370457.43 1221.49
  -4  -2   372281.26 1254.13
  -4  -2   371911.60 1472.25
  -4  -2   372189.60 1252.34
  -4  -2   370148.83 1228.79
  -4  -2   367745.58 1318.88
   4   2  -367404.43 1156.49
  -5   0   4 8205.70  200.79
  -5   0   4 8559.08  253.32
  -5   0   4 8552.54  151.83
   5   0  -4 8383.14  225.57
  -5   0   4 8936.64  240.56
  -5   0   4 8336.01  178.75
  -5   0   4 8338.37  150.14
   5   0  -4 7989.63  171.97
   3   1  -6  110.15   65.19
  -3  -1   6  162.93   62.52
   3   1  -6  193.39   38.22
  -3  -1   6  109.49   39.86
  -3  -1   6  117.57   62.58
   3   1  -6  122.81   29.07
  -3  -1   6   70.29   44.79
  -2   1   687822.57 1771.55
  -2   1   688563.65 1800.16
  -2   1   690080.04 2001.78
   2  -1  -683765.97 1555.13
  -2   1   691301.97 1858.12
   2  -1  -682582.97 1673.68
   3   3  -1 5952.40  222.43
  -3  -3   1 6252.60  263.39
   3   3  -1 6071.38  157.64
  -3  -3   1 6229.79  222.91
  -1  -2   611215.48  165.81
   1   2  -610129.79  261.07
  -1  -2   610961.96  313.89
   1   2  -610266.21  286.77
  -1  -2   610437.27  282.06
   2  -3  -5 1412.91   88.62
  -2   3   5 1758.39   86.02
   2  -3  -5 1690.79  110.19
  -2   3   5 1663.21  152.71
  -2   3   5 1518.76   82.57
  -2   3   5 1596.64  181.47
   5  -5  -190950.75 1744.96
  -5   5   187408.67 1717.90
  -3   6  -124075.04  407.89
   3  -6   124149.08  551.53
   3  -6   124636.19  484.54
  -5   5   185891.43 1692.06
   5  -5  -186561.34 1632.18
   3  -6   124394.11  478.36
  -3   6  -125187.02  492.30
   5  -5  -186419.07 1714.10
  -3   6  -124717.61  437.83
  -5   5   189446.58 1543.53
   3  -6   124765.55  431.43
  -1   0   6 5237.63  289.89
  -1   0   6 5246.16  183.62
   1   0  -6 4928.06  191.09
   1   0  -6 4681.25  114.62
  -1   0   6 4958.60  191.36
   1   0  -6 4922.89  186.39
  -1   0   6 4908.33  196.07
  -2  -2   617962.63  234.00
   0  -4   5 144054.   3110.
  -2  -2   617215.77  399.63
   2   2  -616054.95  368.18
   2   2  -616484.65  312.22
   0   4  -5 140387.   2998.
   0  -4   5 136301.   3117.
   0   4  -5 129638.   3173.
  -2  -2   617142.42  355.22
  -4  -2   2 174456.   4139.
  -4  -2   2 179383.   4309.
  -4  -2   2 185977.   4045.
   4   2  -2 165583.   3897.
  -4  -2   2 182325.   3755.
   4   2  -2 173745.   3711.
  -4  -2   2 180267.   3757.
  -3  -2  -122589.26  755.94
   3   2   122117.76  531.00
  -2   0  -4 8715.45  233.55
   2   0   4 9326.87  387.49
   2   0   4 8766.78  449.00
   3   2   122630.19  583.51
   2   0   4 8853.51  183.21
  -3  -2  -123186.77  438.17
  -2   0  -4 9949.36  297.91
  -2   0  -4 8859.95  192.67
   3  -6  -154039.21 1059.70
   3  -6  -154721.74  947.65
  -3   6   155771.60  998.11
  -3   6   153639.19 1175.41
   3  -6  -156261.36 1002.21
  -5   5   263486.94 1189.76
   5  -5  -263157.22 1028.45
   3  -6  -155779.49 1000.22
   5  -5  -261465.71 1161.74
   5  -5  -263864.00 1190.53
  -5   5   262636.34 1183.36
   5  -5  -263593.98 1061.16
  -5   2   5 3611.90  147.41
   5  -2  -5 3595.26  144.24
  -5   2   5 3621.63  215.47
   5  -2  -5 3718.31  138.15
  -1  -5   214845.35  260.78
  -1  -5   213629.95  289.19
   1   5  -213649.31  262.17
  -1  -5   214002.81  221.46
   1   5  -213307.20  215.85
  -1  -5   214146.12  295.37
  -2  -4   4 8774.76  136.02
  -2  -4   4 8855.51  200.51
  -2  -4   4 8965.31  205.60
  -2  -4   4 8633.95  220.50
   2   4  -4 8656.65  185.89
  -1   5  -4   36.40   61.31
  -1   5  -4   75.28   96.66
   1  -5   4  142.03   77.62
   1  -5   4  116.79  109.52
   5  -1  -5  904.58   80.99
  -5   1   5  851.20  144.61
  -5   1   5  937.59   17.76
  -5   1   5  890.68   84.57
  -5   1   5  929.50   47.69
  -5   1   5  930.54   75.96
   5  -1  -5  913.60   85.19
   0   5   1 5670.68  318.36
   0   5   1 5499.64  128.81
   0  -5  -1 5615.76  111.06
   0   5   1 5442.03  164.49
   0  -5  -1 5505.68  169.89
   0  -5  -1 5745.40  193.19
   4  -1   2 5236.06  119.58
  -4   1  -2 5686.28  348.92
   4  -1   2 5227.43  219.66
  -4   1  -2 5826.25  226.57
  -4   1  -2 6242.25  222.87
  -4   1  -2 5865.04  209.73
   4  -1   2 5284.41  187.21
  -4  -2   4  474.70   79.68
  -4  -2   4  438.75   46.01
  -4  -2   4  493.39   75.73
  -4  -2   4  450.14   98.33
  -4  -2   4  468.49   45.18
  -4  -2   4  480.96   55.52
  -2   6  -2   42.48   26.84
   2  -6   2   58.84   94.60
  -2   6  -2   28.22   47.13
   2  -6   2   37.59   48.25
   2  -6   2   81.94   47.78
  -2   6  -2   55.90   53.73
  -5   1   039536.84  845.49
   5  -1   039139.32  611.23
   5  -1   039539.92  666.39
  -5   1   042353.93  772.52
  -5   1   042588.65  897.29
  -5   1   041859.07  758.67
   2  -5  -336206.25  613.83
   2  -5  -336291.47  583.83
   2  -5  -336423.38  904.92
  -2   5   337271.04  723.10
  -2   5   336790.55  711.37
  -2   5   336826.74  626.08
   5  -4  -423990.45  457.00
   5  -4  -422784.60  283.02
   0   5  -4 5169.26   58.38
   0  -5   4 4693.36  191.98
  -5   4   424391.02  471.61
   0   5  -4 5132.80  173.89
   0   5  -4 4988.96  176.31
  -5   4   424380.77  483.24
   0  -5   4 5244.25  171.45
   5  -4  -424024.82  472.28
  -1  -4   521947.67  424.97
   1   4  -520222.17  437.10
  -1  -4   521276.47  681.26
   1   4  -521496.80  416.25
   3  -5   394504.11 1900.92
  -3   5  -392604.69 1912.03
  -3   5  -389790.19 1717.22
  -3   5  -389013.02 2066.08
   3  -5   384767.66 1816.04
   3  -5   395496.05 1700.56
   1  -6   1 6102.60  140.30
   1  -6   1 5995.91  176.61
  -1   6  -1 6559.04  166.96
  -1   6  -1 6344.21  160.26
   1  -6   1 6419.00  177.98
   1  -6   1 6139.57  139.04
  -4   1   6 4526.04  177.00
  -4   1   6 4724.40  121.86
   4  -1  -6 4444.89  126.68
  -4   1   6 4664.24  104.33
   4  -1  -6 4620.04   84.31
  -4   1   6 4624.16  169.65
  -1   0  -570782.92 1365.09
   1   0   579372.65 1547.03
   1   0   576438.00 1634.05
   1   0   577334.44 1498.46
  -1   0  -573310.06 1424.35
  -1   0  -580901.77 1685.03
   1   5  -3 8389.31  159.92
  -1  -5   3 8501.17  215.29
  -1  -5   3 8369.45  201.85
  -1  -5   3 8439.50  216.17
   1   5  -3 8159.70  176.33
  -1  -5   3 9000.46  145.16
  -5   0   1 9336.75  138.27
   5   0  -1 8863.99  163.58
  -5   0   1 9436.53  312.19
  -5   0   1 9414.75  188.06
  -5   0   1 9274.37  294.30
   5   0  -1 8878.92  182.86
   1   5  -1 9424.46  225.04
   1   5  -1 9157.58  231.58
  -1  -5   1 9848.90  233.06
  -1  -5   1 9716.09  166.19
  -1  -5   1 9666.76  234.04
   1   5  -1 9303.81  138.47
   5  -5   012643.22  305.05
  -5   5   012570.56  284.20
  -5   5   012801.10  298.24
  -5   5   012534.83  212.25
   5  -5   012318.71  321.17
   5  -5   013094.65  270.27
  -2   6   143738.63  759.25
   2  -6  -144641.70  744.85
  -2   6   143895.23  746.57
  -2   6   144199.21  829.21
   2  -6  -144257.58  777.86
   2  -6  -143593.59  922.83
   2  -6  -145671.48  825.69
  -3   0  -316285.96  388.62
  -3   0  -316408.16  400.89
  -3   0  -315654.65  355.66
   3   0   316230.85  577.09
   3   0   315130.70  379.20
  -5   3  -1 3137.40  165.64
  -5   3  -1 3220.56  136.45
   5  -3   1 2704.35  117.50
  -5   3  -1 2936.65  123.84
  -5   3  -1 3614.14  160.45
   5  -3   1 2576.09  124.52
   4  -6   0 108650.   2508.
   4  -6   0 112826.   2217.
  -4   6   0 108387.   2180.
   4  -6   0 110150.   2131.
   4  -6   0 110073.   2127.
  -4   6   0 109451.   2253.
  -4   6   0 113582.   2196.
   4  -6  -1 6607.56  193.19
  -4   6   1 7014.35  304.18
   4  -6  -1 6455.81  131.47
  -4   6   1 6207.68  183.61
   4  -6  -1 6655.16  175.04
   4  -6  -1 6853.12  135.00
  -4   0   689143.06 1602.02
  -4   0   686289.62 1966.87
  -4   0   686164.95 1718.02
   4   0  -685603.94 1600.36
   4   0  -687578.29 1606.71
  -4   0   684828.16 1591.04
  -1   6  -243754.21  814.86
   1  -6   244975.74  695.20
   1  -6   243684.70  800.61
   1  -6   243397.68  786.87
  -1   6  -241960.21  701.62
   1  -6   243436.42  794.55
   4  -5   210665.37  255.57
  -4   5  -210728.42  282.14
  -4   5  -211010.29  255.59
   4  -5   211067.69  208.47
   4  -5   210490.16  294.97
  -4   5  -210241.00  208.09
  -3   2   6 142115.   3048.
  -3   2   6 143802.   3006.
  -3   2   6 140387.   3071.
  -3   2   6 144665.   3041.
   3  -2  -6 136711.   2950.
   3  -2  -6 137623.   2915.
   1  -4   550840.91 1085.65
  -1   4  -548112.72  970.79
  -1   4  -548719.70  993.58
  -1   4  -549640.74  637.61
  -1   4  -545819.06  575.71
   1  -4   550307.85 1251.06
  -1  -3  -3 2153.28  158.12
   1   3   3 2401.63  155.57
  -1  -3  -3 2457.83  223.37
   1   3   3 2251.67   43.81
   1   3   3 2156.21   46.39
   1   3   3 1963.23  222.74
   0  -3  -417234.87  369.37
   0   3   417459.78  402.27
   0  -3  -416783.04  392.22
   0   3   417232.45  527.70
   0   3   417502.41  266.99
   0   3   416851.64  257.92
   5  -4   1  893.26   96.14
  -5   4  -1 1002.39   84.34
   5  -4   1  977.84   89.26
  -5   4  -1  975.34   93.90
  -5   4  -1  911.48   93.85
   5  -4   1  779.77   85.75
  -5   4  -1  950.02  173.30
  -5   3   577250.33 1092.84
  -5   3   571834.97 1411.17
   5  -3  -569950.15 1349.71
  -5   3   571872.35 1384.01
   5  -3  -570837.60 1359.89
   5  -5  -3 5578.22  184.27
   5  -5  -3 5240.98   71.39
   5  -5  -3 5500.14  106.53
   5  -5  -3 5486.07  300.38
  -5   5   3 5175.03  188.65
  -5   5   3 5182.15  175.05
   0   2  -646924.38 1206.59
   0  -2   649499.36  776.37
   0  -2   650778.07 1047.82
   0   2  -646392.59  684.76
   0   2  -646303.21  978.25
   0  -2   647956.31 1017.43
  -1   6   0 1195.55   91.80
   1  -6   0 1386.88   60.78
   1  -6   0 1474.87   99.24
  -1   6   0 1216.09   99.93
   1  -6   0 1549.00   91.39
   1  -6   0 1287.52   97.86
  -1   6   0 1391.29  118.69
  -3   6  -2 8540.52  251.99
  -3   6  -2 8682.72  220.36
   3  -6   2 8243.15  258.68
   3  -6   2 8857.27  218.51
  -3   6  -2 8314.57  155.38
   3  -6   2 8735.31  149.82
   0  -1   627265.31  443.03
   4   2  -1 3178.63  183.21
  -4  -2   1 3391.82  118.80
   0  -1   627461.14  566.20
   0  -1   625209.14  812.93
  -4  -2   1 3383.60  185.40
  -4  -2   1 3330.02  197.64
  -4  -2   1 3401.97   34.94
   4   2  -1 3093.35  111.45
   0   1  -625729.29  579.68
  -4  -2   1 3200.63   53.10
   0   1  -624432.44  380.05
   0   1  -625292.56  537.51
  -1  -2  -413519.63  330.04
   1   2   413127.04  335.64
   0   4   3 8651.09  121.35
  -1  -2  -413139.05  340.78
   0   4   3 8857.35  271.06
   0   4   3 8674.08  167.94
   1   2   414110.72  346.24
   1   2   413643.08  217.49
   0  -4  -3 8693.18  223.80
   0   4   3 8940.26  230.32
   1   2   413492.03  216.43
   5   0  -512100.86  274.61
  -5   0   512106.85  242.43
  -5   0   511974.67  249.86
  -5   0   512929.78  220.06
  -5   0   512358.18  261.17
  -5   0   512424.91  156.20
  -2  -4   017839.39  428.65
   2   4   016470.22  407.54
   2   4   016555.28  484.96
  -2  -4   017032.00  353.14
   4  -2  -6  508.51   66.95
  -4   2   6  459.90   84.73
  -4   2   6  506.14   66.89
   4  -2  -6  392.90   39.75
  -4   2   6  602.84   88.04
   4  -2  -6  565.09   83.04
  -2   5  -4 1264.53  121.58
  -2   5  -4 1310.33  131.04
  -2   5  -4 1414.36   56.41
  -2   5  -4 1152.64   53.01
   2  -5   4 1309.13  113.79
   2  -5   4 1272.47  137.37
   1   3  -617524.24  377.39
  -1  -3   618185.76  401.69
   1   3  -617138.27  418.98
  -1  -3   618249.69  686.83
   5  -2   1 7122.85  195.12
  -5   2  -1 8218.43  368.39
  -5   2  -1 6877.23  418.76
  -3  -3   5   96.38   45.89
  -3  -3   5  113.55   41.69
  -5   2  -1 8022.87  180.19
  -3  -3   5   37.70   37.40
   5  -2   1 7249.06  161.47
  -3  -3   5   46.40   53.77
  -5   2  -1 7869.92  262.20
   3   3  -5  127.77   49.34
  -3  -3   5   56.39   39.79
  -6   3   232115.08  671.09
   6  -3  -232423.26  589.11
  -6   3   3 162183.   3994.
   6  -3  -232295.71  460.89
  -6   3   3 159353.   3487.
  -6   3   232642.24  447.88
   6  -3  -233289.09  876.80
  -6   3   233001.59  739.52
   6  -3  -3 161714.   3635.
   6  -3  -3 156504.   3426.
   3   2  -640536.09  786.93
   3   2  -640291.94  679.72
  -3  -2   641346.99  805.92
  -3  -2   642199.34 1057.79
  -3  -2   642645.28  596.68
  -3  -2   641553.39  729.05
  -3  -2   640620.15  646.52
   3   2  -641958.36  648.69
   1  -1  -6 103179.   2074.
   1  -1  -6 109400.   2364.
  -1   1   6 106229.   2296.
  -1   1   6 111505.   2518.
  -1   1   6 113067.   2242.
  -1   1   6 105845.   2216.
  -3   6   2 4033.71  112.35
   3  -6  -2 4260.83  128.65
  -3   6   2 4131.33  214.26
   3  -6  -2 3920.09  112.63
  -3   6   2 4146.62  162.04
   3  -6  -2 4003.62  153.95
   3  -6  -2 3913.09  115.25
  -3   3  -457917.39 1241.39
  -3   3  -460268.36 1089.36
  -3   3  -462359.47 1227.81
   3  -3   457650.00 1148.49
  -3   3  -460989.75 1107.99
   3  -3   459064.81 1250.90
  -6   2   3  969.37  133.41
  -6   2   3 1011.99  114.53
   6  -2  -3  863.24   76.60
   6  -2  -3 1028.43  110.92
  -6   2   3 1026.46   46.28
  -4   6  -1 129691.   2658.
   4  -6   1 127393.   2615.
   4  -6   1 125513.   3038.
  -4   6  -1 124742.   2562.
   4  -6   1 129993.   2621.
  -4   6  -1 126950.   2738.
   4  -6  -244645.01  812.59
  -4   6   245063.79  829.69
   4  -6  -244997.99  712.54
   4  -6  -244492.48  719.74
  -4   6   243562.06  823.80
   4  -6  -245541.23  834.77
   3   3   0 108520.   2443.
   2   2   397570.04 1676.99
  -2   2   623455.86  474.71
  -2  -2  -398252.82 2002.43
   2   2   393732.27 1945.42
   3   3   0 115364.   2329.
  -3  -3   0 111586.   2525.
   2  -2  -623140.84  472.64
  -3  -3   0 119342.   2422.
  -2   2   622614.29  590.80
  -2   2   623506.13  444.05
   2   2   394819.58 2078.56
   2   2   395544.49 1675.57
  -2   2   623407.43  455.12
   2  -2  -622064.04  429.08
  -2  -2  -387869.04 1906.68
  -5  -1   314168.35  226.03
   5   1  -313341.93  279.57
  -5  -1   313749.63  331.90
  -5  -1   314863.98  396.39
  -5  -1   314262.92  226.36
  -5  -1   314255.23  209.77
   3  -2   4 2467.36  126.40
  -3   2  -4 2369.55  127.29
  -4  -2   557693.76  983.09
  -3   2  -4 2599.45  295.44
  -4  -2   557152.82 1259.46
  -4  -2   557039.86  957.59
  -4  -2   558111.95 1095.65
  -3   2  -4 2519.44  125.05
  -4  -2   557167.54 1025.30
  -4  -2   556814.97  953.49
   3  -2   4 2307.88  164.04
  -3   2  -4 2300.57  114.97
   3  -2   4 2130.76  122.50
   1  -4  -4 4071.46   99.21
   1  -4  -4 4383.75  149.57
  -1   4   4 4389.43  152.68
  -1   4   4 4338.69  104.62
  -1   4   4 4178.91  152.25
  -1   4   4 4901.81  314.42
   1  -4  -4 4310.45  189.33
  -4   4   555992.80 1067.76
   4  -4  -553758.74  876.51
   4  -4  -553873.10 1037.32
  -4   4   557053.59  884.08
   4  -4  -554691.77 1211.89
  -4   4   556085.72 1295.93
   6  -2  -2 1649.43   41.46
   6  -2  -2 1902.27  142.03
  -6   2   2 1769.67  260.51
  -6   2   2 1655.48   86.42
  -6   2   2 2095.96  148.96
   6  -2  -2 1678.60   85.31
  -6   2   2 1751.36   67.68
   1   5  -457019.76  956.14
   1   5  -454455.41 1041.18
  -1  -5   460523.13  948.95
  -1  -5   457681.69 1085.30
  -1  -5   453277.09 1087.06
  -1  -5   457952.56 1086.63
   1   4   243931.64  842.33
   1   4   247010.34  650.62
  -1  -4  -244204.80  828.40
  -1  -4  -244148.97  928.02
   1   4   245066.54  956.77
  -1   6  -3 1415.58  121.55
   1  -6   3 1472.61  117.93
  -1   6  -3 1586.72   84.30
  -6   4   2  432.40   72.33
   1  -6   3 1750.47   69.99
   1  -6   3 1712.98  115.08
   1  -6   3 1725.14  124.24
   6  -4  -2  534.51  147.19
   6  -4  -2  398.34   78.20
  -6   4   2  350.30   89.54
  -6   4   2  365.81   33.68
  -1   6  -3 1690.60  120.88
  -4   5   4 9908.24  424.01
   4  -5  -4 9568.99  228.05
  -4   5   4 9971.69  237.31
  -4   5   4 9643.45  208.45
   4  -5  -4 9617.07  257.38
   4  -5  -4 9319.56  149.30
  -4  -1   6 6216.76  117.21
   4   1  -6 5854.79  172.84
  -4  -1   6 6462.67  204.79
  -4  -1   6 6303.81  134.13
  -4  -1   6 6211.33  193.22
   4   1  -6 6299.83  215.70
   0   2   537382.00  929.07
   0  -2  -534375.21  889.16
   0   2   535635.38  620.61
   0   2   536055.32  614.34
   0  -2  -536775.45  750.90
   0   2   536093.00  964.05
   0  -3   618507.65  444.79
   0  -3   618720.72  477.12
  -2   6  -3 7542.28  120.49
   2  -6   3 7802.97  223.42
   2  -6   3 7494.83  262.61
   0   3  -618650.94  197.86
  -2   6  -3 8226.74  251.62
   0   3  -617201.36  436.58
   2  -6   3 8135.24  156.52
   0   3  -618097.27  199.97
   0   3  -618081.65  434.57
  -2   6  -3 7879.00  229.26
  -3   4   521621.62  629.26
  -3   4   521568.28  417.45
  -2  -3   6 7551.17  212.80
  -2  -3   6 7791.56   76.76
  -2  -3   6 7787.15   84.83
  -1  -5   017543.19  372.68
   1   5   016594.22  553.74
  -3   4   521369.14  347.06
   3  -4  -520901.73  445.36
   2   3  -6 7368.09  196.98
  -1  -5   017957.02  228.06
   2   3  -6 7984.66  377.10
  -2  -3   6 7481.43  270.53
   3  -4  -521090.23  389.29
   3  -4  -521024.07  356.73
  -1  -5   017990.29  406.21
   1   5   017082.91  355.66
  -4   3  -3 2847.42  174.78
   4  -3   3 2722.63  160.95
   4  -3   3 2516.83  131.33
  -4   3  -3 2775.80  139.69
  -4   3  -3 2896.24  136.22
  -4   3  -3 2928.93  129.85
  -5  -1   4  168.20   38.49
  -5  -1   4  179.74   77.73
  -5  -1   4  153.01   30.32
  -5  -1   4  158.82   43.28
  -5  -1   4  147.49   57.92
  -5  -1   4  178.41   30.63
  -2  -3  -220077.80  505.03
   2   3   220232.46  719.80
   2   3   220770.43  433.00
  -2  -3  -220950.15  607.66
   2  -2   521338.50  465.58
  -2   3  -561129.51 1034.62
  -2   2  -521285.80  370.36
  -2   3  -556488.38 1246.51
  -2   3  -557125.78 1168.71
   2  -3   555295.97 1187.09
   2  -2   521516.41  397.35
  -2   2  -522458.86  550.75
  -2   3  -557872.65  974.12
  -2   2  -522097.78  659.02
   2  -3   555644.83 1387.27
   2  -2   520665.49  522.08
  -3   4  -423074.03  506.92
   3  -4   420862.76  486.08
   3  -4   421552.49  499.35
  -3   4  -422921.85  552.82
  -3   4  -422770.98  377.15
  -3   4  -422685.51  370.76
  -1   3   588722.07 1687.33
   1  -3  -585750.08 1771.61
   2   4  -5 3687.24  241.50
  -1   3   590640.48 1850.29
  -1   3   589892.26 1801.17
  -2  -4   5 4203.96  291.45
  -2  -4   5 4233.85   60.84
  -1   3   591009.62 1859.10
   1  -3  -588324.32 1764.07
  -2  -4   5 4035.82   54.11
   2   4  -5 3891.09  144.82
  -2  -4   5 4130.08  143.90
  -2  -4   5 4057.54  243.84
   6  -4  -3  203.85   72.21
  -6   4   3  207.58   70.95
   6  -4  -3  136.93   64.28
  -6   4   3   97.34   61.11
   3  -5  -4  873.36  102.85
  -3   5   4  888.00   61.04
   3  -5  -4  752.81   59.45
   3  -5  -4  762.26   71.19
  -3   5   4 1038.95   78.33
  -6   2   4  249.33   58.06
   6  -2  -4  231.70   59.30
  -6   2   4  150.25   72.86
   6  -2  -4  120.49  126.79
   4   1   125418.52  628.03
   4   1   125390.98  491.72
   4   1   125194.16  304.00
  -4  -1  -127280.25  541.91
  -4  -1  -128006.31  411.80
   5   1  -235303.95  573.65
  -5  -1   236639.30  789.90
  -5  -1   237294.37  588.66
  -5  -1   237881.19  555.96
   5   1  -236279.90  530.26
  -5  -1   239086.20  870.62
  -5  -1   236939.06  617.39
  -6   3   1 4907.01  224.87
  -6   3   1 5165.30  151.64
   6  -3  -429649.56  592.89
   6  -3  -1 4722.09   98.37
  -6   3   429196.52  561.57
   6  -3  -1 4856.92  239.27
  -6   3   1 5048.20  181.31
  -6   3   428654.09  575.36
   6  -3  -428340.67  547.26
   6  -3  -1 4823.35  330.19
   0   0  -612813.74  321.27
   0   0  -613310.28  557.25
   0   0   613452.14  266.96
   0   0   612762.32  370.21
  -5   5  -114114.86  455.61
   5  -5   113661.23  294.13
   5  -5   114266.82  412.55
  -5   5  -113656.73  280.77
   5  -5   113936.15  346.09
  -5   5  -114454.35  338.71
  -4   4  -319673.79  460.15
   4  -4   318112.93  416.74
  -4   4  -320090.30  506.23
   4  -4   319303.66  446.17
  -4   4  -319435.54  376.77
  -4   4  -320284.97  617.67
   0   6  -212494.01  246.58
   0  -6   212993.67  303.85
   0  -6   212756.16  299.85
   0   6  -211923.21  237.83
   0  -6   213173.41  244.04
   0  -6   213248.83  308.74
  -6   4   1 1198.44  126.83
   6  -4  -1 1171.66  100.67
  -6   4   1 1167.43   99.24
  -6   4   1 1288.66   89.11
   6  -4  -1 1080.53   99.67
   6  -4  -1 1311.63  113.96
  -4   0  -2 2840.99  129.84
  -4   0  -2 2903.80  164.60
   4   0   2 2597.87  146.13
   4   0   2 2651.42   68.47
  -4   0  -2 3052.02  190.55
   4   0   2 3027.72  320.52
   2  -6  -214865.31  246.68
  -2   6   215218.77  358.88
  -2   6   214685.67  291.62
  -2   6   214858.00  263.69
   2  -6  -214664.36  291.28
   2  -6  -215544.63  346.76
  -4   2  -3 133747.   3266.
  -4   2  -3 141330.   3605.
   4  -2   3 119839.   2668.
  -4   2  -3 136745.   3158.
  -4   2  -3 138930.   3109.
   4  -2   3 122880.   2550.
   1  -6  -1  576.22   42.22
  -1   6   1  586.59   94.23
   1  -6  -1  628.97   87.27
  -1   6   1  530.52  136.39
   1  -6  -1  503.56   78.55
   5   0   060115.41 1023.74
  -5   0   062016.79  996.88
  -5   0   058127.96 1289.96
  -5   0   062368.99 1695.37
  -5   0   061631.46 1173.90
  -2  -1  -4  287.06  164.55
   2   1   4  395.74  102.38
   2   1   4  488.19  171.22
  -2  -1  -4  178.16   87.00
  -2  -1  -4  323.13   43.76
   5  -6  -1 3463.13   91.74
   5  -6  -1 3475.17  163.55
  -5   6   1 3454.06  158.13
  -5   6   1 3275.18  148.83
   5  -6  -1 3408.31   84.78
   5  -6  -1 3367.35  141.09
  -6   1   363616.67 1019.17
  -6   1   358810.48 1218.38
  -1   5   311659.58  267.84
  -1   5   312273.79  509.93
   6  -1  -358100.70  873.15
  -1   5   311621.09  185.71
  -6   1   359661.11 1052.77
   1  -5  -311329.91  259.30
   6  -1  -358586.24 1039.13
  -6   1   362319.59 1310.43
   6  -1  -359260.70 1512.32
   1  -5  -311403.92  176.17
   1  -5  -311773.95  322.76
   0   6  -186124.60 1666.85
   0  -6   190139.68 1789.45
   0   6  -183313.52 1545.24
   0  -6   186549.65 1734.13
   0  -6   191672.30 1953.49
   0  -6   192460.72 1645.90
   0   6  -182116.39 1644.14
  -5   1   6 103747.   1744.
  -5   1   698938.26 2031.24
  -5   1   697689.33 1769.36
   5  -1  -6 102271.   1789.
  -5   1   6 100537.   1964.
   5  -1  -697919.91 2185.88
  -5   1   699482.23 2305.87
   0   5   263780.21 1224.94
   0  -5  -264401.99 1247.64
   0  -5  -268729.39 1065.49
   0  -5  -264850.52 1346.25
   0   5   265696.47 1036.42
   0   5   265727.02 1361.37
  -1  -1  -5  277.86   92.65
   1   1   5  193.52  132.34
   1   1   5  244.85   52.30
   1   1   5  285.50   54.93
  -1  -1  -5  173.99   71.75
   1   1   5  132.92   93.10
  -1  -1  -5  265.41   96.24
  -5   4   5 1242.67   40.76
  -5   4   5 1308.11  111.03
   5  -4  -5 1361.35  191.68
   5  -4  -5 1132.98  111.71
  -5   4   5 1332.60  112.04
   5  -4  -5 1234.79   38.74
   5  -5  -460353.74 1181.99
  -6   2   1 2365.79  154.23
  -5   5   461265.71 1185.65
  -5   5   460967.13 1205.61
   5  -5  -460842.30  990.55
   5  -5  -460193.06 1164.92
  -6   2   1 2182.73  181.44
   5  -5  -462776.09  943.64
  -6   2   1 2203.81  174.45
   6  -2  -1 2118.14   69.09
   6  -2  -1 2185.75   92.08
  -6   2   1 2326.61  100.21
  -5   1  -1 1656.88  166.98
  -5   1  -1 1818.95  168.18
  -5   1  -1 2105.46  129.54
   5  -1   1 1809.90  186.63
   5  -1   1 1921.49   70.28
  -5   1  -1 2055.27  135.50
   4  -3  -617777.02  403.83
   4  -3  -618020.20  389.73
  -4   3   618392.81  583.78
  -4   3   618783.89  271.77
  -4   3   618045.41  389.68
  -4   3   619086.28  386.55
   4  -3  -618034.40  375.83
  -3   1  -4 1207.11   89.91
  -3   1  -4 1477.85  151.29
   5  -2  -6  330.36   67.22
  -5   2   6  159.02  132.29
   3  -1   4  897.38  139.31
  -5   2   6  197.68   75.07
  -5   2   6  247.16   59.14
   3  -1   4 1287.53  141.48
  -3   1  -4 1099.66  108.94
   5  -2  -6  205.25   78.72
   3  -1   4 1030.06  118.15
   2  -1   556404.86 1094.56
  -2   4  -5 3026.11  106.01
   2  -1   554990.56 1203.04
   2  -1   558545.76 1140.62
   2  -4   5 3103.63  185.57
  -2   1  -554842.91 1041.31
   2  -4   5 2719.80  184.68
  -2   4  -5 3127.10   65.06
  -2   1  -561837.37 1325.92
  -2   4  -5 3192.48  185.50
  -2   4  -5 3063.18  205.05
  -2   1  -556002.08 1101.66
   0   5  -5   69.77   58.82
   0   5  -5   22.50   62.48
   0  -5   5   65.76   60.24
   0  -5   5   34.86   75.27
  -6   1   415479.29  207.71
  -6   1   415259.71  361.96
   6  -1  -415172.62  373.68
   6  -1  -414810.37  291.50
  -6   1   415383.42  413.28
  -6   1   416175.91  230.98
  -5   6   2 4773.13  187.00
   5  -6  -2 4813.16  180.10
   5  -6  -2 4986.03  181.39
  -5   6   2 4949.84  183.57
   5  -6  -2 4866.18   94.42
   5  -6  -2 4643.73   89.27
  -3   3   6   31.76   91.19
   3  -3  -6   34.41   87.66
  -3   3   6   -4.93   35.37
  -3   3   6   53.49   47.07
   3  -3  -6   23.33   41.82
  -3   3   6  104.08   50.03
   0   6  -333646.41  627.08
   0  -6   333167.98  640.15
   0  -6   335594.85  587.21
   0  -6   333878.60  656.23
   0   6  -333088.87  526.83
   0  -6   334617.56  670.45
   3   4  -337094.32  531.92
   3   4  -335614.87  642.08
  -3  -4   338763.08  737.43
  -3  -4   336746.42  675.51
  -3  -4   336671.82  700.52
  -3  -4   337559.60  547.23
   3   4  -335425.49  863.85
  -3  -4   337614.66  685.39
  -5   6   0   92.13   63.15
   5  -6   0   23.03   59.20
  -5   6   0  197.55   74.74
   5  -6   0   75.56   57.88
  -5   6   0  327.01   77.16
   5  -6   0    9.15   43.99
   6  -1  -282274.27 1510.26
  -6   1   288272.09 1941.35
  -6   1   287531.10 1598.80
  -6   1   283165.46 1827.07
  -6   1   290183.15 1777.68
   6  -1  -284149.60 1537.92
   4   2   026823.97  501.65
   4   2   025316.63  630.66
  -4  -2   028344.01  689.78
  -4  -2   027562.72  528.35
  -5  -1   546668.84  803.04
  -5  -1   546187.94  817.63
  -5  -1   546547.92 1134.04
   5   1  -542519.54  837.69
  -5  -1   545877.83  843.54
  -5  -1   546126.63  725.97
  -5  -1   545119.97  806.58
  -6   4   4 5960.03  200.52
   6  -4  -4 5750.01  202.90
   6  -4  -4 6398.47  214.74
  -6   4   4 5873.47  351.08
  -3   6  -361283.35 1201.55
   3  -6   361772.02 1208.78
  -3   6  -358144.53 1061.29
   3  -6   357696.70 1562.84
  -3   6  -360360.43 1254.13
   3  -6   363628.43 1036.34
   4  -6   235167.75  770.52
  -4   6  -235282.28  608.38
  -4   6  -236357.90  754.04
   4  -6   235895.14  677.40
   4  -6   236934.70  718.82
  -4   6  -236238.11  690.13
   3   2   2 6642.07   71.40
   3   2   2 6406.46  283.09
  -3  -2  -2 7295.87  369.45
   3   2   2 6768.54  220.88
  -3  -2  -2 6352.48  271.53
   3   2   2 6537.64   69.79
  -4   6   3 120174.   2307.
  -4   6   3 117484.   2526.
  -1   5  -521414.80  510.13
   1  -5   521200.36  540.49
   1  -5   522183.60  477.76
   4  -6  -3 115921.   2453.
   4  -6  -3 118050.   2254.
   4  -6  -3 117749.   2423.
   4  -6  -3 115778.   2216.
  -1   5  -521902.52  501.33
  -4   6   3 115323.   2643.
  -6   5   211001.56  286.38
  -6   5   211262.93  304.14
   6  -5  -210495.64  160.01
  -6   5   211523.35  143.86
   6  -5  -210717.63  132.53
   6  -5  -211356.03  449.62
   6  -5  -211161.14  282.88
   3   0  -738007.58  621.71
   3   0  -737841.51  680.44
  -3   0   740460.76  642.51
  -3   0   740792.08  836.70
  -3   0   738001.83  755.88
  -3   0   739634.01 1090.78
   2   1  -749118.47  850.57
  -2  -1   750733.06 1083.42
  -2  -1   748907.89 1024.72
  -2  -1   752964.73 1094.10
   2   1  -748241.49  968.31
  -2  -1   753794.13  839.92
   2   1  -750550.12 1056.98
  -2   4   5 5562.41  143.80
   2  -4  -5 5715.65  149.66
  -2   4   5 5614.70  156.77
   2  -4  -5 5747.05  221.15
  -2   4   5 5985.57  165.08
   2  -4  -5 5808.82  173.36
  -3  -4   2 4807.89  160.06
   3   4  -2 4613.94  152.50
  -3  -4   2 4497.87  195.00
  -3  -4   2 4740.43   57.43
  -3  -4   2 4846.57   67.19
   3   4  -2 4300.46  189.44
  -1   2  -672430.48 1585.22
  -1   2  -669899.93 1218.35
   1  -2   675184.46 1505.38
  -1   2  -669699.28 1751.05
   1  -2   675836.05 1598.15
   1  -2   672051.92 1598.78
  -4  -3   3  594.83   68.12
   4   3  -3  549.07   57.94
  -4  -3   3  692.93   45.75
  -4  -3   3  542.39   68.87
  -4  -3   3  582.79   31.41
  -4  -3   3  737.27   98.05
  -4  -3   3  623.45   90.60
   4   3  -3   15.35   79.59
  -5   0   6 3256.44  151.52
  -5   0   6 3129.12  104.17
  -5   0   6 3292.30   80.93
  -5   0   6 3193.60   58.86
   5   0  -6 3194.94  205.61
  -5   0   6 3277.00  146.22
  -2   0   7 2354.31   82.14
   2   0  -7 2369.90  162.46
   2   0  -7 2225.58   83.01
  -2   0   7 2264.91  145.64
   2   0  -7 2299.44  142.89
  -2   0   7 2004.23  163.24
  -2   0   7 2369.05  153.09
   3   1   3 107642.   2629.
  -3  -1  -3 112147.   2215.
  -3  -1  -3 115168.   2517.
   3   1   3 104124.   1911.
  -3  -1  -3 112217.   2895.
   3   1   3 111176.   2831.
  -5  -1   1 1692.48  174.06
   5   1  -1 1361.13   79.36
  -5  -1   1 1503.24   37.93
  -5  -1   1 1390.81  154.44
  -5  -1   1 1466.68   89.73
   5   1  -1 1298.87   58.66
  -4   5  -3 1247.16  129.62
   4  -5   3 1298.22  131.09
   4  -5   3 1212.78  118.99
  -4   5  -3 1089.23  130.49
   4  -5   3 1029.59   73.36
  -4   5  -3 1178.79  134.22
  -4   5  -3 1354.02   77.30
   6  -2  -5 1836.14  120.37
  -6   2   5 1993.40  121.75
  -6   2   5 1648.26  118.81
   6  -2  -5 1856.55  126.72
   3  -6  -385191.58 1582.67
  -3   6   385391.42 1823.26
   3  -6  -385436.12 1749.92
  -3   6   385513.39 1600.66
   3  -6  -387014.80 1642.40
  -3   6   385363.08 1768.64
  -3  -4   4  134.65   37.02
  -3  -4   4   67.01   53.66
  -3  -4   4   83.28   49.33
  -3  -4   4  151.70   45.98
  -3  -4   4   69.74   54.23
  -3  -4   4  201.41   41.14
   3   4  -4   42.92   30.22
  -5   3  -2  151.80   63.43
  -5   3  -2  133.96  135.40
  -1  -4   6   -8.41   44.83
  -2   5   476619.72 1451.35
   5  -3   2  158.56  107.64
   2  -5  -475517.79 1569.33
   5  -3   2  165.07   71.22
   2  -5  -475542.41 1356.29
  -2   5   475431.53 1383.99
   1   4  -6  -93.26   56.54
  -2   5   475744.71 1874.00
   1   4  -6   21.36   66.10
  -1  -4   6   21.05   57.36
  -5   3  -2  261.44   78.60
   2  -5  -473791.53 1403.81
  -3   5  -4 107948.   2029.
  -3   5  -4 104773.   1960.
  -2  -4  -139272.62  761.59
   2   4   137285.16 1118.66
   2   4   138112.82  737.13
   3  -5   499313.03 2568.56
  -3   5  -4 106784.   2332.
   3  -5   4 103324.   2200.
  -2  -4  -139404.17 1171.67
  -3   5  -4 103304.   2274.
   6  -5  -184025.69 1571.11
  -6   5   193087.93 1644.79
   6  -5  -186973.23 1766.73
  -6   5   188439.74 1864.33
  -6   5   190736.19 2110.63
   6  -5  -186774.94 1742.96
  -3  -1   722796.09  632.15
  -3  -1   724558.47  409.63
   3   1  -722794.69  342.08
  -3  -1   724463.53  774.13
   3   1  -722864.29  413.28
   3   1  -723601.02  526.70
  -3  -1   723635.01  545.44
   5  -4   242779.04  862.75
   5  -4   243475.37  879.44
  -5   4  -246119.25  910.13
  -5   4  -247062.41  927.62
  -5   4  -245906.29  923.83
  -5   4  -246130.88  926.97
   0  -4   632215.45  760.79
   0   4  -631394.45  670.48
   0  -4   633060.27  700.78
   0   4  -630300.00  675.58
  -1   2   6   -4.14   40.10
   0   6   081810.59 1462.20
   0   6   083446.52 1633.61
   0  -6   085257.58 1713.41
   0   6   079958.58 1667.09
  -1   2   6   11.96   36.72
  -1   2   6  -15.19   48.96
  -1   2   6  -45.88   72.21
   0  -6   088030.42 1773.98
   0  -6   089279.24 1605.71
   1  -2  -6   41.96   57.22
   1  -2  -6  -36.32   84.38
   2   5  -3 124786.   2689.
  -2  -5   3 136282.   3177.
  -2  -5   3 132173.   2830.
   2   5  -3 133907.   2652.
  -2  -5   3 139570.   2918.
  -2  -5   3 134374.   2778.
  -1   3  -610752.30  193.11
   6  -5  -338877.37  772.55
  -6   5   338440.66  974.75
  -1   3  -611782.28  167.76
   6  -5  -338875.62  520.89
   1  -3   611222.67  342.53
  -1   3  -611235.25  374.20
  -6   5   338976.06  790.45
   1  -3   610561.16  546.06
  -1   3  -611253.21  340.01
   6  -5  -339335.71  772.45
  -1   6  -4 2750.97   66.13
  -1   6  -4 2965.84  163.23
  -1   6  -4 3031.57  170.71
  -4  -3   4  195.65   48.34
   1  -6   4 2862.24  303.19
   1  -6   4 2916.08   58.55
   1  -6   4 2950.38  157.36
  -4  -3   4  119.19   45.62
  -4  -3   4  210.19   34.37
  -4  -3   4  177.95   51.45
  -4  -3   4  186.86   63.40
  -4  -3   4  131.90   49.13
   2   5  -292190.91 1833.14
  -2  -5   294601.43 1925.97
   2   5  -298790.67 1769.61
  -2  -5   297983.23 2032.86
  -2  -5   2 103650.   1814.
   2   5  -288254.30 1866.27
  -2  -5   298145.87 1988.64
   3   3  -663698.74 1173.30
   3   3  -662457.84 1466.01
  -3  -3   663334.70 1309.70
  -3  -3   663411.82 1118.59
  -3  -3   665668.17 1228.88
  -3  -3   662596.82 1244.73
  -3  -3   664965.60 1044.15
  -3  -3   663938.52 1169.81
  -6   3   5 8125.91  238.34
  -3   1   7 7080.49  240.59
   3  -1  -7 6206.61  186.50
   6  -3   087089.16 1683.76
   6  -3  -5 8366.92  246.39
  -6   3   097561.52 1942.54
   6  -3  -5 8046.95  237.24
   3  -1  -7 6610.75  160.84
   6  -3   091950.06 1951.52
  -6   3   5 8377.28  242.04
  -3   1   7 7211.33  192.87
  -6   3   096825.61 2418.87
  -6   3   097281.19 1927.81
  -6   3   093003.51 2069.25
  -3   1   7 7430.78  165.03
  -3   1   7 7157.92  259.75
   6  -3   092331.76 2015.61
  -6   4   0 1825.61  151.76
   6  -4   0 1516.07   90.29
   6  -4   0 1520.23  115.99
  -6   4   0 1602.51  114.43
   6  -4   0 1649.67  129.47
  -6   4   0 1750.68   88.27
   1   5  -510487.32  279.76
   1   5  -510099.69  275.25
  -1  -5   510569.39   92.84
  -1  -5   510216.62  319.21
  -1  -5   510508.46  277.71
  -1  -5   510711.64   94.31
  -1  -5   510659.57  274.91
  -4  -2   6 115035.   2249.
  -4  -2   6 106736.   2195.
  -4  -2   6 113210.   2109.
  -4  -2   6 112614.   2700.
  -4  -2   6 111076.   2567.
  -4  -2   6 113549.   2191.
  -3   7   027498.25  527.93
   3  -7   027592.97  510.26
   3  -7   027500.00  508.54
   3  -7   028254.34  534.67
  -3   7   028679.37  561.85
   3  -7   028021.43  501.11
  -4  -3   217850.64  221.17
  -4  -3   216702.07  429.91
   4   3  -216340.63  439.88
  -4  -3   218452.24  232.81
  -4  -3   217780.11  490.52
  -4  -3   217810.46  451.90
   4   3  -216024.89  418.86
   4  -1   3 7338.43  248.18
  -4   1  -3 8596.23  303.15
   4  -1   3 7955.76  289.29
  -5   3   6 2787.86  162.26
  -4   1  -3 8507.31  278.15
  -4   1  -3 8274.06  286.36
  -5   3   6 2715.27   41.71
  -5   3   6 2771.77  135.64
   5  -3  -6 2530.06  137.78
   4  -1   3 7870.96  277.98
   5  -3  -6 2557.14   74.37
   5  -3  -6 2649.67  150.45
  -4   1  -3 8309.72  274.72
  -2  -2   712553.91  153.19
  -2  -2   711976.91  477.24
   2   2  -711576.53  345.52
   2   2  -711349.94  279.44
  -2  -2   711936.30  357.37
   1   5   1 2012.11   32.51
  -1  -5  -1 2018.06  166.29
  -1  -5  -1 2117.63  138.60
   1   5   1 1976.30  161.56
   1   5   1 1890.17  227.62
  -1  -5  -1 2205.85   36.20
  -1   1  -6 5196.50  196.83
  -1   1  -6 5430.55  247.77
   1  -1   6 5403.61  201.99
   1  -1   6 5234.75  156.81
  -1   1  -6 4858.02  137.38
   1  -1   6 5091.85  244.97
  -3   7  -1  542.15   91.41
  -3   7  -1  423.32   62.47
   3  -7   1  472.69   54.71
   3  -7   1  413.07  130.72
   3  -7   1  430.74   85.65
   3  -7   1  481.80   75.10
   0  -1  -6 3166.14  181.97
   0   1   6 2039.81  173.60
   0  -1  -6 2441.26  134.66
   0   1   6 2792.69  214.32
   0   1   6 2579.63  132.67
   0  -1  -6 2364.89  126.44
   0   1   6 2430.44  120.10
  -6   1   562554.28  917.08
  -6   1   556864.84 1338.99
   6  -1  -556843.45 1369.12
   6  -1  -555225.61 1249.73
  -6   1   557252.50 1086.77
  -6   1   561989.09  941.06
  -5   6   3 2872.25  150.78
   5  -6  -3 2787.08   67.16
   5  -6  -3 2690.80  151.17
  -5   6   3 2731.52  161.64
   5  -6  -3 2715.10  149.32
   5  -6  -3 2768.83   65.27
   3   3   1 155525.   3792.
  -1  -1   728985.30  671.14
  -1  -1   730000.21  890.33
   1   1  -730033.65  674.48
   3   3   1 162073.   3612.
  -3  -3  -1 166825.   3719.
   1   1  -728451.89  441.70
   1   1  -729006.30  664.00
  -1  -1   732039.07  495.46
  -3  -3  -1 151636.   3690.
   2  -7   144657.69  763.94
   2  -7   144169.79  812.86
   2  -7   142761.78 1017.77
  -2   7  -142736.73  945.70
   2  -7   142778.55  816.32
  -2   7  -143430.90  835.16
  -2   6  -4 1718.80  154.93
   2  -6   4 1738.07  134.10
   2  -6   4 1544.97  161.67
  -2   6  -4 1831.54  148.26
  -4   0   729943.35  557.69
  -4   0   731585.51  604.99
  -4   0   731705.59  672.30
   4   0  -730920.92  487.58
   4   0  -729582.89  506.15
  -4   0   731015.57  669.90
  -4   1   720664.84  463.62
  -4   1   720553.42  486.93
  -4   1   720774.19  469.84
  -4   1   720700.24  359.28
   4  -1  -719799.77  407.11
   4  -1  -720079.92  370.33
   5  -6   169580.60 1512.71
  -2   3   630859.03  566.49
  -2   3   631249.07  624.68
  -5   6  -171166.16 1347.63
   5  -6   168561.02 1441.55
  -2   3   630352.73  587.66
  -2   3   630705.78  589.89
   5  -6   171476.41 1521.60
  -5   6  -169094.14 1545.32
   2  -3  -629130.57  607.42
   2  -3  -630503.54  611.50
  -5   6  -170763.56 1453.49
   1   2  -7   28.62  132.57
  -1  -2   7  162.14  166.55
  -1  -2   7  211.42  148.87
   1   2  -7   76.79   69.41
  -6   1   159730.37 1356.77
  -6   1   163609.79 1092.83
  -6   1   165106.11 1378.46
  -6   1   164698.95 1431.73
   6  -1  -160343.12 1027.89
   6  -1  -159657.39 1029.05
  -5   2  -2 8589.49  282.18
  -5   2  -2 7996.42  193.17
  -5   2  -2 7647.65  450.99
  -5   2  -2 8027.23  281.15
   5  -2   2 7207.43  403.91
   5  -2   2 7396.71  178.67
  -2  -5   451528.01 1195.14
  -2  -5   454896.30  987.98
  -2  -5   451157.54  974.30
  -2  -5   449680.49  841.96
   2   5  -450638.35  862.31
  -2  -5   449550.64  971.97
   2   5  -450893.21  910.83
   0  -6   4 121887.   2619.
   0  -6   4 130198.   2337.
   0   6  -4 112623.   2478.
   0   6  -4 125921.   2355.
   0  -6   4 114143.   2597.
   0  -6   4 124867.   2674.
   0   6  -4 127120.   2717.
   3   4  -1   75.42   66.42
  -3  -4   1   82.49   70.31
   3   4  -1    7.17   49.11
  -3  -4   1  -15.50   94.62
  -4   7   011578.87  306.10
   4  -7   011349.00  235.74
   4  -7   011381.36  302.48
  -4   7   011767.32  271.16
   4  -7   011612.03  244.39
   4  -7   011611.10  242.56
  -2   1   7  121.96   72.42
   2  -1  -7  115.24   84.70
  -2   1   7   53.33   63.73
  -2   1   7  110.07   65.78
   2  -1  -7  105.79  114.45
  -2   1   7   84.08   45.82
  -5   5  -246314.18  932.36
   5  -5   247669.71  896.85
   5  -5   244744.03  944.49
  -5   5  -246553.31  914.23
   5  -5   245511.08 1134.63
  -5   5  -248162.73  977.00
  -5   5  -249489.17  939.92
  -6   0   3  401.44   43.62
   6   0  -3  493.80   88.24
  -6   0   3  492.00  123.82
  -6   0   3  545.18  188.78
   6   0  -3  514.62   63.90
  -6   0   3  635.92   47.49
   2  -7   0 5081.64  176.29
   2  -7   0 5206.24  173.89
  -2   7   0 5380.32  160.42
   2  -7   0 5061.58  157.52
   2  -7   0 5321.48  144.65
  -2   7   0 5008.64  179.83
   3  -7  -1 2084.70  105.89
  -2  -5   1   59.08   59.95
  -3   7   1 1997.15  220.32
   2   5  -1   66.84    8.74
  -2  -5   1   78.77   65.46
   2   5  -1    7.70   57.40
  -3   7   1 1927.08  111.30
   3  -7  -1 1973.58  106.22
   3  -7  -1 2133.94  200.10
   3  -7  -1 2037.27  108.30
  -6   0   4 2239.48   93.94
  -6   0   4 2196.36   89.93
  -6   0   4 2562.57  174.51
  -6   0   4 2030.87  141.47
   6   0  -4 2267.54   97.79
  -6   0   4 2253.55   56.07
  -6   0   4 2371.73   97.79
   2   4  -6 1784.50  120.42
  -2  -4   6 1866.66  122.55
  -2  -4   6 1635.44  154.53
   2   4  -6 2074.70  138.73
   2  -7   269961.92 1400.80
  -2   7  -270031.84 1412.84
   2  -7   269650.57 1370.92
   2  -7   268829.57 1357.54
   2  -7   271392.55 1221.04
  -2   7  -266476.19 1211.69
  -2   5  -5  507.59   36.36
   2   0   540421.01  926.14
  -6   2   0 2679.12  204.90
  -2   0  -538170.61  775.95
  -6   2   0 3305.47  334.23
  -1   6   2  146.09   61.32
   6  -2   0 2381.98  166.33
   1  -6  -2  169.84  155.91
  -6   2   0 3124.79  139.36
  -2   5  -5  535.54  115.46
   2  -5   5  460.08  107.88
  -1   6   2  191.23   78.55
   1  -6  -2  245.09   32.83
   2   0   539550.47  736.26
   2   0   542877.84 1097.73
   1  -6  -2  392.24   71.58
   6  -2   0 2487.25   98.83
   2  -5   5  530.07  127.19
  -2   0  -544146.79  971.13
  -6   2   0 2718.96  104.20
  -2   0  -538786.04  728.83
  -1   6   2  101.04   32.82
  -2   5  -5  432.49  117.21
   6  -5   078745.97 1613.36
   6  -5   079547.13 1554.53
  -6   5   082708.65 1545.64
  -6   5   084116.73 1705.31
  -6   5   082274.41 1723.73
   6  -5   083501.50 1914.41
  -4   7   1 1073.09  185.87
   4  -7  -1 1155.08   74.46
   4  -7  -1 1066.93   74.42
   4  -7  -1 1489.53  169.50
   4  -7  -1 1026.85  105.98
  -4   7   1 1127.52  181.26
  -3  -2   787540.00 1500.56
   3   2  -782343.81 1419.67
   3   2  -780969.57 1568.52
  -3  -2   782163.36 1642.95
   3   2  -778953.04 1676.68
  -3  -2   780404.45 1722.72
  -3  -2   782307.58 1779.41
  -4  -3   5  852.10   76.22
  -4  -3   5  660.34   57.25
  -4  -3   5  763.12   70.46
  -4  -3   5  743.25   65.45
  -4  -3   5  778.74   82.60
  -4  -3   5  774.15  118.11
  -1   0   7  329.50   51.66
  -3  -4   553351.83  988.81
  -3  -4   555299.88 1032.14
  -1   0   7  163.94  148.13
  -1   0   7  249.32   94.82
  -3  -4   553216.31 1068.09
  -1   0   7  249.50   93.27
   3   4  -553228.92  976.31
  -3  -4   551512.33  819.04
  -3  -4   554382.37  999.47
   1   0  -7  274.07   50.71
   1   0  -7  330.49   90.47
   1   0  -7  203.10   91.43
  -1   4  -691641.86 1463.31
   1  -4   696749.43 2558.65
  -1   4  -691646.87 2083.12
  -1   4  -698443.57 1599.18
   1  -4   692279.16 2045.35
  -1   4  -692608.31 2419.95
   4  -5  -516334.64  275.47
  -4   5   517182.83  371.59
  -4   5   516699.80  261.03
   4  -5  -516728.03  352.04
  -4   5   516537.29  409.39
   4  -5  -516587.67  401.61
  -5  -2   3 9860.27  333.25
   5   2  -3 8953.49  182.42
  -5  -2   3 9120.71  440.96
  -5  -2   3 9636.12  168.51
  -5  -2   3 9618.95  199.70
  -5  -2   3 9603.19  137.99
  -1  -3  -4  250.75  100.18
   1   3   4  261.93   32.76
   1   3   4  319.83   90.72
   1   3   4  321.96  175.24
   1   3   4  253.70   30.53
  -1  -3  -4  262.08   91.32
  -3   0  -4 1522.43  137.99
   3   0   4 1326.78  159.12
   3  -7   220338.28  427.23
   3   0   4 1236.20   73.29
   3  -7   221218.88  333.07
   3  -7   220956.80  609.78
  -3   7  -220613.04  438.90
  -3   7  -221516.43  491.72
  -3   0  -4 1613.06  168.62
  -3   7  -219717.42  343.12
   3   0   4 1439.17  145.21
   3  -7   220601.17  488.94
  -3   0  -4 1335.22  139.20
  -5  -2   4 6898.89  148.09
  -5  -2   4 7140.75  150.44
  -5  -2   4 6997.16  265.22
  -5  -2   4 7162.40  197.57
  -5  -2   4 7097.70  326.29
  -5  -2   4 7068.86  164.43
  -6   5   423449.54  504.91
   6  -5  -421974.51  238.54
  -6   5   423453.15  753.56
   6  -5  -423702.07  512.88
   6  -5  -422832.95  491.43
   6  -5  -422472.46  246.58
   2  -6  -3  627.81   77.99
  -2   6   3  592.22  112.69
  -6   4   5 1343.09  123.03
  -2   6   3  653.09   58.75
  -6   4   5 1161.74  120.15
   2  -6  -3  551.11   53.16
  -2   6   3  594.06   78.78
   6  -4  -5 1157.93  123.76
   6  -4  -5 1356.00  124.80
   2  -6  -3  642.92  186.43
   0  -4  -429501.19  605.24
   0   4   429868.73  832.23
   0  -4  -428456.58  667.31
   0   4   429734.67  677.95
   0   4   429488.64  442.13
   0   4   430437.14  529.38
  -5  -1   623376.32  398.59
   5   1  -623823.94  478.90
  -5  -1   624864.39  386.61
   4  -7   111970.96  397.84
   4  -7   112517.40  242.66
  -5  -1   624700.85  503.58
   4  -7   112000.00  339.17
   4  -7   112471.80  273.74
  -5  -1   624292.45  474.36
  -4   7  -112268.75  417.38
  -4   7  -111761.32  252.46
  -5  -1   624434.74  432.80
  -4   7  -112647.95  343.45
  -5  -1   624721.20  501.59
  -4  -1   726076.42  613.08
   4   1  -725221.91  419.61
  -4  -1   726031.16  581.33
  -4  -1   726994.48  841.53
   4   1  -725443.34  415.73
  -4  -1   726498.12  395.35
  -1  -6   211905.04  192.41
   1   6  -210754.13  256.17
  -1  -6   210908.60  296.73
   4  -2  -712509.77  279.30
  -4   2   713531.07  410.62
  -4   2   713004.08  340.66
  -4   2   713253.25  363.13
  -4   2   713256.37  327.85
   4  -2  -711886.47  235.66
  -1  -6   211283.40  304.11
   1   6  -211087.12  263.14
  -5   0  -1 104575.   1937.
  -5   0  -1 102863.   2376.
   5   0   197371.16 1801.64
   5   0   194640.79 1938.16
  -5   0  -1 102305.   2364.
   5   0   192251.27 2157.69
  -5   0  -1 103157.   2199.
  -3   2   7  320.45   59.89
  -3   2   7  124.05   76.09
  -3   2   7  161.79   60.87
   3  -2  -7  184.47  110.16
  -3   2   7  232.92   85.86
   3  -2  -7  197.04   63.55
  -1  -4  -3 131967.   2873.
  -6   0   2   79.93   30.66
  -1  -4  -3 126750.   2964.
   6   0  -2   27.52   31.39
   1   4   3 126394.   3134.
  -6   0   2  205.92  166.74
   4   3  -1  298.51  106.58
   1   4   3 133836.   2487.
   6   0  -2  103.09   29.15
  -4  -3   1  417.14  112.44
   1   4   3 131996.   3073.
  -6   0   2  194.18   42.08
  -6   0   2  112.15   91.19
   4   3  -1  275.66  119.11
  -4  -3   1  312.08   73.60
   0   3   537242.68  789.51
   0  -3  -536673.08  755.67
   0   3   537106.07  780.47
   0  -3  -534860.93  768.34
   0   3   535850.26  602.06
   0   3   537334.07  619.12
  -4   4   6 2698.76  141.52
  -4   4   6 2672.13  156.27
  -4   4   6 3024.22   81.54
   4  -4  -6 2303.08   96.12
   4  -4  -6 2484.75  259.87
   4  -4  -6 2697.09  139.45
  -4   4   6 2655.13  156.48
  -1  -6   325141.42  495.08
  -1  -6   323593.15  433.02
  -1  -6   323892.94  500.09
  -1  -6   324297.92  510.16
   1   6  -323264.81  416.08
   1   6  -323482.96  533.98
   5  -5  -5 121204.   2653.
  -5   5   5 125894.   3134.
  -5   5   5 129300.   2502.
   5  -5  -5 120583.   2396.
  -5   5   5 121934.   2988.
   5  -5  -5 122988.   2638.
  -1  -3   7 4913.31  222.68
   1   3  -7 5416.03  393.88
   1   3  -7 4675.74  209.72
  -1  -3   7 5893.16  271.93
  -4  -1  -2 1401.60  167.47
  -4  -1  -2 1271.49   66.01
  -4  -1  -2 1327.39  129.73
   4   1   2 1131.66   52.46
   4   1   2 1251.41  165.59
   4   1   2 1170.07  122.06
   0  -6  -1 7543.81  239.18
   0   6   1 7368.47  269.72
   0  -6  -1 7614.94  106.53
   0  -6  -1 7925.30  267.27
   0   6   1 7418.08  127.35
   0   6   1 7310.76  230.79
  -6   6   2 6857.48  242.24
   6  -6  -2 6295.74   99.23
   6  -6  -2 6546.14  234.61
  -6   6   2 6586.26  394.45
   6  -6  -2 6845.12  223.64
   6  -6  -2 6524.58  113.70
   1   0   610231.84  364.60
  -1   0  -6 9709.24  267.13
  -1   0  -6 9836.63  246.46
   1   0   610514.96  267.57
  -1   0  -610667.19  364.80
   1   0   6 9728.39  258.04
  -6   0   5 8591.20  125.13
  -6   0   5 9168.03  125.50
  -6   0   5 9147.67  293.05
  -6   0   5 8900.88  212.76
  -6   0   5 8732.88  222.38
   6   0  -5 8830.86  274.38
  -6   0   5 8566.59  370.24
   6   0  -5 8369.01  215.40
  -3   5   5 1783.60   92.49
   3  -5  -5 1818.50  100.77
   2   3  -762219.24 1223.20
   3  -5  -5 1694.21  264.67
   3  -5  -5 1773.89   94.91
  -3   5   5 1598.02  181.23
  -2  -3   763943.92 1281.16
  -2  -3   757985.73 1289.32
   2   3  -760817.80 1310.24
  -3   5   5 2232.78  152.69
  -6   6   120826.12  473.91
  -5  -1   0 5432.61  465.44
   5   1   0 4119.27  272.76
  -5  -1   0 4984.64  269.37
   6  -6  -121602.58  460.96
  -5  -1   0 5041.26  178.37
   5   1   0 4571.70  156.75
  -6   6   121368.92  407.03
   6  -6  -121412.91  496.46
   5   1   0 4626.89   61.42
  -6   6   120967.83  482.38
  -5  -1   0 5043.28   72.38
   6  -6  -120765.88  344.94
  -4   6  -3 1772.07  157.36
   4  -6   3 1661.56   75.73
  -1   7  -186832.28 1775.81
   1  -7   253767.54 1010.71
   1  -7   252010.68 1031.75
   4  -6   3 1647.94  132.04
  -1   7  -192143.08 2021.26
   4  -6   3 1803.22  165.34
   1  -7   196098.96 1881.61
   1  -7   254301.48 1032.43
  -1   7  -252331.19 1019.79
  -4   6  -3 1638.76  140.47
   1  -7   195916.52 1989.80
  -1   7  -248292.15 1019.04
   1  -7   251747.88 1026.55
  -4   6  -3 1644.66  133.79
   1  -7   192171.73 1901.84
   1  -7   193851.35 2222.60
  -5  -2   258116.82 1312.75
  -5  -2   255733.05 1022.64
  -5  -2   252341.93 1167.03
  -5  -2   256859.55  826.79
   5   2  -251388.97  914.28
  -5  -2   254525.99  842.07
  -2  -3  -329044.56  723.27
   2   3   330695.64  667.40
   2   3   331761.51 1062.47
  -2  -3  -331652.28  675.86
   4  -6  -410784.54  313.50
  -4   6   411153.50  331.56
   4  -6  -411169.27  395.62
  -4   6   410848.37  195.57
   4  -6  -410611.86  195.37
  -4   6   411090.27  266.47
  -6   2   616511.39  392.42
   6  -2  -615872.48  378.92
  -6   2   615987.52  348.79
   6  -2  -616114.23  372.09
  -6   2   616147.31  381.62
  -2   7   151051.01  922.29
  -2   7   150297.68 1268.73
  -2   7   149861.69  938.03
   2  -7  -150270.81  954.51
   2  -7  -151564.10  999.95
   2  -7  -151324.21  889.07
   2  -7  -150005.46  956.15
  -3   3  -5 117131.   2403.
   3  -3   5 111223.   2793.
  -3   3  -5 111511.   2436.
  -3   3  -5 111540.   2269.
  -3   3  -5 110452.   2585.
   3  -3   5 110290.   2524.
   4  -7  -2 3752.40  167.28
   4  -7  -2 3485.93  115.02
   4  -7  -2 3541.33  113.15
  -4   7   2 3514.01  158.12
   4  -7  -2 3818.26  152.98
  -4   7   2 3793.47  178.78
   4   2   159348.83 1173.81
   1   2   577836.94 1702.00
   1   2   577237.89 1435.48
  -4  -2  -162741.29 1257.59
  -4  -2  -160629.92 1406.96
   4   2   158930.02 1370.54
   1   2   582455.59 1761.96
  -1  -2  -581438.08 1764.53
   1   2   580287.60 1484.27
  -1  -2  -575548.14 1637.46
  -5  -2   561067.92 1063.79
  -5  -2   564395.14 1117.48
  -5  -2   564058.09 1408.37
  -5  -2   563486.60 1136.09
  -5  -2   562059.99 1308.03
  -5  -2   562023.47 1160.81
   1  -4  -5 4688.93  193.15
   1  -4  -5 5128.92  229.64
  -1   4   5 4857.85  221.23
  -1   4   5 4749.81  186.83
  -1   4   5 4761.00  203.67
  -1   4   5 4598.42  120.70
  -1  -6   146986.57  939.19
   1   6  -143968.75  864.13
   1   6  -144179.69  672.75
   1   6  -143366.33  890.87
  -1  -6   145511.92  920.06
  -1  -6   147582.23  696.75
  -1  -6   149108.67  964.75
   4  -3   4  561.71   93.68
   2   2   412468.17  388.92
   4  -3   4  604.10  117.84
   2   2   411909.07  189.11
  -4   3  -4  664.37  133.85
   2   2   412181.63  367.55
   2   2   412191.27  250.51
  -4   3  -4  711.94   82.90
  -4   3  -4  705.81   89.06
  -4   3  -4  541.56  167.17
  -2  -2  -411892.83  368.58
  -2  -2  -412789.28  374.37
   0  -2   730214.18  553.12
   5  -4  -6 1855.88  232.59
   5  -4  -6 1579.41  134.74
   0   2  -727435.13  911.31
  -5   4   6 1527.09  235.40
   0   2  -727888.65  476.86
   0  -2   730036.55  700.04
   0   2  -728367.10  980.71
  -5   4   6 1814.29  142.58
   5  -4  -6 1651.66   62.38
   0  -2   728818.85  702.87
  -5   4   6 1763.35   42.72
   3  -6   4 4615.59  205.40
   3  -6   4 4399.20   87.97
  -3   6  -4 4305.04  219.81
  -5   1   789449.56 1889.80
  -5   1   791779.55 1778.34
  -5   1   788351.53 2217.89
   2   5  -514725.30  322.03
  -3   6  -4 4437.63   88.67
  -3   6  -4 4135.77  229.64
  -3   6  -4 4244.05   86.17
   3  -6   4 4231.69  241.11
  -2  -5   514991.74  510.05
  -5   1   788810.95 1742.00
  -2  -5   514257.84  365.11
  -2  -5   514827.20  518.55
   5  -1  -790935.87 1643.39
  -2  -5   514469.77  189.21
  -2  -5   515418.98  199.25
   5  -1  -786484.59 1738.49
   2  -7   335232.32  761.98
  -2   7  -334556.31  737.51
   2  -7   335541.25  518.68
   2  -7   333927.37  699.42
  -2   7  -331819.25  586.62
   2  -7   333941.83  930.68
  -2   7  -334677.68  958.05
   0   5   336561.37  831.29
  -3   4   697837.38 1982.03
   0   5   336382.53  729.52
   0  -5  -335805.01  807.19
   0   5   335643.35  580.20
  -3   4   6 100176.   2132.
  -3   4   6 100022.   1973.
   3  -4  -698534.68 1992.32
  -3   4   696230.37 2261.02
   0   5   335948.40  565.97
   3  -4  -695303.84 2050.57
   3  -4  -695894.77 1957.84
   0  -5  -335041.04  712.62
  -4   4  -447280.69 1365.17
  -4   4  -446494.91 1020.12
  -4   4  -447768.85  882.29
  -4   4  -447520.85  992.78
   4  -4   446065.37 1011.57
   4  -4   443252.06  917.46
  -6   4  -1 4968.47  228.86
  -6   4  -1 4784.93  185.27
   6  -4   1 4366.08  179.06
  -6   4  -1 4694.75  172.74
  -6   4  -1 4915.60  352.99
   6  -4   1 4405.87  160.34
   5  -7  -1  775.48  158.88
  -5   7   1  839.08  110.42
   5  -7  -1  677.55   61.22
  -5   7   1  747.03  104.05
   5  -7  -1  811.69  109.42
   5  -7  -1  714.54   58.80
  -6   1   670220.80 1122.36
  -6   1   675988.05 1158.14
   6  -1  -668639.29 1387.04
  -6   1   670587.31 1426.31
  -6   1   668974.59 1344.00
   6  -1  -669250.13 1389.62
  -6   1   670473.54 1414.14
  -5   6   4 6570.22  254.37
  -5   6   4 6301.70  220.19
   5  -6  -4 6571.69  241.28
   5  -6  -4 6173.71  109.94
   5  -6  -4 6467.54  109.65
   5  -6  -4 6460.69  352.50
  -3   4  -520102.27  423.02
  -3   4  -520045.70  492.14
  -3   4  -520113.97  434.90
  -3   4  -519313.49  539.61
   3  -4   518726.58  490.97
   3  -4   519305.90  517.23
  -5   1  -2  116.02   90.21
  -5   1  -2   -0.16   87.44
   5  -1   2   34.34   31.78
  -5   1  -2   63.94  138.46
  -5   1  -2  136.00   41.64
   5  -1   2   20.09   60.06
  -3   7   2   34.64   49.93
   3  -7  -2   38.38  105.58
  -3   7   2   80.66   48.23
   3  -7  -2   51.75   44.80
   3  -7  -2   36.02   44.45
   3  -7  -2   63.33   77.08
  -3   7   2  165.35   69.86
  -1   5   413039.26  386.79
   1  -5  -412890.37  382.39
  -1   5   413057.79  211.57
  -1   5   412932.61  218.95
   1  -5  -413023.28  214.71
  -1   5   413234.03  321.98
   1  -5  -412945.48  471.35
   0  -5   6 6504.24  411.76
   0   5  -6 6545.79  257.09
   0  -5   6 6558.85  303.24
   0   5  -6 6334.00  265.07
  -6   6   3 3087.73  178.59
   6  -6  -3 3095.75   91.95
   6  -6  -3 3127.81  178.19
  -6   6   3 3500.88  186.91
   6  -6  -3 3137.25  293.43
   6  -6  -3 3088.80   83.12
  -7   3   3 6385.31  272.46
   7  -3  -3 6223.86  198.31
  -7   3   3 6299.00   68.12
  -7   3   3 6594.69  309.50
   7  -3  -3 6680.97  260.45
   6  -3  -644823.98  901.49
   5  -7   0 3276.55  186.14
   5  -7   0 3297.00  226.63
  -5   7   0 3369.99  254.46
  -6   3   645321.82  932.35
   0   1  -719468.30  330.69
  -6   3  -177981.09 2097.28
   6  -3  -644468.86 1169.44
   5  -7   0 3144.54  111.94
   0  -1   719696.37  525.20
  -5   7   0 3681.93  185.49
   0  -1   721141.22  367.14
   6  -3   174509.03 1454.23
  -6   3   645922.02 1137.12
   0   1  -719701.14  487.64
   6  -3   173195.80 1489.54
   0   1  -720366.29  523.96
  -6   3  -179726.69 1750.06
  -5   7   0 3195.13  120.30
   5  -7   0 3120.80  190.36
   0  -1   721065.51  499.72
  -6   3  -182235.29 1697.78
  -6   3  -182563.77 1640.45
  -3   2  -5 1956.88  124.66
   3  -2   5 1864.22  127.41
   3  -2   5 1909.13  182.31
  -3   2  -5 2254.19  191.67
  -3   2  -5 1918.69  133.31
  -3   2  -5 2071.35  112.63
   3  -2   5 2153.24  136.61
  -1  -6   457097.63 1408.11
  -1  -6   454324.49 1349.19
   1   6  -457108.39  963.10
  -4   0  -351973.67 1158.83
  -1  -6   456749.04 1139.82
   4   0   350283.46 1131.01
  -4   0  -351882.03 1005.54
   4   0   346901.96  871.00
  -4   0  -351829.68 1145.34
   1   6  -454825.66 1061.79
  -1  -6   460352.17  944.32
   4   0   347893.32 1338.34
   2   5   064241.55 1417.56
  -2  -5   068649.07 1487.99
  -2  -5   067426.99 1364.02
   2   5   064256.38 1275.83
  -5   2   716918.36  441.81
  -5   2   717415.45  352.85
  -3  -4   0 1034.59  153.67
   3   4   0 1096.49  110.36
  -3  -4   0 1011.32  197.83
   3   4   0  914.99  149.58
  -5   2   717197.49  425.20
   5  -2  -717334.30  237.80
  -5   2   717887.53  251.04
   5  -2  -716653.35  359.27
  -5   6  -257898.42 1122.83
   5  -6   255919.63 1223.56
   5  -6   260188.76 1115.27
  -5   6  -258723.68 1171.08
   5  -6   256724.26 1140.16
  -5   6  -259684.53 1244.64
  -1   6  -571318.79 1558.57
   1  -6   570737.59 1468.50
   1  -6   568630.72 1951.05
  -1   6  -570756.34 1500.29
   1  -7   026743.14  558.30
   3  -6  -494635.67 1843.51
  -3   6   494632.39 1857.01
   3  -6  -491120.36 2307.36
  -1   7   026148.53  461.05
  -3   6   492268.23 1841.35
  -1   7   025973.28  535.38
   1  -7   026700.85  429.27
   3  -6  -490959.86 1752.97
  -3   6   495233.59 2063.96
   1  -7   027821.37  544.83
   1  -7   026044.72  549.72
  -1   7   026103.21  566.36
   4  -7   2  160.76   75.82
   4  -7   2  237.15   67.92
  -4   7  -2  152.97   91.67
   1  -7   3 1351.20  226.01
   1  -7   3 1308.68   50.70
  -1   7  -3 1100.53   59.43
  -5   0   7 5774.15  224.21
  -4   7  -2  206.79   49.39
   1  -7   3 1338.17  127.44
   7  -4  -343973.81  933.99
  -1   7  -3 1246.86  119.12
  -5   0   7 5656.29  140.34
   4  -7   2  104.56   93.99
  -5   0   7 5399.03  208.96
   5   0  -7 5374.30  157.22
   5   0  -7 5674.94  146.60
  -5   0   7 5705.74  224.19
   7  -4  -342390.26  849.62
  -7   4   343614.91  955.98
   1  -7   3 1351.23  202.47
  -7   4   344566.58  871.85
  -4   7  -2  247.74   74.55
   1  -1  -795935.02 1963.21
  -1   1   7 101263.   2206.
  -1   1   7 100102.   2244.
  -1   1   7 107183.   2175.
  -1   1   7 103616.   2196.
   1  -1  -7 103324.   2304.
   0   3  -7  982.88   42.86
  -6   1   0   89.60   94.07
   0   3  -7  870.17  148.07
   0  -3   7  750.66   25.37
   0  -3   7  811.05  134.09
   0  -3   7  881.77  143.88
   0   3  -7  739.58  249.92
   6  -1   0  193.91   50.76
  -6   1   0  149.69   61.84
  -6   1   0   35.39   92.29
  -6   1   0   79.74   35.37
   6  -1   0   30.91   60.89
  -6   6   0 2960.32  173.94
  -6   6   0 2848.29  168.67
   6  -6   0 3205.67  314.62
   6  -6   0 2880.53  114.21
  -6   6   0 2892.24  163.56
  -2   2   741269.33  797.01
   2  -2  -737049.27  925.18
   6  -6   0 3111.15  148.94
  -2   2   739591.84  814.57
   2  -2  -739922.42  833.80
  -2   2   739959.98  805.46
  -2   2   739699.43 1073.61
   7  -3  -4   63.87   62.67
  -7   3   4  244.76  116.04
  -7   3   4  115.97   86.29
   7  -3  -4  159.27   78.36
   5  -7  -295193.54 1959.86
  -5   7   293427.12 1987.51
   5  -7  -294350.83 1757.97
  -5   7   294120.88 1969.52
   5  -7  -293539.03 1948.66
   5  -7  -292213.43 1710.56
   0   6  -546295.51  982.90
   0  -6   548588.29  988.27
   2   4   210443.47  377.11
   2   4   210634.53  314.96
  -2  -4  -211556.07  324.01
  -2  -4  -210978.45  388.27
   0  -6   546059.90 1057.18
   0   6  -548870.39 1283.18
  -1  -5   615649.79  458.71
   1   5  -614633.72  395.70
   1   5  -615931.57  579.66
  -1  -5   616035.59  577.38
   7  -4  -242173.90  837.46
   7  -4  -241629.04  596.22
  -7   4   242891.89  958.59
  -7   4   243954.57  850.76
   7  -4  -243719.25  920.25
  -7   4   242346.33  615.78
  -6   5  -1 2438.06  153.47
  -6   5  -1 2235.57  123.07
   6  -5   1 2298.62  139.51
   6  -5   1 2315.06  208.65
  -6   5  -1 2096.13  158.46
  -6   5  -1 2064.72  145.17
   6  -5   1 2027.44  156.53
   2  -3   620118.97  511.71
  -2   3  -621240.95  351.14
   7  -3  -241337.59  782.03
   3  -7   329177.40  825.76
   3  -7   330828.99  534.52
  -3   7  -329091.69  663.99
  -2   3  -620205.66  580.17
   7  -3  -241055.30  595.37
  -7   3   243582.93  973.19
  -7   3   241820.24  658.71
   7  -3  -240871.44  912.27
   2  -3   619941.14  829.49
  -3   7  -328113.59  535.16
   3  -7   327206.95  666.26
  -7   3   241914.99  975.19
  -2   3  -620040.56  329.65
  -2   3  -620601.97  510.17
  -3   7  -329353.34  851.91
  -7   3   243136.40  808.82
   4  -2   4 2893.91  209.40
  -4   2  -4 3323.65  164.67
  -4   2  -4 3570.20  147.36
  -4   2  -4 3357.85  221.77
   4  -2   4 3160.83  137.15
  -4   2  -4 3495.50  176.47
  -4  -3   6 1575.77   97.03
  -4  -3   6 1656.56  108.98
  -4  -3   6 1673.24  152.07
  -4  -3   6 1522.71   58.00
  -4  -3   6 1935.30  137.99
  -4  -3   6 1748.24  128.55
  -1   3   617245.29  422.30
  -1   3   617613.58  424.24
   1  -3  -616568.82  419.29
   1  -3  -617179.62  422.50
  -1   3   616927.44  344.51
  -1   3   616964.64  331.45
  -6   0   1 3250.03  133.90
  -6   0   1 3421.54  123.74
   6   0  -1 3178.60   75.88
  -6   0   1 2864.88  227.76
   6   0  -1 3248.88  111.88
  -6   0   1 3246.52  239.27
   4   2  -716427.49  410.88
  -4  -2   716940.70  298.04
   0   2   6 5367.99  167.46
  -4  -2   717059.88  413.09
  -4  -2   716408.07  293.25
   4   2  -716902.74  288.80
   0   2   6 6219.64  425.88
   0   2   6 5735.92  219.28
  -4  -2   716602.50  328.97
  -4  -2   717398.27  439.27
   0   2   6 5461.72  251.20
   0  -2  -6 5416.87  214.79
   0  -2  -6 5888.92  425.34
   1   5   2 1095.34  123.00
  -1  -5  -2 1110.34  156.71
  -1  -5  -2 1113.80  124.63
   1   5   2 1169.60  158.21
   1   5   2 1059.79   16.37
  -7   2   316061.64  713.28
   7  -2  -315853.71  450.97
   2  -2   6   36.61   53.73
   7  -2  -315615.45  190.35
  -2   2  -6   10.06   62.48
  -7   2   315977.01  321.56
  -2   2  -6   50.74   79.92
   7  -2  -315892.16  451.73
  -7   2   317086.93  484.76
   2  -2   6  155.01   97.81
   2  -2   6  329.41   78.72
  -7   2   316920.28  311.83
  -3  -3   7 7952.06  227.12
  -3  -3   7 7559.78  104.28
  -3  -3   7 7577.86  275.16
  -3  -3   7 7761.95  296.33
   3   3  -7 7630.53  206.87
   3   3  -7 7554.62  267.80
  -3  -3   7 7638.36   86.70
  -1   5  -629608.82  714.48
   1  -5   628842.57  746.50
   1  -5   630668.96  961.83
  -1   5  -629243.99  707.94
  -5   4  -351470.48 1053.26
  -5   4  -351510.82 1116.54
   5  -4   350246.60 1058.31
   5  -4   346913.12  980.05
  -5   4  -352722.47 1315.16
  -5   4  -351064.60 1009.71
  -4   5  -413643.99  260.07
  -4   5  -413864.85  423.86
  -4   5  -413859.57  273.78
   4  -5   412883.83  395.25
  -4   5  -413929.80  392.90
   4  -5   413416.49  391.62
  -3  -4   666982.06 1726.91
  -3  -4   670330.08 1361.65
  -3  -4   671889.85 1185.16
   3   4  -668241.29 1369.10
  -3  -4   670043.69 1380.71
  -3  -4   671889.19 1131.73
  -4   3   740676.95  864.61
  -4   3   740485.41  836.03
   7  -4  -416826.61  401.53
   4  -3  -739545.22  793.40
   7  -4  -417393.86  436.31
  -4   3   742309.17  701.28
  -4   3   741547.40  807.16
   4  -3  -739739.63  872.18
  -7   4   417082.33  448.05
  -7   4   416941.26  402.02
  -7   2   422404.46  535.89
   7  -2  -421081.79  430.73
  -7   2   421466.50  256.88
   7  -2  -421949.26  532.48
  -7   2   421989.47  435.51
  -7   2   422750.17  240.35
  -3  -2  -3 1590.91  157.19
   3   2   3 1454.59  156.38
   3   2   3 1704.65  183.67
  -3  -2  -3 1569.65  179.68
   6  -5  -530730.38  358.06
   6  -5  -530863.55  651.92
  -6   5   532075.15  707.54
  -6   5   531610.37  678.07
   6  -5  -529124.94  401.92
   6  -5  -531432.80  925.82
  -5   3  -3 4937.51  236.36
   5  -3   3 4239.85  210.64
   5  -3   3 4059.61  168.33
  -5   3  -3 4888.67  213.25
  -5   3  -3 4488.66  197.71
  -5   3  -3 4702.56  293.31
  -5  -2   164222.78 1253.07
  -5  -2   167746.75 1589.27
   5   2  -159386.52 1104.22
  -5  -2   161806.76 1438.86
  -5  -2   167747.87  965.77
  -5  -2   165060.69  958.06
   5   2  -156896.27 1325.12
   5  -7   123714.44  442.99
  -5   7  -123874.64  563.46
  -5   7  -122831.37  455.47
   5  -7   123271.25  458.71
   5  -7   122586.82  829.18
  -6  -1   450499.35  889.36
  -6  -1   448787.35 1019.57
  -6  -1   451113.77 1172.51
  -6  -1   449851.87  821.93
  -6  -1   451884.38  860.02
   6   1  -447036.29  757.52
  -6  -1   450061.06  838.94
   6   0  -6 2054.85  139.43
  -6   0   6 2402.13   94.53
  -6   0   6 2171.49  134.61
  -6   0   6 2219.94   48.39
  -6   0   6 2114.60  217.80
  -6   0   6 2221.39  116.95
  -2   4  -6 5868.18  103.97
  -2   4  -6 5508.48  263.85
  -2   4  -6 5808.97  309.59
   2  -4   6 5196.62  275.50
   2  -4   6 5729.24  267.08
  -2   4  -6 5640.89  143.71
   6  -2   114841.74  339.86
  -6   2  -117169.04  414.67
  -1  -6   0 142347.   2643.
   2  -6   5 1305.39  144.11
  -1  -6   0 139046.   3209.
  -2   6  -5 1527.68  163.86
   1   6   0 126702.   2934.
   6  -2   115084.72  289.56
  -6   2  -116041.84  468.38
  -6   2  -116092.36  308.96
  -1  -6   0 140569.   3500.
   1   6   0 131465.   2856.
  -6   2  -115869.80  479.98
   2  -6   5 1061.05  168.73
  -2   6  -5 1209.67  285.77
   2   1   554965.95 1183.20
  -3   5  -547015.56  765.11
  -2  -1  -556817.97 1292.34
   3  -5   545972.04 1034.98
  -2  -1  -551480.93 1115.33
  -2  -1  -553039.53  959.11
  -3   5  -546476.47 1093.48
  -3   5  -548892.19 1066.50
   2   1   551083.49 1179.24
   2   1   551610.58  928.01
   3  -5   545749.48 1052.54
  -3   5  -547354.32  759.52
  -1  -4   7  674.83  116.94
  -1  -4   7  705.99  145.45
   1   4  -7  569.03  110.84
   1   4  -7  607.62  127.36
  -6  -1   3   54.93   92.83
  -6  -1   3   68.72   47.32
   6   1  -3   26.27   29.25
  -4  -3   0 1122.21  206.54
   4   3   0 1251.48  116.59
   4   3   0 1373.45  174.37
  -4  -3   0 1327.12  178.28
  -6  -1   3   57.54   79.89
  -6  -1   3   88.15   32.41
   0   0  -730376.22  706.23
   2  -5  -5 2079.88   94.62
  -2   5   5 2238.48  124.63
   2  -5  -5 2063.27  125.87
  -2   5   5 1953.70   91.29
  -2   5   5 1973.81   97.75
   2  -5  -5 2138.98  179.55
   0   0   730150.94  569.82
  -2   5   5 2474.74  290.62
   0   0   729428.62  726.83
   0   0   729961.43  855.85
  -3  -3  -2  853.01  121.27
   0   0  -727406.80  513.73
   3   3   2  681.72  251.49
  -3  -3  -2  731.93  156.16
   0   0  -728610.29  631.69
   3   3   2  565.01  110.22
   7  -5  -217700.92  442.81
  -7   5   217612.68  423.35
  -7   5   217687.63  226.22
  -7   5   217399.00  476.88
   7  -5  -217483.11  304.71
   7  -5  -217290.59  422.34
  -7   5   3 9374.55  287.64
  -7   5   3 9225.88  327.33
   7  -5  -3 8883.58  481.51
   7  -5  -3 9520.89  470.71
   7  -5  -3 9076.40   88.83
   7  -5  -3 9335.08   96.09
  -5  -2   6 3995.77  117.12
  -5  -2   6 4032.04  107.76
  -5  -2   6 4145.82  150.80
  -5  -2   6 4112.25  170.01
  -5  -2   6 4214.64  174.84
  -5  -2   6 4203.26  118.46
  -3   3   7 2517.64  167.06
   3  -3  -7 2652.53  158.68
  -3   3   7 2656.26  147.23
   3  -3  -7 2838.09  147.08
  -3   3   7 2549.73  255.36
  -3   3   7 2790.10  127.21
   7  -2  -2 7008.82  179.55
  -7   2   2 8265.43  177.14
  -7   2   2 7686.80  188.19
  -7   2   2 7500.89  342.23
   7  -2  -2 7078.42  118.05
  -7   2   2 8255.53  333.27
  -4   7   311719.79  287.06
   4  -7  -311557.12  232.04
   5  -5   3 2804.29  190.98
   5  -3  -786705.09 1835.00
   5  -5   3 3184.98  304.67
  -5   5  -3 3082.22  146.24
  -5   3   785714.29 1863.33
  -5   5  -3 3148.81  188.62
  -5   3   788620.36 1825.12
   4  -7  -312072.17  334.05
   5  -3  -782142.04 1565.18
   5  -3  -783329.16 1729.10
   4  -7  -311444.81  228.19
   4  -7  -312040.09  280.70
  -4   7   311387.81  229.49
  -5   3   787565.69 1863.20
  -4   7   311569.86  346.52
  -5   3   789060.97 1531.41
  -5   5  -3 2994.21  195.68
  -5   5  -3 3282.57  138.25
   3  -1   563869.77 1476.59
  -3   1  -572294.35 1637.11
  -3   1  -568505.28 1385.23
  -7   4   1   87.62   57.84
   6  -4  -6 7784.19  270.18
   3  -1   566299.96 1667.86
   3  -1   565996.23 1304.59
  -3   1  -565929.84 1364.64
  -6   4   6 7916.46  264.95
  -7   4   1   54.67   61.36
  -6   4   6 7618.25  271.71
   7  -4  -1  100.04   33.49
   7  -4  -1  158.04   65.23
   6  -4  -6 7771.00  265.78
   7  -4  -1  138.92  148.40
  -7   4   1   49.14   88.86
  -7   4   1   81.81   80.85
   2  -7  -228532.19  619.39
   2  -7  -227548.36  459.64
  -1   6   3 1875.74  168.34
  -2   7   227526.83  640.79
   1  -6  -3 1495.17  285.60
   1  -6  -3 1459.11   57.06
   2  -7  -227425.54  551.90
  -1   6   3 1536.87  129.40
  -2   7   227595.91  553.37
  -1   6   3 1644.91   65.15
  -2   7   227869.15  484.84
   1  -6  -3 1732.66  122.74
   0   7  -2  -28.95   62.83
   0   7  -2   40.11   41.62
   0  -7   2    6.27   33.21
   0  -7   2  -56.51   55.59
   0  -7   2  -11.70   55.01
   7  -3  -5 2423.83  264.52
   6  -6  -410823.08  140.42
  -7   3   5 2717.78  175.87
  -6   6   411755.93  557.46
   6  -6  -411522.81  323.15
   7  -3  -5 2703.03  177.84
  -6   6   411357.56  332.19
   6  -6  -411485.75  340.40
  -7   3   5 2700.34  158.11
   6  -6  -411468.67  145.45
  -5  -1   7 8449.48  269.43
  -5  -1   7 8337.09  164.99
   2  -4  -6 5563.42  246.39
  -5  -1   7 8554.50  276.59
  -2   4   6 5544.72  177.79
   2  -4  -6 5568.36  200.13
  -5  -1   7 8839.12  151.83
   5   1  -7 8045.34  202.43
  -2   4   6 6006.71  241.02
  -5  -1   7 8395.35  270.20
  -2   4   6 5484.24  165.25
  -2   4   6 5793.80  196.23
   3   5  -343477.46  633.67
  -3  -5   343258.04  641.25
  -3  -5   343777.03  867.53
  -3  -5   342500.22 1072.57
  -3  -5   344083.05  694.33
   3   5  -340200.78  846.46
  -3  -5   344036.28  868.49
  -3  -1  -444952.51  749.76
   4   4  -3  174.42   61.70
   3   1   444443.56 1011.67
  -3  -1  -448840.09 1095.98
  -4  -4   3  118.10   61.96
   3   1   442851.79  704.02
   3   1   445584.26 1044.58
  -4  -4   3  121.13  131.66
  -4  -4   3  231.22   73.61
   4   4  -3  176.82  136.94
  -3  -1  -445501.14 1037.59
  -4  -4   3   71.74   60.93
  -4  -4   3  115.30   28.28
   0   4  -7 2222.48  183.11
   0  -4   7 2168.39  211.30
   0   4  -7 1803.69  188.84
   0  -4   7 2177.97  182.85
   1   1   6  423.09  112.89
   1   1   6  286.15   61.40
  -6  -1   5 151058.   3721.
  -6  -1   5 153750.   3176.
  -6  -1   5 154291.   3410.
  -6  -1   5 162190.   3323.
  -6  -1   5 156647.   3362.
  -6  -1   5 148990.   3387.
  -1  -1  -6  206.06   80.26
   1   1   6  155.37   64.83
  -1  -1  -6  252.07  113.52
  -1  -1  -6  259.40   65.68
   1   1   6  198.95   85.10
  -3   0   877787.40 1681.05
  -7   3   115208.57  768.48
  -3   0   881244.51 1782.07
   3   0  -872957.45 1481.18
  -7   2   539917.74  834.77
   7  -3  -114896.52  465.16
   7  -3  -114720.72  242.89
  -7   3   115843.39  480.50
   7  -2  -539092.21 1102.86
  -7   3   116282.95  402.63
   3   0  -874862.03 1373.53
   7  -2  -537786.18  748.28
   7  -3  -115228.85  441.07
  -3   0   882049.40 1497.20
  -7   3   115948.08  481.42
  -7   2   539393.93  770.23
  -3   0   878123.68 2145.27
  -4  -4   435548.81  741.15
  -4  -4   435016.17  847.21
  -4  -4   436589.29  558.18
  -4  -4   436476.87  681.00
  -4  -4   436069.82  728.15
  -4  -4   435364.14  679.71
   1  -7  -110883.61  302.02
   1  -7  -111782.18  326.58
   1  -7  -111421.70  188.68
  -1   7   111105.44  518.35
  -1   7   110729.00  298.73
  -1   7   111265.66  211.99
   5  -7  -353600.05  903.12
  -5   7   354141.19 1099.59
   5  -7  -352355.43  887.37
  -5   7   354365.08 1159.04
   5  -7  -354354.29 1087.33
   5  -7  -354461.87 1119.85
   2  -7   4 6389.34  480.48
  -2   1  -610879.17  391.69
  -2   1  -610154.98  441.13
  -2   7  -4 6657.75  278.91
  -2   7  -4 6545.19  102.08
   2  -1   610138.46  390.97
  -2   7  -4 7339.48  268.52
   2  -7   4 7157.60  265.11
   2  -1   610208.31  281.59
  -2   1  -6 9556.11  247.59
   2  -1   610601.20  287.33
   1   6  -5 1099.06  112.87
  -1   7  -447626.08 1010.83
  -1  -6   5 1095.95   42.64
   1  -7   446314.46  975.22
  -1  -6   5 1364.82  128.21
  -3  -1   8 7554.87  519.43
   3   1  -8 7353.10  214.28
  -1  -6   5 1181.75  134.02
  -3  -1   8 8031.95  133.97
   3   1  -8 7354.70  136.54
  -1  -6   5 1299.26  128.34
  -3  -1   8 7818.85  312.04
   1  -7   443824.77  988.41
  -3  -1   8 7089.00  251.31
   3   1  -8 7458.28  307.31
   1  -7   447694.80  678.56
   1  -7   447122.94  978.98
  -1   7  -444124.57  671.74
  -1   7  -446978.27 1004.83
  -1  -6   5 1174.62   38.70
  -2  -4   710878.73  378.73
   2   4  -710222.88  323.31
  -2  -4   710591.54  307.20
   2   4  -7 9301.32  277.90
   0  -7   3  115.71   98.64
   0   7  -3  146.51   41.86
   0  -7   3  125.41   33.78
   0  -7   3  184.76  142.28
   0  -7   3  168.76   78.58
   0   7  -3   69.94   56.94
   0   6   245203.46 1334.66
   0  -6  -245504.06  934.25
   0  -6  -245567.19  717.28
   0   6   244840.75  910.35
   0   6   244461.96  673.37
   0  -6  -246178.43 1030.99
   3   5  -4  759.95   81.52
  -3  -5   4  818.38   78.13
  -3  -5   4 1022.31   57.80
  -3  -5   4  754.66  103.93
  -3  -5   4  794.28  103.77
  -3  -5   4  939.38   80.66
   3   5  -4  934.57   56.16
   0  -7   1  487.46   69.27
   0   7  -1  303.44   73.47
   0  -7   1  379.80  157.02
   0  -7   1  220.33   38.43
   0   7  -1  181.03   45.30
   0  -7   1  211.55   92.54
   2   1  -842308.98  675.80
   2   1  -841477.93  913.52
   2   1  -844653.94 1007.81
  -2  -1   846232.05 1032.75
  -2  -1   845006.54 1035.23
  -2  -1   847484.10  848.41
  -2  -1   842575.10  968.45
   5  -2   374905.20 1647.86
   5  -2   375710.49 2001.21
   6  -6   1  108.70   61.69
   6  -6   1  222.58   91.56
   6  -6   1  128.91   65.43
  -5   2  -383987.43 1695.46
  -6   6  -1  164.97  109.74
  -6   6  -1    2.94   72.59
  -6   6  -1   36.51   49.49
  -5   2  -387153.23 1937.27
  -5   2  -384606.07 1863.24
  -5   2  -388430.14 1975.36
   7  -5  -1 1636.57  147.60
   2   5  -663925.99 1295.16
   7  -5  -1 1332.61  136.29
  -2  -5   667301.28  945.62
  -2  -5   661079.34 1391.63
   7  -5  -1 1387.57  115.67
   2   5  -660724.62 1523.74
  -2  -5   663757.96 1307.89
  -2  -5   668612.78  967.12
  -7   5   1 1446.19  133.92
  -7   5   1 1554.63   64.54
  -7   5   1 1749.08  288.45
  -2  -5   663206.23 1292.41
   7  -5  -4  471.61  109.14
  -7   5   4  570.35  107.99
   7  -5  -4  586.40  116.48
  -7   5   4  547.78  122.45
  -6  -1   214693.59  201.89
   6   1  -213368.70  256.50
   2  -6  -418761.68  504.60
  -6  -1   213618.14  438.86
   2  -6  -418622.88  320.72
  -2   6   418373.34  334.51
  -2   6   419279.59  770.70
   2  -6  -417767.43  388.93
   6   1  -213872.23  202.79
  -6  -1   214366.27  210.49
  -2   6   418845.85  402.74
  -6  -1   214267.07  290.52
  -6  -1   215123.60  489.63
  -7   1   454498.99 1236.07
   7  -1  -451012.20 1144.20
   7  -1  -450180.22  935.50
  -7   1   450958.87  811.40
  -7   1   451855.48  950.04
  -7   1   454480.41  850.20
  -7   1   450828.70 1431.89
   4  -1   435361.50  790.39
  -4   1  -438089.55  847.40
  -4   1  -439504.51  740.96
  -4   1  -441310.07  967.15
   4  -1   438012.46  851.96
   4  -1   436416.97  882.95
  -4   1  -441260.09  907.46
  -3  -5   248361.89 1049.94
  -3  -5   249109.51  687.06
   3   5  -243890.85  962.06
  -3  -5   246517.12  941.40
   3   5  -244834.90 1117.03
  -3  -5   247414.49  961.39
  -3  -5   250154.75  708.75
  -7   4   534483.61  990.73
   7  -4  -533601.83  724.93
   7  -4  -534810.19  759.58
  -3   7   3  528.73   72.59
   3  -7  -3  451.91   65.55
   3  -7  -3  470.17  110.23
  -3   7   3  494.91   74.82
  -3   7   3  494.79  117.28
   4   0  -824159.65  424.87
  -4   0   825859.61  528.03
  -4   0   824403.89  507.03
  -4   0   825061.55  635.79
   4   0  -824763.44  440.66
  -4   0   826249.02  622.90
   7  -1  -3 6064.21  247.05
  -7   1   3 6606.32  318.22
  -7   1   3 6210.97  239.82
  -7   1   3 6718.77  138.50
   7  -1  -3 5952.77  144.58
  -7   1   3 5918.67  299.29
   6  -7  -190547.77 1687.55
  -6   7   190532.10 2257.00
   6  -7  -195022.99 1961.43
   6  -7  -192203.11 1746.84
  -6   7   193027.07 2000.53
   6  -7  -191094.79 1996.32
   5   1   1 9486.05  388.64
  -5  -1  -1 9915.73  298.27
   5   1   1 9090.86  268.81
  -5  -1  -1 9786.92  409.59
   5   1   1 9132.19  131.00
  -5  -1  -110180.46  401.85
  -5  -1  -1 9800.74  158.95
   4  -7   3 3802.84  101.46
   4  -7   3 3358.29  245.55
  -4   7  -3 3956.54  221.01
  -4   7  -3 3384.45  109.06
  -4   7  -3 3665.89  194.97
   4  -7   3 3687.14  183.06
  -2   0   836677.98 1179.84
  -2   0   839063.47  668.97
  -2   0   836729.19  813.02
  -2   0   838645.68  850.40
   2   0  -834605.30  749.05
   2   0  -834501.56  592.28
   6  -7  -279573.64 1412.78
   6  -7  -277683.80 1358.48
  -6   7   278754.16 1688.51
   6  -7  -280570.78 1664.77
  -6   7   280728.71 1715.41
   6  -7  -278017.24 1672.61
  -1   2  -775463.67 1724.79
  -1   2  -772246.27 1302.07
   4   4  -294801.24 2175.86
  -4  -4   2 108094.   2544.
  -2  -2   829281.58  685.82
   2   2  -828722.22  397.16
   1  -2   775680.54 1754.76
   4   4  -2 100534.   2034.
   2   2  -828956.64  642.48
   1  -2   778295.81 1726.28
  -4  -4   2 104581.   2411.
   1  -2   776642.39 1594.59
  -2  -2   831432.96  431.53
  -2  -2   830492.58  766.49
  -1   2  -773947.39 1630.87
   2   2  -828865.54  724.30
  -6   2   715063.37  175.78
  -6   2   714908.65  337.74
  -6   2   714935.34  401.87
  -6   2   714761.07  166.01
  -6   2   714613.37  401.35
   6  -2  -714523.30  353.36
   6  -2  -715118.72  407.66
   4  -5  -624285.58  503.14
   4  -5  -624165.24  433.76
  -4   5   624665.96  415.33
   1  -3   7 5032.37  265.97
  -1   3  -7 4873.89  281.87
  -1   3  -7 4645.33  128.28
  -4   5   624406.73  527.57
   1  -3   7 4702.87  275.29
   4  -5  -623805.43  571.54
  -4   5   625413.14  829.41
  -1   3  -7 4973.84  252.02
   1  -3   7 4790.99   99.84
   5   0   2 103606.   2274.
  -5   0  -2 112652.   2579.
   5   0   2 104880.   1938.
  -5   0  -2 114584.   2719.
   5   0   2 104312.   2478.
  -5   0  -2 115039.   2223.
  -5   5   6 6339.29  251.20
  -5   5   6 5614.25  229.56
  -3   1   8 3491.28  335.41
  -5   5   6 5786.29  153.54
   5  -5  -6 5520.76  220.14
  -3   1   8 3179.69  123.17
   3  -1  -8 2976.91  155.97
   5  -5  -6 5506.37  241.56
  -3   1   8 3355.72  218.08
  -3   1   8 3367.49  160.02
   3  -1  -8 3042.66  124.16
   5  -5  -6 5450.86  120.93
  -4   1   836362.71  793.37
   4  -1  -834030.51  610.18
  -4   1   836311.39  825.65
  -4   1   836445.75  855.61
  -4   1   836230.51  832.91
   4  -1  -833628.84  624.32
   6  -1  -7 6544.02  210.86
  -6   1   7 6842.65  191.92
  -6   1   7 6579.40  259.84
  -6   1   7 6769.14  250.93
  -6   1   7 6783.01  104.66
  -6   1   7 6534.08  101.86
  -5  -3   419332.49  372.82
  -5  -3   419581.02  705.13
  -5  -3   420319.00  383.33
   4  -6   440917.32  908.12
  -4   6  -441805.84  713.82
  -4   6  -441376.04  946.31
  -4  -4   583447.94 1835.74
  -4  -4   585165.26 1660.70
  -4  -4   582891.28 1888.99
  -2  -5  -117060.03  435.53
   2   5   116782.95  421.42
  -4  -4   581512.58 1539.81
  -5  -3   420269.01  363.59
   4  -6   439476.80  942.74
  -4  -4   583089.82 1660.66
  -4  -4   585083.29 1738.46
  -4   6  -442275.33  717.69
  -5  -3   418860.74  422.56
  -2  -5  -117699.84  528.10
  -4   6  -442078.24  945.36
  -5  -3   419433.59  335.85
   2   5   116175.46  488.93
   2  -5   629022.34  763.19
  -2   5  -628426.95  705.00
   2  -5   628515.11 1021.73
  -2   5  -628130.72 1060.60
  -2   5  -627478.36  387.43
  -2  -6   3  298.71   91.90
   2   6  -3  490.18  125.97
  -2  -6   3  353.30   63.77
   2   6  -3  304.40   41.03
  -2  -6   3  295.63   42.33
  -2  -6   3  384.57  162.93
  -5   6   5 9455.99  288.35
  -5   6   5 9572.47  157.37
   5  -6  -5 9028.63  271.03
   5  -6  -5 8991.51  160.02
  -5   6   5 9584.08  332.02
   5  -6  -5 8973.69  307.86
   4  -6  -5  748.35   65.76
   4  -6  -5  776.24  230.00
  -4   6   5 1092.65  175.43
  -4   6   5  831.97   65.75
   4  -6  -5  668.23   91.68
   3  -8   126062.40  556.12
   3  -8   125444.77  540.28
  -3   8  -125562.93  507.62
  -3   8  -126136.12  565.53
   3  -8   126204.25  547.14
   3  -8   126433.37  469.25
  -1   2   7  610.79  125.49
   1  -2  -7  601.83  122.35
  -1   2   7  762.27  104.28
   1  -2  -7  530.13   96.40
  -1   2   7  815.60   95.12
  -1   2   7  833.90  104.53
  -5  -3   3  454.85   42.00
  -5  -3   3  417.94  103.04
   5   3  -3  431.07   68.14
  -5  -3   3  380.68  119.18
  -5  -3   3  467.18   73.68
   6  -4   2 8814.84  270.79
  -6   4  -210207.98  288.05
  -6   4  -2 9851.62  329.38
  -6   4  -210153.29  315.51
   6  -4   2 9326.65  280.49
  -6   4  -2 9755.01  459.68
   3   2  -827141.68  450.36
  -3  -2   826477.76  589.19
  -3  -2   827084.45  978.53
   3   2  -826823.54  542.27
  -3  -2   828263.86  690.20
   3   2  -827567.54  964.62
  -3  -2   828409.91  380.69
  -3   8   026803.18  560.84
   7  -1  -5 3964.58  159.81
  -7   1   5 3741.70   82.36
  -7   1   5 3809.10  190.24
   7  -1  -5 3497.15  210.89
   3  -8   026140.60  540.35
   3  -8   027482.32  690.87
   3  -8   026809.90  531.88
  -7   1   5 3662.31  223.61
  -3   8   026134.02  548.88
  -7   1   5 3416.45  144.52
   3  -8   026755.76  546.01
  -7   1   5 3628.96   51.16
   3   4   1   26.50   61.02
  -3  -4  -1   62.22  112.34
   3   4   1  -18.67  143.20
  -3  -4  -1  172.62   81.80
  -5   7  -2 6485.91  186.52
   4  -8   099100.81 2022.20
  -4   8   095391.11 2020.05
  -5   7  -2 6782.06  283.30
  -4   8   0 100517.   2166.
   4  -8   098108.60 2100.02
   5  -7   2 6536.72  221.14
   4  -8   097634.34 1988.02
   4  -8   0 100545.   2038.
  -5   7  -2 6791.86  226.44
   5  -7   2 6856.70  173.99
   5  -7   2 6519.54  304.89
   4   1  -8 2856.11   93.01
  -4  -1   8 3266.79  209.49
  -4  -1   8 2869.11  212.57
  -4  -1   8 2925.23  124.01
   4   1  -8 3006.41  112.44
  -4  -1   8 2869.73  140.20
   7  -2  -1 7110.67  179.07
  -7   2   1 7780.25  337.88
   7  -2  -1 7028.07  152.19
  -7   2   1 8251.55  217.61
  -7   2   1 7567.93  359.92
  -7   2   1 7612.33  184.23
  -6   0   012659.44  194.55
   6   0   011602.65  273.09
  -6   0   012621.48  453.09
   6   0   011849.42  230.25
  -6   0   012486.53  322.95
  -6   0   012960.09  464.88
   6  -7   018205.18  353.89
   6  -7   019312.04  422.88
  -6   7   017808.81  428.93
  -6   7   018665.53  345.59
  -6   7   018475.53  485.22
   6  -7   018373.26  504.84
  -2  -6   2 6557.36   95.30
  -2  -6   2 6026.74  242.61
  -2  -6   2 6474.26  247.61
  -2  -6   2 6929.01  359.31
   2   6  -2 5717.88  223.81
   2   6  -2 5974.41  224.46
  -3   7  -445951.87 1030.99
   3  -7   445520.15  972.92
   3  -7   445617.79  692.33
  -3   7  -445606.62  992.82
   3  -7   442340.67 1035.61
  -3   7  -442337.03  664.61
   3   5  -5 9142.92  207.39
  -3  -5   5 9110.09  259.15
  -3  -5   5 8861.49  160.83
  -3  -5   5 9592.32  181.17
  -3  -5   5 8566.27  382.84
  -3  -5   5 8954.68  256.86
  -5   6  -313454.24  289.06
   0  -7   4 4629.02  223.52
  -5   6  -313507.58  299.00
   7  -6  -2   80.70   20.05
  -7   6   2  234.82   97.83
  -5   6  -313948.46  409.59
   0  -7   4 4544.90  206.17
   7  -6  -2  103.56   51.21
   7  -6  -2  100.15   79.75
   5  -6   312778.24  658.35
  -7   6   2  154.35   90.68
   5  -6   313202.86  278.51
   0  -7   4 4747.60   79.10
   0   7  -4 4756.04  102.00
  -5   6  -313122.04  388.39
   0  -7   4 4845.96  222.97
   0   7  -4 4462.33  186.51
   5  -6   312940.03  550.13
   4   2   2 5580.95  244.15
   4   2   2 5802.88  313.86
  -4  -2  -2 5979.82  428.12
  -4  -2  -2 6220.54  333.01
  -2   3   7 3595.74  187.35
  -2   3   7 3488.82  187.89
  -2   3   7 3708.28  265.39
  -2   3   7 3688.17  174.94
   2  -3  -7 2957.71  184.82
   2  -3  -7 3057.40  176.42
  -2  -6   4 1479.41  119.18
   2   6  -4 1375.43  137.48
   2   6  -4 1351.55   83.89
  -2  -6   4 1556.28  135.93
  -6   1  -158769.81 1388.41
  -2  -6   4 1296.61  134.11
  -2  -6   4 1312.95  167.87
   6  -1   154451.96 1096.21
   6  -1   155077.72  934.67
  -6   1  -160861.90 1298.58
  -6   1  -159826.46 1187.03
  -6   1  -159317.06 1389.89
  -6  -1   6  288.27   61.40
  -6  -1   6  258.07   64.71
  -6  -1   6  289.14  128.98
  -6  -1   6  345.84   88.12
  -6  -1   6  157.01   37.58
   4  -8   113213.99  374.85
   7  -1  -270038.70 1215.97
  -4   8  -113867.47  389.12
  -7   1   277737.93 1644.28
  -7   1   274903.33 1509.62
   4  -8   112806.14  471.05
  -7   1   274994.76 1765.75
  -4   8  -112804.63  294.82
   7  -1  -269987.77 1273.26
   4  -8   113015.38  314.56
  -7   1   270394.48 1671.70
   4  -8   113389.73  268.57
   6  -5   225473.79  558.31
  -6   5  -226920.46  586.62
  -6   5  -226359.57  603.34
  -6   5  -226363.12  601.71
   6  -5   224241.77  580.89
  -6   5  -226625.33  590.30
   0   7   021249.11  338.76
   0  -7   022860.51  531.63
   0  -7   023542.78  525.17
   0   7   021980.34  497.40
   0  -7   022754.10  527.28
   0   7   021336.45  524.29
   0  -7   023077.38  325.14
  -4  -3   7  740.65  131.90
  -4  -3   7 1025.89  141.15
  -4  -3   7  983.49   65.71
  -4  -3   7 1067.50   57.04
  -4  -3   7  935.02   91.88
  -4  -3   7  784.50  119.04
   4   3  -7  905.48   82.33
  -6   3   722712.18  262.61
  -5  -3   516765.21  473.69
   6  -3   2  733.02  118.38
   6  -3   2  831.73   93.45
  -6   3   722877.95  696.53
  -6   3  -2  784.07  137.05
  -6   3  -2  792.90  159.93
  -6   3  -2  874.12  122.74
   6  -3  -722233.55  539.85
   6  -3  -721679.10  247.73
  -5  -3   517090.10  409.04
   6  -3  -721592.05  495.16
  -5  -3   517502.07  331.39
  -5  -3   517057.02  458.97
  -5  -3   516726.19  339.18
  -6   3  -2  724.27  131.63
  -6   3   722216.86  543.26
  -5  -3   517340.38  295.96
  -6   3   722541.70  557.44
   1   2  -8 3940.59  248.18
   1   2  -8 4236.45  118.43
  -1  -2   8 4333.21  242.93
  -1  -2   8 4429.00  129.29
  -1  -2   8 4553.96  259.85
   1   2  -8 3942.02  245.65
   7  -6  -345349.12  981.62
   7  -6  -344124.27  638.61
   7  -6  -346307.94  991.93
  -7   6   345868.49  981.39
  -7   6   345282.93 1014.40
  -1   1  -7  598.00  140.34
   1  -1   7  552.35  141.62
   7  -4   013498.02  338.02
  -7   4   014574.44  347.42
   7  -4   013972.45  410.23
   7  -4   013395.99  284.89
  -7   4   014076.78  453.56
  -1   1  -7  609.11  113.42
  -1   1  -7  608.27   69.67
  -7   4   014369.13  299.57
  -7   4   014409.30  435.70
   1  -1   7  598.38  109.94
   5   2   0 1406.86  199.49
  -3   6  -5  102.77   88.39
  -3   6  -5   56.67   20.93
   1   4   413851.73  192.45
   3  -6   5  144.63  140.56
  -5  -2   0 1358.30  127.16
  -3   6  -5  113.42   82.63
   1   4   413649.28  404.18
  -1  -4  -414087.73  715.70
  -1  -4  -414229.64  626.83
   3  -6   5   16.66   94.46
  -5  -2   0 1536.41  195.29
  -5  -2   0 1607.34  207.74
   1   4   414127.17  449.79
   1   4   413593.94  183.66
   5   2   0 1592.85  122.95
  -3   6  -5   16.67   20.77
   1   1  -820759.70  431.10
  -4  -1  -355214.79 1221.58
   4   1   350052.73  847.05
  -1  -1   823318.73  383.51
   4   1   350689.86 1441.72
   1   1  -821567.47  554.04
  -1  -1   820828.30  564.65
   1   1  -821592.30  575.95
  -4  -1  -353107.27 1252.10
  -4  -1  -350588.89  807.20
  -1  -1   822684.00  583.73
   4   1   351568.35 1221.40
   0  -1  -734900.73  822.84
   4  -8  -116351.75  381.84
   0   1   734193.54  692.81
   0   1   734932.48  711.93
   0  -1  -732934.86  699.22
  -4   8   116625.11  391.10
   4  -8  -116249.83  335.51
   0   1   733674.24  816.25
  -4   8   116932.18  603.83
   0   1   732602.87  699.68
   4  -8  -117216.91  379.12
   4  -8  -116138.43  339.47
   0  -1  -730563.62  639.68
   3  -8   222454.62  502.60
   3  -8   222737.88  478.01
   3  -8   222561.61  537.05
   6  -7  -3  -25.70   62.61
  -3   8  -223310.11  548.90
   3  -8   222239.53  499.48
  -6   7   3   56.54   62.64
   6  -7  -3   24.41   22.22
   6  -7  -3   -2.45   20.62
  -3   8  -220828.36  393.27
  -6   7   3  -35.14   58.41
   6  -7  -3  142.54   62.08
  -2   8  -1 9571.32  263.92
  -2   8  -1 8967.86  249.93
   2  -8   1 9519.97  293.96
   0  -4  -510084.02  324.01
   0  -4  -5 9766.04  360.46
   2  -8   1 9457.12  287.63
   0   4   510363.34  364.98
   0   4   510061.52  180.14
   2  -8   1 9653.46  239.15
   2  -8   1 9829.25  222.34
   0   4   510103.57  184.21
   0   4   510474.69  340.05
   1  -4   735670.99 1241.62
  -1   4  -733664.25  876.61
   1  -4   734634.04  853.50
  -1   4  -734293.52  847.15
  -1   4  -735406.00  458.32
   1   6   125520.99  657.51
  -1  -6  -126442.73  848.72
  -1  -6  -127271.57  677.85
   1   6   125573.86  296.48
   1   6   126668.05  309.42
   1   6   126137.67  586.35
   0  -6   6 8761.64  366.33
   0   6  -6 8640.51  323.49
   0   6  -6 9695.42  331.05
   0  -6   6 9169.21  312.08
   7  -2  -622996.04  522.60
   7  -2  -623573.37  556.37
  -7   2   623620.17  522.88
  -7   2   623195.89  517.46
   7  -3  -627911.07  638.63
  -7   3   627894.22  619.80
  -7   3   627431.07  859.91
   7  -3  -627074.37  613.46
  -4   4   7  400.57   99.69
   4  -4  -7   49.99   81.40
  -4   4   7  489.54  163.15
   4  -4  -7  185.69   74.03
   4  -4  -7  108.03   54.37
  -1  -3  -5 1402.47  326.37
   3   5  -147117.77 1081.15
   1   3   5 2059.38  182.67
   1   3   5 1829.23  116.78
   3   5  -148088.98  967.46
  -3  -5   150569.91 1038.93
  -3  -5   150939.88 1172.01
   1   3   5 1780.03  182.83
  -1  -3  -5 2228.58  182.60
   1   3   5 1759.42   70.89
  -7   6   127199.21  624.62
   7  -6  -125086.19  603.93
   7  -6  -125046.51  440.34
  -7   6   126376.46  906.26
   7  -6  -126095.53  587.59
  -7   6   126543.64  501.20
  -6   0   7  205.15   42.30
  -6   0   7  191.54  102.05
  -6   0   7  290.03   62.93
  -6   0   7  229.16  149.63
   6   0  -7  230.73   73.10
  -6   0   7  299.79   87.40
  -5   4   7  754.86  119.69
   5  -4  -7  798.09  121.15
  -5   4   7  731.23  128.77
   5  -4  -7  819.10   62.74
  -5   4   7  835.31  114.39
   5  -4  -7  812.36  124.88
   3  -5  -6 3882.98  231.15
   2  -8   213111.15  367.88
   3  -5  -6 3993.46  155.63
   3  -5  -6 3757.56  154.57
   2  -8   213188.03  332.95
  -3   5   6 4082.67  149.42
  -2   8  -212360.51  264.14
   2  -8   213516.75  241.58
   2  -8   213110.54  555.36
  -3   5   6 3612.44  273.03
  -3   5   6 3984.21  151.63
  -2   8  -213337.32  347.07
  -3   5   6 3996.20  223.71
  -7   5   027324.06  643.26
   7  -5   027388.94  867.24
  -1   6  -637089.88  874.51
   1  -6   636909.95  956.13
  -7   5   028181.72  850.83
   1  -6   637185.24  843.79
  -7   5   028285.58  651.82
  -1   6  -637136.59  884.06
   7  -5   024681.20  607.73
  -7   5   027923.75  687.86
   2  -1  -8  586.03  107.40
   3   4  -714348.51  384.31
   4  -2  -8 7013.01  191.86
  -3  -4   715206.90  193.59
  -3  -4   714905.62  359.72
   3   4  -714854.85  347.25
  -4   2   8 7938.52  291.58
  -3  -4   714602.03  439.20
  -4   2   8 7599.26  314.34
   4  -2  -8 7149.01  215.48
  -3  -4   715256.27  181.73
  -2   1   8  606.05   77.04
  -2   1   8  647.54  114.14
  -4   2   8 7825.36  335.23
  -4   2   8 7592.55  193.26
   2  -1  -8  577.60   76.75
  -2   1   8  550.17  126.11
  -3  -4   714666.87  339.96
  -2   1   8  536.94  114.15
  -3   0  -5  103.54   70.14
  -5  -3   2  986.02  160.78
  -5  -3   2  959.91  148.36
  -3   0  -5  -90.10   93.82
  -5  -3   2  945.17  100.23
   5   3  -2  765.68   89.25
  -5   1   8   41.05   84.69
   5   3  -2  862.28  147.67
  -5   1   8   56.40   88.75
   3   0   5   28.11   87.04
   3   0   5   11.75   39.61
  -5   1   8   96.22   46.89
   5  -1  -8   -5.00   91.82
   3   0   5   55.86   71.61
   5  -1  -8  100.76   30.15
  -3   0  -5   51.71   44.35
  -7   5   5 1284.15  153.14
   7  -5  -5 1224.48  149.03
  -7   5   5 1294.02  147.77
   7  -5  -5 1201.23  143.05
   6  -5  -6 6190.83  255.42
  -6   5   6 5134.16  245.06
   3  -8  -158915.94 1316.42
   0   5   4 7321.78  320.04
  -6   5   6 5448.79  241.47
   3  -8  -157852.34 1147.16
   0  -5  -4 7055.05  553.43
   0  -5  -4 7552.85  272.27
  -3   8   158266.41 1236.41
   0   5   4 7461.30  171.79
   0   5   4 7352.96  273.57
   6  -5  -6 5194.83  238.68
   3  -8  -157105.23 1111.41
  -3   8   158898.41 1162.28
   3  -8  -159684.54 1188.95
   0   5   4 7216.92  122.33
  -2  -3   830238.57  699.58
   2   3  -830143.29 1070.81
  -7   3   0 1255.68  320.69
  -7   3   0 1230.40  102.09
  -2  -3   831430.32  797.01
   7  -3   0 1143.51   99.01
   7  -3   0 1165.05   85.23
  -7   3   0 1344.44  102.45
  -7   3   0 1203.62  171.68
   2   3  -830765.47  911.20
  -5  -2   7  236.48   39.57
   2   0   619349.34  409.25
   2   0   619197.06  596.44
  -5  -2   7  170.23   61.62
  -5  -2   7  174.91   77.77
  -5  -2   7  219.47   77.49
  -5  -2   7  215.46  153.33
   2   0   619729.74  480.42
  -2   0  -620696.74  591.37
  -5  -2   7  225.77   50.89
  -2   0  -618591.51  407.55
  -2   0  -618417.37  437.64
  -6   6   529010.76  689.54
   6  -6  -527368.08  382.27
  -6   6   528086.68  904.86
   6  -6  -528051.97  656.52
   6  -6  -528665.21  430.09
   6  -6  -527597.73  626.25
  -3   6   5 2132.31  197.78
   3  -6  -5 2224.10  120.72
  -3   6   5 2480.96  122.80
  -3   6   5 2326.04  205.87
   3  -6  -5 2525.40  192.34
   3  -6  -5 2339.90  200.09
   2   3   419414.53  562.35
   2   3   418692.77  514.72
   6   1  -179553.79 1380.84
  -6  -1   186212.81 1446.48
   2   3   418279.99  252.92
  -6  -1   185949.91 1974.05
  -6  -1   185121.26 2049.98
  -6  -1   178320.21 1886.00
  -2  -3  -419513.33  524.59
   6   1  -178515.38 1539.64
   2   3   418956.72  248.74
  -2  -3  -418404.45  560.40
   5  -1   3  415.23  119.05
  -5   1  -3  490.19   61.83
  -5   1  -3  518.49  128.78
   5  -1   3  341.01   54.65
  -5   1  -3  415.27  130.26
   5  -1   3  554.01  128.93
   2  -8   0  726.96  112.06
   5   0  -8  673.70   72.48
  -5   0   8  592.84  125.59
   2  -8   0  881.56   94.29
   2  -8   0  744.24   75.50
   5   0  -8  553.20   47.00
  -5   0   8  577.56  128.60
  -5   0   8  475.79   70.76
  -5   0   8  589.62   59.10
  -2   8   0  683.86  192.87
   2  -8   0  749.51  110.38
  -2   8   0  764.45   89.91
  -4  -4   142516.26 1127.00
  -4  -4   141012.62 1006.14
   4   4  -139180.57 1020.05
   4   4  -137703.43  927.27
   5  -7  -4  694.92   55.46
   5  -7  -4  915.38  127.51
  -5   7   4  675.84  193.55
   5  -7  -4  704.30   55.64
   5  -7  -4  870.36  183.62
  -5   7   4  838.00  238.91
  -1  -5   751108.78 1599.72
  -1  -5   750734.79 1080.38
   1   5  -751448.38 1113.22
   0  -5   7 6942.26  296.90
   0  -5   7 6513.21  341.02
   1   5  -748884.29 1113.18
   0   5  -7 7116.20  314.68
   0   5  -7 6485.02  300.61
   5  -8   0  748.31  126.37
   5  -8   0  573.46   79.29
   5  -8   0  733.57   87.98
   4  -7  -426761.98  631.96
  -4   7   426960.54  485.73
  -5   8   0  614.90   99.82
  -5   8   0  685.14  124.66
  -4   7   427378.10  757.60
   4  -7  -425957.26  467.45
   5  -8   0  625.93   77.52
   4  -7  -426538.29  707.19
  -4   7   427421.62  666.35
   2   6  -1 5548.17  229.53
  -2  -6   1 5739.59  414.63
  -1  -3   887827.47 2080.72
  -2  -6   1 5837.79   53.48
  -2  -6   1 5559.57  245.77
   2   6  -1 5089.54  402.19
  -1  -3   885536.64 1959.91
   1   3  -882280.08 1852.85
   1   3  -881448.05 1873.10
  -2  -6   1 5884.23   66.95
   5  -8  -1 4742.18  147.54
   5  -8  -1 5710.55  376.15
  -5   8   1 4828.87  228.55
   5  -8  -1 4889.14  318.29
  -5   8   1 4704.19  212.64
   4   3   116728.04  426.61
  -4  -3  -116847.40  559.56
  -4  -3  -117209.55  440.68
   4   3   116692.09  818.05
  -3   2   828803.86  714.51
   3  -2  -828032.47  588.67
   3  -2  -827380.81  558.12
  -3   2   830378.64  595.00
  -3   2   829975.13  622.05
  -3   2   829683.40  667.40
   1  -7  -2 100250.   2243.
  -1   7   295358.87 2175.44
  -1   7   296296.70 1810.73
   1  -7  -295689.56 2055.64
   1  -7  -297437.57 1772.98
  -1   7   295642.78 2021.03
  -2   7   3 7648.01  312.87
  -2   7   3 7471.60  171.11
  -2   7   3 6758.76  228.18
   2  -7  -3 6849.17  300.26
   2  -7  -3 7098.03  153.08
   2  -7  -3 7071.87  229.99
  -1   0   8 1976.74  320.98
  -1   0   8 1965.99  169.40
  -1   7  -512878.95  407.08
   0   3   631805.15  738.33
   1  -7   511817.91  422.65
   1   0  -8 1867.58   97.91
   0   3   630705.75  561.28
   1  -7   512885.79  387.54
  -1   0   8 2190.43  104.20
  -1   0   8 2166.99  187.89
   0  -3  -629353.57  992.93
   0   3   631023.62  756.64
   1   0  -8 1898.15  176.40
   1   0  -8 2175.61  183.22
  -1   7  -512914.47  403.61
   0   3   631042.04  552.73
   0  -3  -630961.11  750.12
  -4   4  -518690.74  560.86
  -4  -4   666017.88 1299.09
   4  -4   518081.15  482.29
  -4  -4   666656.50 1285.60
  -4   4  -520215.27  717.11
  -4   4  -519519.49  374.48
  -4  -4   665030.48 1203.42
  -4  -4   665556.02 1278.63
  -4   4  -519699.60  387.90
  -4  -4   663873.37 1360.28
   4  -4   518882.16  540.68
  -4  -4   665521.02 1183.85
   1   5   3  185.25  122.21
  -1  -5  -3  166.72   93.81
   2   4   312974.55  704.32
   1   5   3  258.94   14.62
  -2  -4  -312320.08  467.64
  -2  -4  -313239.48  394.38
   2   4   312651.88  398.23
  -1  -5  -3  175.10  116.12
   1   5   3  373.90  101.31
  -1   5   585935.29 1819.21
  -1   5   583634.05 1548.60
  -1   5   584515.60 1924.04
  -1   5   583220.42 1709.94
   1  -5  -582105.94 1872.65
   1  -5  -583618.70 2098.35
   4  -8   210026.98  360.77
  -7   1   6 7902.74  111.02
  -4   8  -210507.90  475.47
  -7   1   6 7789.76  252.35
   7  -1  -6 7672.96  246.83
   7  -1  -6 7540.78  440.59
   4  -8   210004.53  288.61
   4  -8   210331.12  203.43
  -7   1   6 8103.04  256.80
  -4   8  -210666.39  568.39
  -4   8  -2 9811.21  226.21
  -7   1   6 8170.59  248.16
  -7   1   6 8439.55  103.46
   4  -8   2 9623.27  458.53
   7  -6  -484819.45 1378.51
   7  -6  -492558.54 2003.59
  -7   6   493176.53 2499.81
  -7   6   492648.28 2407.13
   7  -6  -490271.14 1960.10
   7  -6  -486511.37 1350.42
  -4  -2   8 4366.24  243.39
   4   2  -8 4211.72  158.28
  -4  -2   8 4405.09   78.93
  -7   0   4 9611.12  337.69
  -4  -2   8 4298.74  242.26
  -4  -2   8 4122.26  106.39
  -7   0   4 9336.60  154.56
  -7   0   4 9832.07  220.68
   7   0  -4 9672.92  212.60
  -7   0   410211.97  385.25
   4   2  -8 4337.39  145.65
   7   0  -4 9204.53  145.84
  -7   0   4 9873.52  200.20
  -4  -2   8 4296.59  171.29
  -7   0   410218.81  240.48
  -5   2   8 1597.54  165.18
   5  -2  -8 1314.48  113.94
  -5   2   8 1512.78  108.80
   5  -2  -8 1410.19   62.73
  -5   2   8 1506.98  174.87
  -5   2   8 1464.31   67.86
  -1  -6   6 7628.68  325.53
   7  -4  -666486.70 1418.95
   1   6  -6 7658.13  276.80
  -7   4   666538.50 1431.07
  -7   4   667274.33 1437.57
   1   6  -6 7786.54  289.87
  -1  -6   6 7729.04  460.47
   7  -4  -667050.47 1784.17
  -1  -6   6 7881.79  277.08
  -4   3  -5 6316.52  206.46
  -4   3  -5 5563.52  223.37
  -4   3  -5 5738.93  186.61
   4  -3   5 5540.81  281.45
   4  -3   5 5674.94  376.23
  -4   3  -5 5863.39  304.35
  -6   7  -110263.45  256.92
   6  -7   110273.88  374.16
  -6   7  -110206.68  358.78
   6  -7   110444.03  266.96
  -6   7  -1 9914.07  288.94
   6  -7   1 9895.13  250.94
   2   6  -5 4165.01  160.10
  -2  -6   5 4270.69   87.06
  -2  -6   5 4425.14   82.19
  -2  -6   5 4223.77  192.71
  -2  -6   5 4176.71  206.68
  -2  -6   5 4659.66  205.29
   6  -6   2  829.02  149.44
  -6   6  -2  836.02  138.00
  -6   6  -2  920.14  107.40
  -6   6  -2  903.26  201.47
   6  -6   2  881.41  101.39
  -6   6  -2 1039.71  117.30
   6  -6   2  840.42  113.23
  -6  -2   4 4505.07  129.38
  -6  -2   4 4612.82  133.05
  -6  -2   4 4104.28  348.99
   6   2  -4 4237.15  121.93
  -6  -2   4 4580.64   98.82
  -6  -2   4 4807.65  270.72
  -6  -2   4 4785.37  220.23
  -1   4   6  446.65  118.82
  -1   4   6  459.41  107.89
  -3   4   740884.26  817.98
   3  -4  -739027.34  875.93
  -3   4   739990.88  840.69
   1  -4  -6  336.37  100.60
  -1   4   6  450.65   65.72
   3  -4  -740191.76 1035.50
  -1   4   6  423.68   62.90
   1  -4  -6  446.68  204.83
  -3   4   741440.93  800.28
  -3   4   742084.03  908.99
  -6   2  -2 1233.95  164.65
   6  -2   2 1098.57   85.34
  -6   2  -2 1312.82  145.50
  -6   2  -2 1107.67  171.34
   6  -2   2 1185.18  234.33
  -6   2  -2 1151.74   88.82
  -3   3  -6 7046.51  278.39
   3  -3   6 6103.57  268.71
  -3   3  -6 6484.53  264.23
  -3   3  -6 6265.90  329.22
   3  -3   6 6794.18  316.50
  -4   8   2  760.57   99.44
   4  -8  -2  612.35  114.45
   4  -8  -2  686.75   95.38
   4  -8  -2  765.53   80.77
   4  -8  -2  747.74   80.20
  -4   8   2  662.94  124.36
   2  -8   3  196.41   33.66
   2  -8   3  190.45   91.77
  -2   8  -3  159.05   86.21
   2  -8   3  181.63   89.64
  -2   8  -3  164.36   41.68
   2  -8   3  163.56   89.14
   3   3  -8  762.22   98.58
  -3  -3   8  641.85   24.62
  -3  -3   8  481.71  102.29
  -3  -3   8  693.04   30.81
  -3  -3   8 1099.18  138.50
   3   3  -8  816.05  143.30
  -3  -3   8  637.82  141.77
   2  -7   543209.21 1462.10
  -2   7  -546104.65  643.53
  -2   7  -543053.34  610.60
  -2   7  -546686.63 1078.99
   2  -7   546213.99 1026.83
  -2  -2  -512153.03  419.93
  -2  -2  -511325.03  395.92
   2   2   511411.94  203.58
   2   2   511286.60  203.11
   2   2   511507.17  400.36
   2   2   511335.19  427.14
   1   7  -3 1899.06  157.69
  -5  -3   614721.17  285.83
  -1  -7   3 1777.24  279.19
  -1  -7   3 1818.41  158.99
  -5  -3   614235.52  265.07
   1   7  -3 2437.53  188.52
  -5  -3   614696.59  296.83
  -5  -3   614562.86  356.88
  -1  -7   3 1760.22   89.15
  -5  -3   614967.10  334.81
  -1  -7   3 1875.07  148.74
  -5  -3   614642.83  301.50
  -7   0   3 2351.67  230.33
  -7   0   3 3282.33  251.89
   4   0   4 4406.63  260.96
   4   0   4 4148.66  116.24
   7   0  -3 2891.33   84.26
  -7   0   3 3151.29  104.90
   7   0  -3 3099.37   99.40
  -4   0  -4 4657.10  133.97
   4   0   4 4686.66  275.94
  -7   0   3 3142.58   93.23
  -4   0  -4 5107.33  279.30
  -4   0  -4 4483.21  252.15
  -3   4  -6  687.18   98.28
  -3   4  -6  746.23   62.40
  -3   4  -6  882.88  164.72
   3  -4   6  869.60  151.93
  -3   4  -6  818.27  133.60
   3  -4   6  935.81  166.06
  -7   0   544640.46  753.37
  -7   0   544395.15  845.41
  -1  -7   2 2101.41  167.63
   1   7  -2 1662.29  130.98
  -1  -7   2 1910.92  109.50
  -7   0   543233.41  958.50
  -1  -7   2 1851.70  163.31
  -7   0   543300.86  925.85
  -7   0   545027.07 1066.53
  -1  -7   2 2019.44  118.27
   1   7  -2 1847.96   72.65
   7   0  -543030.65  822.80
  -7   0   542681.11  645.17
   3  -8   334650.47  835.47
  -3   8  -335372.98 1064.04
  -3   8  -332573.57  668.29
   3  -8   336188.37  558.89
  -3   8  -334814.51  810.98
   3  -8   335161.09 1027.31
   3  -8   334965.46 1042.12
  -5   8  -129527.06  601.19
  -5   8  -129872.81  712.95
   5  -8   128225.92  698.98
   5  -8   128773.53  571.58
   5  -8   129390.54  548.26
   5  -8   128256.67  561.66
  -5   8  -127903.66  569.17
   5  -4   417592.04  449.86
  -5   4  -419152.46  540.87
  -5   4  -419306.31  433.96
  -5   4  -419079.56  465.85
  -5   4  -419035.66  420.06
   5  -4   418488.78  729.58
   3   5  -616323.24  368.90
  -3  -5   616793.41  570.96
  -3  -5   616401.60  394.61
  -3  -5   616818.79  235.11
  -3  -5   616088.76  419.60
  -3  -5   616469.67  218.44
  -6  -2   3 2512.72  212.39
  -6  -2   3 1878.79   67.58
   6   2  -3 1729.58  155.37
  -6  -2   3 1929.49   79.96
  -6  -2   3 1949.77  181.39
  -6  -2   3 2049.25  181.57
   6  -4  -725365.21  592.89
   6  -4  -726146.99  891.72
  -6   4   726312.26  645.12
  -6   4   726970.29  615.05
   6  -4  -725672.63  359.71
  -6   4   726380.20  320.30
   7  -6   021052.00  496.66
   7  -6   020258.40  527.02
   7  -6   020138.78  541.00
   7  -1  -145077.97  794.82
  -7   6   020679.51  379.90
  -7   1   147782.36 1183.33
  -7   1   148538.20  823.23
  -7   1   149586.01  980.76
  -7   6   020971.03  521.98
  -7   6   020416.19  790.29
   7  -1  -145202.47  763.60
  -7   1   143969.78 1526.24
  -6  -2   5 2844.97  162.07
  -6  -2   5 2636.29  147.66
   5  -8  -2  946.96   75.71
   5  -8  -2  952.53  215.19
  -5   8   2  907.48  134.95
  -6  -2   5 2876.75  198.35
  -6  -2   5 2723.31   99.50
  -6  -2   5 2797.02  158.05
   5  -8  -2  859.89  122.45
  -6  -2   5 2771.00  204.66
  -5   8   2  977.30  124.54
   5  -8  -2  876.98  128.88
   1   2   648350.89  881.95
  -1  -2  -644727.36 1011.24
   1   2   646808.53  865.43
   1   2   646539.17 1133.64
   1   2   649631.81 1089.75
  -1  -2  -649439.50 1511.03
   0  -7   5 1010.03  144.60
   0  -7   5  974.28  141.79
   0  -7   5  988.81   29.32
   0   7  -5  931.50   35.72
   0   7  -5  929.88  124.34
   0   7  -5 1028.43  146.50
   0  -7   5 1023.12  142.66
  -4   5  -5 5926.08  525.75
   4  -5   5 6119.16  296.34
  -4   5  -5 5916.68  154.36
  -4   5  -5 5979.27  276.16
   4  -5   5 5501.67  284.74
  -4   5  -5 6094.26  145.83
  -1   0  -727449.62  706.28
  -1   0  -724417.05  515.03
   1   0   725977.80  565.92
   1   0   726803.21  565.06
  -1   0  -725094.57  570.88
   1   0   725923.10  725.48
  -1   8  -2  395.01   82.55
   1  -8   2  564.85  110.84
   1  -8   2  474.95  105.15
   1  -8   2  471.48  113.25
  -1   8  -2  449.25   71.21
   1  -8   2  482.63   75.87
   2  -6   6 7420.62  316.20
   2  -6   6 7493.29  369.76
  -2   6  -6 7785.62  334.57
  -2   6  -6 7381.58  354.96
  -5  -1   827903.07  547.51
  -5  -1   828082.75  944.37
  -5  -1   829193.31  696.25
  -5  -1   826886.77  518.01
   5   1  -827198.46  492.32
   5   1  -825208.20  416.11
   6  -7  -420432.18  521.52
   6  -7  -420446.27  296.33
  -6   7   420733.47  559.15
  -6   7   420411.86  517.34
   6  -7  -419518.62  286.90
   6  -7  -419578.62  491.69
  -7   2   0  870.88   76.39
   7  -2   0  768.23   80.40
  -7   2   0  925.12  167.21
  -7   2   0  876.00  106.60
   7  -2   0  814.74   73.02
  -7   2   0  768.95  172.65
   2   5  -765635.29 1452.75
   2   5  -769608.06 1779.43
  -2  -5   766892.23 1558.08
  -2  -5   768725.38 1452.60
   1  -5   7  716.51  154.23
  -1   5  -7 1187.00  307.07
  -1   5  -7  897.95  168.38
   1  -5   7  830.44  173.56
   1  -6  -4 6332.60  127.25
  -1   6   4 6408.18  124.30
  -1   6   4 6138.81  131.78
   1  -6  -4 6600.75  528.68
  -1   6   4 6365.24  310.79
  -1   6   4 6112.81  243.39
   1  -6  -4 6284.77  244.92
   0  -2   8 3874.24  443.73
   0  -7  -1    2.62   15.07
   0   2  -8 3933.32  246.49
   0  -2   8 4324.17  109.82
   0  -2   8 4801.51  428.34
   0   7   1  273.88  126.31
   0   2  -8 4055.65  431.28
   0   7   1  642.38  108.76
   0  -7  -1    7.02  114.74
   0  -7  -1   88.79   60.88
   0   2  -8 3850.81   92.40
   1  -8   1 5855.70  151.54
  -1   8  -1 5533.31  207.35
   1  -8   1 5908.59  251.29
  -1   8  -1 5790.32  281.87
   1  -8   1 6119.57  182.04
   1  -8   1 5535.37  247.29
  -5   3  -419645.93  447.09
   5  -3   417823.69  508.48
   5  -3   417903.68  410.05
  -5   3  -420656.21  573.28
  -5   3  -419005.56  653.48
  -5   3  -420094.24  487.66
   3   3   3 4809.33  256.06
  -3  -3  -3 5198.02  266.96
   3   3   3 4880.91  521.82
  -3  -3  -3 4768.19  316.69
   5  -5   4  322.59  108.35
  -5   5  -4  151.52  126.07
   0   6   316441.73  217.21
  -5   5  -4  468.09   76.90
  -5   5  -4  333.38  111.75
   5  -5   4  224.65  193.32
   0   6   316490.86  509.21
   0   6   316130.41  432.10
   0   6   316200.95  279.47
   0  -6  -315899.62  427.70
  -5   5  -4  467.01  123.92
   0  -6  -316028.13  515.52
  -3   7   4   90.05   92.41
   3  -7  -4   24.63   60.27
   3  -7  -4  183.60   50.68
  -3   7   4  124.48   56.08
   3  -7  -4  145.67  173.00
  -3   7   4   23.73   51.53
  -4   7  -4 1228.98   62.89
  -4   7  -4 1312.95  283.80
  -2   8   111474.26  360.87
  -2   8   111328.17  311.96
   2  -8  -111321.45  317.70
  -4   7  -4 1219.07  296.25
  -4   7  -4 1209.52   65.79
   3  -2   6   33.07   92.96
   2  -8  -111569.42  228.90
   4  -7   4 1249.01   61.31
   4  -7   4 1447.03  148.58
  -2   8   111580.18  378.00
   3  -2   6   10.79   66.05
   4  -7   4 1026.01  188.37
  -3   2  -6   53.42   56.75
  -3   2  -6  126.62   96.01
  -3   2  -6   -8.36   67.44
   2  -8  -111418.24  323.15
   2  -8  -111834.08  332.27
   3  -2   6   75.90   57.00
  -3   2  -6   72.64   53.01
  -1  -7   4 2205.68  132.96
   1   7  -4 2054.63  118.60
  -1  -7   4 2305.74  173.97
  -1  -7   4 2304.51   70.81
   1   7  -4 2288.69  144.78
  -1  -7   4 2079.23  178.52
  -6  -1   713529.04  232.90
  -4   2  -511952.48  305.84
   4  -2   511464.15  682.81
   4  -2   511612.80  458.23
  -4   2  -511779.71  483.74
  -6  -1   713519.39  277.23
   6   1  -712875.76  334.35
  -4   2  -512134.81  425.17
   4  -2   511909.66  346.82
  -4   2  -512321.61  343.96
  -6  -1   713194.13  270.31
  -6  -1   713406.78  339.51
  -6  -1   713113.87  354.77
  -6  -1   713993.81  376.39
  -5   7  -3  868.55  152.23
   5  -7   3  708.93  167.40
  -5   7  -3  933.74   83.11
   5  -7   3  935.21   74.94
   5  -7   3  724.17  120.08
  -5   7  -3  690.11  132.38
  -3   8   250513.24  999.82
   3  -8  -252677.36 1103.18
  -3   8   251798.69 1151.20
   3  -8  -250760.76 1014.07
   3  -8  -252389.97  975.96
  -3   8   252152.33 1008.52
   3  -8  -250294.52 1004.84
   3   2   4 3968.33  115.24
  -5  -3   1  300.26  128.11
   5   3  -1  197.56  115.13
  -5  -3   1  624.64  153.05
  -5  -3   1   72.18  136.05
   3   2   4 4551.14  265.39
   5   3  -1   84.28  124.35
   3   2   4 4413.08  279.34
  -3  -2  -4 4512.73  456.75
  -3  -2  -4 4573.85  290.93
   3   2   4 4162.70   79.52
   0   3  -8 6195.90  319.33
   0  -3   8 6816.14  329.62
   0  -3   8 6126.29  522.42
   0   3  -8 6616.15   94.33
   0  -3   8 6631.19   97.69
   0   3  -8 6667.31  561.53
   1  -8   3 3290.05  212.47
  -1   8  -3 3344.15  173.77
   1  -8   3 3575.62   91.46
   1  -8   3 3299.97  171.32
   1  -8   3 3496.43  210.12
  -1   8  -3 3415.17  182.20
   7  -7  -2  363.73   69.47
  -7   7   2  318.59  111.40
   7  -7  -2  358.39  105.08
  -7   7   2  280.68  111.14
   7  -7  -2  308.33  118.09
   3   5   0 3260.33  249.02
   3   5   0 3439.62  199.71
  -3  -5   0 3764.23  358.12
  -3  -5   0 3758.12  448.03
  -1  -7   1 8937.93  123.06
  -1  -7   1 8858.78  320.22
   8  -4  -3  213.60   83.24
  -8   4   3  171.85   82.09
   1   7  -1 8136.21  290.81
  -1  -7   1 9417.86  288.60
   1   7  -1 8634.89  135.95
   1   7  -1 8677.66  490.62
  -1  -7   1 8788.66  510.07
  -8   4   3  273.42  119.97
   8  -4  -3  178.41  111.96
  -4   3   827591.97  637.52
  -4   3   828466.76  675.60
   4  -3  -825900.44  515.96
   4  -3  -826340.57  585.68
  -4   3   828173.89  806.90
  -4   3   827984.61  980.42
  -3   5  -6  527.13   43.54
   3  -5   6  396.96  251.18
   3  -5   6  536.35  142.97
  -3   5  -6  377.00   67.78
  -3   5  -6  539.82  127.42
  -3   5  -6  245.92  152.82
   1   4  -811497.29  609.95
  -1  -4   811614.46  391.94
   1   4  -810644.32  415.18
  -1  -4   812051.42  462.68
   0   1  -8 2433.49  200.51
   0   1  -8 2192.63  342.52
  -8   4   4 6660.23  319.55
   0  -1   8 2552.47  109.09
   0  -1   8 3053.50  197.82
   0   1  -8 2208.90   96.25
   0  -1   8 2445.20  219.35
   8  -4  -4 6664.19  253.95
   8  -4  -4 6766.90  303.84
  -8   4   4 6662.30  248.88
  -7   0   2 5412.18  312.94
  -7   0   2 5780.67  171.59
   7   0  -2 5397.39  211.77
  -7   0   2 5588.83  328.70
  -7   0   2 5861.91  175.15
   7   0  -2 5114.49  175.57
  -2   2   8  221.78  182.11
  -2   2   8  256.48  176.03
   2  -2  -8  216.34   87.88
  -2   3  -728666.62  796.96
   2  -2  -8  648.01  105.69
  -2   3  -728398.85  480.93
  -2   2   8  346.43   84.01
  -2   2   8  387.01   96.69
   2  -3   729046.19 1111.14
  -2   3  -730084.31  508.29
   2  -3   729039.60  722.15
  -2   3  -729737.46  728.22
  -5   3   870127.09 1592.15
   2   5   2 8798.64  322.34
  -2  -5  -2 9331.94  332.52
  -2  -5  -2 9156.32  409.34
  -5   3   871818.41 1481.32
   2   5   2 8839.28  638.34
  -5   3   871763.30 1258.04
  -5   3   870987.28 1924.01
   5  -3  -862461.63 1124.74
   5  -3  -867584.49 1677.17
  -7   4  -133739.19  818.22
  -7   4  -133023.01  833.08
  -8   3   4 1359.30  120.41
   7  -4   129741.79  620.35
   7  -4   131007.14  646.97
   8  -3  -4 1460.70  126.50
  -7   4  -135250.72  729.15
   8  -3  -4 1313.37  178.38
  -8   3   4 1343.76  178.41
  -7   4  -133754.87  684.94
   7  -7  -117147.82  434.64
   7  -7  -116582.95  304.19
   7  -7  -116633.16  486.53
  -7   7   117195.80  374.48
  -7   7   117029.04  472.88
  -7   7   117668.22  490.15
   7  -7  -116585.54  354.03
  -2   5   6 1377.02  282.97
   2  -5  -6 1305.50  126.23
   2  -5  -6 1053.44  171.51
  -2   5   6 1318.87  122.56
  -2   5   6 1008.72   94.42
  -2   5   6 1172.00   88.36
  -7   2   7 1674.78  152.96
   7  -2  -7 1432.77  152.06
  -7   2   7 1380.06  126.02
   7  -2  -7 1428.43  140.46
  -7   2   7  557.62  266.16
  -8   3   310875.74  430.30
  -5  -1  -2 7403.24  361.02
  -8   3   311276.15  428.60
  -8   3   310885.33  280.81
   8  -3  -311101.38  400.85
   5   1   2 6485.57   83.77
  -5  -1  -2 6857.60  467.98
  -2  -6   018343.52  488.22
   5   1   2 6865.34  271.98
  -5  -1  -2 6755.67  131.95
  -2  -6   019525.46  547.56
   5   1   2 6573.97  358.22
  -8   3   310626.29  189.10
   2   6   017720.29  521.72
  -5  -1  -2 6795.13  368.52
   2   6   017303.35  456.96
   8  -3  -310245.11  280.57
   2   4  -8  835.27  154.90
   2   4  -8  802.10  219.25
  -2  -4   8  769.99  130.71
  -6   0  -114651.48  516.11
   6   0   113482.16  350.31
  -6   0  -114917.88  298.38
  -6   0  -114380.51  515.96
  -2  -4   8  842.07  166.41
  -6   0  -114750.65  609.99
   6   0   113563.76  196.92
  -7   5  -160365.14 1273.87
   7  -5   153816.57 1158.66
   7  -5   153102.57 1259.21
  -7   5  -158666.67 1344.52
  -7   5  -158609.44 1191.19
  -7   5  -159004.14 1619.07
   7   0  -6  631.58  124.71
  -1   3   744229.75  961.16
  -1   1   8 4191.85  252.52
  -7   0   6  683.79  168.20
   1  -1  -8 4504.76  240.51
  -1   1   8 4372.72  229.73
  -7   0   6  578.42   99.30
  -1   1   8 4520.87  176.01
  -1   3   742550.91  992.99
  -1   1   8 4864.94  212.30
   1  -1  -8 4095.18  168.00
  -1   3   742668.30  826.53
  -7   0   6  616.42   32.51
  -7   0   6  606.43   88.73
  -1   3   741741.72  855.45
   1  -3  -740224.19  920.77
  -7   0   6  656.70  130.49
   1  -3  -742838.11  994.01
  -6  -2   2 3179.00  268.43
  -6  -2   2 2952.33   56.45
   6   2  -2 2724.63  127.71
  -6  -2   2 2986.91  146.34
   6  -8  -1 1528.26  146.22
   6  -8  -1 1442.71   80.71
  -6  -2   2 3092.11   47.20
  -6   8   1 1127.11  142.02
  -6   8   1 1527.04  161.39
  -6  -2   2 3071.26  234.15
   6  -8  -1 1447.91  134.85
   6  -8  -1 1467.02  290.00
  -7   7   3 1591.47  185.92
  -7   7   3 1969.81  179.76
  -6   1   813808.40  645.48
  -6   1   813485.04  268.83
  -6   1   813358.75  217.23
   7  -7  -3 1587.90  177.94
   7  -7  -3 1693.18   45.03
  -6   1   813865.40  662.00
  -6   1   813392.91  295.79
   7  -7  -3 1734.75  171.39
   6  -1  -812939.25  323.03
   7  -7  -3 1809.40   52.89
   6  -1  -813333.26  218.35
  -6  -2   6 6454.02  257.28
  -6  -2   6 6522.17  145.34
  -6  -2   6 6485.69  152.25
  -6  -2   6 6412.47  186.54
  -6  -2   6 6330.96  177.94
  -6  -2   6 6546.28  217.37
   7  -5  -6 8834.49  326.97
   7  -5  -6 8673.30  333.32
  -7   5   6 8712.02  332.62
  -7   5   6 9162.45  332.01
  -7   6   5 4034.93  239.80
  -7   6   5 3034.44  220.21
   7  -6  -5 3195.42  222.08
   7  -6  -5 3257.17  211.35
   5  -6  -6   56.24   33.48
   5  -6  -6    6.27   64.24
  -5   6   6  -74.49  141.89
   5  -6  -6    5.90   80.75
  -5   6   6   34.27   29.36
  -5   6   6   77.89   68.61
  -4   8  -339396.01  923.94
  -4   8  -338181.70  848.82
  -7   3   7 3433.63  211.71
   7  -3  -7 3582.76  205.87
  -7   3   7 3506.21  219.83
  -4   8  -335576.88  622.72
   7  -3  -7 3637.31  216.46
   4  -8   339331.55  644.05
   4  -8   336808.73  940.26
   4  -8   338635.80  833.28
  -7   3   7 3246.52  318.95
   6  -2  -8  307.03   70.27
  -6   2   8  177.68   67.39
   6  -2  -8   91.45   31.34
  -6   2   8  171.32  105.38
  -6   2   8  261.09  178.14
  -8   5   3  480.10  184.03
   2  -6  -545035.71  794.14
  -2   6   544591.49  917.10
  -8   5   3  335.14  133.60
   2  -6  -543450.05  900.83
  -2   6   545427.59 1076.13
   8  -5  -3  420.63  115.92
   8  -5  -3  244.78  102.40
   2  -6  -543742.11 1061.35
  -2   6   543609.48  797.30
  -2   6   544804.95  787.11
   2  -4   761670.94 1486.79
   2  -4   761939.99 1465.67
  -2   4  -761699.74 1543.42
  -2   4  -763660.68 1465.53
  -2   4  -761641.52 1109.46
  -2   4  -763746.69 1069.04
   0   2   714583.75  748.57
   1  -8   0  101.10   63.07
   1  -8   0   38.65  129.85
   1  -8   0   83.17  130.44
  -1   8   0  119.30   76.79
  -3   7  -521017.40  608.38
  -1   8   0   54.05   45.83
   3  -7   521606.76  563.66
  -3   7  -521335.04  895.27
   0   2   715262.84  410.27
   0  -2  -714651.19  471.12
   1  -8   0   36.11   32.66
   0  -2  -713363.75  384.98
   0   2   714326.90  498.16
   3  -7   519461.71  622.86
  -3   7  -520465.01  334.18
  -3   7  -521312.98  293.10
   0   2   714762.08  334.85
   3   4   2  199.68  111.15
   4   4   014998.38  523.30
  -4  -4   016644.78  438.04
   3   4   2  466.35  141.80
  -3  -4  -2  168.62  100.94
  -4  -4   016494.57  876.17
  -3  -4  -2  275.03  230.79
   4   4   015806.25  413.46
  -2   2  -7 9517.47  403.43
   2  -2   7 9386.91  631.63
  -2   2  -7 9200.34  219.04
   8  -4  -298811.05 1760.49
  -8   4   2 105925.   2510.
  -8   4   2 101142.   1879.
   8  -4  -2 100023.   2336.
   2  -2   7 9705.84  334.78
  -2   2  -7 9845.10  335.16
  -8   4   2 105626.   2255.
   2  -2   7 9712.36  245.22
   8  -4  -2 100243.   2163.
  -8   4   2 101574.   2470.
   6   1   0 8029.72   98.36
  -6  -1   0 8891.88  146.52
  -6  -1   0 8821.50  421.83
  -5  -2  -115354.06  565.58
   6  -8  -2 2530.00  173.82
  -5  -2  -115673.80  432.52
  -6   8   2 2510.85  194.35
  -6  -1   0 8851.94  277.39
   6  -8  -2 2448.24  186.87
  -6  -1   0 8788.41  404.35
   6   1   0 7996.81  244.18
   5   2   114849.15  612.31
   5   2   114714.68  863.06
  -6   8   2 2643.24  197.29
   6  -8  -2 2286.40   87.12
   6  -8  -2 2796.80  154.73
   5  -8   2  180.57  129.48
  -5   8  -2  135.40  115.80
   5  -8   2  141.35   52.03
  -5   8  -2  322.76   65.36
   5  -8   2  209.89  114.21
  -5   8  -2  159.05   87.57
   2  -8   4  194.63   24.04
   2  -8   4  152.03   98.77
  -2   8  -4  133.23   97.57
  -2   8  -4  120.35  105.35
   2  -8   4  132.61   99.90
   2  -8   4   72.63  109.42
  -2   8  -4  170.63   29.85
  -1  -6  -2 7847.83  307.51
  -6   8   0  957.62  125.27
   6  -8   0  748.58  158.34
   1   6   2 7604.31  490.07
   6  -8   0  949.72  106.59
   6  -8   0  878.68  139.03
  -6   8   0  955.67  154.32
   1   6   2 7498.19  353.68
   6  -8   0  918.59   85.14
  -1  -6  -2 8108.85  366.60
  -6   8   0 1078.89   88.52
   2   6  -6   65.20   64.90
  -2  -6   6    9.28    8.28
  -2  -6   6  130.39   63.64
  -2  -6   6    2.18   14.14
  -2  -6   6   38.61   60.79
  -2  -6   6  -87.90  103.20
   5  -8  -3  -21.39   35.52
  -6   4  -3 5114.61  226.62
   5  -8  -3   31.98   66.97
   6  -4   3 4671.46  212.21
  -5   8   3   24.59   63.93
  -6   4  -3 5348.35  243.44
   5  -8  -3   44.36   34.40
  -6   4  -3 4980.82  245.45
  -6   4  -3 5084.32  217.14
  -5   8   3   29.90   76.58
   6  -4   3 4692.82  227.98
   5  -8  -3   30.21   57.90
  -7   1   7 1397.70  148.10
   7  -1  -7 1473.20  241.27
  -7   1   7 1745.33  209.13
  -7   1   7 1439.57   29.60
  -7   1   7 1462.79  144.65
   8  -3  -5  703.49  115.08
   8  -3  -5  879.66  146.42
  -8   3   5  766.64  148.28
  -5   2  -456309.61 1316.20
  -8   3   5  853.00  115.66
  -5   2  -456121.06 1100.39
   5  -2   449045.73 1135.76
  -5   2  -455889.65 1562.92
   5  -2   449409.60 1156.96
  -5   2  -454178.46 1205.37
  -8   5   4 2558.96  185.07
  -4   6  -523375.93  397.30
   4  -6   522978.86  620.58
  -8   5   4 2544.16  221.53
   4  -6   522766.12  664.11
  -4   6  -523486.88  673.04
   8  -5  -4 2414.87  187.79
   8  -5  -4 2873.87  357.83
  -4   6  -523794.58  648.61
  -4   6  -523712.03  483.06
   7  -3   134715.50  674.56
  -7   3  -138062.93  811.33
   7  -3   133817.61  908.02
  -7   3  -137703.11  927.19
  -7   3  -137235.08  723.99
  -7   3  -137378.23  952.74
   5  -5  -7  564.97  121.34
   5  -5  -7  779.12   70.41
  -5   5   7  624.96  131.49
  -5   5   7  842.98  129.31
   5  -5  -7  740.31  134.74
  -5   5   7  711.53  117.10
  -5   6  -416204.37  340.84
   5  -6   415106.82  762.39
   5  -6   415924.89  474.38
  -5   6  -416069.73  326.85
  -5   6  -415769.33  504.69
  -5   6  -416596.17  746.74
  -6   7  -264940.06 1356.42
  -6   7  -268164.84 1531.63
   6  -7   264152.60 1378.15
   6  -7   268230.28 1347.71
   6  -7   264031.75 1515.06
  -6   7  -266115.61 1399.66
   4  -8  -332785.81  759.27
  -4   8   332373.83  609.52
  -4   6   622697.43  423.54
  -4   8   333306.27  893.60
  -8   5   2 2201.98  163.64
  -4   8   333499.27  800.81
   4  -8  -331888.39  603.97
  -8   5   2 2177.94  219.54
   4  -6  -622359.48  610.12
   4  -6  -622539.93  479.39
   4  -8  -332978.13  849.93
  -4   6   622636.69  723.08
   8  -5  -2 1783.74  165.86
   8  -5  -2 1886.02   49.91
   4  -8  -332248.08  608.90
   8  -5  -2 2273.56  194.22
  -8   5   2 1983.44   82.82
   4  -6  -622174.05  434.68
  -4   6   623725.07  623.55
  -2  -1  -6 6226.83  271.37
   2   1   6 5577.98  339.56
   2   1   6 5889.31  176.00
  -2  -1  -6 6384.93  346.16
   2   1   6 6511.80  279.44
  -2  -1  -6 6304.22  181.74
   2   1   6 5976.61  170.24
  -4  -4   7  643.02   87.80
  -4  -3   8 3661.39  163.37
  -4  -3   8 3478.32   58.20
  -4  -4   7  529.78   78.90
   4   3  -8 3710.51  151.29
   4   4  -7  836.75  107.03
  -4  -4   7  640.21   34.52
  -4  -4   7  796.30   95.06
  -4  -3   8 3639.42  371.34
  -4  -3   8 3225.85  229.84
  -4  -3   8 3527.32  143.83
  -4  -3   8 3435.80  121.70
  -6   5  -337234.73 1147.79
   6  -5   334166.62 1085.18
  -6   5  -337794.53  847.19
  -4  -4   7  783.64  122.57
  -6   5  -337565.66  798.81
  -6   5  -337115.02  809.65
  -4  -4   7  839.23  103.84
   6  -5   335822.11  806.86
  -3   3   8 7918.52  271.91
  -3   3   8 7338.83  259.00
   3  -3  -8 7325.16  396.14
  -3   3   8 7572.21  300.73
   3  -3  -8 6993.68  259.02
  -3   3   8 7373.74  384.73
  -8   4   540366.33  948.42
   8  -4  -540422.52  885.92
  -8   4   540403.28  877.33
   8  -4  -541468.54  965.52
   5   0   3 2199.38   75.39
   0  -4   825974.88  752.29
  -5   0  -3 2356.08  222.31
  -5   0  -3 2310.11   81.35
  -5   0  -3 2413.07  226.50
  -5   0  -3 2336.10  217.33
   5   0   3 2084.07  228.36
   5   0   3 2306.91  203.81
   0  -4   825100.96  688.41
   0   4  -823942.40  694.92
   0   4  -824898.40  703.50
  -6   1  -217411.37  841.87
  -6   1  -217624.00  559.78
   6  -1   216202.02  645.67
   6  -1   215734.38  371.29
  -6   1  -217447.40  308.28
  -6   1  -217187.22  491.49
  -4  -5   411668.17  320.62
  -2   4   766889.53 1481.03
  -2   4   764836.68 1597.91
   2  -4  -762375.72 1409.37
   4   5  -4 2859.02  156.47
  -4  -5   412150.54  327.10
  -2   4   767293.09 1438.58
  -4  -5   411201.20  440.81
  -4  -5   412087.94  305.18
  -2   4   766122.60 1327.16
  -4  -5   411800.48  312.17
   2  -4  -765466.23 1431.63
  -4  -5   411608.50  174.10
  -8   2   4 113349.   2412.
   8  -2  -4 108351.   2566.
   8  -2  -4 106862.   2527.
  -8   2   4 114154.   2006.
  -8   2   4 115209.   2787.
  -8   2   4 109001.   3102.
  -8   2   4 113097.   2080.
   6   0  -8 2925.85  143.73
  -6   0   8 2852.35  104.29
  -6   0   8 3050.79  118.19
  -6   0   8 2841.67  208.86
  -6   0   8 3147.55  162.78
  -6   0   8 2872.65  203.38
   3   1   5 4957.37  197.31
   3   1   5 5150.61  321.47
  -3  -1  -5 5519.08  283.19
  -3  -1  -5 5274.17  136.41
   3   1   5 5825.06  482.12
  -3  -1  -5 5487.43  326.03
  -8   3   2 5395.18  122.73
   8  -3  -2 4963.56  182.25
  -1  -7   5 3467.23  196.51
  -8   3   2 4959.74  560.43
  -8   3   2 5085.66  296.74
  -8   3   2 5554.15  522.13
   8  -3  -2 5204.54  141.49
  -1  -7   5 3499.86  214.24
  -1  -7   5 3226.31  209.67
   1   7  -5 3244.57  172.13
  -1  -7   5 3328.80   67.88
   1   7  -5 3542.87   71.34
  -1  -7   5 3566.94   59.23
  -5  -3   746056.78 1275.09
  -5  -3   744479.55  830.29
  -5  -3   745473.21  825.87
   6  -6  -6  642.35  132.21
  -5  -3   745441.02  913.35
   6  -6  -6  499.46   31.60
   6  -6  -6  505.38  116.22
  -5  -3   745876.48  861.76
  -6   6   6  632.36  134.83
   6  -6  -6  558.56   40.02
  -6   6   6  542.60   31.10
  -5  -3   744439.76  987.47
  -6   6   6  562.20  123.59
  -3   1  -681037.86 2388.64
  -3   1  -677322.78 1901.15
  -1   8  -415530.34  246.59
  -3   1  -675699.32 1627.08
   3  -1   679035.03 2027.98
  -1   8  -416344.89  438.65
   1  -8   416093.65  710.34
   1  -8   415143.12  686.12
   3  -1   675041.31 1570.89
   3  -1   673803.99 1794.06
   1  -8   416378.03  224.07
   1  -8   415919.49  720.24
   5  -7  -537319.94  784.01
  -5   7   537659.16  810.80
   5  -7  -537506.83  644.99
  -5   7   538525.87  643.27
  -5   7   538079.82  912.15
   5  -7  -538514.07  645.69
   5  -7  -537559.63  894.93
  -4  -5   3   57.63   64.63
   4   5  -3   31.52   76.53
  -4  -5   3  112.92   68.19
  -4  -5   3   31.19   14.83
  -4  -5   3   92.73  122.19
   4   5  -3  103.30   66.43
  -4  -5   3   70.74   64.72
  -7   7   015395.14  463.71
  -7   7   014792.10  292.79
  -7   7   015090.82  435.92
   7  -7   015163.77  476.06
   7  -7   016160.35  601.66
   7  -7   014990.07  321.96
  -4   5   721592.76  559.55
   4  -5  -721021.95  490.57
   4  -5  -720634.87  423.52
   7  -6   110488.13  321.99
  -4   5   720327.96  503.95
  -3  -1   9  296.13   38.06
  -7   6  -110537.30  273.91
  -7   6  -110063.15  355.44
  -7   6  -110507.46  331.20
   7  -6   110180.62  275.31
  -4   5   721335.50  398.62
   3   1  -9  460.72   93.86
   7  -6   1 9565.25  362.85
  -3  -1   9  397.70  126.45
  -3  -1   9  231.05  135.69
  -3  -1   9  243.47   97.83
   4  -5  -719872.45  840.00
  -4   5   720556.40  476.05
  -7   6  -110582.31  580.67
   3   1  -9  345.06   44.33
  -5  -2   8 5362.41  248.03
  -5  -2   8 5197.62  108.07
  -5  -2   8 4984.68  219.78
  -5  -2   8 5302.11  165.74
  -5  -2   8 5528.78  263.03
   5   2  -8 2792.33  105.39
  -5  -2   8 5252.51  152.51
  -3   8  -4 5926.43  288.76
   3  -8   4 5750.08  100.25
   3  -8   4 5524.40  312.01
   3  -8   4 5824.87  261.36
  -3   8  -4 5868.42  298.05
   3   0  -9   29.42  111.29
  -3   0   9 1882.21  190.56
  -8   2   326231.07  511.74
  -8   2   325450.77  493.78
  -3   0   9 1654.29  206.99
  -3   0   9 1676.36  140.40
  -8   2   324912.06  731.08
   8  -2  -323806.58  327.56
  -8   2   325967.11  743.07
  -3   0   9 1628.19  147.86
   8  -2  -324390.34  477.89
   0   6  -722096.61  630.94
   0  -6   722892.51 1025.65
   0   6  -723765.71  643.48
   0  -6   723234.70  614.47
  -6   3   8  390.41  130.69
   6  -3  -8  478.65  105.09
  -6   3   8  402.52  125.22
   6  -3  -8  495.81   26.98
  -6   3   8  580.82  167.77
   0   0   8  187.42  105.08
   6  -3   327004.74  556.80
   0   0   8  111.76   79.43
   0   0  -8  141.48  104.54
   0   0  -8   95.59   59.68
   0   0   8  215.68   86.67
  -6   3  -330275.19  746.41
   0   0   8    7.02   58.76
   0   0  -8  275.09   93.46
  -6   3  -329883.64  620.28
  -6   3  -329623.65  722.19
   6  -3   325787.37  652.32
  -6   3  -331420.86  746.29
   4   0  -911650.81  275.62
  -4   0   912831.11  329.50
  -4   0   912867.61  238.07
  -4   0   912771.76  462.14
   4   0  -911936.17  242.34
  -4   0   912273.33  445.54
  -8   2   538648.05  906.37
  -5  -4   415112.92  346.20
  -5  -4   414467.29  378.95
  -5  -4   415194.87  419.41
   8  -2  -537768.75  785.56
  -5  -4   414698.96  255.97
  -5  -4   414427.10  342.10
  -5  -4   414727.29  207.96
  -8   2   537036.76  933.90
  -8   2   539870.01  795.10
   8  -2  -538945.60 1278.83
   3   6  -3  112.95   74.86
  -3  -6   3  110.35   92.03
  -3  -6   3  217.96   26.29
  -3  -6   3  200.43   40.21
  -3  -6   3  109.04   92.46
  -3  -6   3  196.03   80.60
  -4   1  -5  775.29   93.78
   4  -1   5  853.74  325.30
  -4   1  -5  926.84  137.46
  -4   1  -5  851.85  128.40
   4  -1   5 1251.55   92.28
   4  -1   5  838.53  151.63
  -4   1  -5  840.56  172.72
  -3  -6   4 6560.84  296.09
  -3  -6   4 5976.38  186.17
   3   6  -4 6271.56  125.47
  -3  -6   4 6126.74  248.79
   7  -4  -718025.01  489.58
  -3  -6   4 6287.56  128.30
  -3  -6   4 6338.32  252.61
   3   6  -4 5912.16  190.62
  -7   4   718809.27  483.23
  -7   4   717976.94  517.91
  -3  -6   4 6373.58  152.07
   7  -4  -718080.79  510.41
   4   2   3 3652.37  486.57
   4   2   3 3802.56   54.97
   4   2   3 3706.31   55.94
   4   2   3 3721.48  247.95
  -4  -2  -3 4140.22  258.70
  -4  -2  -3 4830.00  526.21
   1   7   0  460.17  117.92
  -1  -7   0  460.24  121.55
  -1  -7   0  457.85   17.59
   1   7   0  440.63  125.62
  -1  -7   0  413.88  122.44
  -3  -4   8 3172.62  418.72
   1  -7  -368649.92 1607.33
   7  -7  -4 6409.92  121.44
   3   4  -8 3701.77  230.43
   3   4  -8 3504.94  182.79
   7  -7  -4 6422.12  292.42
   1  -7  -367231.30 1443.95
  -1   7   367219.27 1581.84
   7  -7  -4 6500.56  131.40
  -7   7   4 6658.78  294.77
   1  -7  -367069.12 1239.95
  -3  -4   8 3545.21  185.55
   7  -7  -4 6935.26  297.96
  -1   7   366065.26 1157.07
  -1   7   366654.64 1744.93
  -7   7   4 6507.39  316.60
  -6   5   725917.54  345.80
   6  -5  -723736.35  367.29
  -6   5   725981.37  655.06
  -6   5   727202.25  648.14
   6  -5  -725987.42  628.20
   6  -5  -725538.29  636.10
   7   1  -432218.90  631.68
  -7   1   042913.15  907.70
  -4  -5   5 1891.75  110.10
  -4  -5   5 1809.13  138.50
  -4  -5   5 1855.19  129.60
  -7  -1   435946.04  924.46
  -7  -1   432626.50  806.60
  -7  -1   435375.98  597.71
   7  -1   038679.76  737.42
  -7  -1   434269.41  554.15
  -7   1   041369.88  812.25
  -4  -5   5 1612.53  182.99
  -4  -5   5 1744.05   96.01
  -4  -5   5 2061.26  139.69
  -7  -1   434207.32  691.55
   7  -1   039084.77  649.00
  -7   1   041110.10 1056.38
  -7   1   039320.20 1050.92
  -7  -1   434233.09  603.81
   1  -7   617678.24  509.05
  -1   7  -617249.83  797.47
  -1   7  -617541.67  543.30
   1  -7   616432.10  569.34
  -4   7   5   80.04   72.71
   4  -7  -5   79.85   94.62
   4  -7  -5  115.86   58.33
   4  -7  -5   32.02   49.42
  -4   7   5   25.58   63.40
  -4   7   5  -36.34   46.43
  -2   8   219325.83  369.18
   2  -8  -220193.20  525.48
   2  -8  -219189.13  466.32
  -2   8   219370.48  552.49
  -2   8   218813.42  456.70
   2  -8  -219360.59  477.12
   2  -8  -219384.13  336.30
  -3  -5   7   87.88   63.93
   3   5  -7    0.81   49.25
  -3  -5   7  -61.82   94.21
  -3  -5   7  -54.89   51.13
  -3  -5   7   -5.20   11.14
  -2   5  -713909.65  172.08
  -2   5  -714417.12  550.73
   2  -5   714105.75  527.54
   2  -5   714234.62  503.64
  -2   5  -714031.09  757.65
   6  -8  -323293.48  576.55
   6  -8  -323381.19  846.53
   6  -8  -322211.03  461.65
  -1  -1  -7 1099.10  111.59
   1   1   7 1118.99  110.94
  -1  -1  -7 1005.52  182.85
  -6   8   323749.40  594.34
  -1  -1  -7 1049.14  128.53
   6  -8  -323306.76  383.20
   1   1   7 1055.38  103.06
  -6   8   323855.28  628.33
   1   1   7  954.11  192.12
  -3   6  -6 3589.90   71.17
   4   1  -9 9810.26  189.43
  -4  -1   910281.72  409.42
   4   1  -9 9506.90  242.08
  -4  -1   910246.50  402.08
  -3   6  -6 3770.85  260.20
   3  -6   6 3870.98  291.19
  -4  -1   9 9421.65  294.51
  -3   6  -6 3703.00   68.87
  -4  -1   910420.55  172.44
   3  -6   6 3499.28  257.39
  -3   6  -6 3763.44  289.93
   0  -8   216486.33  725.94
   0  -8   217187.27  354.38
   0  -8   217222.81  308.34
   0   8  -216238.93  442.34
  -6   7   512276.59  376.91
  -7  -1   5  379.74   70.50
   0   8  -215380.06  521.92
  -2  -1   9 3330.94   92.51
  -7  -1   5  365.25  183.97
   6  -7  -511630.40  252.18
   2   1  -9 3009.67  214.14
  -2  -1   9 3675.08  416.22
   0  -8   216852.41  742.01
  -7  -1   5  295.16  138.47
  -2  -1   9 3240.37  214.92
   2   1  -9 3108.16  253.79
  -7  -1   5  407.19   45.63
  -2  -1   9 3251.93  265.46
  -6   7   511770.08  686.69
   2   1  -9 2906.99   89.63
   6  -7  -511985.73  652.40
   6  -7  -511847.65  363.43
  -7  -1   5  503.58   47.46
  -7  -1   5  383.92  101.54
   6  -7  -512138.73  248.38
   2  -1   7 2201.60  429.34
  -2   1  -7 2454.43  413.28
   8  -6  -343745.21  584.34
   8  -6  -345198.88 1024.29
   2  -1   7 2444.36  283.31
   6  -8   1 9984.72  259.57
  -2   1  -7 2640.23  172.61
  -8   6   344387.59 1085.66
   8  -6  -343095.51  995.75
   8  -6  -343664.88  599.78
  -2   1  -7 2584.27  140.69
   6  -8   1 8996.86  645.57
  -8   6   345886.79 1027.98
   2  -1   7 2808.35  160.70
  -6   8  -1 9559.40  293.53
   6  -8   1 9487.81  255.46
  -6   8  -110236.23  269.40
  -6   8  -110536.06  627.02
   5   4  -321498.32  458.95
  -5  -4   322933.32  505.63
  -5  -4   323599.10  506.71
  -5  -4   321996.86  573.44
  -5  -4   323050.74  610.49
  -5  -4   324009.13  307.17
  -5  -4   323167.81  301.39
   1   6  -722866.47  591.76
  -1  -6   722721.83  587.19
  -5  -4   531435.68  611.79
  -5  -4   530630.18  655.43
  -5  -4   528896.46  543.03
  -1  -6   721913.25  661.51
   1   6  -721541.43  587.51
  -5  -4   529177.57  579.94
  -5  -4   530080.19  598.85
  -5  -4   530751.58  489.25
   0   7  -6  325.83  112.98
   0  -7   6  435.36  250.31
   0   7  -6  365.58  125.55
   0  -7   6  514.52  131.06
   0  -7   6  475.80  131.57
   0  -8   383088.74 1861.17
   0   8  -374411.89 1639.30
   0   8  -376985.93 1550.24
   0  -8   378161.45 1733.18
   0  -8   380652.90 1802.33
   0  -8   381840.18 1510.00
  -2   7   4 7575.69  276.26
   2  -7  -4 8384.36  589.41
  -2   7   4 7788.40  264.23
  -2   7   4 8028.95  354.30
   4  -1  -9 6175.60  183.42
  -4   1   9 6854.90  177.71
   2  -7  -4 7526.25  260.26
  -4   1   9 6206.94  336.57
  -4   1   9 6221.36  211.11
  -4   1   9 6217.10  311.25
   2  -7  -4 7696.67  164.25
   4  -1  -9 5767.87  194.37
   8  -5  -5  994.80  150.05
   3   2  -9 2165.15   57.36
  -3  -2   9 2361.25   52.27
  -3  -2   9 2518.52  227.50
   8  -5  -5 1051.10  166.67
   3   2  -9 2378.37  154.81
  -8   5   5 1028.74  165.47
  -3  -2   9 2343.88  298.35
  -8   5   5 1008.67  148.25
   3   2  -9 2508.98  229.14
  -3  -2   9 2314.01  234.80
   6  -6   3 2496.35  183.90
  -6   6  -3 2514.88  147.10
  -6   6  -3 2825.00  199.06
  -6   6  -3 2690.10  207.81
  -6   6  -3 2388.67  268.08
   6  -6   3 2488.68  215.23
  -7   0   127625.08  793.63
   4   3   226428.80  666.37
   7   0  -125622.95  629.29
  -4  -3  -226651.69  820.05
   8  -4  -112920.46  227.98
  -7   0   127617.63  419.49
  -7   0   126932.32  565.44
  -8   4   113660.66  521.68
  -7   0   125149.18 1138.80
   7   0  -125077.32  381.64
   8  -4  -113063.26  452.90
   8  -4  -113020.50  519.09
   4   3   226022.63  801.48
  -4  -3  -228097.99  695.70
  -8   4   114030.11  528.82
  -8   4   114132.73  484.14
  -8   4   113151.51  353.21
   2   2  -919008.90  600.61
  -2  -2   918914.61  528.32
  -2  -2   918747.44  598.28
  -2  -2   920037.89  330.60
   2   2  -917782.21  508.48
   2   2  -918401.57  259.96
  -2  -2   918523.00  608.32
   1  -6   7 2205.19  211.18
  -1   6  -7 2277.75  227.43
  -1   6  -7 2247.05  410.52
   1  -6   7 2298.57  250.08
  -8   6   234926.42  496.74
  -8   6   234025.95  868.49
   8  -6  -235432.99  820.68
   8  -6  -232493.31  500.24
  -8   6   235695.02  807.67
   8  -6  -233713.54  472.43
   8  -6  -235514.07  816.89
  -8   5   1 2570.90  182.91
   8  -5  -1 2471.62  176.83
  -8   5   1 2819.96   94.57
   8  -5  -1 2329.07   88.07
   8  -5  -1 2674.94  212.05
  -8   5   1 2773.05  228.42
  -8   5   1 2519.43  250.93
  -4  -5   2 7316.02  320.80
   4   5  -2 5935.97  294.29
  -4  -5   2 6596.08  262.97
   4   5  -2 6283.66  242.10
  -3   8   3 2329.46  145.45
   3  -8  -3 2456.53  110.46
  -3   8   3 2356.66  213.34
   3  -8  -3 2093.51  201.51
   3  -8  -3 2221.20  145.05
   3  -8  -3 1962.97  141.74
  -3   8   3 2482.32  125.06
  -6  -2   125385.20 1144.63
  -6  -2   124212.97  527.42
  -7  -1   319522.23  507.98
  -7  -1   320025.94  636.94
  -6  -2   122708.78  696.24
   7   1  -317926.79  319.17
  -7  -1   319799.27  296.17
   6   2  -121957.68  658.95
  -7  -1   319367.01  409.50
  -7  -1   318996.51  880.01
  -5  -3   0  259.15   93.47
  -5  -3   0  168.81  144.80
   5   3   0  272.41   91.86
   5   3   0  131.80  246.79
  -7   0   732265.26  688.54
   7   0  -730812.32  729.09
  -7   0   732105.48  651.29
   8  -3  -6 4219.31  412.17
  -8   3   6 4213.49  236.53
  -7   0   732872.68  507.76
  -8   3   6 4189.72  219.84
   8  -3  -6 3898.38  218.71
  -7   0   732671.79  775.22
  -7   0   732610.14  985.98
  -7   0   732947.05  497.40
   3   6  -2   40.97   79.87
   0   7   2 9251.71  191.76
   0  -7  -210083.55  170.81
   3   6  -2  143.29   86.85
  -3  -6   2   60.44   83.42
  -3  -6   2   63.15   83.75
   0   7   2 9661.79  335.04
   0  -7  -210160.68  654.92
  -3  -6   2  119.88   82.80
   0  -7  -2 9929.16  349.73
   0   7   2 9989.65  397.04
   1  -8  -1 3971.23  224.94
   1  -8  -1 3772.60   94.67
  -1   8   1 3903.94  397.65
  -1   8   1 3910.11  211.41
  -1   8   1 3736.07  116.93
   1  -8  -1 3904.06  219.44
   1  -8  -1 4127.76  371.93
   4   1   430892.80  554.02
   4   1   432640.03  865.37
  -4  -1  -434823.67 1251.45
  -4  -1  -433516.89  624.82
  -4  -1  -435723.72  926.51
   4   1   432559.78  858.60
  -6  -2   7 2891.43  113.03
  -6  -2   7 2820.44  256.19
  -6  -2   7 3226.24  176.68
  -6  -2   7 3000.09   96.77
  -6  -2   7 3395.45  170.53
  -6  -2   7 3033.45  180.59
  -3   1   9  900.06  157.99
  -3   1   9 1138.51  127.43
  -3   1   9  939.43  178.09
   3   6  -513838.97  274.28
  -3   1   9 1072.23   91.31
  -3  -6   513813.90  384.81
   3  -1  -9   37.48  109.98
  -3  -6   514004.25  252.79
  -3  -6   513632.62  377.98
  -3  -6   513273.85  322.27
   3  -1  -9  984.19   81.20
  -3  -6   513227.61  335.86
  -1   3  -8 1970.69   63.08
   1  -3   8 2094.45  217.48
   1  -3   8 2059.66  231.03
  -1   3  -8 2191.65   69.80
   1  -3   8 2189.04   74.36
  -1   3  -8 2107.03  236.41
  -1   3  -8 2151.45  214.55
  -7   2  -1  783.69  201.26
  -7   2  -1  698.28  162.34
   7  -2   1  786.28  128.20
  -7   2  -1  678.49   76.46
   7  -2   1  881.45  183.75
  -7   2  -1  775.83  169.64
  -1  -4  -5 5573.57  333.39
  -1  -4  -5 5991.58  298.66
   1   4   5 5912.25  160.82
   1   4   5 5979.93  325.78
   1   4   5 5905.52  110.60
   1   4   5 6232.74  310.14
   4  -9   010931.00  514.75
  -5   4   8  990.24  159.65
  -2   0   924582.23  638.59
   8  -6  -4 2174.79  206.81
  -2   0   925338.47  715.03
   8  -6  -4 2220.39  198.47
  -2   0   926170.68  674.64
   5  -4  -8  994.72  137.41
  -2   0   926472.92  474.78
  -5   4   8  915.68  133.59
  -8   6   4 2215.25  219.48
   2   0  -923898.05  593.91
   4  -9   011040.40  311.64
   4  -9   011099.63  305.45
   4  -9   011261.60  288.99
  -8   6   4 2600.32  202.67
  -5   4   8  992.12   60.99
  -5   4   8  873.47  144.25
  -4   9   010695.49  320.75
  -4   9   011424.79  353.42
   2   0  -923361.93  424.48
   5  -4  -8  874.96   76.38
   8  -2  -2 7446.65  203.90
  -8   2   2 7869.59  194.94
   8  -2  -2 7305.59  194.07
   0   8  -1 5315.62  234.06
   0   8  -1 5570.53  211.71
  -8   2   2 7684.01  394.00
  -8   2   2 8098.27  200.07
   0  -8   1 5950.04  281.46
   0  -8   1 6165.00  218.29
   0  -8   1 5879.47  274.53
  -8   2   2 7554.16  405.39
   0  -8   1 5920.74  180.31
  -3   6   613558.98  305.05
  -3   6   613578.80  325.92
  -2   7  -640249.47 1043.65
   2  -7   640558.19 1093.54
   3  -6  -612839.57  468.46
   3  -6  -613339.56  341.33
  -2   7  -641353.22 1011.64
   2  -7   642486.30 1010.42
  -3   6   613862.26  458.95
  -3   6   613478.20  475.84
   3  -6  -613881.65  310.00
  -1  -5   822782.00  887.17
   4  -9   1  352.83  148.16
   4  -9   1  252.91  107.80
   1   5  -820893.60  630.39
  -4   9  -1  194.52   99.30
  -4   9  -1  224.70   73.68
   1   5  -822369.04  598.09
  -1  -5   821913.11  676.95
   4  -9   1  199.95  101.00
   4  -9   1  218.31   86.94
   3  -9   1  518.75  110.48
   3  -9   1  489.15  100.33
   3  -9   1  600.24   74.46
  -3   9  -1  433.16   91.29
   3  -9   1  394.77  114.12
  -3   9  -1  565.12  183.08
  -1   2  -828714.01  777.57
   1  -2   828151.13  782.07
   1  -2   829632.89  741.42
   1  -2   830040.31  535.56
  -1   2  -827903.38  479.20
  -1   2  -828105.54  726.65
  -8   4   628130.09  679.87
  -6  -1   841777.01  731.54
   6   1  -840235.39  818.13
  -6  -1   841538.38  664.46
   8  -4  -628057.34  708.06
  -6  -1   843553.21  986.05
  -6  -1   841721.85  926.20
  -6  -1   840896.50  728.12
  -6  -1   841744.50  865.26
   8  -4  -627637.20  679.32
  -8   4   628086.14  699.14
   5  -1  -913351.33  246.52
   5  -1  -912806.80  299.93
  -5   1   913946.91  737.83
  -5   1   913950.78  292.14
  -5   1   914013.18  497.62
  -5   1   913831.86  283.65
   5   0  -9  954.26  142.65
   5   0  -9  971.72   69.26
   0   5   521247.21  411.84
   0  -5  -521851.19  582.43
   0  -5  -521652.01  661.46
  -5   0   9 1198.61  173.44
  -5   0   9  629.96  161.17
   0   5   521857.54  337.36
   0   5   521232.02  637.81
   0   5   521482.55  585.46
  -5   0   9 1102.72   71.65
  -5   0   9  996.61  180.83
  -3  -5  -168782.99 1527.69
  -3  -5  -167229.10 1697.62
   3   5   165673.27 2117.23
   3   5   166996.71 1477.21
  -8   2   6  338.52  112.34
  -8   2   6  373.77   96.45
   8  -2  -6  570.52  216.91
   8  -2  -6  362.47  101.20
  -8   3   1  606.66   88.03
  -8   3   1  698.00  324.07
   8  -3  -1  735.51   59.86
   8  -3  -1  628.98   91.03
  -8   3   1  624.99  170.94
  -8   3   1  821.11   74.69
   3  -5  -7 1201.58  115.28
   4  -4  -818100.49  404.73
  -3   5   7  685.91   96.01
  -3   5   7  632.90   95.09
  -4   4   819054.77  384.84
  -3   5   7  687.64  105.53
   4  -4  -817369.05  484.63
  -4   4   818662.19  479.66
   3  -5  -7  593.95  164.88
  -3   5   7  652.98  142.28
  -4   4   818388.93  515.22
  -4   4   818833.88  488.14
  -7  -1   6 2974.13  134.81
  -7  -1   6 2859.35   79.59
  -7  -1   6 2759.97  160.91
  -7  -1   6 3013.86  256.62
  -7  -1   6 2872.62  362.70
  -7  -1   6 3014.88  218.93
   8  -1  -4  742.79  143.12
  -8   1   4  441.13   93.43
   0  -8   416571.48  488.81
  -8   1   4  762.29  171.11
   8  -1  -4  726.27   59.04
  -8   1   4  924.88   78.39
   0  -8   416933.13  495.27
   0  -8   417112.12  317.38
   0   8  -415742.68  390.49
  -8   1   4  659.50  158.12
  -8   1   4  701.99   63.93
   0  -8   416728.89  615.36
   0   8  -416956.43  293.53
   2   7  -311127.64  474.84
  -2  -7   312577.79  631.37
  -2  -7   312729.94  295.83
  -2  -7   311900.13  394.48
   2   7  -312658.47  272.71
  -2  -7   312623.15  207.23
  -1  -5  -4  297.66  151.61
  -1  -5  -4  366.25  124.50
   1   5   4  251.55  111.68
   1   5   4  327.53  126.36
  -2  -6  -114510.79  444.59
   2   6   113750.54  498.84
   2   6   113635.26  426.43
   1   5   4  166.77   32.31
  -2  -6  -114577.96  519.86
   1  -2  -8 4312.28  252.88
  -1   2   8 4058.64  188.33
  -1   2   8 4227.88  208.19
   0   4   616528.67  501.94
   0   4   615982.67  777.45
   0  -4  -616036.07  492.85
   0   4   615905.50  285.77
  -1   2   8 4081.10  252.38
   0  -4  -615722.79  516.76
  -1   2   8 3805.62  199.11
   1  -2  -8 3862.83  335.27
   0   4   615620.33  292.68
   3  -9   0  180.98  162.06
  -5   1  -4  997.60  154.51
   5  -1   4  930.79  167.69
  -5   1  -4  987.24  163.39
   3  -9   0  232.63   76.18
   5  -1   4  888.13  181.00
   3  -9   0  282.80   90.34
   5  -1   4  901.01   76.07
  -3   9   0  268.25   98.57
  -5   1  -4  986.53   82.25
  -5   1  -4 1012.83  176.69
   3  -9   0  271.07   75.64
  -3   9   0  378.56   92.79
   5  -8   314110.54  401.47
   5  -8   313851.35  839.28
  -5   8  -313624.37  417.10
   5  -8   314522.12  279.63
  -5   8  -314702.45  491.10
  -5   8  -315085.36  660.92
  -6   2  -3 1132.34  165.23
  -6   2  -3 1388.24  168.23
  -6   2  -3 1219.42  171.26
  -6   2  -3 1332.77  311.37
  -7   6   6 7613.47  562.70
  -7   6   6 7931.07  337.44
   6  -2   3 1326.56   94.65
   6  -2   3 1134.26  175.91
   7  -6  -6 7585.95  321.38
   7  -6  -6 7647.06  336.29
  -6  -3   460673.53 1166.85
   3  -9   212523.71  245.55
  -3   9  -211471.97  274.03
   3  -9   211940.82  370.32
  -6  -3   459280.75  946.12
   3  -9   212233.15  377.04
  -6  -3   455305.54  974.76
  -6  -3   459168.45 1145.88
  -6  -3   457395.16 1578.96
  -3   9  -212430.29  376.35
   3  -9   212395.61  376.35
  -6  -3   459725.36 1408.69
   6   3  -454416.17 1024.20
   0   5  -8 9913.59  415.33
   0  -5   810083.52  400.67
   0   5  -8 8572.88  407.69
   0  -5   8 9861.10  452.50
  -4  -5   6   -4.32   58.11
  -4  -5   6   66.15   59.47
  -4  -5   6   44.73   58.01
  -4  -5   6  -22.70   96.69
  -4  -5   6   22.53   74.65
  -5   7  -411009.68  332.55
   5  -7   410015.61  441.05
  -5   7  -410826.52  408.07
  -5   7  -410462.65  348.61
  -5   7  -410989.81  416.70
   5  -7   410873.62  372.71
   4   2  -930277.90  601.71
  -4  -2   929073.33  658.47
  -8   6   1 2743.84  449.70
  -4  -2   931976.41  510.68
   4   2  -929741.29  462.45
   8  -6  -1 3252.17  374.38
  -4  -2   931294.25 1159.60
  -8   6   1 3380.77  221.00
  -4  -2   930007.00  807.98
   8  -6  -1 3039.88  101.46
  -8   6   1 3406.72   95.91
   8  -6  -1 3588.40  225.55
   5   4  -211668.99  316.26
  -5  -4   212021.43  681.18
   5   4  -211168.12  673.29
  -5  -4   212869.17  469.25
  -5  -4   212801.73  548.16
  -1   4  -8  694.06  159.16
  -2  -4  -439286.19 1063.19
   1  -4   8  588.66  164.66
   2   4   439812.38  977.44
  -8   1   5 2762.56  136.32
   2   4   438825.20  532.45
   8  -1  -5 2820.84  147.39
  -8   1   5 2739.35  215.16
  -2  -4  -442879.70 1024.56
  -1   4  -8  629.69  176.76
  -1   4  -8  584.38   37.62
  -8   1   5 1852.50  422.91
  -8   1   5 2939.63  144.05
   2   4   440971.77 1066.52
  -8   1   5 2748.43   49.61
  -2   3   8 5863.79  227.16
  -5  -4   6   40.17   63.63
  -2   3   8 5508.44  244.71
  -2   3   8 5917.26  260.47
   2  -3  -8 5424.20  242.81
  -5  -4   6   29.24   50.21
  -2   3   8 5240.72  243.17
  -5  -4   6  133.89   89.20
  -5  -4   6   30.66   48.14
  -5  -4   6  -36.41   68.49
  -5  -4   6   18.24   52.45
  -7   7  -1  752.07  257.81
   4  -8   470501.90 1569.99
   2   7  -4 7615.40  205.24
  -2  -7   4 7719.57  311.28
  -4   8  -467051.23 1211.84
   2   7  -4 7938.83  182.94
   7  -7   1  716.64   98.82
  -4   8  -471434.61 1672.69
   4  -8   467061.93 1679.19
   4  -8   471454.57 1243.52
  -4   8  -471669.26 1624.78
  -7   7  -1  746.35  126.69
  -2  -7   4 8410.51  180.02
   7  -7   1  443.94  196.00
  -7   7  -1  541.16   91.96
  -2  -7   4 8038.03  194.94
  -2  -7   4 7800.75  311.19
   7  -7   1  850.43  159.45
   5  -8  -4  523.34  238.56
  -2  -3   9   17.20  127.52
  -5   8   4  683.05  114.29
   5  -8  -4  588.80  103.32
  -2  -3   9  293.03  103.57
   5  -8  -4  528.96   66.24
  -5   8   4  545.14  150.67
   2   3  -9  123.31  124.16
   2   3  -9  179.02   96.99
  -5   9   033106.65  783.87
   5  -9   031660.98  643.22
  -5   9   030976.18  691.86
   5  -9   032204.71  856.44
   5  -9   031490.54  757.31
   5  -9   032213.80  650.31
   4  -9  -120338.27  680.61
   4  -9  -119982.06  651.65
  -4   9   119601.14  483.01
   4  -9  -119178.76  434.37
  -4   9   119317.71  509.33
   4  -9  -119150.72  435.91
  -6  -3   513767.49  398.65
  -6  -3   514038.12  235.31
  -6  -3   513397.19  345.25
  -6  -3   513561.99  291.47
  -6  -3   514427.88  437.99
  -6  -3   513845.81  422.55
   2   3   5 3796.92  266.02
   2   3   5 3557.31  271.11
  -2   8  -5  656.84   35.56
  -2  -3  -5 3457.45  465.20
   2  -8   5  630.19  162.66
  -1  -3  -6 3922.36  263.64
  -2  -3  -5 3513.07  269.59
   1   3   6 3940.62  122.78
   2   3   5 3326.78   79.74
  -1  -3  -6 4033.99  280.77
  -2   8  -5  793.43  275.99
  -2   8  -5  683.26  152.47
   2  -8   5  577.83   18.83
   1   3   6 4339.19  444.41
   2  -8   5  674.65  137.23
   1   3   6 3742.48  290.84
   1   3   6 3996.49  114.93
   4  -7   5 2665.04  226.88
  -4   7  -5 3000.10  254.73
  -7   8   211526.03  401.90
   7  -8  -211458.13  364.07
   7  -8  -210859.78  199.03
  -7   8   211101.39  398.56
  -4   7  -5 2702.75   79.34
   7  -8  -210730.08  186.67
  -4   7  -5 2844.14  237.76
  -4   7  -5 2457.99  132.55
   4  -7   5 2947.97  268.59
   7  -8  -211312.55  402.80
  -2  -5   8  311.07  103.57
  -2  -5   8  158.97  130.65
   2   5  -8  262.08  207.36
   2   5  -8  261.67  187.21
  -6   4   822130.52  600.54
   1   2  -9 1432.90   86.41
  -1  -2   9 1553.10   59.32
   1   2  -9 1357.10  196.04
  -6   4   821993.25  541.11
   6  -4  -821658.14  587.40
   6  -4  -820433.92  362.17
  -1  -2   9 1447.33  193.24
   1   2  -9 1402.48  205.70
  -6   4   823013.55  937.55
   6  -4  -820698.14  535.00
  -6   4   821894.30  297.16
  -1  -2   9 2001.84  203.65
  -4   2   9 3846.62  162.07
  -4   2   9 3625.33  245.67
  -4   2   9 3897.90  272.74
   4  -2  -9 3756.82  159.56
  -4   2   9 3830.69  165.12
   4  -2  -9 3574.56  171.36
   1  -8   511041.46  419.92
   1  -8   511511.21  416.21
  -1   8  -511454.73  616.90
  -1   8  -511794.31  434.72
  -1   8  -511854.96  141.54
   1  -8   512156.82  133.58
   1  -8   512126.18  411.79
   7  -8  -112691.11  232.90
  -7   8   113283.77  693.63
   7  -8  -112600.40  453.12
  -7   8   112715.52  411.51
   7  -8  -113569.54  263.59
   7  -8  -113450.57  382.44
   1   7  -624900.23  851.00
  -1  -7   625033.90  676.80
  -1  -7   626488.81  651.80
  -1  -7   626253.03  657.54
  -7   5  -2  796.88  267.30
  -7   5  -2 1168.55  137.07
  -7   5  -2 1000.28  242.02
  -7   5  -2  937.94  125.61
   7  -5   2  914.63  147.16
   7  -5   2 1264.93  122.37
   3  -7  -5 5566.30  171.30
  -3   7   5 5868.84  208.61
   3  -7  -5 5994.74  340.28
  -3   7   5 5635.97  294.22
   3  -7  -5 6109.96  324.58
  -3   7   5 5772.35  322.41
  -2  -7   243095.99  989.00
   2   7  -243984.63  632.95
  -2  -7   246533.84  988.10
   2   7  -241903.71  943.41
   2   7  -240366.48 1204.16
  -2  -7   244966.58  644.42
  -2  -7   244153.12 1007.71
   5  -9  -112710.85  380.29
  -8   1   3   96.05   47.45
   5  -9  -113110.66  350.89
  -8   1   3   69.89  124.67
   8  -1  -3  118.27   49.47
  -5   9   112550.63  388.99
   5  -9  -112239.16  291.60
   8  -1  -3  113.68   53.83
   5  -9  -112555.88  300.23
  -5   9   112522.03  395.75
  -8   1   3  108.27   46.86
  -8   1   3  278.84  120.69
   4  -9   2  859.50  157.68
   4  -9   2  774.73  127.68
  -4   9  -2  910.18   89.72
  -4   9  -2 1007.72  156.71
   4  -9   2  756.52  127.66
   4  -9   2  954.78   73.18
   7  -2  -849270.53 1354.54
  -7   2   851079.86 1172.77
  -7   2   850051.73 1163.94
  -7   2   850496.50 1045.50
  -7   4  -2 4536.79  478.54
   7  -4   2 4656.92  218.41
  -7   4  -2 4694.59  263.80
  -7   4  -2 5209.88  345.54
   7  -4   2 4794.26  211.66
  -7   4  -2 4895.08  224.23
  -5   2   9 3495.65  279.47
  -7   5   7  126.54  177.42
   5  -2  -9 3332.60  114.18
   7  -5  -7   85.20   93.10
  -5   2   9 3819.95  250.63
   7  -5  -7   67.19   93.62
  -7   5   7  167.50  106.93
  -5   2   9 3660.85  121.54
   5  -2  -9 3354.32  166.77
  -5   2   9 3887.16  159.84
  -5  -1   949259.12 1564.68
  -5  -1   949630.43  822.79
  -5  -1   948591.64 1178.88
   5   1  -945521.91  837.59
  -5  -1   945276.69 1122.32
   5   1  -948092.69  857.37
   3   3  -9   52.98   71.20
   3   3  -9  107.41  104.28
  -2  -6   7    8.34   82.72
  -3  -3   9  227.11  209.96
  -2  -6   7   74.24   74.57
  -3  -3   9  147.54  157.75
  -3  -3   9  155.72  120.93
   2   6  -7   17.49   68.04
  -2  -6   7    3.87   72.40
   2   6  -7  -36.35   64.04
   1  -5  -6 8833.98  398.08
  -7  -1   2   78.70   61.68
   7   1  -2  115.80   92.12
  -1   5   6 9086.41  195.81
   1   1  -945876.93 1136.01
  -7  -1   2   97.15  220.98
   1  -5  -6 8840.64  326.90
  -1  -1   949219.16 1168.04
  -1   5   6 8937.82  383.86
  -1   5   6 8740.99  303.53
  -1   5   6 8876.21  334.16
  -1  -1   945677.05 1167.00
  -7  -1   2  298.67  115.11
   1   1  -945931.22 1093.88
  -7  -1   2  135.69   28.48
  -7  -1   2   47.50   42.41
  -1  -1   946268.17 1120.62
  -1  -1   948722.11  983.23
   1   1  -944703.44  778.83
  -6  -3   374808.51 1782.86
   6   3  -373309.58 1463.37
  -6  -3   382159.41 1358.81
  -6  -3   378656.58 1407.31
  -6  -3   379007.30 1946.69
  -6  -3   380640.27 1651.81
  -4  -4  -111165.22  499.50
  -4  -4  -111194.96  380.03
   4   4   110371.79  489.82
   4   4   111211.77  370.58
  -3   0  -6  406.03  257.61
   3   0   6  740.17  273.61
   7  -7  -5  130.53  111.18
  -7   7   5  242.12  108.44
  -3   0  -6 1526.28  214.16
  -3   0  -6 1437.24  108.00
   7  -7  -5  172.45  102.86
  -7   7   5  117.24  119.76
   3   0   6 1294.68  213.18
   7  -7  -5  167.86   34.43
  -1   1  -8  -11.62  113.03
  -1   1  -8  106.40   53.26
   1  -1   8    2.99   55.49
   1  -1   8  251.89  109.87
  -1   1  -8  197.25   92.85
   1  -1   8  121.03   80.24
  -4   4  -626078.77  767.46
   4  -4   625413.56  719.21
   4  -4   625261.15  661.85
  -4   4  -625736.41  619.66
  -4   4  -626087.39  652.32
  -4   4  -626208.55  657.59
   5  -9   121229.07  596.96
   5  -9   120928.59  475.86
   0   6   4  867.37   41.58
   5  -9   121198.21  480.43
   0   6   4  802.00  177.15
   0   6   4  848.52  144.25
  -5   9  -121016.65  671.12
   0   6   4  740.90   38.73
   0  -6  -4  774.29  181.05
  -5   9  -122399.88  625.42
   0  -6  -4  857.50  144.18
   5  -9   122209.10  439.14
   6  -8  -4 8315.48  160.04
   4  -8  -4 4806.46  172.18
   0   1   839605.87  847.13
   0  -1  -835991.61  769.65
   6  -8  -4 8198.35  343.55
  -4   8   4 4759.83  197.68
   4  -8  -4 4621.46  279.33
  -6   8   4 8618.31  370.82
   6  -8  -4 8307.61  162.18
   0  -1  -839699.81  989.94
  -4   8   4 4720.12  168.98
   4  -8  -4 4776.51  180.08
   6  -8  -4 8371.48  310.32
   4  -8  -4 4725.32  170.30
  -4   8   4 4789.40  294.83
   0   1   837913.74  863.11
   0   1   839705.79  836.22
  -6   8   4 8632.27  325.40
   0   1   838715.38 1007.67
   2  -9   216895.92  313.96
   2  -9   216533.71  473.12
  -2   9  -216202.08  410.83
   2  -9   216505.80  402.33
   2  -9   216338.27  468.08
  -2   9  -214745.40  338.73
   2  -9   141107.10  919.46
   2  -9   142199.51  811.16
  -2   9  -139355.61  849.54
  -2   9  -140937.69  853.04
   2  -9   142391.50 1007.44
   2  -9   140782.47  931.66
  -3  -6   1 1927.84  180.12
   3   6  -1 1913.92  174.32
   3   6  -1 1740.45  201.79
  -3  -6   1 1815.14  356.40
   7  -1  -8 4543.62  207.52
  -7   1   8 4740.64   66.51
  -7   1   8 4897.13  184.21
  -7   1   8 5115.74  267.68
  -7   1   8 5026.62  257.63
  -7   1   8 4931.91   57.60
  -8   6   511268.68  403.06
  -8   6   511014.99  428.91
   8  -6  -511352.59  645.80
   8  -6  -511052.70  417.27
  -1  -3   929124.87  776.18
  -6   7  -338247.00  901.40
  -6   7  -338977.70  769.97
  -1  -3   929834.59 1210.87
   6  -8   2  141.15   59.42
   1   3  -927497.43  781.10
   6  -7   338553.15  746.58
   1   3  -929278.66  376.29
  -6   8  -2   -4.73   50.18
  -6   7  -339477.65  959.71
   6  -8   2   59.40   72.90
   6  -7   335644.27  958.10
   1   3  -928326.70  807.18
  -6   7  -338218.85  787.58
  -6   8  -2   69.27   59.02
   6  -8   2  136.57  118.45
  -6   8  -2  -63.66   80.32
   6  -7   336693.59  848.05
   2  -6   7  921.31  320.14
   2  -6   7 1107.17  210.81
  -2   6  -7 1285.94  221.61
  -2   6  -7 1189.67  196.66
   6   1   1 6117.47  386.64
   6   1   1 6330.85   73.69
  -6  -1  -1 6579.24  386.54
  -4  -5   110619.33  701.97
   4   5  -1 9294.68  396.95
  -6  -1  -1 6573.14  106.76
  -6  -1  -1 6448.78  281.86
   8  -5  -630991.44  785.84
  -4  -5   110337.21  568.19
   4   5  -1 9605.22  516.32
   6   1   1 6134.10  253.04
   8  -5  -630283.92 1084.84
  -8   5   631732.97  776.37
  -6  -1  -1 7156.48  399.96
  -8   5   630630.33  787.83
  -7   3   8   36.80   68.34
  -7   3   8  -60.71  161.91
   7  -3  -8   29.81   75.08
  -7   3   8  100.28   89.10
   7  -3  -8   89.83   91.18
  -5   4  -517834.67  575.05
   5  -4   516543.70  517.27
  -5   4  -517027.08  390.67
   5  -4   516054.89  693.88
  -5   4  -517873.46  468.77
  -5   4  -517739.74  415.08
   0  -8   0 7108.95  118.21
   0  -8   0 7624.65  311.81
   0  -8   0 7140.13  517.61
  -1   6   5  632.43  135.22
   1  -6  -5  593.63  167.24
  -1   6   5  875.79  168.24
  -1   6   5  781.70  100.96
   0   8   0 6673.35  195.62
   0   8   0 7173.87  487.04
   0  -8   0 7352.28  469.32
  -1   6   5  712.99   54.96
   0   8   0 6759.51  296.00
   1  -6  -5  566.75  124.37
   7  -8  -3 4739.33   97.65
   7  -8  -3 4899.24  261.17
   7  -8  -3 5029.39  276.62
   7  -8  -3 5015.40  105.07
  -7   8   3 5060.51  277.57
  -7   8   3 4799.47  281.51
  -2   1   923144.08  610.78
   2  -1  -921603.94  453.92
   2  -1  -922435.96  566.29
  -2   1   923600.79  654.76
  -2   1   923529.29  606.04
  -2   1   923118.60  648.49
  -3  -6   6 2490.77  105.43
   3   6  -6 2320.96  134.68
  -3  -6   6 2472.55   60.84
  -3  -6   6 2448.55  178.85
  -3  -6   6 2440.40  166.65
  -3  -6   6 2456.19  179.01
  -1  -7  -1  368.27  132.47
  -1  -7  -1  273.49  121.58
   1   7   1  331.78  117.16
   1   7   1  256.52  131.78
  -4   3  -644280.61 1080.28
   4  -3   643921.69  985.06
  -4   3  -645522.03 1559.12
  -4   3  -645462.52  993.43
  -4   3  -646270.36  940.50
   4  -3   644281.92 1113.78
  -6   0  -216839.81  585.10
   6   0   214753.27  220.95
  -2   0  -7 2540.15  261.22
   2   0   7 2286.53  447.73
   2   0   7 2664.10  181.42
   6   0   214626.74  427.53
  -6   0  -216844.69  774.77
   2   0   7 2431.96  146.01
  -2   0  -7 2604.33  159.39
  -2   0  -7 2692.61  173.99
  -6   0  -216447.76  580.53
  -6   0  -216579.66  260.76
   3  -9  -1  523.43  106.17
   3  -9  -1  446.92  103.87
  -3   9   1  496.19   89.02
  -3   9   1  363.01  119.80
   3  -9  -1  462.04   77.77
   3  -9  -1  385.98  182.17
   8  -5   0 1086.46  154.43
   8  -5   0 1292.68  246.59
   8  -5   0 1145.33  172.75
   8  -1  -6  586.10  103.12
  -8   5   0 1143.02  205.62
   8  -1  -6  471.54  244.15
  -8   1   6  549.23  103.01
  -8   1   6  472.90   94.42
  -8   1   6  495.99  119.59
  -8   1   6  305.98  252.54
  -8   5   0 1313.40  183.80
  -8   5   0 1309.88  250.03
  -8   5   0 1250.85  161.95
  -8   1   6  548.36   28.86
   2   5   3 2799.45  238.59
  -2  -5  -3 3006.62  287.91
  -2  -5  -3 2692.68  231.68
   2   5   3 3314.59  284.63
  -5  -3   850044.51  976.32
  -5  -3   849767.61  877.07
  -5  -3   850579.60 1158.04
  -4  -4   815629.22  244.97
  -4  -4   815108.88  567.01
  -5  -3   848306.70  872.38
  -4  -4   815634.81  220.14
  -4  -4   815729.58  363.04
  -4  -4   815362.22  485.63
  -5  -3   849389.88 1379.00
   4   4  -814879.91  425.39
  -4  -4   815645.45  448.07
  -5  -3   849589.38  926.13
   8  -7  -2   55.66   32.45
  -8   7   2  109.03  106.38
   8  -7  -2   67.77  151.22
   8  -7  -2   57.63   21.47
  -8   7   2  268.76  201.91
   8  -7  -2   97.82   95.80
   5  -5   5 2721.89  412.48
  -5   5  -5 2494.11  125.87
  -2  -7   576529.97 1637.70
   2   7  -576262.34 1542.31
   7  -6   2  518.45  144.00
  -2  -7   574824.94 1360.21
  -7   6  -2  629.62  115.51
  -2  -7   581152.72 1516.47
  -2  -7   579214.86 1745.84
  -5   5  -5 2567.43  206.45
  -7   6  -2  501.36  234.88
   2   7  -578487.53 1427.66
  -7   6  -2  579.22  223.44
  -5   5  -5 2762.36  136.58
  -5   5  -5 2798.59  249.01
  -7   6  -2  702.53  119.09
   5  -5   5 2895.60  375.49
  -2  -7   577294.69 2112.18
   7  -6   2  612.29  106.30
  -6  -3   610215.23  277.35
  -6  -3   611077.78  238.99
  -6  -3   610356.13  490.59
  -6  -3   610622.39  258.74
  -6  -3   610643.60  242.87
  -6  -3   610803.35  227.37
   8  -7  -3 9521.39  144.22
  -4   5  -6 3565.78  113.60
  -4   5  -6 3858.61  195.27
   8  -7  -310269.20  383.91
  -8   7   310200.45  618.68
   4  -5   6 3471.73  469.17
  -4   5  -6 3882.81  416.07
  -8   7   3 9469.15  405.01
   8  -7  -3 9587.60  385.30
   4  -5   6 3507.14  261.24
  -4   5  -6 3585.83  296.56
  -7   8   015018.31  444.42
   7  -8   014703.55  318.87
   7  -8   015316.80  520.69
   7  -8   015105.77  304.54
   7  -8   016042.14  405.74
  -7   8   015927.86  515.89
  -7   8   015759.37  319.85
   3  -9   3 2672.38  395.83
   3  -9   3 3194.05  211.51
  -3   9  -3 2813.63  215.57
  -3   9  -3 3001.00  110.20
   3  -9   3 3021.17  145.32
   3  -9   3 3093.14  215.23
  -8   4   0  662.78  160.84
  -8   4   0  707.43  106.05
   8  -4   0  765.09  106.64
  -8   4   0  756.38  177.87
  -8   4   0  599.39  144.60
   8  -4   0  606.02   77.54
  -3   2   943127.30  946.25
  -3   2   945007.88  920.88
   3  -2  -941225.01  889.04
  -3   2   943464.54 1015.20
   3  -2  -939965.63 1062.77
  -3   2   942742.96 1045.30
   4   0   5 3750.13  316.69
   4   0   5 4827.05  272.87
  -4   0  -5 4384.51  264.75
  -4   0  -5 4591.45  228.87
   4   0   5 3964.74  126.93
  -4   0  -5 4756.70  322.23
   0   3   7  248.58  254.33
   0   3   7  459.31  117.54
   0  -3  -7  539.08  248.79
   0   3   7  380.42   74.73
   3  -4  -8   70.55   73.42
   0   3   7  412.82  126.24
   3  -4  -8  -17.22   62.98
  -3   4   8    0.30   68.52
  -3   4   8   43.10   84.94
  -3   4   8   34.32  138.63
   0  -3  -7  367.39  127.63
  -3   4   8  170.01   70.38
   3   3   448895.85  710.74
   3   3   451942.45 1330.79
   3   3   449876.45  687.06
   3   3   451333.53 1248.02
  -3  -3  -453325.77 1273.99
  -3  -3  -451271.80 1337.11
  -3   8  -516016.27  803.45
   3  -8   516362.34  496.14
   3  -8   515534.83  571.43
  -3   8  -515379.29  250.33
  -3   8  -516803.89  542.23
   1  -4  -7  214.92  106.51
  -1   4   7  204.83  116.41
  -1   4   7  162.94   58.95
  -1   4   7  150.03  111.87
  -1   4   7  350.08  111.63
   1  -4  -7  131.41  115.24
   8  -2  -132849.75  602.70
   8  -2  -132667.97  573.15
  -8   2   137131.59  679.01
  -8   2   135878.35 1415.17
  -8   2   137667.24  748.33
  -8   2   133756.49 1003.92
   7  -3   232367.81  749.81
  -7   3  -235544.59  714.01
  -7   3  -237147.15  924.30
  -7   3  -236919.56  842.64
  -7   3  -235826.11  929.72
   7  -3   232474.44  654.46
  -5   9   2 6228.56  295.12
   5  -9  -2 6724.55  268.57
   5  -9  -2 6286.66  194.53
   5  -9  -2 6762.75  310.98
   5  -9  -2 6477.56  257.88
  -5   9   2 6437.44  268.95
   1   6   346217.45 1454.70
   1   6   345863.83 1207.74
  -1  -6  -346349.56 1233.84
  -1  -6  -347026.45 1103.81
   5   2   275482.13 1724.85
  -5  -2  -281199.40 2275.41
   3  -4   7 2089.02  210.32
  -3   4  -7 1763.94  186.46
   5   2   277035.12 1963.97
  -3   4  -7 1611.19   82.40
  -3   4  -7 1855.77  238.24
   3  -4   7 1565.09  410.82
  -3   4  -7 1710.10   78.21
  -5  -2  -279543.54 2041.19
   8  -3  -7  380.82  220.52
   8  -3  -7  440.35  122.33
   2  -9   3 4089.76  244.43
  -8   3   7  457.65  124.24
   2  -9   3 4159.96  105.26
   2  -9   3 4123.03  220.39
  -2   9  -3 3852.42  200.15
  -8   3   7  481.68  119.41
  -2   9  -3 4173.85  225.64
   2  -9   3 4062.97  251.47
   0   8  -5 1092.77   38.27
   0  -8   5 1113.04  163.53
   0  -8   5 1514.75  175.08
   0  -8   5 1189.31  176.14
   0   8  -5 1080.20  132.92
  -3   7  -632656.75  924.34
  -3   7  -632503.30  868.43
   3  -7   630881.83  910.65
   3  -7   632411.90 1195.27
  -3   7  -631604.38  416.19
  -2   9   018088.64  565.66
   2  -9   018812.16  507.91
   2  -9   018653.35  442.42
   2  -9   018541.73  364.06
  -2   9   018207.77  492.01
   2  -9   018252.60  496.04
  -6   1   917531.60  363.98
   5  -3   5  483.49  176.58
  -5   3  -5  432.61  153.00
  -6   1   917424.12  561.85
  -5   3  -5  380.49  177.30
  -5   3  -5  537.27  110.38
  -5   3  -5  554.03  101.12
   6  -1  -916242.34  560.13
   6  -1  -917069.90  254.11
  -6   1   917186.66  381.11
   5  -3   5  459.52  148.16
  -6   1   917846.67  550.64
  -3   3  -7 5308.60  165.95
   2   2   638604.20  811.42
   2   2   640831.06 1004.42
  -3   3  -7 5299.65  269.95
  -2  -2  -638638.51  964.95
  -2  -2  -640500.18 1071.20
   2   2   638897.16  688.42
   3  -3   7 4982.41  266.58
  -3   3  -7 5184.00  333.68
   2   2   638749.91 1085.54
  -3   3  -7 5252.11  158.46
   3  -3   7 5393.36  320.95
  -7  -1   714144.69  347.41
  -7  -1   713838.27  480.50
  -7  -1   713387.94  420.05
  -7  -1   714559.66  397.78
  -7  -1   713885.84  235.28
  -7  -1   714335.79  220.44
   5   1   3   82.36  147.84
  -5  -1  -3   25.21   91.49
  -5  -1  -3   38.78   83.84
  -5  -1  -3   17.71   17.16
   1  -5   8 1403.84  222.60
   5   1   3   -4.75   13.99
   5   1   3    4.53   74.64
  -1   5  -8 1468.77  224.43
  -5  -1  -3 -175.45   93.45
   1  -5   8 1288.46  204.60
  -1   5  -8 1146.99  210.52
   2  -8  -3 8042.15  360.80
   2  -8  -3 7979.87  286.79
  -2   8   3 7341.45  272.43
  -2   8   3 7775.11  185.89
   2  -8  -3 7727.51  166.01
  -2   8   3 7885.38  368.50
  -4   9   2 1522.44  185.18
   4  -9  -2 1563.23  125.79
   4  -9  -2 1135.67  278.42
   4  -9  -2 1562.14  212.28
   4  -9  -2 1586.28  126.47
  -4   9   2 1723.66  143.23
   5  -6  -7 8317.90  368.17
   5  -6  -7 8322.79  206.63
   5  -6  -7 8339.08  296.24
  -5   6   7 8832.62  365.83
  -5   6   7 8574.42  318.71
  -5   6   7 8314.84  292.29
  -5   6   7 8410.67  179.23
   7   0   0  907.06   72.68
  -1   0   9   21.71   88.36
   1   0  -9  310.00  104.98
  -7   0   0 1040.28   50.98
   1   0  -9   71.24   97.31
  -1   0   9   53.56  101.81
   7   0   0  786.67  104.53
  -7   0   0  853.18  206.18
  -1   0   9  225.04   99.41
  -7   0   0  969.18  134.55
  -7   0   0  807.35  207.09
   1   0  -9   -8.00   91.06
  -1   0   9   38.81   88.60
  -2  -7   134704.37  847.09
  -2  -7   133775.82  831.64
  -2  -7   134906.02  846.97
   2   7  -132297.06  771.60
   2   7  -130700.17  789.64
   8  -2  -717593.51  758.67
  -3  -4  -3 1998.85  217.42
   8  -2  -717895.22  737.18
   3   4   3 2260.15  263.58
  -8   2   718309.58  483.49
  -8   1   2  106.94  149.71
  -8   2   718194.19  706.75
   3   4   3 1864.21  220.85
   8  -1  -2  182.99   44.95
  -8   1   2  260.88   50.47
  -8   2   717754.22  491.78
  -8   1   2  374.46  119.70
  -8   1   2  354.71  152.86
   8  -1  -2  237.91   48.97
  -3  -4  -3 2356.00  264.18
   8  -6   031357.41  760.05
   6  -9  -1 7778.77  203.79
  -8   6   031747.76 1216.96
   8  -6   028729.83  552.73
   8  -6   030299.67  756.28
  -8   6   031494.69  743.97
  -6   9   1 7039.90  298.17
   6  -9  -1 7276.24  196.33
  -8   6   032573.27  823.67
  -8   6   032898.10  782.07
   6  -9  -1 7539.22  326.58
  -6   9   1 7604.48  328.67
   6  -9  -1 7621.32  273.73
  -8   7   1  -45.34  127.91
  -8   7   1    5.76   24.64
   8  -7  -1   25.81   38.96
  -8   7   1   -0.20   67.46
   8  -7  -1   99.84   90.58
   8  -7  -1   22.69   78.71
   7  -1   110193.73  270.97
   1  -8  -2 1240.11  184.08
  -7   1  -111368.62  485.53
  -1   8   2 1190.32  156.03
   1  -8  -2 1224.89   53.85
  -1   8   2 1328.09   72.51
  -7   1  -110973.09  209.74
   7  -1   110299.35  476.71
  -7   1  -110892.79  466.00
   1  -8  -2 1308.28  156.41
  -1   8   2 1193.13  187.07
  -7   1  -111025.49  366.14
   5  -7  -659678.24 1257.11
   5  -7  -659773.91 1435.41
  -5   7   660416.97 1093.39
  -5   7   661060.61 1471.01
   5  -7  -659391.17 1106.38
  -5   7   659951.64 1304.99
  -6   2   915593.09  543.32
   6  -2  -915046.50  223.02
  -6   2   915445.05  240.13
   6  -2  -914625.57  374.08
  -6   2   915911.04  367.65
  -6   2   915355.99  505.91
  -6  -2   0 9281.35  451.00
  -6  -2   0 9142.41  321.67
  -6  -2   0 9100.58  472.98
   6   2   0 8020.76  283.05
   6   2   0 7947.02  439.62
  -6   6   7 6345.62  110.44
  -6   6   7 6732.42  509.63
   6  -6  -7 6378.50  318.63
   6  -6  -7 6253.32  143.55
   6  -6  -7 6019.42  286.26
  -6   6   7 6431.07  314.91
   5  -9   2  696.38  134.91
   6   3  -2  721.57  101.82
  -5   9  -2  734.87  123.64
  -5   9  -2  563.84   89.44
  -6  -3   2 1029.48  177.35
  -5   9  -2  787.33  156.64
   8  -7  -4 5735.53  306.52
   5  -9   2  856.49  173.25
  -8   7   4 6112.31  315.00
   5  -9   2  701.42  203.85
  -6  -3   2  867.77  205.25
   8  -7  -4 5939.80  313.59
   5  -9   2  839.64  120.86
  -6  -3   2  772.41  340.45
  -8   7   4 5867.06  338.57
   6  -9   023234.00  512.63
   6  -9   022918.53  634.56
  -6   9   024058.86  978.99
  -6   9   022387.30  555.92
   6  -9   022109.63  450.01
   6  -9   022405.62  459.99
   5   4  -163003.80 1597.72
  -5  -4   172021.80 1558.40
   5   4  -166944.43 1723.86
  -5  -4   168108.83 1705.89
  -5  -4   169488.54 1761.16
  -7   0   840753.52 1209.64
  -7   0   840541.30  643.38
  -5  -4   727040.05  535.92
  -7   0   839814.53  771.21
   3   2   5 1383.77  210.92
   7   0  -837533.33  838.45
  -3  -2  -5 1636.24  224.76
  -5  -4   725280.87  612.36
   3   2   5 1428.05  226.77
  -5  -4   725736.48  411.59
  -3  -2  -5 1444.01  213.24
  -5  -4   725489.59  470.53
  -5  -4   726119.88  533.20
  -7   0   838777.34  740.85
  -7   0   840866.81 1279.76
   3   2   5 1412.23   99.90
  -5  -4   725975.52  542.56
   3   2   5 1408.88   59.18
   4  -9   3 2410.30  190.60
  -6   0   944560.99 1079.43
  -6   0   944696.58 1084.00
  -4   9  -3 2047.15  375.80
   4  -9   3 2049.38  182.47
  -6   0   941876.50  780.93
  -4   9  -3 2484.92  207.17
  -6   0   944449.68  797.17
   4  -9   3 2364.90   87.56
  -4   9  -3 2160.90  168.68
  -6   0   943603.91  692.88
   6   0  -941996.03  843.94
   6   0  -943996.93  702.17
   4  -9   3 1951.05  241.21
   2   4  -9   29.01  223.12
   2   4  -9  208.63  102.28
  -2  -4   9  357.97  117.86
  -2  -4   9 -110.79  247.80
  -6   7   611065.27  433.69
   6  -7  -611081.19  181.28
   6  -7  -610443.16  425.47
  -6   7   610735.45  176.99
  -6   7   610884.73  378.19
   6  -7  -610490.14  268.36
   6  -7  -610852.95  360.42
  -6  -2   8  961.12   66.71
  -6  -2   8 1024.32   80.27
  -6  -2   8  955.46  128.32
  -6  -2   8  938.01  145.23
  -6  -2   8  968.63   99.53
  -6  -2   8  882.66   66.96
   3   5  -8 4054.96  246.78
   3   5  -8 4597.18  226.26
  -3  -5   8 4394.39  212.36
  -8   4   7  199.93  109.37
  -3  -5   8 4059.45  273.80
  -3  -5   8 4107.73  374.31
   8  -4  -7   25.38   91.18
  -8   4   7  144.82  103.53
   8  -4  -7   91.98   91.57
   4   3  -9 5751.77  208.32
  -4  -3   9 6230.96  330.96
  -4  -3   9 5515.70  317.11
  -4  -3   9 6158.47  102.82
  -4  -3   9 5811.34  234.78
  -4  -3   9 5726.02  120.54
   6  -5   429619.43  734.35
   6  -5   428918.38  732.72
  -6   5  -430780.55  879.80
  -6   5  -430382.76  780.99
  -6   5  -431419.20  755.47
  -6   5  -431053.29  932.43
  -4  -5   7 8337.78  433.66
  -4  -5   7 8207.97  279.42
   4   5  -7 8296.85  249.40
  -4  -5   7 8357.59  126.97
  -4  -5   7 8660.96  145.57
  -1  -2  -7  347.65  125.80
  -4  -5   7 8250.62  305.82
   1   2   7  586.19  136.24
  -4  -5   7 8471.20  259.37
  -1  -2  -7  593.52  160.38
   1   2   7  398.48  126.54
   1   2   7  571.61  167.48
   1   8  -332635.63  674.03
  -1  -8   334682.99  858.16
  -5   6  -564392.00 1593.06
   8  -3   0   71.75   55.70
  -8   3   0  107.62   62.43
  -8   3   0  145.10  105.69
  -1  -8   333959.44  839.89
   5  -6   564197.49 1535.00
  -1  -8   335971.60  819.02
  -5   6  -565076.85 1236.98
  -8   3   0   85.96  129.97
  -8   3   0   82.02  119.84
   8  -3   0   57.29   51.10
  -5   6  -564339.35 1249.36
   5  -6   562396.76 1525.70
  -1  -8   336331.32  745.44
  -5   6  -565299.71 1523.41
   1   8  -333465.76  591.33
  -6   4  -421054.19  512.42
  -3   5  -761897.70 1161.66
  -6   4  -420094.86  499.15
  -6   4  -420869.99  530.33
  -6   4  -421641.30  607.14
  -3   5  -761750.89 1050.28
   3  -5   762290.15 1576.72
   6  -4   419538.12  550.46
  -3   5  -763074.88 1494.73
  -3   5  -761161.66 1596.57
   6  -4   418917.83  488.41
   3  -5   763427.63 1576.88
  -5   3   9 2592.85  165.87
  -7   4   8   13.67   79.07
  -5   3   9 2537.15  218.82
   5  -3  -9 2285.56  175.36
   7  -4  -8  -34.81   76.71
  -7   4   8  107.34   95.89
  -5   3   9 2671.42  107.64
  -7   4   8   27.20  162.26
   7  -4  -8  114.46   88.17
  -5   3   9 3072.01  253.57
   5  -3  -9 2536.93  172.23
  -2   6   618484.21  353.65
   2  -6  -618114.20  947.89
   2  -6  -617791.27  475.20
  -2   6   618195.44  595.56
  -2   6   618596.11  482.93
  -2   6   617937.81  370.15
  -4   2  -631723.57  694.42
  -4   2  -633591.74  906.03
  -4   2  -633896.75  754.01
  -5  -2   922128.31  486.15
  -5  -2   923520.79  346.86
   4  -2   632096.07  734.58
  -5  -2   922603.01  420.69
  -5  -2   923104.80  652.64
   5   2  -922519.26  428.20
  -4   2  -632995.78  720.59
   4  -2   631436.04  889.83
  -5  -2   921262.13  388.13
   4  -2   631599.19  697.24
   5   2  -922263.42  386.80
  -5  -2   923293.17  649.14
  -1  -4   9   16.23  156.18
   1   4  -9  607.33  158.29
  -1  -4   9  535.37  130.75
   1   4  -9  576.86  171.73
   0  -7   7  658.60  152.40
   0   7  -7  793.25  141.28
   0   7  -7   -1.34  149.95
  -6   1  -3 2325.17  229.32
   6  -1   3 1929.55  206.18
   6  -1   3 1832.23   87.91
  -6   1  -3 2257.99  212.71
  -6   1  -3 1968.39   93.02
  -6   1  -3 2221.36  227.88
   0  -7   7  631.46  179.64
   6  -9  -241465.61  917.87
   6  -9  -239709.52  725.03
  -6   9   242043.67  995.48
  -6   9   240976.11  975.65
   6  -9  -241357.14  959.95
   6  -9  -241088.54  902.10
  -3   8   436704.09  967.73
   3  -8  -437846.67 1365.70
  -3   8   435652.12  755.85
   3  -8  -436056.34  757.47
  -3   8   436691.15  712.03
   7  -8  -453765.96  868.64
   7  -8  -454422.53 1273.78
   7  -8  -453247.19 1236.34
   7  -8  -452204.85  925.22
  -7   8   455428.71 1294.67
  -7   8   454837.32 1345.14
  -7  -2   5 2596.98  120.59
  -7  -2   5 2334.53  103.89
  -7  -2   5 2475.19  240.95
  -7  -2   5 2591.29  184.24
  -7  -2   5 2522.25   86.97
  -7  -2   5 2573.97  106.99
  -1   7   4 2502.46   84.23
  -1   7   4 2253.57  345.69
   1  -7  -4 2988.17  268.75
  -8   0   5  114.63  176.13
  -8   0   5  132.16   51.92
  -8   0   5  307.06  207.90
  -8   0   5    4.32   56.84
  -8   0   5  170.19   60.09
  -1   7   4 2542.45   74.46
   1  -7  -4 2465.04  201.53
  -8   0   5  127.24   28.88
  -1   7   4 2431.71  253.00
  -7  -2   4 2989.70   75.84
  -8   0   430221.31  482.80
  -7  -2   4 3500.91  457.46
  -8   0   431154.69  661.97
  -2   5   712440.83  312.19
  -8   0   430636.01 1271.65
  -2   5   712883.80  391.26
  -8   0   430391.90  561.18
  -4   6  -6  784.37  165.47
  -4   6  -6  737.39   53.62
   8   0  -429752.49  540.82
  -7  -2   4 2929.90  101.29
   7   2  -4 2863.62  113.06
  -8   0   431563.09  529.28
  -8   0   429608.24  817.12
  -7  -2   4 2687.73  122.82
   4  -6   6  839.24  178.61
  -2   5   712788.11  297.19
   8   0  -428505.47  441.70
   4  -6   6  572.04  176.56
  -7  -2   4 2773.71  223.52
  -2   5   712771.00  724.08
  -7  -2   4 3106.01  128.50
  -4   6  -6  787.91  192.01
   2  -5  -712219.43  459.64
   2  -5  -712385.16  383.72
  -4   3   945774.45 1133.56
   4  -3  -941414.77  847.77
  -4   3   945337.96 1060.84
   4  -3  -940571.30  899.27
  -4   3   945935.65  982.66
  -5  -3  -1  303.43  169.19
   5   3   1  184.06  139.81
   5   3   1  114.27   97.73
  -4   3   944906.83 1118.41
  -5  -3  -1  321.15  210.02
  -3   2  -7   -2.85   53.96
   1   8  -270885.47 1583.16
  -1  -8   277802.80 1810.65
  -1  -8   276107.31 2182.55
  -1  -8   277485.30 1353.76
  -3   2  -7  -42.49  101.81
   3  -2   7   46.13   69.85
   3  -2   7   41.40   59.05
   1   8  -273707.04 1319.26
  -1  -8   280854.08 1676.65
  -3   2  -7  -27.47   68.83
  -3   2  -7  102.30   50.89
   3  -2   7  -14.83  103.80
  -1   0  -866055.39 1482.55
  -1   7  -7 7401.62  379.14
   1   0   867339.45 1750.43
   1  -7   7 7526.80  704.30
   1  -7   7 7531.03  605.87
   1   0   865732.12 1665.39
   1   0   865324.53 1480.54
   1   0   869181.76 1470.03
  -1   0  -862136.68 1321.76
  -1   0  -870276.23 1690.50
  -1   7  -7 7847.32  400.41
   4  -6  -7 6593.14  350.06
  -4   6   7 6788.94  198.11
   4  -6  -7 6320.13  209.73
   4  -6  -7 6721.82  242.17
  -4   6   7 6695.17  242.21
  -4   6   7 7257.41  342.89
  -4   6   7 7117.90  260.33
  -1   9  -2 1484.47  120.14
  -1   9  -2 1345.55  114.96
   1  -9   2 1513.19  186.57
   1  -9   2 1318.04  183.78
   1  -9   2 1664.06  100.49
   1  -9   2 1645.77  107.97
   1   8  -4    9.92   94.82
  -1  -8   4  178.95  127.20
  -1  -8   4  426.66   74.37
  -1  -8   4  345.80  130.60
   1   8  -4  314.89   66.11
  -5   5   832519.62  815.77
   0   2  -916149.27  541.18
   0  -2   917280.75  556.96
   5  -5  -831210.26  603.14
  -5   5   833198.81  816.30
   0  -2   917236.01  302.79
  -5   5   832244.74  758.61
   0  -2   916488.80  853.02
   0   2  -915601.36  259.61
   0   2  -916197.64  538.50
   5  -5  -831590.07 1139.79
  -5   5   832863.46  557.08
  -7  -1   123669.92  375.21
   7   1  -122328.21  446.68
  -7  -1   124840.96  378.78
  -7  -1   124242.99 1180.96
  -7  -1   123989.34  548.99
  -7  -1   122821.37 1130.83
   7   1  -118425.26  252.15
  -7   7  -218747.40  480.86
   0   3  -933221.22  519.95
   0   3  -934252.32 1372.90
   0  -3   935607.04  966.10
   0  -3   935777.29  536.30
  -7   7  -218993.88  566.29
   0   3  -933749.51  911.95
   7  -7   218563.46  647.75
   0  -3   936315.44  971.48
  -7   7  -219242.27  465.53
   7  -7   217573.53  586.04
  -7   7  -218096.79  495.04
   7  -7   217723.59  455.09
  -7   8  -1   67.15  123.34
   7  -8   1  172.06   71.15
  -7   8  -1  149.36   93.61
   7  -8   1  148.36   80.05
  -7   8  -1  230.61   71.83
   7  -8   1  205.45  129.28
   0  -7  -322173.27  693.99
   0   7   322189.12 1040.21
   0  -7  -321119.86  589.89
   0   7   321351.51  590.37
   0   7   321195.38  277.21
   0   7   320735.21  351.76
  -4   7   618530.44  448.76
   4  -7  -618684.21  617.19
   4  -7  -618920.04  428.63
  -4   7   619087.82  398.36
   4  -7  -618839.01  577.25
  -4   7   619529.27  615.54
  -8   1   7 1998.43  165.14
  -8   1   7 2326.61  206.91
  -8   1   7 2200.42  178.54
   8  -1  -7 2277.30  343.10
  -8   1   7 2315.44  166.40
  -6  -3   744929.96 1238.14
   0   6  -827726.30  807.86
   0  -6   829335.38  888.88
  -6  -3   744506.15  809.56
  -6  -3   745121.67  873.27
   0  -6   829452.63  783.86
   0   6  -829142.93 1210.94
  -6  -3   744297.59  922.37
  -6  -3   746554.99  849.47
  -6  -3   745498.36  854.80
   5   0   433257.70  924.31
   5   0   431256.86  625.99
  -5   0  -436463.35  981.10
  -5   0  -435353.54  926.05
  -5   0  -434752.25  599.61
  -5   0  -435665.49  939.75
   5   0   433499.32  911.56
  -1  -6   8 1748.22  196.62
  -2  -7   626950.38  677.35
  -1  -6   8 1583.00  234.00
  -2  -7   626456.27  656.19
   1   6  -8 1515.30  171.53
   1   6  -8    0.90  167.73
  -2  -7   626655.13  350.82
  -2  -7   628039.42  688.86
   2   7  -626867.53  806.81
  -2  -7   627842.53  360.92
  -6   9  -148147.55  990.52
   1  -9   326121.69 1015.02
  -6   9  -148278.51 1192.04
  -1   9  -323264.55  443.83
   1  -9   325331.75  422.77
   1  -9   325920.94  568.32
   1  -9   325254.75  998.48
   6  -9   144473.82 1154.92
   6  -9   146045.07  940.10
  -6   9  -144957.49  970.27
   6  -9   148892.82  970.04
  -1   9  -324190.36  552.35
   6  -9   146692.90 1186.27
  -6   6  -4  415.39  140.00
  -6   6  -4  469.66   93.21
  -6   6  -4  460.63   86.40
   6  -6   4  457.50  133.65
   6  -6   4  464.58  145.36
  -6   6  -4  459.72  135.68
   3  -9  -2  809.54   85.15
  -3   9   2  787.40  161.67
   3  -9  -2  902.77  259.09
   6  -5  -8 3440.28  232.62
  -6   5   8 3467.22  238.37
   3  -9  -2  922.57  122.95
   6  -5  -8 3014.36  142.40
   6  -5  -8 3068.51  238.70
  -6   5   8 3530.57   77.52
  -6   5   8 3411.18  257.20
  -3   9   2  877.12   99.17
  -6   5   8 3508.52  239.31
   8  -6  -610553.99  420.53
  -3  -4   947517.86 1076.41
   8  -6  -610462.65  405.26
   3   4  -947535.43 1057.91
  -3  -4   947858.14 1223.26
  -8   6   610501.42  407.13
   3   4  -948286.97 1205.35
  -3  -4   946526.56 1172.98
  -8   6   610082.21  423.68
  -5   8  -421399.31  375.53
   5  -8   419994.01 1074.72
   2  -9   454612.51  945.77
   5  -2   5  550.07  163.63
  -5   2  -5  890.57  228.24
  -5   8  -420798.17  616.02
  -5   8  -419956.75  382.76
   5  -8   420568.27  362.18
  -5   8  -421694.99  648.32
  -5   2  -5  910.58  176.17
  -5   2  -5  776.68   99.40
   5  -2   5  570.08   90.23
  -2   9  -449293.81  830.36
  -5   2  -5  751.29  140.15
   2  -9   451396.14 1249.15
   5  -8   420927.50  843.12
  -2   9  -453805.78 1596.85
   2  -9   452522.44 1237.57
   2  -9   452636.10 1234.73
   9  -4  -4 8605.36  398.93
   9  -4  -4 8189.30  299.20
  -9   4   4 8557.67  302.41
  -1   9  -125724.12  514.13
  -1   9  -124462.32  815.57
   1  -9   127806.31  583.40
   1  -9   127491.68  708.56
  -9   4   4 9040.22  430.70
   1  -9   126804.72 1022.42
  -3  -6   0 1554.50  186.44
   3   6   0 1446.15  223.10
   3   6   0 1768.95  184.95
  -3  -6   0 1424.71  223.84
  -6   3   9 9291.10  422.59
   2  -9  -1 8605.79  312.27
  -2   9   1 8758.88  351.95
  -6   3   9 9240.72  150.80
  -6   3   9 9379.62  294.29
   2  -9  -1 8140.05  312.61
   6  -3  -9 8893.11  307.32
  -2   9   1 8498.64  231.76
   2  -9  -1 8276.55  188.53
   2  -9  -1 8597.67  321.58
  -6   3   9 9574.76  398.33
   6  -3  -9 8832.78  152.19
  -6   3  -444794.29 1023.80
  -6   3  -446092.57 1064.26
   6  -3   441437.00 1365.83
  -6   3  -445882.65  945.31
   6  -3   441525.19  864.86
  -6   3  -445545.42 1484.18
   2  -3   814801.66  492.71
  -2   3  -814260.09  479.06
  -2   3  -814543.50  557.16
   2  -3   815091.99  858.65
  -2   3  -813970.98  261.50
  -2   3  -815347.46  283.42
   0  -8  -121927.35  618.58
   0   8   119751.71  359.72
   0   8   120756.48  564.06
   0  -8  -121179.64  283.64
   0   8   120780.85  618.53
   0  -8  -120974.37  588.03
  -2   7   513139.67  253.30
   2  -7  -513198.22  256.92
   3  -9   4 5216.54  489.92
  -3   9  -4 5933.73  323.05
  -3   9  -4 5320.41  511.07
  -3   9  -4 5357.57  175.60
  -2   7   513304.54  395.05
   3  -9   4 4993.85  340.66
   2  -7  -512767.83  521.64
   3  -9   4 5588.24  304.57
  -2   7   513303.98  518.36
  -1   8  -6 1523.58  248.92
   1  -8   6 1541.99  229.68
   1  -8   6 1854.24  214.29
   3  -9   4 5762.63  106.89
   1  -8   6 1787.94  204.51
  -2   7   513112.57  269.83
  -1   8  -6    0.78  161.29
   2  -7  -513162.16  382.67
  -7  -2   614998.30  281.93
  -7  -2   615467.66  490.94
  -7  -2   615795.78  367.64
  -7  -2   615471.01  385.99
  -7   2  -2 3432.08  270.90
  -7  -2   615250.91  384.92
  -7   2  -2 3204.22  132.79
  -7   2  -2 3526.03  222.43
  -7  -2   615462.76  422.30
  -7   2  -2 3715.51  287.23
   7  -2   2 2955.09  207.10
   7  -2   2 3051.56  125.35
  -8   0   620395.25  426.22
  -8   0   620787.58  299.07
  -8   0   620453.78  621.08
  -8   0   620172.98  350.44
   5  -9  -344936.03  866.79
   5  -9  -345244.91  957.97
  -5   9   345604.54 1294.30
   5  -9  -344828.04 1041.17
   5  -9  -343856.85  836.80
  -8   0   620379.96  464.62
  -8   0   620186.69  526.67
  -5   9   345196.62 1507.41
  -5   8   5 1351.33  146.31
   5  -8  -5 1368.17   92.35
   5  -8  -5 1147.82  198.88
  -8   0   343383.22  833.14
   5  -8  -5 1481.92  158.30
  -8   0   340800.07 1117.71
  -8   0   343148.33  792.93
  -8   0   342324.35 1590.89
   8   0  -340567.00  697.61
   5  -8  -5 1418.77  135.68
  -8   0   341237.40  718.11
   8   0  -339490.39  666.32
  -5   8   5 1371.90   89.89
  -5   8   5 1237.83  206.21
  -7  -2   3 9716.76  436.82
  -7  -2   311587.49  500.05
  -7  -2   311509.68  431.50
  -7  -2   311610.12  158.63
   2   6   214996.87  578.23
   2   6   214799.00  495.56
  -2  -6  -215705.64  965.29
   7   2  -310124.81  239.52
  -7  -2   310737.33  176.41
  -2  -6  -215320.51  792.38
  -2   2   926885.11  648.41
  -2   2   926378.40  682.86
  -2   2   926749.77  703.05
  -2   2   926917.75  590.86
   2  -2  -925247.43  582.01
   2  -2  -926973.57  674.74
   2  -4   8 9357.55  427.38
  -2   4  -8 9308.16  212.72
  -2   4  -8 9115.98  470.88
   2  -4   8 9973.83  452.37
  -2   4  -8 9234.45  656.52
  -2   4  -8 8773.17  148.97
  -3  -6   7 1517.26  286.34
  -3  -6   7 1689.76  179.78
   7  -6  -752436.64  749.87
   3   6  -7 1628.96  145.47
  -7   6   754479.11 1306.38
   7  -6  -753238.32 1258.55
   7  -6  -752395.40 1228.89
  -7   6   754584.81 1320.77
   7  -6  -749861.09  726.70
  -3  -6   7 2097.69  170.69
   9  -5  -414871.39  453.49
  -9   5   415019.89  912.23
  -9   5   415616.77  457.77
   9  -5  -414827.22  834.77
   1  -3  -837164.21 1234.41
  -8   7   0   98.18  198.73
   1  -3  -839724.10 1004.97
  -1   3   839479.93  804.35
  -1   3   839421.24  922.37
  -8   7   0  202.98   92.35
  -8   7   0   66.28  111.67
  -3  -5  -269249.80 1828.86
   8  -7   0  113.11  146.09
  -1   3   837437.48  823.79
  -1  -7   726868.89 1016.01
   3   5   267695.52 2299.10
  -1   3   839017.44  987.79
   8  -7   0   47.64   88.03
   1   7  -728257.02  743.95
  -3  -5  -271189.04 1658.21
  -1  -7   725379.37  748.32
   3   5   268486.73 1583.53
   8  -7   0   36.52  100.93
   1   7  -725429.13  684.92
  -1  -7   727422.47  716.90
   9  -4  -3 5261.48  341.34
  -9   4   3 5543.15  358.52
  -9   4   3 5577.23  102.03
   9  -4  -3 5330.79  233.82
  -9   4   3 5378.46  230.91
  -9   4   3 5156.81  372.05
  -4  -3  -3 3220.52  312.79
  -4  -3  -3 2850.35  255.74
   4   3   3 2905.06  307.96
   4   3   3 2858.03  251.10
   6  -8  -5 5013.56  126.89
  -6  -1   918125.10  298.73
   4   5   0 6050.80  615.24
   6  -8  -5 5240.77  123.42
  -6  -1   919120.30  576.44
   6  -8  -5 4882.75  308.12
  -6  -1   918119.08  319.19
  -6   8   5 5137.18  328.72
   6   1  -917517.09  379.01
  -4  -5   0 6994.06  317.17
   4   5   0 6807.94  303.62
  -4  -5   0 6801.96  410.54
  -6   8   5 5415.21  267.75
  -6  -1   918266.03  543.30
   6  -8  -5 5137.72  251.13
  -6  -1   916903.02  481.98
  -9   5   3 1429.66  218.62
  -9   5   3 1028.41  149.65
   7  -7  -6 1514.36  192.21
   7  -7  -6 1816.99  213.16
  -7   7   6 1443.84  191.33
   0   1  -9 7819.16  189.81
   0   1  -9 7746.17  368.26
   0   1  -9 7856.58  590.30
   0  -1   9 8459.15  210.00
   9  -5  -3 1110.46  274.81
   7  -7  -6 1828.47   56.51
   9  -5  -3 1334.70  197.74
   0  -1   9 7919.62  553.91
  -7   7   6 1580.99  212.98
   0  -1   9 7567.39  638.50
  -4   5   8 1567.25  152.68
   4  -5  -8 1552.84  344.08
  -4   5   8 1682.11  170.89
  -4   5   8 1582.51  114.06
  -4   5   8 1708.98  189.68
   4  -5  -8 1713.38  135.15
   4   2   424466.28  730.99
   4   2   423301.42  306.44
  -4  -2  -424656.55  799.59
  -4  -2  -426192.11  766.97
   4   2   422847.77 1123.04
  -4   8  -5 2660.44   79.99
   9  -4  -5 3312.35  274.98
   9  -4  -5 3686.33  221.58
  -9   4   5 3438.51  280.77
   4  -8   5 2442.22  282.33
  -4   8  -5 2828.37   72.73
  -4   8  -5 3134.43  259.32
   4  -8   5 2621.68  227.11
  -4   8  -5 2924.02  271.33
  -9   4   5 3417.65  214.70
  -2   8  -6  146.85  196.62
   8  -7  -5   11.87   97.18
  -8   7   5 -164.91   84.20
  -2   8  -6   42.38  213.55
  -8   7   5  221.46   90.10
   8  -7  -5   71.79   92.99
   2  -8   6   91.39  117.92
   2  -8   6   43.70   99.22
  -8   5   7  891.78  171.07
   8  -5  -7  750.89  163.20
  -8   5   7  871.20  164.25
   8  -5  -7  837.93  160.49
   6  -8   3  550.79  170.26
  -6   8  -3  389.02   88.46
   6  -8   3  399.24   75.62
  -6   8  -3  560.42   80.51
  -6   8  -3  603.21  129.80
   6  -8   3  528.87  114.90
  -6   8  -3  674.59  156.79
   1   8  -1  914.87   68.38
   1   8  -1  917.71  144.57
  -1  -8   1 1095.55  169.82
   1   8  -1  944.94  160.29
  -1  -8   1 1089.00  171.17
  -1  -8   1  796.72  136.75
  -9   3   427512.03 1228.76
   9  -3  -426611.99  778.44
  -9   3   428179.31  843.65
   9  -3  -426259.97  590.12
  -9   3   428329.71  612.24
   0  -4   925948.28 1193.41
   1  -1  -9 5404.61  200.12
   1  -1  -9 5386.74  289.37
  -1   1   9 5727.95  533.55
   0   4  -924113.26  781.82
  -1   1   9 5878.81  215.30
   0   4  -924081.99  751.15
  -1   1   9 5843.61  297.32
   0  -4   924916.33  756.33
  -1   1   9 6034.19  268.14
  -6   9   311229.17  710.88
   6  -9  -311528.22  398.35
   6  -9  -310932.63  606.82
   6  -9  -310865.99  229.71
   6  -9  -311139.81  238.33
  -6   9   312091.38  637.27
  -2  -7   0  143.67  158.82
  -2  -7   0   -3.18   95.29
   2   7   0   49.23  160.27
   2   7   0   48.87   98.07
  -4  -6   479820.90 1782.09
  -4  -6   476853.21 1686.47
  -4  -6   481513.84 1394.09
  -4  -6   484972.94 2149.05
   0   2   8 8933.67  282.86
   0  -2  -8 9030.52  394.91
   0   2   8 8685.06  261.32
   0   2   8 9124.59  326.77
   0  -2  -8 8004.94  315.98
   4   6  -477337.69 1700.00
   0   2   8 8639.32  417.67
  -4  -6   481238.29 1797.48
  -4  -6   483056.97 1561.85
  -2   2  -825677.17  766.59
  -2   7  -7 2091.00  268.70
  -8   5  -1 3316.53  250.02
   2  -2   825308.82  652.35
   2  -7   7 2406.60  280.67
  -3   6  -719143.43  309.64
   3  -6   719461.55  647.18
   2  -2   825571.63  515.95
   2  -2   824349.50  755.56
  -8   5  -1 3451.10  283.94
  -8   5  -1 3526.75  273.98
   2  -7   7 2083.21  241.40
  -8   5  -1 3548.46  353.69
   8  -5   1 2830.65  155.67
   3  -6   720300.07 1071.75
  -2   7  -7 2048.20  240.66
  -2   2  -824756.59  940.18
  -2   2  -824263.35  471.52
   8  -5   1 3004.14  343.17
  -3   6  -719172.33  617.57
  -3   6  -719284.10  709.97
  -8   1   1 1265.85   75.49
  -8   1   1 1309.72  127.28
   8  -1  -1 1121.02   87.18
  -8   1   1 1415.64  231.32
   8  -1  -1  843.67  112.74
  -4   9   3 1721.60  139.91
  -4   9   3 1819.59  211.97
   4  -9  -3 2001.12  131.01
   4  -9  -3 1828.99  135.24
   4  -9  -3 1905.07  136.25
   4  -9  -3 1745.17  197.74
  -9   3   5 1999.73  229.70
  -1  -8   512819.71  376.81
   9  -3  -5 1721.16  154.61
  -1  -8   513749.96  248.88
  -1  -8   513142.97  731.64
  -9   3   5 1923.48  157.81
   9  -3  -5 1607.02  386.87
   1   8  -513346.44  217.01
  -1  -8   513100.11  463.07
   1   8  -512737.32  346.48
  -9   3   5 1734.77  238.01
  -3  -1  -628963.37  868.66
   3   1   626094.73  618.31
  -3  -1  -626476.05  639.88
  -2   4   815540.44  423.23
   3   1   625732.38  595.13
  -2   4   816181.44  394.85
   2  -4  -816459.86  493.20
   3   1   627191.25  747.43
  -2   4   816661.75  499.42
   2  -4  -815131.20  493.41
  -2   4   816547.18  489.76
   3   1   626119.48  848.71
  -3  -1  -626054.82  710.22
  -3   3   9 1569.98  263.89
  -5  -5   423887.16  571.66
  -3   3   9 1667.44  189.09
  -5  -5   423807.17  819.56
  -5  -5   426049.85  381.15
  -5  -5   424999.34  635.88
   3  -3  -9 1387.01  250.70
  -3   3   9 1595.08  265.96
  -5  -5   425282.17  829.01
   3  -3  -9 1494.97  154.29
  -3   3   9 1590.75  168.92
  -5  -5   425474.91  341.09
   0  -8   649802.25 1188.64
   0   8  -647515.09 1108.90
   0  -8   650581.93 1609.70
   0  -8   647068.83 1199.92
   1  -6   831234.91  881.88
  -1   6  -831383.99  909.29
   1  -6   830852.30  944.54
  -1   6  -830304.25  934.67
  -8   8   2 1917.98  389.85
   8  -8  -2 2049.43  397.79
   8  -8  -2 1983.69   63.74
   8  -8  -2 1927.48  199.47
   8  -8  -2 1822.90  132.23
  -8   8   2 2182.01  224.54
  -8   2   044315.47  946.42
  -8   2   043909.52 1176.04
   1  -9   426102.78  646.95
   1  -9   426412.70  464.57
  -1   9  -424874.72  612.56
   8  -2   040459.53  793.33
  -1   9  -425670.18  429.95
   8  -2   040814.92  747.07
  -8   2   043945.93  801.66
   1  -9   426468.41  728.00
  -8   2   042032.20 1180.50
   1  -9   426110.65  709.30
   9  -5  -529353.27 1191.78
  -9   5   530237.24  857.01
   5  -9   319361.28  527.67
   5  -9   319308.02  672.89
  -9   5   530142.14 1076.29
   9  -5  -529701.55  752.48
   5  -9   320803.85  368.50
  -5   9  -319325.58  533.52
  -5   9  -320797.12  640.98
  -5   9  -320942.39  855.45
   2   1   7  631.21   87.70
   2   1   7  796.73  191.89
  -2  -1  -7  612.12  127.26
  -2  -1  -7  536.15   85.02
  -2  -1  -7  -13.47  175.01
   2   1   7  -73.93  240.63
   2   1   7  617.01  137.73
   4   0 -1024322.32  542.64
  -4   0  1027537.12  789.35
  -4   0  1026912.41  585.76
   4   0 -1024378.38  454.22
  -4   0  1025648.54  600.49
  -4   0  1026201.22  814.28
  -3  -1  10    4.25  107.51
   3   1 -10  -17.44   50.87
  -5  -5   5  127.54   73.96
  -7  -1   8 2026.53  168.92
  -7  -1   8 2268.97  191.36
  -5  -5   5  121.15   46.17
  -7  -1   8 2102.91  139.67
  -7  -1   8 2327.33  108.96
  -3  -1  10   52.28   51.27
  -3  -1  10   64.96   77.65
  -5  -5   5   76.78   53.07
  -6  -3   127291.22  878.51
  -7  -1   8 2043.92  118.57
  -6  -3   125657.86  804.11
  -7  -1   8 2350.62  171.32
  -5  -5   5   81.53   74.03
   3   1 -10  -26.06   70.39
  -3  -1  10   54.28  115.00
  -5  -5   5  141.28   62.30
   6   3  -123876.91  787.65
  -6  -3   126963.29  629.16
   6   3  -125347.58  577.90
  -5  -5   5   59.90   75.96
  -5   7  -5 5384.10  321.75
   5  -7   5 4805.19  300.70
  -5   7  -5 5236.02  141.05
  -5   7  -5 5628.10  353.92
  -5   7  -5 5305.94  153.90
   5  -7   5 5076.77  341.10
  -2  -6   8  152.63   93.35
   2   6  -8   39.30   79.61
  -2  -6   8   91.73  112.39
  -2  -6   8   33.32   93.62
   2   6  -8   -0.61   78.74
  -9   3   3 1552.72  234.98
  -4  -6   511154.46  396.46
  -8   4  -113415.22  786.48
  -4  -6   510691.73  560.45
  -4  -6   510688.27  347.22
  -9   3   3 1293.56   87.48
  -8   4  -113367.73  527.23
  -4  -6   510327.79  248.42
  -4  -6   510760.58  349.29
  -8   4  -113878.40  353.90
  -8   4  -113677.39  360.86
   9  -3  -3 1273.15   62.99
  -9   3   3 1586.60  242.12
  -9   3   3 1542.57  121.84
   8  -4   112286.75  327.69
   8  -4   112511.68  347.24
  -4  -6   510742.47  194.12
   9  -3  -3 1370.88  212.62
  -1  -7  -2  468.08  253.59
   1   7   2  438.41  162.73
   1   7   2  341.91  138.24
  -1  -7  -2  428.91  166.68
  -4  -6   317038.12  475.38
  -4  -6   316495.75  469.31
  -4  -6   316833.54  734.65
  -4  -6   315042.34  455.59
   4   6  -315146.31  460.41
   4   6  -315427.58  437.15
  -4  -1  1028332.97  826.56
   4   1 -1027039.22  580.64
  -4  -1  1027881.24  846.58
   4   1 -1026698.94  452.39
  -4  -1  1026901.77  649.53
  -7   5  -314910.14  460.65
   7  -5   313651.84  427.80
  -7   5  -314790.74  446.63
  -4  -1  1028662.08  450.18
  -7   5  -315396.82  446.04
  -7   5  -314726.04  427.70
   7  -5   314131.62  410.70
   8  -8  -333894.42  840.06
  -8   8   333326.43  875.81
   8  -8  -332711.03  875.28
   8  -8  -331775.82  455.37
  -8   8   332631.14  895.29
   8  -8  -331023.09  565.99
  -4   8   5 4897.79  325.45
   4  -8  -5 4816.73  184.89
   4  -8  -5 5076.30  323.18
  -4   8   5 4819.17  203.08
  -4   8   5 4550.50  295.94
   4  -8  -5 4551.83  185.36
  -9   5   240866.53 1155.60
   9  -5  -239520.05  592.06
   9  -5  -240656.28 1064.57
  -9   5   242003.78  657.49
  -9   5   242333.90 1235.72
  -9   5   242485.80 1135.20
   9  -5  -240495.22  919.71
  -1   9   052329.34  980.60
  -1   9   053321.53 1570.49
   1  -9   059242.33 1285.35
   1  -9   057160.04 1322.45
   1  -9   056559.85 1317.82
   1  -9   058311.46 1136.42
   8  -6   132946.07  829.46
  -8   6  -135874.60  746.60
   8  -6   132767.14  668.93
  -8   6  -135149.29  915.35
  -8   6  -136341.88  879.64
  -8   6  -135349.75  878.18
   3  -1   7  964.19  118.63
   3  -1   7  993.67  207.92
   2  -5   8  397.87  309.45
  -3   1  -7 1097.00  129.10
   3  -1   7  958.98  135.57
  -2   5  -8  622.23  192.24
  -3   1  -7 1246.65  210.00
  -3   1  -7  968.72  127.03
   2  -5   8  611.17  181.15
  -2   5  -8  375.00  163.03
   9  -6  -3 8874.00  404.62
   7  -9  -1 2863.48  191.32
   7  -9  -1 3165.82  197.84
  -4   1  -6 5991.86  272.45
  -9   6   3 9532.51  366.64
   4  -1   6 6332.08  204.17
  -7   9   1 3714.17  269.87
   4  -1   6 6364.46  296.29
  -7   9   1 3326.84  236.38
  -9   6   3 9208.03  457.93
   4  -1   6 5952.05  387.73
  -4   1  -6 6649.81  221.11
   7  -9  -1 3041.68  198.40
  -4   1  -6 6911.76  639.64
   9  -6  -3 8710.38  365.04
   7  -9  -1 3179.35  266.71
  -4   1  -6 6591.63  292.38
   7  -2  -934941.69  793.90
  -7   2   936358.27  508.01
  -7   2   937345.92  980.71
  -7   2   937354.29  960.46
  -7   2   937493.50  510.31
  -7   2   936541.98  764.29
  -7   5   8  803.09  158.06
   7  -5  -8  732.90  158.54
  -7   5   8  605.15  149.52
   7  -5  -8  514.12  152.32
  -7   5   8  604.03  166.71
   4   4   2 7925.12  464.13
  -4  -4  -2 7948.65  486.90
   4   4   2 8232.77  375.88
  -4  -4  -2 8542.85  385.91
  -9   4   2 1851.52  445.39
  -3   0  10 2446.56  238.40
  -9   4   2 2088.63   75.98
   3   0 -10 2243.82  181.73
  -3   0  10 2487.48  262.27
  -3   0  10 2283.85   99.48
  -9   4   2 2228.55  282.01
  -9   4   2 1826.37  150.62
   9  -4  -2 1699.72   90.24
   9  -4  -2 1647.75  149.19
  -3   0  10 2379.18  312.95
   3   0 -10 2116.16  102.28
  -4   9  -4 1441.20  342.35
   4  -9   4 1375.67  238.36
  -4   9  -4 1397.77  206.50
   4  -9   4 1299.67  185.32
  -4   9  -4 1259.92  114.78
   4  -9   4 1507.66   62.80
   7  -9  -2  -89.21  154.41
  -7   9   2   97.39  109.03
  -9   6   4  608.67  173.71
   7  -9  -2    0.52   34.48
   7  -9  -2  -39.83   74.32
   7  -9  -2   54.58   32.23
   9  -6  -4  463.75  155.44
   9  -6  -4  488.56  143.87
  -7   9   2  155.56  113.41
  -9   6   4  548.96  146.91
   8  -8  -119863.67  432.91
  -8   3   820441.32  607.79
   8  -8  -120913.21  558.40
   8  -8  -119857.75  379.90
  -8   3   820197.98  535.63
  -8   8   121773.64  650.37
   8  -3  -819182.41  547.30
  -8   3   820429.94  597.12
  -8   8   121192.01  361.95
  -8   8   121285.48  627.17
   8  -8  -120403.32  654.21
   8  -3  -819895.30  598.18
  -8   2   831505.80  787.60
  -8   2   830406.30  950.87
   8  -2  -829637.76  734.50
  -8   2   831582.89  804.63
   5   5  -3   73.29   90.08
  -5  -5   3   69.65   98.75
  -7   4  -3  -51.41  116.80
  -5  -5   3   99.30  104.77
   7  -4   3  195.28   96.04
  -7   4  -3  -69.23   85.63
  -7   4  -3 -125.70   93.65
   5   5  -3   23.71  127.87
  -5  -5   3  110.04  157.66
   7  -4   3   19.68  141.67
  -5  -5   3  223.14   87.88
  -7   4  -3   31.93   83.52
  -7   1   9  412.55  148.92
  -7   1   9  440.48   32.40
  -7   1   9  574.76  148.70
   7  -1  -9  477.46  101.04
  -7   1   9  529.80   23.67
  -7   1   9  364.38   85.08
   3   2 -1039961.88 1091.43
  -1  -5   9  193.21  120.70
   1   5  -9   38.41  131.39
  -3  -2  1039769.83 1110.79
  -3  -2  1040916.88 1111.52
  -3  -2  1037216.39  933.06
   1   5  -9  401.37  139.51
  -1  -5   9   29.85  246.27
  -3  -2  1042108.55  624.01
   3   2 -1037857.70  892.98
   3   2 -1039750.18  674.24
   3  -6  -732296.88  897.77
  -6   7  -4  274.01  121.62
  -3   6   732248.02  695.07
  -6   7  -4  181.47  121.50
  -6   7  -4  107.74  121.50
  -3   6   734678.12  921.59
   3  -6  -732161.74  725.36
  -3   6   732993.27  673.45
   6  -7   4  376.31  122.76
   6  -7   4  200.58  150.82
  -6   7  -4  176.45   65.54
  -3   6   733684.52  734.75
   4  -7   6  913.09  312.19
   6  -9   219956.30  689.83
   6  -9   220180.39  492.74
   4  -7   6  743.23  209.32
  -6   9  -220120.02  999.91
   6  -9   219938.75  496.35
  -4   7  -6  763.63   48.35
  -4   7  -6  740.36  205.99
   6  -9   221152.16  429.96
  -6   9  -220794.75  655.07
  -6   9  -221390.04  532.05
  -3  -7   437497.93  907.95
  -3  -7   437934.19  686.84
  -3  -7   438154.29  722.64
  -7   8   535633.24  901.74
   3   7  -434624.23  928.70
   7  -8  -533648.42  516.56
   3   7  -437371.51  663.61
  -7   8   535347.41  975.98
  -3  -7   436171.87  881.17
   7  -8  -534066.70  848.99
  -3  -7   437658.79  734.86
   7  -8  -534263.97  590.91
   7  -8  -534199.79  898.96
  -5  -4   047477.29 1085.47
   5   4   045670.64 1268.54
   5   4   045139.39 1033.12
  -5  -4   045540.98 1802.48
  -7  -2   738252.88  667.59
  -7  -2   737615.02  746.95
  -7  -2   738578.86  651.66
  -7  -2   737644.45  908.92
  -7  -2   738579.13  846.75
  -7  -2   738437.37  759.56
  -5  -4   8  696.87   54.39
  -5  -4   8  680.27   39.85
  -5  -4   8  598.15  114.59
  -5  -4   8  555.10  100.76
  -5  -4   8  487.09  162.99
  -5  -4   8  601.90  139.27
  -7   6  -3 4528.47  255.79
   7  -6   3 5774.23  394.89
  -7   6  -3 4715.39  264.10
   7  -6   3 3980.02  278.63
  -7   6  -3 4386.85  223.42
  -7   6  -3 4656.92  240.32
  -9   4   6  177.72  116.91
  -5   4   9  -23.20  152.38
   5  -4  -9  249.40   60.73
   9  -4  -6  203.80  106.33
   9  -4  -6  117.32  123.27
  -5   4   9   88.88   70.45
  -5   4   9   -4.88  135.50
  -9   4   6  107.91   98.82
   5  -4  -9   62.68  105.30
  -5   4   9   -9.24   98.64
  -4  -1  -532595.00  898.92
  -8   0   735429.73  922.51
  -4  -1  -532522.51  554.87
   4   1   531998.48  531.80
   4   1   530106.08  591.70
  -4  -1  -534140.80  979.18
  -8   0   736677.63  578.55
  -8   0   734340.86  772.16
  -8   0   736017.45  602.17
   4   1   532556.93  979.83
  -8   0   734860.19  987.65
   4   1   531886.39  894.79
  -8   0   735284.24 1056.97
  -4   1  1013163.62  546.05
   4  -1 -1012119.42  329.14
  -4   1  1013694.26  793.88
  -4   1  1013649.30  365.15
  -4   1  1013926.86  301.06
   4  -1 -1012502.86  298.82
  -5  -3   930141.77  775.77
  -5  -3   929210.06  483.55
  -5  -3   929990.78  811.73
  -5  -3   929848.29  578.61
  -5  -3   930677.16  438.09
  -5  -3   929438.26  631.19
  -8   0   214337.30  339.95
  -8   0   213629.67  582.00
  -8   0   214354.79  233.46
  -8   0   212815.38  555.40
   8   0  -212854.47  269.62
   8   0  -213004.75  224.63
   2   5  -921879.09  618.29
  -2  -5   921264.14  596.66
  -2  -5   921140.82  710.84
   2   5  -921508.55  687.60
  -7  -2   2   -5.70  133.51
  -7  -2   2   98.74   72.09
   7   2  -2  191.12  120.82
  -7  -2   2  171.74  122.15
  -6   2  -424721.92  702.45
   6  -2   421921.32  663.07
   5   0 -10  115.41   47.06
  -6   2  -424055.06  677.15
   6  -2   421587.64  440.42
  -6   2  -423297.96  651.76
  -6   2  -424446.98  491.46
  -5   0  10  209.19  165.05
   5   0 -10    7.17   47.23
  -5   0  10  593.49  158.97
  -9   3   6 7861.09  303.93
  -3  -7   3   85.70  103.38
  -3  -7   3  123.95   17.97
   9  -3  -6 7613.59  306.68
  -3  -7   3  247.49  102.98
   9  -3  -6 7708.57  632.69
   3   7  -3   72.37   77.61
  -9   3   6 8312.38  375.69
  -3  -7   3  117.33   80.97
   6   1   219673.62  719.27
   6   1   219307.48  556.35
  -6  -1  -221153.41  733.13
   6   1   218998.82  247.18
  -6  -1  -221111.21  633.23
  -6  -1  -221621.99  739.84
  -3   7   6   95.05  128.82
   3  -7  -6  165.46   62.76
  -3   7   6  150.75  111.64
  -3   7   6  138.97   57.46
   3  -7  -6  147.43  147.57
   3  -7  -6  189.80  137.49
  -3   7   6   90.54   78.66
   1   5   5  319.51   48.50
   1   5   5  403.76  150.15
  -1  -5  -5  555.87  275.92
   1   5   5  584.67  163.39
  -1  -5  -5  522.67  186.37
   7  -9   0 1830.15  153.59
  -7   9   0 2160.55  235.36
   7  -9   0 1677.81  116.69
  -7   9   0 2063.76  188.50
   7  -9   0 1738.23  110.09
   7  -9   0 2060.99  233.37
   9  -6  -2 4324.18   81.55
   9  -6  -2 4674.85  297.15
   9  -6  -2 4610.65  456.58
  -9   6   2 4757.81   86.08
  -9   6   2 5071.84  452.68
  -9   6   2 4513.86  353.33
  -6  -4   5  326.76  150.62
  -6  -4   5  496.68  201.95
  -6  -4   5  394.80   86.40
  -6  -4   5  423.26   39.74
  -6  -4   5  342.49   56.90
  -6  -4   5  353.01   93.95
   4   4  -927341.73  734.09
  -5  -5   612550.51  435.79
   4   4  -929189.74  875.70
  -4  -4   927951.92  796.13
  -5  -5   611935.87  358.41
  -4  -4   928887.29  836.72
  -4  -4   927455.93  628.67
  -5  -5   612116.54  344.24
  -5  -5   612571.81  242.16
  -4  -4   927424.90  748.17
  -5  -5   612839.90  531.06
  -5  -5   611657.29  297.20
   9  -2  -4 8129.70  101.82
  -9   2   4 9195.57  148.52
  -9   2   4 9009.63  122.37
   9  -2  -4 8252.81  247.65
  -9   2   4 9038.21  466.20
   0   0   9  183.78   99.58
  -3   8  -6 8290.16  438.24
  -9   2   4 9287.88  254.58
  -6  -4   4 5306.02  109.46
   0   0   9  211.76   81.82
   3  -8   6 7747.41  772.33
   3  -8   6 8468.92  399.20
  -6  -4   4 5354.48  145.69
  -3   8  -6 8258.07  413.06
  -9   2   4 9117.82  450.78
  -6  -4   4 5010.11  294.08
   0   0  -9   13.27  154.15
  -6  -4   4 4950.95  347.37
   0   0   9  -54.42   53.42
   0   0   9  -54.14   74.62
  -6  -4   4 5369.94  349.35
  -6  -4   4 5079.07  262.65
   0   0  -9  111.07   79.52
   0   0  -9  -15.40   49.70
  -9   2   510093.65  463.74
   9  -2  -511490.51  500.62
   9  -2  -511995.62  486.57
  -9   2   512596.37  517.51
  -9   2   512367.19  323.84
  -1  -4  -637535.30  991.68
  -1  -4  -638610.07 1056.00
   1   4   639553.80  661.13
   1   4   639600.20  756.79
   1   4   640261.60 1070.09
   1   4   640289.56 1093.70
  -2  -2  10 6999.51  399.57
   5  -1 -1035654.29  824.52
  -5   1  1037656.90  744.64
   2   2 -10 6862.81  119.75
   2   2 -10 7462.75  408.27
   5  -1 -1036130.85  912.37
   2   2 -10 6813.20  346.26
  -2  -2  10 7005.40  336.99
  -5   1  1038762.54  733.20
  -5   1  1040216.26 1501.65
  -2  -2  10 7413.35  168.41
  -2  -2  10 6943.13  409.88
  -5   1  1037436.61 1072.53
   0  -5  -640227.47 1588.35
   0   5   640528.73 1035.30
   0  -5  -641521.73 1434.32
  -4  -5   8 4403.65  198.55
  -4  -5   8 3885.13  256.30
   4   5  -8 3788.72  214.93
  -4  -5   8 3943.71   79.89
  -4  -5   8 4139.82   75.54
  -4  -5   8 4206.46  228.18
   2   1 -10   22.39  102.39
   0   5   640976.85  689.47
  -2  -1  10  736.56  178.75
  -2  -1  10  685.84  149.80
  -4  -5   8 4099.34  214.06
  -2  -1  10  918.38  101.75
   0   5   639838.01  797.92
   0   5   641679.85 1107.75
  -2  -1  10  847.94  195.14
   2   1 -10   28.41   84.82
  -7   3   9   34.41  111.65
   7  -3  -9  -16.06   73.12
  -7   3   9  384.68  192.07
  -7   3   9   38.04   75.11
   7  -3  -9   30.06    6.44
  -7   0  -1   10.76  140.02
  -7   0  -1  180.07  102.55
   7   0   1  129.75   27.39
  -7   0  -1  130.25   30.04
   7   0   1  191.86   85.07
  -7   0  -1  311.05  141.35
   6  -4  -9 2226.03  125.91
  -6   4   9 2529.43  320.15
  -6   4   9 2203.16   68.28
  -6   4   9 1592.55  391.73
   6  -4  -9 2448.57  200.30
  -6   4   9 2627.19  248.75
   1  -8  -3  340.80   38.92
  -1   8   3  627.93  126.78
   1  -8  -3  669.13  126.22
   1  -8  -3  -21.76  276.82
  -1   8   3  278.10   86.01
  -1   8   3  695.22  162.90
  -7   8  -211854.37  470.57
  -7   8  -211515.94  361.87
  -7   8  -211189.58  555.26
   7  -8   211270.47  342.13
   7  -8   211086.41  503.76
   7  -8   211867.50  323.69
  -4  -2  1010414.72  467.15
  -4  -2  1010253.59  475.33
  -4  -2  10 9641.62  339.85
   4   2 -10 9771.53  292.79
  -4  -2  1010726.29  198.87
   4   2 -10 9895.87  158.49
  -3  -7   517680.26  340.46
   1   1   8  267.75  125.12
  -2   8   4 4963.91  247.32
   1   1   8   56.64   71.31
  -1  -1  -8  192.46   86.89
  -3  -7   519254.52  346.91
  -2   8   4 4997.51  145.41
   2  -8  -4 5118.43  130.72
   1   1   8   86.18   63.01
  -3  -7   518448.35  801.44
  -1  -1  -8  -35.91  127.77
   1   1   8  -18.85   82.09
   2  -8  -4 4729.93  341.35
   3   7  -518664.66  447.96
   2  -8  -4 4749.26  248.62
  -2   8   4 4449.80  335.01
  -3  -7   518503.33  804.54
  -3  -7   519101.34  394.83
  -8   8   432966.77  878.96
  -8   8   432549.56 1334.63
   8  -8  -432968.51  864.76
   8  -8  -431727.94  477.93
   8  -8  -432772.24 1255.66
  -8   4   820093.27  615.04
  -4  -6   6    7.35   44.29
   8  -4  -820116.56  620.62
  -4  -6   6   55.65   39.01
  -8   4   819687.08  968.25
  -4  -6   6  -52.74   78.30
  -4  -6   6  212.27   76.11
  -8   4   820070.45  569.79
  -4  -6   6  108.37   60.64
   8  -4  -819906.13  582.73
  -2  -4  -511136.54  509.94
   2  -9   546246.60 1219.55
   2   4   511611.46  511.22
  -2   9  -547673.61 1173.61
   2  -9   548220.48 1180.80
   2   4   511583.50  502.47
  -2   9  -548131.25  769.02
  -2   9  -550633.55 1278.70
   2  -9   548261.87 1209.65
  -2  -4  -511294.12  472.10
   2  -9   548305.99  732.93
   2  -1   8 5989.80  254.38
   2  -1   8 5960.47  225.21
  -2   1  -8 6245.30  368.20
  -2   1  -8 6336.72  279.15
  -2   1  -8 5813.46  214.88
   2  -1   8 5813.20  384.54
  -6  -2  -1  215.26  174.52
   6   2   1  181.22  177.35
  -6  -2  -1   37.19  184.33
   6   2   1  358.62  115.68
  -6  -2  -1  540.62  124.66
  -8   1   8 9554.53  303.14
  -5   1  -5 1117.27  298.89
  -8   1   8 9896.31  356.44
  -4  -6   2 6081.09  333.55
  -8   1   810071.31  376.26
  -5   1  -5 1186.88  214.22
  -4  -6   2 6628.28  304.86
  -6  -3   825231.26  467.56
  -4  -6   2 6518.08  305.40
  -6  -3   824060.84  495.02
  -6  -3   825256.95  790.84
  -5   1  -5 1428.55  183.30
   5  -1   5  992.15  148.31
  -6  -3   824310.30  638.09
   4   6  -2 5802.99  320.47
  -6  -3   825392.11  637.27
   8  -1  -8 9246.20  342.87
   5  -1   5 1216.10  185.07
  -6  -3   824696.69  415.03
   4   6  -2 5841.60  282.02
   8  -3   1   34.37   60.03
  -9   6   510101.88  413.14
  -8   3  -1  -20.30  115.69
  -9   6   510091.04  460.79
  -8   3  -1   99.26   57.96
   8  -3   1  160.77   69.95
  -8   3  -1  101.21   74.13
   9  -6  -5 9782.94  427.10
  -8   3  -1   34.69  125.79
   9  -6  -5 9522.84  399.33
  -7   9   3 2180.63  412.00
  -7   9   3 2903.13  254.27
   7  -9  -3 2509.56   87.81
   7  -9  -3 2829.17  227.04
   7  -9  -3 2648.62   95.29
   7  -9  -3 2550.98  235.78
  -4  10  -1 3976.68  198.96
   4 -10   1 4210.23  232.95
  -2   9   2 1604.07  306.96
   2  -9  -2 2107.60   89.83
   2  -9  -2 2012.16  190.59
  -2   9   2 1857.17  215.49
  -4  10  -1 4060.89  414.37
   4 -10   1 4196.01  166.47
   4 -10   1 4584.05  403.92
   2  -9  -2 2516.85  218.76
   2  -9  -2 2044.38  340.68
   4 -10   1 3929.69  398.65
   3  -5  -8 1855.29  342.04
   0  -5   913534.00  588.61
  -3   5   8 2242.55  171.79
   0  -5   913403.66  514.68
  -3   5   8 2513.21  224.62
  -3   5   8 2137.09  152.13
   0   5  -913112.95  552.21
   0   5  -913301.74  555.88
   3  -5  -8  842.17  256.13
  -3   5   8 2221.79  168.14
  -9   3   2   33.89   39.16
  -9   3   2  101.55   59.61
   9  -3  -2   68.26   29.28
  -1  -8   0 6096.13  313.09
  -1  -8   0 5850.10  330.29
   1   8   0 5114.71  306.00
   1   8   0 5416.23  300.25
  -9   3   2  164.62  134.13
   9  -3  -2   43.26   59.59
  -9   3   2  164.52  124.50
   1   8   0 5379.77   61.07
  -1  -8   0 5963.07  549.22
   5   1 -10 9433.21  204.79
   5   1 -10 9697.11  233.97
  -5  -1  1010056.72  462.87
  -5  -1  1010201.51  180.44
  -2  -7   7  659.14  149.74
  -5  -1  10 9247.30  285.10
  -2  -7   7  528.45  148.24
   2   7  -7  493.15  118.24
  -5  -1  1010277.38  451.85
  -2  -7   7  784.03  145.04
   9  -5  -615252.07  849.93
  -9   5   615475.87  548.13
   9  -5  -615460.91  787.87
  -9   5   615721.15  507.64
   0  -9   3 8956.36  227.28
   0  -9   3 8920.17  387.69
   0  -9   3 9172.32  206.68
   0  -9   3 8588.39  384.47
   0   9  -3 8292.03  233.19
   0   9  -3 8696.67  236.72
   0   6   5 1973.87  251.32
   0  -6  -5 1956.50  420.99
   0   6   5 1720.81   61.53
   0  -6  -5  880.21  335.83
   0   6   5 1657.56   93.12
   0   6   5 1824.39  211.60
  -4   4   9 7662.35  360.59
   4  -4  -9 7411.49  317.69
  -4   4   9 7722.80  247.28
   4  -4  -9 7361.66  248.67
  -7   0   9 3275.70  104.94
  -4   4   9 7856.36  316.21
  -7   0   9 3444.80  253.78
  -7   0   9 3646.85  109.38
  -4   4   9 7710.94  316.12
  -7   0   9 3552.64  264.77
   7   0  -9 3632.13  300.31
  -7   0   9 3684.83  144.78
  -7  -1   061698.45 1663.29
   4 -10   0 5052.13  391.38
  -4  10   0 4554.54  395.88
   4 -10   0 5131.80  230.27
  -7  -1   063712.16 1427.20
   4 -10   0 4769.20  338.11
   7   1   059000.26 1254.54
  -7  -1   064373.08 2280.58
  -4  10   0 4773.78  250.34
   4 -10   0 4590.52  232.59
  -6  -2   9 1647.53  144.08
  -6   0  -3 8536.28  705.75
  -6  -2   9 1588.88  107.58
  -6   0  -3 8164.16  400.37
  -6  -2   9 1752.95  185.38
   6   0   3 7774.18  200.80
  -6   0  -3 8117.45  156.33
  -6  -2   9 2057.69  343.37
  -6  -2   9 1566.50  106.75
  -6  -2   9 1674.49  121.89
   6   0   3 7667.38  370.67
  -6   0  -3 8138.90  426.65
   6   0   3 7996.65  433.46
   0  -9   224055.36 1039.84
   0   9  -221829.80  516.60
  -3   9   3   44.09   98.51
   0  -9   223932.03  407.68
  -3   9   3   68.43   67.17
   3  -9  -3   -0.71  114.92
   3  -9  -3   22.81   71.91
   3  -9  -3  -67.98   88.60
   0   9  -221825.28  542.12
   3  -9  -3   74.49   66.24
   0  -9   223425.32  673.16
   0  -9   224165.22  675.66
  -3   9   3    4.03   51.16
   8  -7   1  135.91   88.54
  -8   7  -1    1.87   57.56
   8  -7   1  -24.22   49.98
  -8   7  -1   95.08   81.40
  -8   7  -1  -17.64   91.49
  -8   7  -1   98.68   91.07
   8  -7   1   11.61   69.45
   3  -1 -10 4549.27  170.64
  -3   1  10 4523.12  243.70
  -3   1  10 5202.30  277.22
  -3   1  10 4561.32  337.27
  -3   1  10 4829.41  295.71
   3  -1 -10 4719.48  229.39
  -7   3  -3 2415.47  204.97
  -7   3  -3 2434.43  141.46
   7  -3   3 1814.01  195.73
  -7   3  -3 2592.02  223.57
   7  -3   3 1749.41  128.39
  -7   3  -3 2256.10  412.81
  -8  -1   5  888.21   63.92
  -8  -1   5  948.01   67.07
  -8  -1   5  914.33   89.61
  -6  -4   6  279.27   76.16
  -6  -4   6  211.36   96.30
  -8  -1   5 1063.56  332.69
  -8  -1   5  998.64  161.39
  -6  -4   6  284.77   71.58
  -6  -4   6  377.09   51.99
  -6  -4   6  354.43   77.15
  -8  -1   5  980.67   70.30
  -6  -4   6  359.91   80.04
   1  -3   9 1062.61  210.71
  -1   3  -9 1152.16   93.93
  -1   3  -9 1197.47  362.67
   1  -3   9  952.20  198.21
   1  -3   9 1173.41   62.56
  -1   3  -9  978.18   90.45
   5 -10   0  164.19   81.54
  -5  10   0  -15.83  191.44
  -5  10   0  207.76   92.57
   5 -10   0  139.39   75.21
   5 -10   0   91.80  142.60
   5 -10   0  213.41  104.24
   8  -8   057584.87 1157.79
  -8   8   058179.01 1814.55
  -8   8   060740.20 1949.91
   8  -8   058640.09 1303.24
  -8   8   059474.96 1128.94
   8  -8   056653.56 1463.20
   5  -9  -422364.27  450.47
  -5   9   422573.08 1052.68
   5  -9  -421800.38  450.21
   5  -9  -422817.97  659.18
  -5   9   422012.64  800.90
   5  -9  -421813.05  515.89
  -9   2   321125.45  762.73
   9  -2  -320363.54  426.26
  -9   2   321279.04 1130.68
  -9   2   322120.53  387.76
  -9   2   322018.37  445.35
   2   5   410125.66  500.97
  -2  -5  -410537.84  461.92
   2   5   410146.65  459.65
   9  -2  -320220.56  297.97
  -2  -5  -410404.35  876.29
  -7   1  -241274.30 1177.99
  -9   2   6 4957.77  343.27
   0   4   7 1221.85  211.51
   0   4   7 1319.78  195.84
   9  -2  -6 4477.52  314.29
  -7   1  -244923.37  778.02
  -9   2   6 4841.45  300.34
  -3  -7   216369.50  530.23
   0   4   7 1085.92   92.99
   3   7  -215394.93  495.28
   9  -2  -6 4603.90  374.03
   0  -4  -7  948.32  196.58
   0   4   7 1266.56   82.84
   7  -1   240279.04  686.61
  -3  -7   217101.28  532.62
  -7   1  -245551.00 1462.91
  -7   1  -244254.89 1184.36
  -3  -7   217482.27  513.54
   3   7  -216007.77  496.94
   0  -4  -7 1121.47  196.50
  -9   2   6 4999.42  219.25
   7  -1   240268.22  950.90
   6   4  -3 5431.27  217.32
  -6  -4   3 6272.92  246.64
  -8   6   7 3312.96  273.21
  -1  -8   626833.06  738.89
   8  -6  -7 3587.21  477.38
  -1  -8   627177.08 1078.99
  -8   6   7 3314.93  270.13
  -6  -4   3 5623.90  573.40
  -6  -4   3 5738.57  240.12
   8  -6  -7 3314.58  462.12
  -1  -8   625473.37  701.86
   1   8  -624741.44  612.37
   6  -9  -4 1010.40   76.70
  -6   9   4  342.01  324.92
   6  -9  -4  930.61   76.75
  -6   9   4  950.67  151.31
   6  -9  -4 1308.35  179.04
   8  -7  -6 8903.20  421.24
   8  -7  -6 9074.16  392.48
  -8   7   6 8953.21  408.97
  -8   7   6 8722.19  427.59
   3   3 -10 3098.05  302.57
  -3  -3  10 3922.05  307.18
   9  -5  -1 4875.01  241.87
   1  -9   5 9947.28  418.85
  -9   5   1 5151.66  378.66
   1  -9   510584.99  165.03
  -3  -3  10 2904.03  224.69
  -9   5   1 5377.27  565.55
   9  -5  -1 4442.51  119.99
  -3  -3  10 3286.38  311.41
  -1   9  -510462.76  149.17
   1  -9   510976.69  433.85
   3   3 -10 3363.42  360.71
   1  -9   510672.95  443.97
  -1   9  -510614.36  387.61
  -9   5   1 5313.40  397.04
  -9   5   1 4813.20  218.23
   9  -5  -1 4584.42  316.91
  -5  -5   2  107.00  130.13
  -5  -5   2  206.05  118.97
  -3   9  -512048.22  501.66
  -3   9  -511726.72  165.63
  -5  -5   2  155.73   98.96
  -3   9  -512458.56  477.46
   3  -9   511046.68  510.67
   3  -9   511734.23  478.76
   5   5  -2  140.67   92.34
   3  -9   512002.18  197.50
   3  -9   511712.21  452.61
   5   5  -2  171.55  121.17
  -2  -3  1014537.82  595.53
   2   3 -1014400.07  776.68
  -2  -3  1014862.60  590.92
  -2  -3  1014741.77  775.80
   2   3 -1014770.60  601.67
   3 -10   132702.87  712.29
   3 -10   132939.34  833.04
   3 -10   131094.35  773.79
   3 -10   131573.64  782.38
  -3  10  -129772.24  699.18
  -3  10  -132194.72 1003.34
   2   0 -1012251.39  411.03
  -8  -1   4  195.17   47.64
  -2   0  1012669.48  471.11
  -8  -1   4  133.36  123.86
  -2   0  1012088.70  517.04
  -8  -1   4  191.99  239.29
  -2   0  1012818.71  445.38
  -2   0  1013009.09  388.82
  -8  -1   4   19.17   53.22
   2   0 -1011580.72  255.47
   1   6   452676.50 1426.21
  -8  -1   4  136.69   47.33
   8   1  -4   -0.55   26.34
  -8  -1   4  165.25   36.52
  -1  -6  -454567.83 1349.59
   1   6   452897.06 1317.09
  -1  -6  -453170.54 1472.82
  -5  -2  -314234.99  523.25
  -5  -2  -314475.59  989.02
   5   2   313604.53  599.70
   5   2   313536.33  506.61
   2   3   613923.82  242.98
  -2  -3  -613714.18  882.83
   2   3   614620.94  607.96
   2   3   614556.89  851.71
   2   3   613864.45  239.32
  -2  -3  -615241.11  595.07
  -5  10  -1 3430.82  257.89
   5 -10   1 3229.01  200.71
  -5  10  -1 3381.99  183.28
   5 -10   1 3581.72  201.40
   5 -10   1 3756.03  263.08
   5 -10   1 3616.51  444.73
  -4  10  -265176.67 1525.33
  -4  10  -260145.86 1250.92
   4 -10   263497.47 1454.34
   4 -10   264139.55 1528.36
   4 -10   263819.41 1442.11
   4 -10   266286.02 1249.51
   6  -7  -7  356.50  214.86
  -6   7   7  444.02   45.90
  -6   7   7  358.81  158.86
  -6   7   7  333.64  132.89
  -9   7   311691.51  838.13
   6  -7  -7  368.04   54.50
   6  -7  -7  413.01  272.59
  -9   7   312165.64  459.43
   9  -7  -312107.69  465.87
   9  -7  -311848.10  752.72
  -1   6   6 9107.30  188.29
   1  -6  -6 9358.62  477.26
   0  -8  -2    7.98  117.33
   1  -6  -6 9215.74  614.50
  -1   6   6 9536.28  385.39
   0  -8  -2   88.01   17.43
   0   8   2  182.38  121.22
   0  -8  -2  109.92  184.67
   0   8   2  287.60  142.57
  -1   6   6 9719.50  740.51
   3   6   1  807.79  163.75
   7  -7   332399.59  785.57
   3   6   1  472.04  194.34
  -3  -6  -1  790.44  176.07
  -7   7  -332403.04  755.45
  -7   7  -333290.75  818.09
  -3  -6  -1  864.48  213.30
   7  -7   330664.79  874.24
  -7   7  -332611.87  718.57
  -7   7  -333361.18  876.68
  -3  10  -235023.72  727.23
   3 -10   238245.29  880.35
   3 -10   237972.34  935.84
   3 -10   238616.50  693.32
   3 -10   237871.57  920.17
  -3  10  -237275.56  870.99
  -1   2  -912527.52  476.96
   1  -2   912980.98  375.00
  -5   2  10  634.85  170.05
   5  -2 -10  539.24  178.18
  -5   2  10  750.68  191.20
   1  -2   912282.30  515.43
  -1   2  -912610.89  508.83
  -5   2  10  675.24   96.14
  -1   2  -911987.59  244.51
   5  -2 -10  625.30   75.87
   1  -2   912536.12  453.55
  -5   2  10  608.30  140.38
   1  -4   919385.17 1047.36
   0  -9   4 4896.30  311.64
   0  -9   4 4729.44  308.81
  -1   4  -918843.84  242.86
   0   9  -4 4406.11  197.58
   1  -4   918871.02  668.58
   0  -9   4 4897.80  112.83
   0   9  -4 4912.01  143.00
   0  -9   4 4672.59  208.80
  -1   4  -918975.47  655.23
  -1   4  -918605.45  709.25
   2  -6   8   69.89  200.15
   2  -6   8 1540.38  216.11
  -2   6  -8 1659.72  234.28
  -2   6  -8 1415.55  277.76
  -3  -5   9 2439.52  259.55
   5 -10  -1  813.13  115.55
   5 -10  -1  939.83  231.81
   5 -10  -1  983.17  117.74
   3   5  -9 2418.27  196.67
  -5  10   1 1001.63  157.32
   5 -10  -1 1086.61  146.69
   3   5  -9 2322.97  233.01
  -3  -5   9 2284.88  188.04
  -3  -5   9 2050.39  334.81
  -5  10   1  930.73  157.92
  -8  -1   6  280.39  135.79
   3  -7   724695.77  772.67
  -8  -1   6  261.95   72.56
   3  -7   725526.03  866.67
  -8  -1   6  339.14   79.60
  -8  -1   6  219.15  105.15
  -3   7  -724763.10  872.51
  -8  -1   6  241.08   62.65
  -3   7  -725439.14  776.35
  -8  -1   6  278.44   43.58
  -1   9   120979.38  584.42
   1  -9  -121041.99  618.77
   1  -9  -121420.19  624.97
   1  -9  -121618.03  340.19
   1  -9  -122253.44  919.33
  -1   9   120390.70  934.96
  -1   9   119668.01  476.02
  -1   5   7 4757.16  150.90
  -1   5   7 4981.13  316.95
  -1   5   7 4895.69  163.81
  -1   5   7 4432.37  295.62
   1  -5  -7 4740.60  340.34
   1  -5  -7 5100.19  290.59
  -9   4   139548.56 1098.29
  -9   4   140517.09  852.98
  -9   4   138051.37 1136.47
   9  -4  -136243.72  619.09
  -9   4   138732.05  708.05
   9  -4  -137175.87  799.40
  -5   7   716759.90  726.45
  -5   7   717302.28  602.17
  -5   7   716569.37  438.17
   5  -7  -715983.34  344.80
   5  -7  -716576.84  593.29
  -5   7   716513.34  455.19
   5  -7  -717042.98  446.61
   7  -9   1  996.73  393.34
   7  -9   1 1198.23  120.34
  -7   9  -1 1078.29  144.68
  -7   9  -1  882.00  117.13
   7  -9   1 1247.14  115.64
  -7   9  -1 1214.27  203.69
   7  -9   1 1230.42  126.47
  -9   6   139350.05 1132.48
  -9   6   141298.64 1093.05
  -9   6   140342.32  691.17
   9  -6  -136926.00  750.21
  -9   6   140336.96  962.05
   9  -6  -138300.03  931.34
   9  -6  -139157.54 1011.99
  -1  -3  -7  328.94  160.47
   1   3   7  259.23  125.47
  -4   2  10 1994.57  141.19
   1   3   7  193.69  148.84
   4  -2 -10 2028.82  143.72
   1   3   7  152.84   51.72
  -1  -3  -7  303.39  140.21
  -4   2  10 2136.60  229.01
   4  -2 -10 1810.90  142.81
  -4   2  10 2194.22  254.48
  -4   2  10 2273.50  250.94
   1   3   7  221.62   55.41
  -3   8   546899.18 1263.80
   3  -8  -545382.54  996.50
  -3   8   545495.43  903.05
   3  -8  -545876.36 1240.21
   3  -8  -545556.73  868.71
  -3   8   545028.49  980.38
  -5   5  -6 2275.10  131.55
  -5   5  -6 2657.37  479.78
  -5   5  -6 2707.52  196.30
   5  -5   6 2475.96  232.78
   5  -5   6 2446.16  252.85
   5  -4   646611.70 1106.15
  -5   4  -647431.56 1178.36
  -5   4  -649153.56 1241.88
   5  -4   647352.08 1212.30
  -5   4  -649106.06 1286.84
  -5   4  -649336.80 1118.82
   3   6  -838067.40  918.59
  -9   7   4 2605.29  244.87
  -3  -6   837939.47  880.37
  -9   7   4 2080.45  480.28
   9  -7  -4 2409.26  244.59
  -3  -6   839154.78  901.48
  -3  -6   836578.34  958.14
   9  -7  -4 2275.45  243.29
   2  -3  -9 5648.45  275.05
  -2   3   9 6159.18  259.06
  -2   3   9 6480.15  309.28
  -2   3   9 5774.62  471.81
  -2   3   9 6221.94  279.08
   2  -3  -9 6080.94  294.20
  -6   6   820807.99  328.42
   6  -6  -818953.48  362.25
   9  -7  -218566.77  303.66
  -9   7   220048.98  609.68
   9  -7  -217892.87  274.09
  -6   6   820375.38  581.42
   9  -7  -219481.93  909.94
   6  -6  -820089.85  575.46
  -9   7   219937.99 1061.27
  -6   6   820151.22  621.76
  -6   6   820965.06  634.63
   6  -6  -820336.39  636.17
   9  -7  -218551.39  592.21
  -1   2   9   39.10   60.44
   1  -2  -9  -13.00   58.96
   4 -10  -124045.56  546.71
   4 -10  -124448.48  582.25
  -4  10   124326.61  594.91
  -4  10   123586.40  648.04
  -1   2   9 -124.98  115.98
   4 -10  -123607.83  569.95
  -1   2   9   33.22  102.95
   4 -10  -123505.45  571.63
  -1   2   9  -12.59  145.91
   1  -2  -9   32.34   74.57
  -5  -3  -2 1216.67  194.14
   5   3   2 1279.64  259.01
   5   3   2 1341.64  196.10
  -6   1  10 7315.30  421.49
   0  -9   1 4790.09  299.20
  -6   1  10 7065.13  389.82
   6  -1 -10 6888.96  233.49
  -5  -3  -2 1221.16  261.71
   0   9  -1 4359.60  240.36
  -6   1  10 7366.26  177.66
   0  -9   1 4795.87  517.78
   0  -9   1 4771.71  162.08
   6  -1 -10 7220.30  214.40
   0  -9   1 4968.54  225.00
   0   9  -1 4540.86  122.04
  -6   1  10 7755.66  328.03
  -4   4  -7   14.31   47.76
   4  -4   7  -62.85  100.77
   4  -4   7    3.06   86.32
  -4   4  -7   17.88   91.32
  -4   4  -7   40.18  213.71
  -4   4  -7  132.16   49.75
  -3  10   0 4243.17  243.54
   3 -10   0 3831.69  245.50
  -3  10   0 4035.30  207.85
   3 -10   0 4084.42  240.66
   3 -10   0 4224.72  198.79
   3 -10   0 4040.30  176.21
   2   8  -3   43.07   47.45
  -2  -8   3  104.88   67.88
   2   8  -3  130.65   72.35
  -2  -8   3  175.49  197.63
  -2  -8   3  145.64  112.66
   2   8  -4  351.05   49.87
  -2  -8   4    6.37  106.46
  -2  -8   4  380.65   54.16
  -2  -8   4  359.34  135.19
  -2  -8   4  363.15  132.05
   2   8  -4   21.47   70.17
   0  -7   8 3176.26  269.71
   0  -7   8 3386.78  542.00
   0   7  -8 3297.28  491.40
   0   7  -8 3337.38  303.42
   3   7  -6 4235.35  163.65
  -3  -7   6 4162.23   93.53
  -3  -7   6 4016.69  259.78
  -3  -7   6 4100.18  204.73
  -3  -7   6 4500.05  147.44
  -3  -7   6 4138.31  260.16
  -2  -7  -116488.05  566.61
   2   7   115924.27  838.64
   2   7   114596.59  578.66
  -2  -7  -116985.64  625.68
   4   5   1 4216.83  287.21
   4   5   1 4475.54  365.07
   3   4   4  519.11  322.42
   3   4   4  708.69  359.11
  -3  -4  -4  527.30  178.54
  -3  -4  -4  745.33  209.22
  -4  -5  -1 4363.06  373.68
  -4  -5  -1 4344.28  497.52
  -5   6   8  238.84  228.92
  -5   6   8  428.77   62.84
  -7   4   923374.73  894.49
   9  -3  -745270.25 1140.54
  -7   4   923937.82  710.76
   9  -3  -745962.53 1458.91
  -5   6   8  252.30  208.50
  -7   4   923151.07  732.28
   5  -6  -8  468.89  145.85
   7  -4  -922263.65  607.99
   5  -6  -8  396.67   75.34
  -9   3   747163.56 1145.50
   5  -6  -8    7.41  113.07
  -9   3   747483.52 1103.00
  -5   6   8  599.23  151.27
  -8   1   0 6326.58  417.47
  -8   1   0 5752.07  403.35
   5   1   4  549.39  295.02
   5   1   4  356.50   34.79
   8  -1   0 5543.64  204.93
   8  -1   0 5422.75  129.78
  -8   1   0 5975.98  262.90
  -5  -1  -4  482.91  180.52
  -8   1   0 6180.51  214.79
   5   1   4   70.37  162.01
  -5  -1  -4  528.29   39.80
  -5  -1  -4  576.77  314.30
  -5  -5   717981.51  449.50
  -5  -5   718166.27  387.77
  -5  -5   718802.15  345.65
  -5  -5   717886.79  380.32
  -5  -5   718080.16  436.72
  -5  -5   717562.06  456.31
   1   2 -10 4963.42  317.43
  -1  -2  10 4697.89  354.70
   1   2 -10 4726.54  100.03
  -1  -2  10 5035.05  110.73
  -1  -2  10 4362.77  528.42
   1   2 -10 4401.82  350.25
  -1  -2  10 5041.62  335.53
  -3  -3  -521447.60  756.76
   3   3   521238.35  738.46
  -3  -3  -522022.46  743.80
   3   3   521226.77  742.90
   4  -5   7 8220.66  408.38
  -4   5  -7 8230.75  462.95
  -6   0  10  828.41   74.73
  -4   5  -7 8240.48  188.33
   6   0 -10 1119.13   65.08
   6   0 -10  960.80   98.43
  -4   5  -7 7930.70  367.04
  -4   5  -7 7991.33  259.12
   4  -5   7 8131.28  707.27
  -9   4   7 2335.63  409.08
   9  -4  -7 2867.67  241.56
  -6   0  10  889.54  191.05
  -9   4   7 3030.49  246.65
   9  -4  -7 2850.52  256.97
  -6   0  10  892.01  200.69
   1  -8   737615.38  984.06
   1  -8   736411.95 1105.77
  -1   8  -736880.22 1007.39
  -1   8  -738652.02 1088.37
  -6   8   623162.07  631.96
  -6   8   623450.15  747.65
   6  -8  -622596.68  591.16
   6  -8  -622068.49 1088.63
   6  -8  -622849.26  386.76
  -6   8   623036.84  390.42
   6  -8  -622370.71  402.10
  -4   9   437167.54  794.86
  -5   8  -519935.76 1047.10
  -4   9   437138.46 1453.16
  -5   8  -519455.78  431.47
   4  -9  -436510.47 1013.21
   4  -9  -436709.01  975.49
   4  -9  -435464.49  753.08
   4  -9  -435948.32  723.94
   5  -8   518860.82  705.79
  -5   8  -518656.23  450.38
   5  -8   519241.32  599.30
  -4   9   435645.70  993.03
  -5   8  -519931.72  653.83
  -5   9  -434914.18  915.75
   5  -9   431561.37  994.31
   5  -9   433559.00  679.47
  -5   9  -431438.65  582.41
  -5   9  -433889.67 1366.74
   5  -9   432927.63  836.52
  -5   9  -433883.15  577.68
  -7  -3   5 5520.29  304.47
  -7  -3   5 5105.66  164.97
  -7  -3   5 5421.35  184.31
  -7  -3   5 5030.70  415.89
  -7  -3   5 5046.85  176.15
   5   2 -10 3715.61   98.86
   8   1  -311375.90  247.60
  -8  -1   312880.94  308.32
   3   0   7 1680.04  181.00
  -5  -2  10 3453.55  102.57
  -8  -1   311902.29  519.98
  -3   0  -7 1571.55  178.06
  -3   0  -7 1721.72  258.53
  -8  -1   312782.62  199.45
  -8  -1   311950.24  298.78
  -5  -2  10 3698.64  501.03
  -8  -1   312744.00  561.70
   3   0   7 1719.21  118.32
   3   0   7 1577.26  269.47
  -3   0  -7 1852.46  131.76
  -5  -2  10 3773.98  296.73
   5   2 -10 3934.74  156.27
  -5  -2  10 3514.01  181.03
   7  -7  -7  203.29   40.67
   7  -7  -7  209.88  239.09
   7  -7  -7  324.58  119.90
  -7   7   7  308.86  145.57
  -7   7   7  248.60  135.80
   6   3   024978.98  856.39
  -8   5   8 3923.17  298.58
   6   3   025251.53  916.25
  -6  -3   027667.57 1016.95
  -6  -3   026290.89  872.80
   8  -5  -8 3430.86  272.88
  -6  -3   027395.24  935.36
   8  -5  -8 3850.17  293.60
  -8   5   8 3691.43  263.56
  -7  -2   8 8399.30  289.36
  -7  -2   8 8818.53  279.58
  -7  -2   8 8069.18  318.70
  -7  -2   8 8290.63  209.79
  -7  -2   8 8230.37  187.44
  -7  -2   8 8441.27  172.79
  -4  -3  1010613.99  474.53
   4   3 -1010762.07  327.59
  -4  -3  1010028.73  349.54
  -4  -3  1010652.22  481.12
  -9   6   6   66.29  107.17
  -6   2  1019466.97  338.22
  -6   2  1019589.86  442.14
  -8   0   8 6353.43  302.21
   8   0  -8 5834.90  285.26
  -9   6   6   70.13  205.94
   9  -6  -6  229.13  125.86
  -6  10   0 2920.69  207.44
  -8   0   8 6360.86  294.90
  -8   0   8 6291.43  230.45
   6  -2 -1018432.17  465.90
   9  -6  -6  113.48  136.56
   6 -10   0 2983.10  161.99
  -6   2  1019875.08  712.30
  -8   0   8 6297.78  268.12
  -6  10   0 3074.06  267.37
   6 -10   0 2818.48  256.56
   6 -10   0 2886.00  165.25
   6  -2 -1019154.83  320.75
  -6   2  1020264.06  670.63
   6 -10   0 2911.33  174.46
   1   3 -10 1488.55  201.34
  -1  -3  10 1725.74  241.99
   6  -8   4  363.71  219.85
   1  -7  -519583.03  720.48
  -1  -3  10 1264.59  217.17
  -9   1   5 2197.67  267.24
   8  -8  -5 3276.66  276.49
  -1   7   519471.61  398.04
  -8   8   5 3409.99  308.19
  -1   7   519665.10  578.91
  -9   1   5 1963.17  427.77
   9  -1  -5 2086.67  136.05
  -8   8   5 3461.79  285.79
   7  -9  -4 1574.75  204.47
  -9   1   5 2322.14  128.21
   1  -7  -519401.37  575.00
   6  -8   4    4.20   93.24
  -6   8  -4   99.41  130.64
  -1   7   518840.11  423.55
   7  -9  -4 1457.34  114.07
  -1   7   520224.76 1084.61
  -9   1   5 2225.77  141.59
  -6   8  -4  202.66   97.81
  -6   8  -4  154.83  122.01
   1   3 -10    2.86  207.68
   7  -9  -4 1515.36  117.60
   8  -8  -5 3343.36  285.07
  -7   9   4 1838.28  236.16
   7  -9  -4 1456.90  197.15
  -7   9   4 1618.16  212.54
   5 -10   2 3397.02  293.76
   3 -10   3 6589.62  533.90
   5 -10   2 3432.96  221.06
   5 -10   2 3146.64  210.66
   3 -10   3 6513.21  149.73
   0   7   428637.51  900.07
   0  -7  -429123.48  791.50
   3 -10   3 6375.37  333.45
  -6   5  -5  584.35  100.90
   0  -7  -429727.64  941.65
   0   7   428578.64  446.66
   3 -10   3 6483.35  332.19
  -5  10  -2 3238.60  268.35
   0   7   428215.06  461.80
  -3  10  -3 5867.82  172.29
  -6   5  -5  622.49  139.02
  -6   5  -5  691.02  109.73
   0   7   428429.76  781.51
  -6   5  -5  708.68  169.39
  -5  10  -2 3476.37  278.34
   5 -10   2 3788.34  137.10
   6  -5   5  808.33  206.64
  -3  10  -3 6450.69  310.17
   6  -5   5  -16.29  110.86
   4  -3   7 6210.15  381.82
   1   7  -8    0.03  170.01
   6 -10  -1  205.27  121.84
  -6  10   1   41.89  106.99
  -4   3  -7 5336.46  367.06
  -6  10   1  284.84  118.30
  -4   3  -7 5290.65  266.95
  -1  -7   8  981.18  185.85
   6 -10  -1  113.74   67.18
  -4   3  -7 5339.57  310.80
  -1  -7   8 1187.17  183.54
   6 -10  -1  212.10  202.89
   6 -10  -1  245.48   92.48
   4  -3   7 5649.19  280.67
   1   7  -8 1091.18  163.16
  -4   3  -7 5458.04  205.99
  -1  -7   8  734.47  207.97
  -8   0   1 7161.16  460.71
   8   0  -1 7002.09  130.34
  -8   0   1 8113.47  205.31
  -8   0   1 8198.58  448.04
  -8   0   1 7264.25  456.09
   8   0  -1 7238.93  217.83
  -5   8   6  388.69   69.30
   5  -8  -6  396.46   67.86
   0  -8   731805.77  881.38
   0   8  -729847.55  835.50
  -5   8   6  337.20  169.21
   5  -8  -6  295.13  151.91
   0  -8   731165.35  855.28
   5  -8  -6    1.38   93.75
  -5   8   6  539.98  114.63
   0  -8   729508.38  902.53
   0   8  -732532.70  926.98
   7   3  -413305.54  309.83
  -6   9  -3 1064.68  207.91
   1  -7   8 3489.15  299.58
   6  -9   3 1112.03  235.08
  -6   9  -3 1167.66  168.98
   6  -9   3 1162.01  152.67
  -7  -3   413823.98  478.13
  -6   9  -3 1047.80  106.45
  -1   7  -8 3603.37  354.80
  -7  -3   414015.42  298.76
   1  -7   8 3582.75  343.20
  -1   7  -8 3802.13  322.02
  -7  -3   414581.80  245.50
  -7  -3   414523.80  343.26
  -7  -3   413934.41  341.07
  -7  -3   414521.45  849.84
   6  -9   3  946.12  148.68
  -7  -2   1  443.42  177.06
  -7  -2   1  313.07  162.16
  -7  -2   1  199.25  102.87
   7   2  -1  237.72   88.36
  -6  -4   7  432.63   60.54
  -6  -4   7  418.11   82.50
  -6  -4   7  326.82   91.62
  -6  -4   7  191.55   78.52
  -6  -4   7  417.73  117.27
  -6  -4   7  354.76   82.17
  -4  -6   727050.64  654.18
  -4  -6   726982.12  460.46
   4   6  -726466.68  553.60
  -4   0  -6 3950.82  261.98
  -4   0  -6 3937.48  153.26
  -4   0  -6 3694.73  340.45
  -4  -6   725153.69  636.32
  -4  -6   726235.85  556.11
  -4  -6   727550.37  417.25
   4   0   6 4118.07  280.15
   4   0   6 3729.81  137.13
  -4  -6   726434.11  647.38
   1   1 -1016539.05  600.62
   1   1 -1017114.89  843.64
  -1  -1  1017441.68  573.25
   1   1 -1016498.65  409.45
  -1  -1  1017209.41  626.66
  -1  -1  1018042.26  340.06
  -1  -1  1018138.92  590.32
  -5   6  -619677.84  702.70
  -5   6  -620063.95  374.21
   5  -6   619554.47  671.94
  -5   6  -620207.28  393.68
  -5   6  -620419.48  614.04
   5  -6   619820.81  660.07
  -5   3  -6 3728.85  305.44
   5  -3   6 4142.89  213.51
  -5   3  -6 3834.50  195.34
  -2  -8   2 8462.41  389.27
  -5   3  -6 4220.71  339.89
  -5   3  -6 3789.50  209.85
   5  -3   6 3345.35  316.78
  -2  -8   2 8400.90  392.35
  -2  -8   2 8490.94  310.30
   2   8  -2 7503.67  319.33
  -9   1   410102.57  166.28
  -9   1   410551.37  218.29
  -9   1   4 9942.27  237.44
  -9   1   4 9529.57  481.09
   9  -1  -4 9161.66  241.65
   9  -1  -4 9195.84  146.73
  -9   1   410607.44  512.89
  -4  -6   127720.15  840.82
   8  -5   2 6759.85  263.96
  -4  -6   127244.04  734.93
  -8   5  -2 6867.25  271.12
   8  -5   2 6376.61  471.67
  -8   5  -2 7060.38  363.94
   4   6  -125259.62  996.54
  -8   5  -2 6934.63  341.71
   4   6  -124333.19  754.56
  -9   2   2 3725.16  367.80
   9  -2  -2 3690.63  144.71
   9  -2  -2 4005.21  172.03
  -9   2   2 4289.90  149.03
  -9   2   2 4044.89  146.18
  -2  -8   512473.67  459.85
  -2  -8   513694.08  232.48
   2   8  -512885.48  246.49
  -2  -8   512659.68  748.60
  -2  -8   513367.10  476.19
  -2  -8   512537.24  332.07
   2   8  -512917.83  295.31
   2 -10   2  659.24  191.10
   2 -10   2  853.42  171.14
   2 -10   2  929.36   82.56
  -2  10  -2  595.19  118.54
  -2  10  -2  678.87  162.02
   2 -10   2  833.40  171.67
  -6   4  -5 2503.90  170.22
   6  -4   5 2197.14  183.18
  -7  -1   9  -15.21   47.18
   7   1  -9   22.19   58.54
  -7  -1   9   50.33   94.96
  -6   4  -5 2525.23  178.08
   6  -4   5 2099.36  231.63
  -7  -1   9   68.20   69.58
  -6   4  -5 2192.22  184.10
  -7  -1   9  140.18   66.29
  -6   4  -5 2406.35  249.36
  -7  -1   9  -10.80   76.06
  -7  -1   9  112.89   84.57
  -9   2   7 1687.27  201.12
  -9   2   7 2142.36  175.73
   9  -2  -7 2006.08  177.06
   9  -2  -7    0.38  369.05
  -9   2   7 2029.85  191.21
  -7  -3   615227.40  398.27
  -7  -3   615862.17  468.87
  -7  -3   615653.05  463.40
  -1   1  -9 1413.68  187.63
  -7  -3   615263.85  484.04
  -1   1  -9 1705.30  194.34
  -7  -3   616257.32  289.89
  -7  -3   615145.28  346.67
   1  -1   9 1623.06  121.92
   1  -1   9 1536.53  247.23
   1  -1   9 1856.36  179.12
  -7   6   812197.25  785.43
   7  -6  -811693.32  728.10
  -2  -6  -3  558.31  168.46
   2   6   3  532.63  306.92
   2   6   3  604.30  203.47
  -2  -6  -3  537.71  210.67
  -7   6   812052.81  473.67
   7  -6  -811541.91  467.57
   3  -4  -922663.23  593.37
  -6  -4   2 3699.64  218.20
  -6  -4   2 3072.44  320.13
  -6  -4   2 3591.44  294.25
  -8   2  -1  397.54  102.30
   3  -4  -922373.45  636.02
  -3   4   923150.98  943.29
   8  -2   1  354.73  104.65
  -8   2  -1  258.65  101.47
   8  -2   1  273.09   94.15
   6   4  -2 2992.93  190.39
  -3   4   924185.38  647.59
  -8   2  -1  297.19  166.12
  -8   2  -1   -8.48  160.54
  -3   4   923604.27  598.52
  -3   4   923790.61  592.83
   4 -10   3 9468.12  384.23
   6  -1   414247.70  564.47
   4 -10   310844.71  293.41
   4 -10   3 9460.41  448.28
   6  -1   413439.00  269.20
   1  -5   9 4331.80  365.45
  -4  10  -3 9730.08  398.38
  -6   1  -415256.44  554.56
  -6   1  -415032.18  527.74
  -4  10  -3 8835.70  220.71
  -6   1  -415117.27  300.14
  -6   1  -415849.31  555.67
  -1   5  -9 4682.30  340.63
  -1   5  -9 4070.84  382.12
   4 -10   3 9407.47  633.01
   1  -5   9 4327.95  347.51
  -5  10   2  614.81  132.14
   5 -10  -2  565.92  165.74
   5 -10  -2  317.36  228.19
   5 -10  -2  437.47   94.05
  -5  10   2  691.50  161.25
   5 -10  -2  562.27  115.02
   0   1   9 6174.87  254.71
   0   1   9 5895.63  455.14
   0  -1  -9 5596.52  348.02
   0  -1  -9 5645.73  237.53
   0   1   9 5881.10  382.30
   0   1   9 6048.82  247.72
  -9   3   1 4663.03  361.05
   9  -3  -1 3969.84  126.91
  -9   3   1 4928.22  654.55
  -9   3   1 4262.14  289.15
   9  -3  -1 4131.53  171.35
  -9   3   1 4435.30  249.58
  -8  -1   7 3533.00   96.12
  -8  -1   7 3550.74  163.93
  -8  -1   7 3837.74  264.71
   3   7  -142764.28 1522.34
  -8  -1   7 3364.41  141.34
  -8  -1   7 3280.66  186.79
  -3  -7   147050.71 1593.11
  -3  -7   148249.35 1232.52
  -8  -1   7 3563.74  323.68
   3   7  -144560.88 1471.75
  -8   6  -214777.70  708.08
   8  -6   212931.97  460.02
  -8   6  -215253.54  482.53
   8  -6   214316.85  378.02
  -8   6  -215093.51  418.78
  -8   6  -215101.05  508.42
   9  -7  -525943.22  785.11
  -9   7   525106.39  819.67
   0  -9   5   82.29   87.50
   0  -9   5   55.27  195.85
   9  -7  -524705.17  746.30
   0   9  -5    0.47  128.65
   0  -9   5   81.59  113.43
  -9   7   525927.04  759.02
   0   9  -5   69.31   44.94
   2 -10   119959.50  420.78
   2  -8   7 -143.94  157.63
  -2  10  -117561.10  472.86
  -2   8  -7  129.08  146.74
   2 -10   118982.73  578.24
  -2   8  -7   89.95  126.53
   2  -8   7 -161.02  131.90
   2 -10   119683.44  444.72
   2 -10   119596.62  594.82
  -2  10  -118389.27  448.64
   2   4 -1011810.00  534.13
  -2  -4  1011933.22  546.92
  -4   9  -5 1031.28  397.59
   4  -9   5  899.11  233.48
  -4   9  -5 1343.80   51.03
  -2  -4  1011942.10  456.90
   2   4 -1011746.99  446.29
   4  -9   5 1031.30  181.61
  -4   9  -5 1270.75  222.65
  -1   4   810110.20  434.72
   1  -4  -810025.11  429.74
  -1   4   810055.44  263.80
  -1   4   810489.75  416.95
   1  -4  -8 9399.17  684.36
  -1   4   8 9367.64  290.07
  -3   4  -8    4.80   91.89
  -2   1  10  606.55  171.70
   2  -1 -10  601.70  163.75
   2  -1 -10  730.80  241.44
   3  -4   8   -1.79  142.20
  -3   4  -8    4.37   33.17
  -2   1  10  711.45  149.08
  -9   7   1 7410.69  704.43
  -2   1  10  750.82  152.40
   3  -4   8    0.29   70.72
   9  -7  -1 7513.50  378.50
  -9   1   612283.87  460.10
  -2   1  10  528.64   92.97
  -9   7   1 7871.54  371.84
  -3   4  -8  273.94  114.97
   9  -7  -1 7063.26  161.31
  -9   1   613690.19  339.41
   9  -7  -1 7834.02  356.89
  -3   4  -8   33.74   34.41
   9  -1  -613023.59  368.03
  -9   1   613280.28  372.64
  -9   7   1 8007.49  164.51
  -9   1   613723.06  544.93
  -6   6  -5 2043.41  248.38
   6  -6   5 1914.00  222.78
   6  -6   5 2013.30  231.29
  -6   6  -5 2218.32  215.37
  -6   6  -5 2110.46  207.08
  -6   6  -5 1909.98  140.10
  -4   8  -621840.94  773.76
   7  -8  -6  995.69   94.06
  -4   7   719819.33  472.51
  -7   8   6 1113.00  194.51
  -4   8  -621705.86  717.14
   7  -8  -6 1285.66  177.70
   1   6  -9  288.45  145.07
  -1  -6   9   34.43  108.36
  -4   7   719822.82  453.02
  -4   7   719449.87  713.51
  -4   8  -621039.44  339.21
   4  -8   621013.69  688.37
   4  -8   620803.43  782.42
   7  -8  -6 1139.59   49.03
  -4   7   719637.65  676.86
   1   6  -9    0.06  248.07
   4  -7  -718671.62  449.28
   4  -7  -718665.39  668.40
  -7   8   6 1502.54  227.02
   7  -8  -6 1108.08  211.92
  -1  -6   9  263.45  230.71
   4  -7  -719387.51  466.85
  -8   9   2 3341.94  289.87
   8  -9  -2 3130.18  104.78
   8  -9  -2 3065.36  291.94
   8  -9  -2 3211.91  148.03
  -8   9   2 3102.23  277.67
  -3   2  1011209.42  382.68
   7  -2   3  255.22   63.28
   2   0   814189.62  372.99
  -3   2  1011052.54  422.82
  -3  -5  -311927.82  598.12
   2   0   814077.12  600.34
  -2   0  -814273.32  401.45
   7  -2   3  414.97  134.64
  -7   2  -3  491.17  159.20
   2   0   813604.58  391.93
  -7   2  -3  488.83  233.32
   2   0   814924.50  427.84
  -2   0  -814376.49  585.84
  -2   0  -813705.59  401.88
   3   5   311171.07  930.38
  -3   2  1011366.09  758.37
  -7   2  -3   -1.68  148.45
  -3   2  1011585.62  318.11
  -3  -5  -312350.99  515.35
  -7   2  -3  508.53  116.55
   3  -2 -1010353.41  309.67
   3  -2 -1010634.86  348.96
   3   5   311860.50  808.00
  -9   5   7 8072.80  389.21
   9  -5  -7 8138.21  395.25
   9  -5  -7 7419.14  382.53
  -9   5   7 8621.18  654.66
   0  -3  -833384.68  953.94
   0  -3  -830525.49  826.30
   0   3   832205.91  646.09
   0   3   831376.83  931.54
   0   3   833100.09  852.48
   0   3   832205.48  675.41
   2  -6  -7 5388.97  364.58
  -2   6   7 5715.18  180.81
  -2   6   7 6282.40  361.82
  -2   6   7 5924.97  479.60
  -2   6   7 5527.61  191.37
   2  -6  -7 5309.81  275.65
   6 -10   1 7838.50  275.13
  -6  10  -1 7804.69  453.51
  -6  10  -1 7605.62  653.47
   6 -10   1 8182.48  248.61
   6 -10   1 7541.59  408.23
   6 -10   1 7556.10  426.05
   8  -8   110047.45  346.81
   8  -8   1 9919.72  478.42
  -8   8  -110363.62  455.17
  -8   8  -110335.06  294.64
   8  -8   1 9941.55  290.98
  -8   8  -110250.75  394.72
  -3  10   1 7991.78  267.28
   3 -10  -1 8386.22  232.40
   3 -10  -1 8512.25  316.95
   3 -10  -1 8126.52  532.67
  -3  10   1 8331.41  365.42
   3 -10  -1 7910.38  323.23
   4  -6   710911.26  513.99
   4  -6   711477.12  517.97
  -4   6  -711519.51  198.30
  -4   6  -711538.80  555.52
  -4   6  -711100.24  202.24
  -4   6  -711725.13  474.71
   6   1 -10  256.62   61.69
   6   1 -10  196.76   85.81
   2 -10   3  566.29  127.42
   2 -10   3  520.32  167.51
   2 -10   3  667.41  162.47
  -6  -1  10    6.69  106.88
  -6  -1  10  208.74  126.86
   2 -10   3  677.63   60.28
  -2  10  -3  620.75  125.11
  -6  -1  10  147.16   73.94
  -2  10  -3  467.43   72.31
  -6  -1  10  293.24  225.51
  -2  -2  -747398.85 1332.64
  -2  -2  -744842.67 1149.38
  -8   4  -233864.71  792.53
   2   2   746627.80 1174.61
   8  -4   230602.23  682.64
  -8   4  -234687.50  928.45
  -8   4  -234821.75  979.07
  -8   4  -234164.47  744.96
   8  -4   230389.26  723.60
   2   2   744703.63  846.08
   2   2   744035.91  822.55
   2   2   746055.73 1332.12
   6 -10  -2 6779.92  320.27
   6 -10  -2 7033.90  211.26
  -6  10   2 7598.42  589.34
  -6  10   2 7039.37  338.91
   6 -10  -2 6655.08  501.53
   6 -10  -2 6770.82  208.30
  -8   9   1 1089.03  376.12
   4  -6  -8 4904.10  221.48
  -3   3  -829166.46  769.25
   8  -9  -1 1094.69  155.19
   8  -9  -1  886.70  121.78
   4  -6  -8 4893.60  338.18
   3  -3   829025.41  768.38
   8  -9  -1 1002.74  213.89
  -4   6   8 5124.15  257.49
  -4   6   8 4974.63  328.34
   8  -9  -1 1077.46   85.49
  -8   9   1 1340.67  196.12
  -3   3  -829480.19  564.28
   3  -3   828800.69  890.89
  -3   3  -830967.73  921.52
  -4   6   8 5136.00  203.22
  -3   3  -830801.14  744.11
  -4   6   8 5095.70  234.95
  -3  -2  -6 1837.32  274.81
   3   2   6 1760.08   78.49
   3   2   6 1740.28  123.12
   3   2   6 1874.77  417.74
   3   2   6 2028.48  284.66
  -3  -2  -6 1684.69  238.21
   6  -5  -9  379.09   94.04
  -8   2   9 5823.33  241.48
  -6   5   9  570.66  150.04
   8  -2  -9 5050.37  260.51
  -8   2   9 5504.39  336.10
  -6   5   9  469.72   81.35
  -6   5   9  402.12  247.81
  -6   5   9  554.98  163.93
   6  -5  -9  534.99  145.27
  -8   2   9 5860.68  345.43
  -5  -5   1   24.09  106.77
   5   5  -1  153.35  186.96
   5   5  -1  205.16  247.73
  -5  -5   1  330.41  142.58
   0   6  -9 8579.26  470.97
   0   6  -9 8401.32  468.29
   5  -3 -10 4549.31  233.53
  -5   3  10 5525.67  331.82
  -5   3  10 5523.52  385.91
   5  -3 -10 4621.85  165.28
   0  -6   9 8508.19  499.82
  -5   3  10 5230.38  173.49
  -5   3  10 5250.32  375.55
   0  -6   9 9067.70  442.56
   1   8   148608.51 1306.04
  -1  -8  -155915.25 1436.40
  -3  -4  1030027.78  776.51
  -3  -4  1031129.90  925.75
  -1  -8  -154008.40 1365.96
  -3  -4  1031233.24  935.43
   3   4 -1031279.48  777.15
   3   4 -1031830.01  947.07
   1   8   150610.67 1237.43
  -2   7   6  294.22   61.51
   2  -7  -6  184.27  152.77
  -2   7   6  200.48   96.31
   2  -7  -6  179.36  106.34
  -2   7   6  255.95  157.97
   0  -9   0 7321.50  381.55
   0   9   0 6885.81  191.76
   0   9   0 6931.33  349.30
   0  -9   0 7593.68  122.51
   0  -9   0 7595.62  328.65
   1   7   3  570.70  167.40
   1   7   3  258.35  329.57
   0   9   0 6574.53  550.58
   0  -9   0 7627.26  374.52
  -1  -7  -3  534.85  157.62
  -1  -7  -3    6.47  338.63
  -4  10   2 4171.92  215.13
   5  -5  -921902.30  472.96
   5   4   1  262.68  170.99
  -4  10   2 4279.51  496.63
   4 -10  -2 4026.31  216.48
   5   4   1  210.85  219.77
  -5   5   923250.69  700.98
  -5   5   923879.62  456.01
  -5  -4  -1  171.42  152.91
   4 -10  -2 4164.58  305.57
   4 -10  -2 4252.34  215.60
   4 -10  -2 4373.51  438.86
   5  -5  -922097.16  651.09
  -5   5   924581.32 1006.56
  -5   5   924137.23  659.78
  -5  -4  -1   50.55  111.41
  -3   5  -818933.56  296.52
   3  -5   819395.37  684.94
  -7  -3   328805.96  637.12
  -3   5  -819382.30  975.17
  -3   5  -819252.73  306.89
   7   3  -325609.03  546.46
  -7  -3   328690.69  904.03
  -3   5  -818858.41  756.82
  -7  -3   326339.96  796.79
   3  -5   819725.59  721.45
   8  -9  -3  175.20   36.95
  -8   9   3  191.70  137.48
   8  -9  -3  -17.11  117.88
  -8   9   3  244.34  141.82
   8  -9  -3  157.63   31.89
   8  -9  -3  145.96  132.29
  -5  -4   9  125.49   86.83
  -5  -4   9  159.69   78.35
  -5  -4   9  -14.00  102.18
  -5  -4   9  -65.07   51.83
  -8   3   9 7588.12  405.27
  -8   3   9 8183.10  406.17
   8  -3  -9 7458.50  332.77
  -8   3   9 7805.67  492.42
   9  -5   0 3788.20  223.32
  -9   5   0 4237.25  363.00
  -9   5   0 3579.88  302.43
  -9   5   0 4048.71  581.37
   1   4 -10  182.73  131.72
  -1  -4  10  221.82  128.17
   1   4 -10   14.57  139.58
   9  -5   0 3410.85  140.18
  -9   5   0 3595.12  152.82
  -1  -4  10   13.54  145.66
  -9   1   3 6242.46  184.15
  -9   1   3 5761.74  159.47
  -9   1   3 5965.62  411.71
   9  -1  -3 5448.04  123.97
   9  -1  -3 5693.95  161.26
  -9   1   3 5585.63  414.79
  -7   8  -3 8528.50  416.09
  -7   8  -3 8237.76  261.19
  -7   8  -3 8364.21  350.86
  -7   8  -3 8323.08  451.52
   7  -8   3 8452.11  333.95
   7  -8   3 7997.98  450.76
  -2   9  -6 1471.96  232.38
  -2   9  -6 1895.89  258.48
   2  -9   6 2048.33  252.46
   2  -9   6 1759.91  233.84
   2  -9   6 1721.84  263.05
   2   6  -9 3563.54  303.97
  -2  -6   9 3787.71  323.55
   2   6  -9 4136.93  281.34
  -2  -6   9 3566.62  263.51
  -7   9  -217592.34  706.23
   6  -3 -10 4136.73  373.82
   6  -3 -10 4048.72  115.82
   7  -9   216328.69  654.81
  -7   9  -216624.61  675.50
   7  -9   215874.36  647.19
   7  -9   216790.40  399.21
  -6   3  10 5097.80  550.15
  -7   9  -216961.18  976.95
  -6   3  10 4491.45  219.40
  -6   3  10 4377.18  117.02
  -6   3  10 4556.31  361.72
  -9   6   0  989.61  208.37
   9  -6   0  -93.74  157.45
  -6   3  -5 2249.32  336.04
  -9   6   0  874.26  191.80
   6  -3   5 1479.58  251.35
  -4  -3  -4 8493.65  730.18
   4   3   4 8408.65  493.28
   4   3   4 8166.34  449.73
   9  -6   0  946.30   78.72
   6  -3   5 2198.68  232.18
  -6   3  -5 2093.11  181.68
  -6   3  -5 2069.41  242.66
  -9   6   0 1000.00  159.35
  -4  -3  -4 8757.80  505.06
  -6   3  -5 2100.43  154.32
  -9   6   0  891.26   91.48
   2  -9  -3 3668.32  108.90
  -2   9   3 4037.71  314.94
  -2   9   3 3782.87  241.44
  -2   9   3 3738.34  219.84
   2  -9  -3 3857.74  421.32
   2  -9  -3 3942.04  520.90
  -1   9  -6  -10.80   83.68
  -2   5   8 3913.48  452.77
  -2   5   8 5063.24  511.94
   2  -5  -8 4070.17  272.00
  -2   5   8 4380.09  182.18
   1  -9   6 1380.05  225.34
  -2   5   8 4337.45  332.23
   2  -5  -8 4102.86  308.93
   1  -9   6 1298.84  219.46
  -5   0  -539436.67  715.59
  -4   2  -712163.16  363.58
   5   0   537136.66  770.17
  -5   0  -541076.17 1125.47
  -5   0  -539551.94 1055.62
   4  -2   711504.31  854.66
  -4   2  -711818.49  347.03
   5   0   540239.77 1081.67
  -4   2  -711792.09  859.69
   4  -2   711346.81  354.32
  -4   2  -712141.83  360.82
  -5   0  -541245.89 1086.12
   4  -2   711685.09  369.34
   5   0   538509.36 1163.08
   4  -8  -6 2948.42  161.57
   4  -8  -6 3058.95  174.04
  -4   8   6 2755.36  177.05
  -4   8   6 3108.53  302.77
  -4   8   6 3036.35  163.23
   4  -8  -6 3444.13  311.36
   1   0 -10    1.24  125.40
   1   0 -10  297.25   65.89
  -1   0  10  300.28  122.46
  -1   0  10  240.87   67.03
  -1   0  10  237.70  138.35
  -1   0  10   49.58  136.86
   2 -10   0 7395.31  355.42
   2 -10   0 7303.57  348.89
  -2  10   0 7705.73  240.32
   2 -10   0 7585.98  196.73
   2 -10   0 7954.58  287.65
  -2  10   0 7109.75  329.76
   1   8  -7 4642.25  268.38
  -1  -8   7 5440.85  318.42
  -1  -8   7 4862.83  317.54
  -1  -8   7 4778.38  321.57
  -6  -3   9  176.37   82.12
  -6  -3   9   63.53   47.02
  -6  -3   9   44.69   49.66
  -6  -3   9   55.45   54.03
  -6  -3   9   -3.55   73.86
  -6  -3   9  -28.22   95.46
  -9   8   3 8374.30  446.49
   9  -8  -3 8045.46  424.55
   8  -1  -9   75.92   84.03
  -8   1   9  -35.64   90.74
  -8   1   9   22.59   93.35
  -9   8   3 7780.49  413.37
  -8   1   9   63.56   59.16
   9  -8  -3 8308.38  394.54
  -8   7  -2  892.91  150.99
  -8   7  -2 1037.82  179.04
  -8   7  -2  961.55  236.08
   8  -7   2 1016.20  222.69
   8  -7   2 1119.02  196.49
  -8   7  -2  916.21  167.23
  -7  -3   7 4705.88  157.34
  -7  -3   7 4569.00  231.14
  -7  -3   7 4946.38  178.81
  -7  -3   7 5036.20  155.89
  -7  -3   7 4869.18  159.86
  -7  -3   7 4659.32  346.60
  -3  -7   7 7636.09  334.58
  -3  -7   7 6621.57  295.85
  -3  -7   7 6961.92  332.64
  -8  -1   2 1923.59  274.08
  -8  -1   2 1994.68  147.53
   3   7  -7 7143.43  258.44
   8   1  -2 1565.61  114.53
  -4  -5   9   19.76  106.11
   4   5  -9   10.59   75.73
  -4  -5   9   94.28   89.67
  -4  -5   9  177.23  119.21
  -4   3  10  989.99  191.20
   4  -3 -10  755.22  129.27
   4  -3 -10  734.15  108.92
  -4  -5   9  175.88   83.51
  -4   3  10  772.75  118.28
   6  -9  -5 8939.24  430.59
  -6   9   5 8228.20  763.39
  -6   9   5 9027.42  362.62
   6  -9  -5 8769.29  204.91
   6  -9  -5 8724.57  333.70
   6  -9  -5 8459.98  203.40
  -2  -7   814182.42  541.05
  -2  -7   815055.04  507.59
   2   7  -814679.87  477.46
  -2  -7   815039.23  503.12
   2   8  -117495.98  579.67
   2   8  -119103.71  596.87
  -2  -8   119828.25  646.15
  -7   5  -431067.17  820.22
  -7   5  -432117.03  780.57
  -2  -8   120264.33  636.88
   7  -5   428974.61  744.43
  -7   5  -430520.43  730.95
   7  -5   430263.03  778.43
  -2  -8   120374.96  608.73
  -7   5  -430797.84  747.86
   1   2   817614.85 1065.68
  -9   8   2 1337.51  215.41
  -1  -2  -816673.56  526.22
   9  -8  -2 1212.74  212.28
   1   2   816876.42  532.50
   9  -8  -2 1112.97  185.46
   9  -8  -2 1128.23   59.84
   1   2   816093.41  390.32
  -1  -2  -817216.26  646.09
   9  -8  -2 1059.10   45.60
   1   2   816337.57  516.68
  -9   8   2 1248.55  224.12
   3 -10   4 8207.97  383.43
   3 -10   4 7882.26  408.84
   3 -10   4 8278.99  145.29
  -3  10  -4 7670.19  163.16
  -3  10  -4 8206.53  375.31
   3 -10   4 7959.75  660.73
  -2   7  -810946.78  518.07
  -2   7  -811266.11  585.82
   2  -7   810462.00  504.13
   2  -7   811546.28  579.11
  -2  -8   6 4039.41  293.01
   2   8  -6 3853.36  184.44
  -2  -8   6 3988.88  229.53
  -2  -8   6 4490.16  289.12
  -9   4   013971.04  579.05
  -9   4   013954.26  623.03
   9  -4   013139.66  548.52
  -9   4   013966.43  474.52
   9  -4   013231.84  305.32
  -9   4   014081.81  373.42
   5  -7   6  463.94  185.29
   5  -7   6  472.69  171.31
  -5   7  -6  498.32   54.21
  -5   7  -6  557.78  291.59
  -5   7  -6  459.61  189.76
  -5  10  -318027.60  559.37
  -5  10  -316362.44  362.07
   5 -10   317346.11  525.22
  -5  10  -318205.69  947.01
   5 -10   317748.25  328.69
   5 -10   317209.07  517.46
   5 -10   317086.71  658.18
  -9   1   723284.35  737.22
  -9   1   723761.88  793.97
  -9   1   722859.88  928.60
   9  -1  -721343.68  667.88
  -9   1   724431.22  609.43
   5  -2   6 6319.53  361.80
  -5   2  -6 6177.18  376.75
  -5   2  -6 6247.87  278.47
  -5   2  -6 6382.31  296.95
   4   4   3 6079.89  450.46
  -5   2  -6 6182.97  231.19
   5  -2   6 6131.70  660.11
  -4  -4  -3 6158.81  369.87
   4   4   3 6016.02  644.01
  -4  -4  -3 5925.20  447.69
   8  -7  -722044.21  691.79
  -8   7   722637.65  710.41
   8  -7  -721827.29 1097.95
  -8   7   721540.20  718.03
  -8   9   0  803.68  298.14
  -1   9   2 1491.70  193.97
   8  -9   0  986.26  220.60
  -8   9   0 1080.36  211.53
   1  -9  -2 1434.01  206.37
   1  -9  -2 1327.08  203.78
  -1   9   2 1348.83  224.65
   8  -9   0 1006.84  143.29
  -1   9   2 1468.73  123.57
   1  -9  -2 1535.76   58.78
   8  -9   0  963.08   86.84
   8  -9   0  895.19   98.31
   3  -9  -4 2335.05  289.36
  -7   1  10 2695.93  144.20
  -7   5   9   18.76   82.59
  -3   9   4 2631.21  189.72
  -3   9   4 2555.23  134.93
   7  -1 -10 2494.20  270.60
  -3   9   4 2766.12  504.41
  -7   5   9  -84.16   94.79
  -7   5   9  119.52  100.57
  -7   1  10 3008.58  289.65
   7  -5  -9  -58.42  101.30
   7  -5  -9   37.84  160.35
  -7   1  10 3035.57  285.13
   3  -9  -4 2667.60  118.10
  -6   7  -520030.34  430.52
  -6   7  -520370.42  562.55
  -6   7  -520391.19  646.25
   6  -7   519655.08  629.94
  -6   7  -519948.63  678.55
   6  -7   519709.53 1085.82
   7  -6   4  964.38  139.14
  -7   6  -4 1035.93  172.24
   7  -6   4   25.54  159.58
  -7   6  -4 1122.27  141.47
  -7   6  -4  909.88  129.48
   5  -9  -5  -81.27  105.88
  -7   2  10 5736.49  223.25
  -7   2  10 5575.11  620.74
  -7   2  10 5909.82  394.39
  -5   9   5  -54.62  122.95
   5  -9  -5  -21.13   51.06
  -5   9   5  177.37   79.10
   7  -2 -10 5590.52  400.42
   5  -9  -5  -72.10   87.90
  -5   9   5   19.93   54.06
   5  -9  -5    0.55   63.44
   3  -2   8 2415.21  252.10
  -3   2  -8 2118.98  335.08
   3  -2   8 1949.91  187.18
  -3   2  -8 2382.20  238.36
   3  -2   8 2312.60  281.79
  -3   2  -8 2604.01  282.23
  -7  10   113984.98  490.59
  -7  10   115086.96  560.73
  -3   2  -8 2147.51  240.06
   7 -10  -113737.56  308.12
   7 -10  -113664.16  310.23
   7 -10  -114319.34  425.66
   7 -10  -113938.75  859.47
   4   2   5 9867.72  486.10
  -4  -2  -5 9587.03  489.73
  -4  -2  -5 9726.74  531.51
   4   2   5 9740.88  531.29
   2 -10   4 3047.58  276.25
  -2  10  -4 3003.54  161.71
   2 -10   4 2746.23  239.46
  -2  10  -4 3388.88  237.87
   2 -10   4 3059.43  126.39
   2 -10   4 3346.67  273.87
   9  -3  -810736.60  426.36
  -5  -5   815842.84  416.70
   1   9  -3  -12.74   92.80
  -9   3   810190.24  629.31
   1   9  -3  524.12   58.74
  -5  -5   814928.04  464.57
  -5  -5   816216.81  411.16
  -5  -5   815450.90  400.65
  -9   3   810125.39  421.90
  -1  -9   3  661.69  174.20
   9  -3  -8 9595.98  422.55
  -9   3   810623.53  436.34
  -1  -9   3  595.05  173.36
   7   1   1 8552.86  340.42
  -7  -1  -1 9255.19  391.49
  -7  -1  -1 9448.55  519.58
  -7  -1  -110270.23  876.98
  -1   8   4  420.04  173.41
  -1   8   4  405.46  134.24
   1  -8  -4    6.97  164.15
   1  -8  -4  337.45  124.39
  -1   8   4  330.57   46.48
  -1   8   4  343.83   37.67
  -9   8   4  770.88  209.76
   9  -8  -4  -35.62  166.03
   9  -8  -4  916.69  171.47
  -9   8   4  805.90  335.43
  -5  -3  10  546.46  157.27
  -5  -3  10  577.63  100.08
  -5  -3  10  345.28   81.57
   5   3 -10  547.87   92.08
  -5  -3  10  -23.50  154.49
  -8   4   911056.14  401.61
   6 -10   2 4011.52  159.58
  -8   4   911035.54  497.75
  -6  10  -2 4428.37  250.39
  -6  10  -2 4438.20  336.31
  -6  10  -2 4352.70  198.13
   6 -10   2 4153.36  223.99
  -8   4   911159.45  499.03
   6 -10   2 3948.10  385.38
   8  -4  -910585.03  416.47
   8  -4  -911192.85  491.91
   6 -10   2 4056.88  347.36
  -7   0  -2   21.49  128.76
  -7   0  -2  -67.77  220.86
  -7   0  -2   91.52   99.59
   7   0   2  -27.50  147.38
   8  -3   218110.10  511.95
  -8   3  -220756.11  679.21
  -8   3  -220112.45 1089.49
   8  -3   218201.55  410.23
  -8   3  -220535.66  547.35
  -8   3  -219716.35  592.57
   7  -4   4   30.67  226.00
  -7   4  -4    1.84  138.79
   7  -4   4  386.85  101.46
  -7   4  -4  429.11  211.63
  -7   4  -4  422.37  102.04
  -7   4  -4  646.56  136.75
   0   3 -1028400.20  893.61
   0  -3  1028796.92  872.35
   0  -3  1028700.51  873.63
   0   3 -1028321.90  884.05
  -4   5   939046.93  981.08
   4  -5  -937505.09  841.81
   3  -9   616289.17  909.90
  -4   5   940499.30 1436.81
  -4   5   938761.15  901.56
   4  -5  -937439.85 1381.36
  -3   9  -616499.91  662.18
  -4   5   939768.24  840.18
  -3   9  -616346.91  605.03
   3  -9   614775.85 1071.21
   8  -9  -4 3152.60  287.98
  -8   9   4 3630.09  332.42
   1   9  -4 4336.55  259.24
   8  -9  -4 3353.78  284.54
  -1  -9   4 4518.74  129.19
   8  -9  -4 3362.68   76.55
   1   9  -4 4152.94  160.27
  -1  -9   4 4255.89  313.21
  -1  -9   4 4549.73  157.65
   8  -9  -4 3323.90   82.12
  -1  -9   4 3894.32  315.15
  -8   9   4 4203.16  308.09
  -6  -4   8   72.68  120.58
  -6  -4   8  125.15   54.85
  -6  -4   8  176.12   89.62
  -6  -4   8  178.62   67.31
  -6  -4   8   66.71   38.62
  -6  -4   8  147.79   60.83
   5 -10  -3 1960.83  138.32
   9  -7  -624868.43  764.87
  -9   7   625950.55  835.31
  -9   7   625832.67 1202.60
   5 -10  -3 1831.74  212.41
   5 -10  -3 1555.29  159.75
  -5  10   3 1952.10  176.46
   5 -10  -3 1859.82  136.73
   9  -7  -625647.28  806.69
  -5  10   3 1710.46  243.69
  -7  10   246247.02 1182.11
   1   0   9 6759.33  308.02
   8  -6  -8  681.91  191.14
   7 -10  -246127.36 1083.23
   0  -2  10 8813.32  438.24
  -1   0  -9 6975.30  398.26
   0   2 -10 8627.58  173.71
   0  -2  10 8928.65  182.48
   7 -10  -244309.36  983.96
   7 -10  -244376.29 1145.56
   0  -2  10 8508.31  411.76
   1   0   9 6834.02  699.30
  -1   0  -9 7020.47  397.78
  -1   0  -9 6565.60  307.05
   1   0   9 6685.51  277.98
   6 -10  -3 9846.93  249.13
   6 -10  -310029.07  252.33
   8  -6  -8 1000.77  194.34
  -7  10   245484.59 1605.20
   0   2 -10 8326.40  441.21
   0   2 -10 8877.95  430.24
   1   0   9 7237.28  263.80
  -6  10   310412.04  464.92
  -6  10   310288.23  646.54
   6 -10  -310274.11  415.55
  -8   6   8  720.22  184.83
   7 -10  -244836.66  836.94
   6 -10  -3 9851.72  374.52
  -8   6   8  857.85  194.72
  -9   4   8  683.58  166.00
  -9   6   7  628.12  182.81
   7 -10   0 3728.85  320.65
   3  -6   8  347.09  174.78
  -9   4   8  875.60  177.34
   7 -10   0 3583.91  164.65
   9  -6  -7  461.54  168.16
   9  -4  -8  506.82  163.75
   3  -6   8  202.44  301.80
  -7  10   0 3479.65  243.75
  -7  10   0 3943.80  319.19
  -3   6  -8  265.62  148.50
   9  -4  -8  656.75  169.60
   7 -10   0 3506.73  165.05
   7 -10   0 4169.66  339.96
   9  -6  -7  577.94  306.04
  -9   6   7  757.09  189.17
  -9   4   8  577.96  175.99
  -3   6  -8  182.40  179.00
  -3   8  -712603.61  555.20
   7  -9  -5    6.64  202.43
   3  -8   712855.71  616.19
   7  -9  -5  163.14  168.98
   7  -9  -5  118.38   56.42
  -3   8  -713049.05 1024.71
   7  -9  -5  -19.44   57.03
  -7   9   5   63.84  133.64
  -7   9   5  128.51  112.78
   3  -8   712444.61  541.58
   9  -7   0 4030.26  286.96
  -1   6  -924032.70  781.73
  -9   7   0 4677.56  516.73
   6   2   214225.71 1061.62
  -9   7   0 4950.84  302.65
  -1   6  -917933.71  794.82
   1  -6   923091.69  791.07
   6   2   214445.58  519.21
   1  -6   924544.96  864.55
  -6  -2  -215463.40  697.16
  -6  -2  -215792.90 1062.75
   9  -7   0 4413.01  306.14
  -9   7   0 4480.81  347.62
  -6  -2  -215151.95  855.06
   9  -7   0 4234.59  151.87
  -9   7   0 4538.59  253.57
  -4  10  -4  480.45  149.68
   4 -10   4   76.78  293.26
   4 -10   4  353.46  140.01
  -4  10  -4  439.45  148.55
  -4  10  -4  177.57   84.35
   4 -10   4  275.14   40.51
   4 -10   4  375.13  129.83
  -9   2   112181.49  321.37
   9  -2  -111337.36  252.07
  -9   2   111559.74 1007.07
  -9   2   112205.59  384.82
   9  -2  -110939.20  248.49
  -9   2   111612.37  576.06
  -6  -1  -3 2583.90  314.38
  -8  -1   8 2194.53  127.46
  -8  -1   8 1601.15  336.19
  -8  -1   8 2137.35  159.62
   6   1   3 2501.46  329.79
   6   1   3 3122.65  275.67
  -6  -1  -3 2523.10  285.74
  -6  -1  -3 3190.85  544.39
  -8  -1   8 2085.42   67.16
  -8  -1   8 2226.18  144.26
  -8  -1   8 2521.19  189.89
   8  -8  -6 7470.76  415.19
   8  -8  -6 7003.10  374.24
  -8   8   6 7662.40  436.09
  -8   8   6 7346.38  402.15
  -2   8   534713.26 1207.38
  -2   8   534420.60 1054.37
   2  -8  -533902.37 1031.17
  -2   8   534159.63  586.34
   2  -8  -533376.93  832.41
  -2   8   533677.09  621.95
  -4  -4  10   24.85  187.14
  -4  -4  10   35.99  192.10
   4   4 -10 3094.11  199.56
   9  -2  -8  107.96  108.31
   1 -10   2  -69.44   85.59
  -9   2   8  169.10   98.76
   1 -10   2   36.13   81.63
  -9   2   8    0.94  112.98
  -1  10  -2  118.13   70.41
  -1  10  -2   64.32   62.52
  -9   2   8  237.50  105.83
   1 -10   2    2.22   65.82
   1 -10   2   -2.49   41.16
  -1  -9   2  707.99  172.35
  -1  -9   2  566.42  173.89
   1   9  -2  336.74   75.44
   1   9  -2  530.22  113.17
  -1  -9   2  533.80  109.05
   9  -8  -1   -4.53  107.36
  -9   8   1  -50.77   89.19
  -9   8   1   15.29   48.18
   9  -8  -1  -14.89   37.87
   9  -8  -1  133.36   88.02
  -9   8   1   63.78  155.13
   9  -8  -1   70.80   50.48
  -8  -2   512700.13  391.96
  -6  -4   1 3473.86  237.60
  -8  -2   513843.70  868.53
   6   4  -1 3319.79  221.25
  -6  -4   1 3204.13  354.15
  -8  -2   514108.04  296.95
   0  -9   6 1888.65  249.27
  -8  -2   513473.12  231.12
  -6  -4   1 3392.69  317.78
  -8  -2   513028.62  732.48
   6   4  -1 3090.92  329.28
   0  -9   6 2244.75  254.87
  -8  -2   513559.34  282.16
   0   9  -6 1950.32  189.55
   2  -4   9 1229.39  233.69
   2  -4   9 1095.55  210.43
   7   0 -10 7343.49  247.62
  -1  10  -3 7414.77  214.81
  -7   0  10 9397.04  428.64
  -7   0  10 8896.97  708.64
   1 -10   3 7565.22  405.62
   1 -10   3 7823.23  674.89
   1 -10   3 8203.76  186.24
  -2   4  -9 1142.26   89.08
  -2   4  -9  999.68  246.78
  -1  10  -3 7570.09  259.67
  -7   0  10 8420.06  214.87
   1 -10   3 8223.04  256.97
  -2   4  -9 1084.49   53.57
  -4   7  -7 3807.82  378.30
   4  -7   7 3161.26  329.47
   4  -7   7 3552.16  341.31
  -4   7  -7 3594.40  318.90
  -6  -2  10 4352.00  302.26
  -6  -2  10 4276.41  311.38
  -6  -2  10 4416.79  102.63
  -6  -2  10 4168.80  133.11
   0  -8  -3 4765.36  373.31
   0   8   3 4067.63  302.43
  -6  -2  10 3752.54  174.70
   0   8   3 4434.68  359.75
  -6  -2  10 3530.63  212.41
   0  -8  -3 4453.07  313.69
  -2   3  -9  265.77  169.71
  -2   3  -9  552.50  140.86
   2  -3   9  309.38  173.73
  -2   3  -9  270.98   54.11
  -2   3  -9  336.38   53.25
   2  -3   9  386.64  144.11
  -4  -6   849594.88 1096.50
  -4  -6   847015.44 1066.34
  -4  -6   849938.01 1459.24
  -4  -6   844998.32 1104.71
   4   6  -849063.71 1094.02
  10  -5  -422754.83  767.19
  10  -5  -422115.63  615.42
 -10   5   423056.56  842.19
 -10   5   423612.73  626.64
   3   6   2  698.36  222.98
   3   6   2  716.67  337.09
  -3  -6  -2  650.90  181.92
  -3  -6  -2  687.35  232.41
  -7  -3   213393.05  569.87
  -7  -3   214108.68  639.22
   7   3  -213336.17  563.78
  -7  -3   214460.65  412.61
   3 -10  -247638.86 1110.75
  -9   0   510800.49  214.87
   3 -10  -249271.15 1189.83
  -9   0   510078.65  248.13
   3 -10  -247431.30 1104.11
  -9   0   510020.11  753.31
  -3  10   248995.89 1022.47
  -3  10   247613.83 1248.44
  -9   0   510370.35  402.22
   3 -10  -248642.53  928.57
  -9   0   510809.45  347.88
  -9   0   510625.76  513.41
  -4  -6   012120.06  951.02
   4   6   011573.48  464.58
   4   6   011015.17  832.09
  -4  -6   012388.48  483.95
  -9   1   2  211.34   51.54
  -9   1   2   -6.92  171.18
   9  -1  -2    1.14   31.61
   9  -1  -2   10.96   33.25
  -9   1   2  317.74   76.97
  -9   1   2  365.09  178.13
   7  -3 -10   11.05   68.27
  -7  -2   9 5641.59  162.51
  -7   3  10   47.40  233.04
  -7  -2   9 5308.01  130.81
  -7  -2   9 5280.66  230.29
  -7   3  10   36.16  117.91
  -7  -2   9 4950.39  210.58
  -7  -2   9 5550.86  263.72
  -7   3  10   85.94   76.89
  -7  -2   9 5477.53  298.27
  -3  -7   012136.56  503.04
   3   7   011077.23  459.74
   0  -4  10 1363.48  244.79
   3   7   011103.34  509.89
  -5  -6   5  207.22   81.56
   0  -4  10 1160.29  227.47
  -5  -6   5  299.82  105.92
  -5  -6   5  182.57   90.73
   0   4 -10   26.17  416.64
  -5  -6   5  237.61  105.48
  -3  -7   012500.68  548.41
   0   4 -10 1434.51  246.99
  -8  -2   659727.79 1454.66
  -8  -2   661869.51 1301.70
  -8  -2   664103.83 1340.88
  -8  -2   662460.22 1302.82
  -8  -2   662351.02 1617.20
  -8  -2   659303.68 1371.90
  -5  -6   4 8215.38  314.23
  -5  -6   4 8563.71  564.09
   2   5 -1010412.14  526.68
  -2  -5  1010637.54  530.33
  -1   3   9 1003.50  206.76
  -1   3   9  912.51  134.32
   2   5 -1010868.28  450.51
  -5  -6   4 8813.03  350.20
   1  -3  -9  -22.98  165.10
   1  -3  -9 2155.17  187.76
  -2  -5  1010872.46  709.38
  -5  -6   4 9000.60  346.52
  -8   0   9 3562.68  373.03
  -8   0   9 3423.65  428.54
  10  -4  -4 1924.30  179.45
 -10   4   4 1602.42  540.87
 -10   4   4 2098.18  288.50
   8   0  -9 3234.17  354.78
  -8   0   9 3558.40  168.37
  10  -4  -4 2046.54  268.14
  -8   0   9 4174.31  274.47
 -10   4   4 1985.99  173.85
 -10   4   5 5994.11  459.76
  10  -4  -5 5232.10  446.35
 -10   4   5 5608.43  406.77
 -10   4   5 5682.42  406.51
  10  -4  -5 4839.74  374.02
  -2   2  1032341.16  887.46
   2  -2 -1032338.07  814.37
   3  -7  -7 3571.24  349.09
  -3   7   7 4400.08  368.34
  -2   2  1034246.59  764.33
 -10   5   5 5334.83  303.36
 -10   5   5 5383.55  406.08
   2  -2 -1031217.65  726.27
  10  -5  -5 4927.95  370.41
  -2   2  1032092.78  870.23
  -3   7   7 3935.64  169.98
  -2   2  1034373.55  857.48
  -3   7   7 4191.17  184.53
  10  -5  -5 5295.43  492.76
  -3   7   7 4389.30  350.73
   3  -7  -7 3991.72  227.92
  -2  -7  -212711.20  974.63
   2   7   211936.85  811.92
  -2  -7  -212059.04  518.04
   2   7   211300.47  571.19
  -8   0   022431.27  809.77
  -8   0   023227.19  880.96
  -8   0   022251.18 1309.19
   8   0   021057.69  505.11
   7  -7   4 3213.85  297.70
  -7   7  -4 3516.05  176.63
  -7   7  -4 3114.33  265.22
  -7   7  -4 2909.18  277.04
   8   2  -4   -5.05   65.96
  -8  -2   4 1583.24  262.35
  -7   7  -4 3119.47  316.30
  -8  -2   4 1666.65  186.21
   7  -7   4 3173.68  417.14
  -8  -2   4 2058.17  227.88
  -8  -2   4 1649.52  117.51
  -7  -2   0   -3.92  131.83
  -9   0   613410.00  353.46
  -7  -2   0  -98.76  126.12
  -9   0   612623.96  547.09
  -9   0   612284.25  467.02
  -9   0   612661.57  301.28
   7   2   0  141.96   91.13
  -7  -2   0  105.02   83.58
   1   5 -1014683.15  945.87
   1   5 -1014246.07  627.67
  -1  -5  1014316.05  562.48
  -1  -5  1014768.38  646.08
  -3  -6   911914.53  412.92
   3   6  -911937.05  437.13
  -3  -6   912009.79  669.41
   3   6  -912204.49  461.74
  -3  -6   910930.67  788.58
   4   1 -1114995.64  428.86
  -4  -1  1115475.43  672.85
  -8   1  -1 1517.53  310.17
  -4  -1  1116086.40  681.11
  -8   1  -1 1518.66  272.68
   4   1 -1115552.05  283.95
   8  -1   1 1445.43   71.10
   8  -1   1 1402.75  154.30
  -8   1  -1 1478.86   73.22
  -4  -1  1116496.46  664.93
  -4  -1  1117071.50  362.25
  -4  -7   411949.13  369.83
  -4  -7   413307.28  461.23
  -4  -7   413322.45  375.57
  -4  -7   413217.32  460.28
   4   7  -412621.14  384.57
  -9   3   0 7430.37  444.31
   2 -10  -1 1994.96  217.63
  -9   3   0 7315.04  480.93
   9  -3   0 6995.76  217.05
   2 -10  -1 1859.19  372.15
   2 -10  -1 1883.00   94.16
  -2  10   1 1894.62  378.55
  -9   3   0 7215.48  239.62
   2 -10  -1 2015.82  199.63
  -9   3   0 7308.22  221.40
  -2  10   1 1784.14  120.39
   9  -3   0 7150.57  215.64
   1 -10   1 4928.96  217.10
   1 -10   1 4645.01  321.53
   1 -10   1 4510.48  320.69
   1 -10   1 4786.67  137.21
  -1  10  -1 3980.74  237.88
  -1  10  -1 4337.76  159.19
  -9   0   4  577.64   62.90
  -9   0   4  623.14   58.35
  -9   0   4  543.17   73.70
   9   0  -4  595.70   52.56
  -9   0   4  567.84  189.72
  -9   0   4  548.92  123.96
  -9   0   4   10.48  201.95
   3  -6  -810998.86  836.05
  -3   6   810884.72  310.90
   1   9  -514042.11  362.49
   3  -6  -810326.80  605.81
   6  -9   420675.76  904.70
   6  -9   420469.83  790.60
  -6   9  -421102.57  598.15
  -1  -9   514968.72  238.75
  -3   6   810800.68  576.98
  -6   9  -422794.41  698.02
  -6   9  -421561.18  727.17
  -6   9  -422032.14  549.82
  -1  -9   515422.75  573.24
  -3   6   811213.79  497.68
  -1  -9   515029.30  389.84
   1   9  -514421.73  256.84
  -3   6   811463.38  343.92
  -1  -9   514785.54  557.25
   3   1   726816.42  967.90
  -4   0  11 7741.85  300.88
  -4   0  11 7630.52  439.42
   3   1   726410.68  644.25
  -3  -1  -726932.65 1120.03
   4   0 -11 7249.86  191.00
  -3  -1  -728296.59  930.12
   4   0 -11 7204.78  268.49
  -4   0  11 7373.02  479.87
   3   1   725907.90  668.98
  -4   0  11 8043.99  187.69
   3   1   727855.34  789.14
 -10   5   320913.55  831.61
 -10   5   320520.85 1186.62
  10  -5  -319920.76 1125.24
  10  -5  -320174.37  568.79
 -10   5   321140.93  565.02
  -5   9  -5 3636.17  317.24
   5  -9   5 3251.98  612.75
  -5   9  -5 3088.45   93.65
  -5   9  -5 3563.70  314.91
  -5   9  -5 3357.35  107.44
   5  -9   5 3139.57  270.52
   2  -4  -9 -136.24  132.62
   6  -2   516246.30  613.15
  -2   4   9   -0.48   66.87
   6  -2   516117.74  368.07
  -6   2  -517810.46  392.39
  -6   2  -518758.51  633.99
  -6   2  -517406.51  547.66
  -2   4   9  138.23   78.35
  -2   4   9   62.57   93.72
  -6   2  -517736.30  565.93
  -2   4   9   -8.93   95.15
   2  -4  -9  139.08  130.53
   0   1 -1030607.78  879.81
  -4  -7   5  220.33  180.62
   0   1 -1029635.62  562.67
   0   1 -1030567.29 1287.76
   0  -1  1031638.21  860.19
  -4  -7   5    6.72   53.47
  -4  -7   5  109.68   39.60
   0  -1  1029899.35  914.26
  -4  -7   5  305.85  103.44
  -4  -7   5  143.42  101.37
   0  -1  1029232.84  875.81
  -4  -7   5   49.32   99.17
   0  -1  1032138.17  621.52
   7  -1   340696.23  713.20
 -10   6   4 3158.41  355.50
   0  -9  -120763.47  664.18
   7  -1   340811.96 1074.97
  10  -6  -4 3752.07  279.76
  -7   1  -345275.26  792.89
   0  -9  -119484.17  660.52
 -10   6   4 3637.04  446.57
  -7   1  -344871.87 1162.87
  -7   1  -345216.34 1752.14
  -7   1  -345435.18 1262.67
   0  -9  -119791.63  648.34
   0   9   118716.55  609.04
  10  -6  -4 3643.87  329.89
   0   9   117806.81  983.48
   2  -5   9 9109.85  831.77
  -2   5  -9 9315.07  560.75
   2  -5   9 9856.84  832.80
  -2   5  -9 9269.49  461.61
   3  -3 -1011125.16  567.59
   3  -3 -1010953.26  375.11
  -3   3  1011718.91  418.79
  -3   3  1011972.36  412.94
  -3   3  1012346.11  389.71
  -3   3  1011795.30  469.96
  -4   9   513469.92  358.59
  -4  10   3  227.08  150.21
  -4  10   3  262.94   88.52
  -4   9   512095.65  342.32
   4 -10  -3   94.12  151.78
   4  -9  -513098.96  568.85
   4 -10  -3   -4.49   84.62
  -4   9   513035.94  579.06
   4 -10  -3   88.97   67.38
   4  -9  -512750.37  364.24
   4  -9  -512869.73  476.90
   4 -10  -3  540.76  119.17
   8  -8   2 2495.11  183.57
   9  -8  -5  -78.09  117.87
  -6  -5   5 7439.24  274.12
  -9   8   5   89.44  133.24
  -9   8   5  139.59  142.46
   8  -8   2 2400.11  181.27
  -8   8  -2 2716.10  263.29
  -8   8  -2 2352.35  191.92
  -6  -5   5 7371.78  513.90
   9  -8  -5  -36.69  117.39
  -8   8  -2 2375.02  187.59
   8  -8   2 2424.91  285.78
  -8   8  -2 2662.16  213.48
  -6  -5   5 7823.75  285.71
  -6  -5   5 7468.65  279.75
   3   1 -11 1984.79   82.82
  -3  -1  11 2317.76  268.87
  -3  -1  11 2230.60  132.72
  -3  -1  11 1895.52  336.79
   3   1 -11 2061.68  198.96
  -3  -1  11 1428.33  517.36
  -6  -3  -1 5196.57  699.27
   6   3   1 4467.23  289.56
  -4  -5  -220783.26  841.41
  -6  -3  -1 5149.94  438.58
  -4  -5  -221639.13  719.06
   6   3   1 5534.07  413.42
   4   5   219961.95  797.20
  -6  -3  -1 4787.44  305.72
   1 -10   4 2184.20  252.86
  -1  10  -4 1747.94  307.31
   1 -10   4 2484.85  308.81
   7 -10  -3 3110.66  253.99
   7 -10  -3 2970.96  114.11
   1 -10   4 2193.52   75.10
   7 -10  -3 2860.38  119.56
  -1  10  -4 2367.43   99.84
  -7  10   3  806.68  429.96
  -7  10   3 2781.37  267.80
   7 -10  -3 2646.18  446.62
   1 -10   4 2290.14  263.71
   7 -10   118483.58  453.85
  -7  10  -117971.07  748.29
   7 -10   118937.39  715.02
  -7  10  -119585.72 1051.34
   7 -10   119094.74  457.35
   7 -10   118757.05  451.81
   9  -5  -827806.48  840.46
   9  -5  -827467.90  839.70
  -9   5   827160.40  830.33
  -9   5   827482.59  803.99
  -1  -5  -6  453.29  377.64
   1   5   6  550.72  365.27
   1   5   6  720.66  204.36
  -1  -5  -6  672.72  190.24
   7  -3   4 9164.42  424.77
  -7  -3   8 1431.37  125.26
  -7   3  -410131.97  283.11
   6  -4 -1022594.19  629.17
  -6   4  1023777.71  519.80
  -6   4  1024606.20  638.88
  -7   3  -4 9960.29  682.21
  -7  -3   8 1571.55  157.65
   6  -4 -1020994.61  383.00
  -7   3  -410615.65  657.97
  -6   4  1024894.97  758.11
  -6   4  1024887.99  821.73
  -7  -3   8 1374.58   96.32
  -7  -3   8 1557.99  169.35
  -7   3  -410593.41  436.74
  -7  -3   8 1711.56  164.26
   7  -3   4 9557.11  278.83
   5   0 -11    3.01   46.99
   2  -2   913425.73  460.49
  -5   0  11   53.14  149.95
  -1   1  1021460.07  599.78
  -1   1  1020568.76  637.60
  -1   1  1021672.23  718.35
  -1   1  1021611.23  509.57
  -5   0  11  161.95  142.71
  -2   2  -913252.08  302.06
   1  -1 -1020631.77  948.63
   2  -2   913721.86  592.82
  -5   0  11  104.64   46.19
  -5   0  11  183.33   70.67
   2  -2   913651.21  319.25
  -2   2  -913104.78  298.86
  -2   2  -914463.16  579.24
   5   0 -11  200.86   93.90
   1  -1 -1019676.15  669.15
  -2   2  -913016.77  486.45
  -5  -6   616089.77  280.26
  -5  -6   615700.55  458.04
  -5  -6   615313.71  320.41
  -5  -6   616767.45  375.82
  -5  -6   616192.75  458.48
  -5  -6   615763.30  347.59
   0  -2  -9  -11.19  122.10
   0  -2  -9  144.36   93.02
   0   2   9   -0.80   98.19
   0   2   9  236.62  148.97
   0   2   9  200.10  142.35
   0   2   9  147.61   76.01
  -5   4  10    8.14   85.30
  -6   7   8 3927.60  181.81
  -5   4  10   28.10  119.47
  -5   4  10   -0.46   53.07
   6  -7  -8 3690.04  144.83
  -6   7   8 4189.24  279.44
   6  -7  -8 3894.42  260.53
   5  -4 -10   -4.19  103.01
  -4   1  -721254.71  576.84
   4  -1   721202.20  797.83
  -6   7   8 4026.17  328.34
  -6   7   8 3486.95  255.30
  -4   1  -722689.19  604.09
   6  -7  -8 3822.24  333.33
   4  -1   722494.15  623.65
   5  -4 -10  186.65   63.11
  -5   4  10  324.32  102.75
   4  -1   721593.40  492.18
  -4   1  -722541.48  510.34
  -4   1  -722267.47  788.20
   8  -9   1   60.49   75.50
  -8   9  -1  -11.80   63.98
   8  -9   1  219.83   88.80
  -8   9  -1  108.84   91.09
  -8   9  -1  159.11  118.67
   8  -9   1  237.96  153.79
 -10   6   3  944.01  190.15
 -10   6   3   -2.09  128.45
  10  -6  -3 1112.41  323.50
  10  -6  -3 1066.43  227.51
   6   0   4 3065.27  315.82
  -6   0  -4 2634.80  500.90
  -6   0  -4 2731.45  291.57
  -6   0  -4 2826.39  301.13
   6   0   4 2841.54  312.31
  -6  -5   4 7396.28  296.98
  -6  -5   4 7560.53  372.93
  -3  -2  1120404.03  786.34
  -6  -5   4 7714.22  306.23
   3   2 -1118677.95  842.41
 -10   4   3 1297.25  262.14
  10  -4  -3 1092.24  141.84
 -10   4   3 1380.64  142.41
  -3  -2  1121013.52  757.51
  -3  -2  1120255.68  867.99
 -10   4   3  986.69  481.65
  -6  -5   4 8924.25  335.12
   2   1   8 1523.97  293.02
  -2  -1  -8   10.89  245.65
   2   1   8 1521.54  120.54
   2   1   8 1855.59  133.71
  -2  -1  -8 1744.42  172.54
  -5  -6   336122.35  973.17
  -5  -6   333494.12  889.33
  -5  -5   0  453.63  210.96
   5   6  -334137.43  824.92
   5   6  -332537.76  888.90
   5   5   0  572.81  208.48
   5   5   0  699.88  286.76
  -5  -6   336318.87  899.12
  -5  -6   337120.62 1251.84
  -5  -5   0  502.01  271.06
   4   1   6  -10.28   31.40
   4   1   6   -2.02  123.79
 -10   4   6  -62.93   88.46
   4   1   6  -25.02   32.82
  -4  -1  -6  168.75  135.03
   4   1   6   24.81   95.87
  10  -4  -6  112.29  132.88
  10  -4  -6   90.45  100.28
 -10   4   6  -22.33  118.93
  -4  -1  -6  202.00  166.88
  -4  -7   3 7893.12  328.34
  -4  -7   3 8867.61  390.60
   4   7  -3 8474.43  554.33
  -4  -7   3 9110.34  357.91
  -4  -7   3 8467.44  384.82
 -10   3   5 4414.72  622.13
  10  -3  -5 4461.88  357.11
  10  -3  -5 4163.50  222.79
 -10   3   5 4555.26  373.78
 -10   3   5 4650.79  384.83
   6  -8  -7 1165.56  214.57
 -10   6   5 8064.75  483.56
   6  -8  -7    4.04  265.69
 -10   6   5 8839.60  407.45
  10  -6  -5 8041.21  398.94
   6  -8  -7  913.50  132.81
  10  -6  -5 8291.49  455.48
  -6   8   7 1031.32  242.81
  -6   8   7 1275.96   77.67
  -6   8   7 1326.22  180.42
  -9   1   8  315.40  103.44
  -9   1   8   55.19  130.56
  -9   1   8   13.40  119.18
  -1  -9   1  -89.53   87.46
   9  -1  -8   23.38  153.89
   1   9  -1  114.27  105.19
  -1  -9   1   -7.86  117.59
  -9   1   8  416.95  105.22
  -1  -9   1  -82.97  119.01
   0  -6  -6 3516.37  293.59
   0   6   6 3680.53  584.30
  -4  -2  11 1137.38  232.41
   0  -6  -6 3048.14  361.48
   4   2 -11  672.98  207.23
  -4  -2  11  933.95  259.81
   0   6   6 3347.26  311.64
   3   5 -10 4041.72  340.79
   0   8  -811686.39  824.92
  -2  -8   0  221.09  137.53
   0  -8   812200.74  545.25
  -2  -8   0  -15.80  142.36
   3   5 -10 4145.36  269.50
   2   8   0  305.79  151.38
  -3  -5  10 3746.97  329.04
   0   8  -812459.50  582.26
  -3  -5  10 4044.18  344.11
  -2  -8   0  327.26  140.58
   0  -8   811884.12  577.02
   0  -8   812175.15  518.04
   2   8   0  251.11  256.59
  -3  -5  10 3757.09  260.45
  -6  -5   625868.58  519.07
  -6  -5   624261.84  619.40
  -6  -5   625899.51  590.17
  -6  -5   625127.49  711.27
  -6  -5   623992.76  569.11
  -6  -5   624806.49  815.67
   3  -8  -6 6363.31  432.83
  -3   8   6 6126.95  272.76
  -3   8   6 6664.62  429.00
  -3   8   6 6178.10  207.26
   3  -8  -6 6140.38  188.96
  -3   8   6 6069.79  186.00
   3  -8  -6 6071.91  283.84
  -3   1  -8 8622.56  471.09
   3  -1   8 8459.39  310.59
  -5  -1  11   30.12  145.57
  -5  -1  11  307.21  140.58
   5   1 -11  257.05   70.17
  -3   1  -8 8811.83  299.54
   3  -1   8 7604.78  811.66
   3  -1   8 7995.12  284.85
  -5  -1  11  129.49   35.55
  -5  -1  11   -3.99   75.78
  -3   1  -8 8324.14  317.26
   5   1 -11  165.79   48.19
  -8  -2   7 8313.11  434.66
  -8  -2   7 8279.86  291.20
  -8  -2   7 8394.61  283.29
  -8  -2   7 8868.18  188.78
  -8  -2   7 8748.41  346.69
  -8  -2   7 8481.99  384.29
   1  -8   817897.25  736.39
   8  -5  -910608.69  737.30
 -10   3   4 7662.58  420.77
  -8   5   911182.15  516.44
   8  -5  -910792.31  502.84
 -10   3   4 7700.26  486.58
 -10   3   4 7726.70  491.82
  -1   8  -818265.85  741.59
  -1  -6  -5 9392.61  579.26
  -1  -6  -510597.73  494.51
  -8   5   910486.15  518.50
   1   6   5 9520.94  531.77
   1  -8   817269.07  650.36
  -1   8  -818131.76 1073.72
  10  -3  -4 6845.26  416.87
   1   6   510530.80  495.49
  -8   5   911518.12  449.62
  -2  -8   7 2318.63  238.00
  -2  -8   7 2064.32  239.93
   2   8  -7 2279.85  178.02
 -10   5   6 5064.51  527.05
  -3   0  1121052.76  521.31
   3   0 -1118396.62  367.04
  -3   0  1120375.75  876.76
   0  -5  -718042.76  702.85
  -5   1  11 3624.36  359.93
 -10   5   6 5122.87  375.08
  -3   0  1119893.52 1190.61
  -3   0  1121089.62  724.80
   0   5   718404.70  661.07
  -5   1  11 3486.97  269.22
   0   5   718555.39  678.34
   0  -5  -718833.74  658.07
   5  -1 -11 3026.76  152.97
  10  -5  -6 4609.31  307.91
   0   5   717841.23  321.92
   0   5   718285.67  345.04
  10  -5  -6 5232.24  623.36
  -5   1  11 3727.27  145.01
   5  -1 -11 3298.52  251.58
  -2  -8   7 1964.12  208.38
  -5   1  11 3680.37  322.84
  -2  10  -5   15.68   86.51
   2 -10   5  959.82  210.05
   2 -10   5  926.88  202.72
   2   5   5 2485.37  307.88
  -2  -5  -5 2484.72  293.83
   2   5   5 2656.36  326.63
  -2  -5  -5 2392.20  331.00
   5   3   3  799.81  248.38
  -5  -3  -3  799.76  207.05
  -8  -1   1   -0.45  178.64
  -8  -1   1  217.23  168.68
   5   3   3  904.49  206.87
   8   1  -1  298.96  153.68
  -5  -3  -3 1003.48  262.89
  -8  -1   1  480.01  176.40
  -7   7   8 2180.47  248.37
  -7   7   8 1733.78  466.63
   7  -7  -8 1982.73  239.23
   7  -7  -8 2365.25  275.41
  -3  10  -527258.82  825.18
   3 -10   526737.15  820.54
  -6   8  -5 5545.68  171.89
  -5  -2  -4  420.29  199.15
  -3  10  -527874.67  889.31
  -6   8  -5 5210.56  364.95
   3 -10   525852.42  771.71
  -5  -2  -4  370.52  185.41
   5   2   4  433.54  187.99
  -6   8  -5 5520.45  252.51
   6  -8   5 4999.15  407.94
   6  -8   5 5240.05  339.40
  -6   8  -5 5286.19  383.29
   5   2   4  288.60  181.77
   3 -10   525448.95  849.71
   2   4   6 4562.91  602.48
  -2  -4  -6 4369.22  364.11
   2   4   6 1631.16  551.69
  -2  -4  -6 3925.57  372.07
  -4   1  1115016.81  576.90
   4  -1 -1113803.52  329.88
   4  -1 -1113659.99  389.16
  -4   1  1114327.46  415.22
  -4   1  1114748.90  637.05
  -4   1  1115084.55  335.37
  -9   0   7  588.87  124.85
  -1  -4  -711013.12  536.79
   7  -9   3 8355.43  377.27
   1   4   710944.55  293.13
  -7   9  -3 8555.25  395.35
   7  -9   3 8370.72  835.46
  -9   0   7  -21.39  158.90
   1   4   711270.84  578.39
  -7   9  -3 8513.88  287.09
  -7   9  -3 8495.38  462.91
  -7   9  -3 8888.28  370.19
  -1  -4  -711788.95  563.82
   7  -9   3 8270.06  333.73
   1   4   711103.77  229.32
   1   4   711432.33  507.78
  -9   0   7  666.41  162.07
  -7  -1  10 3781.94  126.09
   7   1 -10 3505.74  167.36
  -7  -1  10 3421.64  178.06
  -7  -1  10 4306.81  526.12
  -7  -1  10 3647.64  144.42
  -7  -1  10 4041.97  290.38
  -7  -1  10 3938.89  102.11
  -4  -7   6   98.41   88.65
  -4  -7   6    7.76   39.30
  -4  -7   6   26.58   36.42
  -9   6  -114178.79  460.87
  -9   6  -113862.95  515.67
   9  -6   113043.48  462.83
   9  -6   112320.58  320.61
  -4  -7   6   68.72   53.97
  -9   6  -114392.17  576.37
  -4  -7   6   60.99   38.77
  -9   6  -114289.69  366.85
  -4  -7   6   28.80  158.47
  -9   5  -1 1192.37  222.28
  -9   5  -1 1215.82  240.75
   9  -5   1   -0.64  118.52
  -9   5  -1 1319.79  124.68
  -9   5  -1 1185.74  258.77
   9  -5   1  938.09  149.88
   8  -9  -5  -56.92  513.98
  -8   9   5 3507.24  350.34
  -8   9   5 3738.30  312.63
   8  -9  -5 3787.30  278.93
  -5   8  -6  -12.38   97.30
  -5   8  -6   -6.58   23.98
  -7   8   7 9657.40  708.64
   7  -8  -7 9463.34  159.40
   7  -8  -7 9438.47  397.40
   7  -8  -7 9257.79  486.42
   5  -8   6  119.70  118.38
   5  -8   6  -22.43  140.39
  -5   8  -6   30.60  110.67
   7  -8  -7 8727.95  182.60
  -7   8   7 9766.70  830.00
  -5   8  -6   28.29   28.40
  -8  -2   318019.43  737.18
   8   2  -316185.11  361.04
  -1  -8  -236318.21 1021.07
   1   8   234558.31  969.02
  -8  -2   317148.92  661.08
  -9   8   0 3971.67  309.41
   9  -8   0 3254.50  236.17
  -9   8   0 4016.95  522.40
   9  -8   0 3712.37  260.27
   9  -8   0 3993.01  327.14
   1   8   233973.34 1054.47
  -8  -2   319662.68  457.95
  -9   8   0 3506.68  144.10
  -1  -8  -237740.68 1139.29
   5  -7  -810483.06  365.77
  -5   7   810828.46  585.05
  -5   7   810778.70  504.99
  -5   7   810489.07  262.97
  -5   7   810436.66  395.09
   5  -7  -810298.19  290.91
   5  -7  -810293.91  836.19
   0  -7   9  -21.13  207.81
   0   7  -9 1902.06  343.89
   0   7  -9   -0.67  216.81
   0  -7   9 1903.08  238.77
   5  -1   6  298.17   68.58
  -5   1  -6  286.42  129.86
   4  -9   6 8956.52  443.19
   4  -9   6 8875.46  540.66
  -4   9  -6 9539.54  483.44
  -5  10  -4 9296.76  437.45
   5  -1   6  326.43  139.45
   5 -10   4 8793.97  410.54
  -5   1  -6  289.84  126.43
   5 -10   4 8389.50  628.10
   5 -10   4 8722.19  254.72
  -4   9  -6 9148.57  536.25
  -5  10  -4 8858.11  453.02
   5  -1   6   22.90  175.63
  -5   1  -6  367.44  170.94
  -5   1  -6  264.74   72.70
   5 -10   4 8425.52  523.28
  -5  10  -4 8397.39  202.87
   6 -10   3 1705.98  192.02
   6 -10   3 1999.32  200.23
  -6  10  -3 1941.78  261.59
  -6  10  -3 2064.07  213.29
   6 -10   3 1942.36  175.62
  -6  10  -3 1596.35  215.81
   6 -10   3 1816.22  297.54
  -8   5  -3 1824.35  184.59
   8  -5   3  -11.86  240.28
  -8   5  -3 1964.00  222.67
  -8   5  -3 1254.09  286.85
   8  -5   3 1493.84  248.74
 -10   3   628097.47  876.31
 -10   3   628793.12  937.87
  10  -3  -627482.20  699.41
 -10   3   628696.15  700.61
  10  -3  -626705.63  874.87
  -8   2  -211824.90  258.80
   8  -2   211198.54  357.78
  -8   6  -3 3444.84  418.57
  -8   2  -211856.37  645.89
   8  -6   3 3155.92  215.03
   3   8  -4   15.01   98.55
  -3  -8   4 1825.86  228.85
  -3  -8   4 1832.88  130.43
  -8   6  -3 3346.92  233.47
  -8   2  -211449.55  534.78
  -3  -8   4 1966.67  227.29
   8  -2   210445.15  395.53
  -8   2  -212135.28  564.13
  -8   6  -3 3204.12  233.16
   8  -6   3 3302.60  253.65
  -8   6  -3 2811.04  229.58
   0  -5  10   59.15  116.41
   0  -5  10  -60.69  224.98
  -3  -7   833757.94  868.31
   3   7  -832116.95  794.77
   0   5 -10   75.73  137.88
   0   5 -10   21.32  130.08
  -3  -7   831349.79 1192.21
  -3  -7   832575.08  855.48
  -9   0   324301.32  515.73
  -9   0   325526.07  422.69
   9   0  -322113.63  397.92
  -9   0   323680.47  869.65
   9   0  -323040.46  409.70
  -9   0   323600.18  857.84
  -9   0   323928.09  433.75
   1   7  -921500.36  738.05
  -1  -7   920276.20  767.34
  -1  -7   921168.06  684.44
   1   7  -919984.73 1114.07
 -10   5   2  642.36  223.16
 -10   5   2  440.37  200.14
  10  -5  -2  478.13  128.72
  -3   7  -8  363.56  265.75
   3  -7   8  342.91  179.19
  -3   7  -8   89.17  186.67
   3  -7   8   94.04  158.88
  -6   6   911886.14  227.87
  -6   6   911673.77  803.43
   6  -6  -911518.86  495.21
  -6   6   911991.89  796.83
  -6   6   911737.66  448.27
   6  -6  -910675.69  249.48
   5  -8  -7 9674.30  327.94
  -5   8   7 9440.14  507.65
   5  -8  -7 9300.78  835.79
  -5   8   7 9605.19  248.06
  -5   8   7 9388.27  350.17
   5  -8  -7 9176.91  266.22
  -5   8   7 9361.44  314.67
  -3   5   9  184.34   92.15
  -3   5   9  139.39  129.87
   3  -5  -9  234.85  108.29
  -3   5   9  220.32  105.49
  -3   5   9  293.40  184.33
   3  -5  -9  112.03  136.83
   1 -10   0 1696.82   75.60
  -1  10   0 1399.32  319.30
  -1  10   0 1283.10   89.57
   1 -10   0 1610.16  230.36
   7  -4 -1021238.06  625.98
  -7   4  1022926.74  773.97
   1 -10   0 1736.80  235.72
  -7   4  1022354.08 1248.77
  -7   4  1023415.58  636.26
  -2  -2  1114025.06  585.41
  -2  -2  1112971.00  612.54
   2   2 -1112861.48  521.81
   2   2 -1112975.43  602.85
  -2  -2  1112849.93  749.51
   6 -10  -4 7085.90  310.25
   6 -10  -4 7225.97  208.07
   6 -10  -4 6985.32  209.92
  -6  10   4 7048.20  553.37
  -6  10   4 7506.19  438.66
   6 -10  -4 7771.29  397.72
  10  -6  -2  587.93  161.76
  10  -6  -2   56.53  126.98
 -10   6   2   -0.40  112.23
 -10   6   2  482.24  177.63
 -10   6   2  473.31  271.61
  -1   9  -711832.91  592.72
   1  -9   711638.50  558.42
  -1   9  -711691.68  505.39
   1  -9   712009.64  525.25
   1  -9   711706.75  556.10
   6   5  -323406.18  588.78
  -6  -5   325552.27  656.59
  -6  -5   326568.02  670.36
  -6  -5   323823.66  727.83
  -6  -5   324778.47  796.66
  -3  -8   5 4526.69  144.41
  -3  -8   5 4633.30  524.71
  -3  -8   5 4538.09  216.67
   3   8  -5 4223.37  152.59
  -3  -8   5 3904.66  304.79
  -3  -8   5 4079.69  236.24
   3   8  -5 4278.92  121.67
  -3  -8   5 4537.91  127.34
  -3  -3  11  -15.21  108.84
  -3  -3  11   70.17  186.16
   3   3 -11  705.94  153.45
   3   3 -11  589.80  219.75
  -4   4  10 2289.11  225.08
  -4   4  10 2550.71  170.33
   4  -4 -10 2489.28  211.26
  -4   4  10 2673.21  215.31
   4  -4 -10 1971.24  161.34
  -4   4  10 2428.04  262.98
   1  -6  -7  250.19  303.52
  -1   6   7   -0.20  148.30
  -1   6   7  330.67   61.82
  -3  -8   3  538.30  219.79
   1  -6  -7  235.18  136.41
  -3  -8   3  915.22  184.61
   3   8  -3  561.56  128.06
  -1   6   7  340.55   55.65
  -1   6   7  423.28  172.67
  -3  -8   3  801.42  184.08
   9  -9  -211872.09  555.10
  -9   9   212860.43  897.58
 -10   7   412869.83  617.32
 -10   7   413076.21  524.26
   9  -9  -211976.47  465.01
  -9   9   212625.34  552.29
  10  -7  -412908.79  556.44
  10  -7  -412460.67  535.82
   2   1 -11 8802.94  388.31
  -2  -1  11 8237.03  388.48
  -2  -1  11 8442.16  499.51
   2   1 -11 8169.69  175.78
  -2  -1  11 9045.52  187.57
  -2  -1  11 8828.41  463.78
   9  -9  -329779.14  857.90
  -9   9   328801.52  892.33
   9  -9  -328689.43  907.69
  -9   9   328892.63  926.47
  10  -7  -3  180.43  134.61
   4 -11   1  -14.77  106.05
   4 -11   1  814.71  169.74
  10  -7  -3   63.46  126.46
  -4  11  -1  700.47  129.14
 -10   7   3   64.01  115.49
   4 -11   1  -22.75  107.08
 -10   7   3  143.94  153.65
  -4  11  -1  900.92  261.58
  -1  -8   8   68.52  124.29
   1   8  -8    0.56  104.10
   0   7   5 1023.45  205.78
   0  -7  -5    1.45  227.10
   1   8  -8  -22.20   88.04
  -1  -8   8  133.73  206.10
  -1  -8   8   49.81  213.22
   0  -7  -5  911.59  180.63
   0   7   5  689.83  237.68
  -9   7   7 7971.96  451.79
   5 -11   021824.19  742.02
  -9   7   7 8487.15  760.16
  -5  11   021383.77  944.35
   9  -7  -7 8258.11  439.46
 -10   3   352120.05 1294.73
   5 -11   021785.33  561.07
 -10   3   349233.90 1493.10
 -10   3   349444.12 1436.08
  10  -3  -348385.44 1264.67
   9  -7  -7 7977.68  761.87
   5 -11   021683.89  612.99
   5 -11   021448.78  548.52
  -5  11   020506.08  581.86
  -7  -4   5 2848.03  207.10
   1   9  -615222.85  433.93
  -7  -4   5 2868.58  173.09
  -1  -9   616412.79  623.08
  -1  -9   616443.94  604.80
  -7  -4   5 2933.41  167.62
  -7  -4   5 3063.46  251.39
  -1  -9   616792.87  503.93
   6  -1 -11   85.49   40.82
  -6   1  11  148.83   84.18
  -6   1  11   95.41  148.59
   6  -1 -11    0.22   60.80
  -6   1  11  -84.32  137.08
   2  -9   711267.42  583.91
  -2   6  -910581.65  983.76
  -2   6  -9 9465.75  870.40
   2  -9   711652.54  535.48
   2  -6   9 9138.62  541.64
  -2   9  -712007.91  602.11
   2  -6   9 9881.46  529.64
  -2   9  -711524.67  529.57
  -6   0  11 1700.76  285.04
  -5  11  -1   88.40  113.94
  -6   0  11 1885.48  265.06
   6   0 -11 1690.56  116.91
  -6   0  11 1694.45  114.81
  -5  11  -1  118.21   83.53
   8 -10  -216472.64  522.30
   8 -10  -215547.42  306.43
   5 -11   1  282.18   94.22
   8 -10  -215429.01  289.83
   5 -11   1  102.02   99.21
   6   0 -11 1957.09   95.72
   5 -11   1   72.76  112.63
  -6   0  11 1847.83   95.39
  -8  10   216670.20  632.90
   8 -10  -215844.55  619.50
  -8  10   216192.78  602.30
   5 -11   1   40.01   66.01
  -5  -6   716802.05  344.43
  -5  -6   717792.29  478.32
  -5  -6   716922.88  387.98
  -7   8  -4  126.68   61.04
  -5  -6   717490.91  435.55
  -7   8  -4    3.84  192.46
  -5  -6   716611.33  475.18
   7  -8   4  111.32  106.65
   7  -8   4   69.77  259.66
  -7   8  -4   39.85  205.93
  -5  -6   715753.57  597.39
  -7   8  -4    0.07   66.64
  -9   7  -1 4813.27  208.50
   5 -10  -4  576.78   97.23
   9  -7   1 4759.73  190.13
  -9   7  -1 5284.30  315.80
   7  -6  -9  820.43  189.99
  -7   6   9  912.02  200.76
  -7   6   9  836.29  193.57
  -5  10   4  639.37  202.62
  -5  10   4  698.94  130.01
   5 -10  -4    0.71  167.01
   9  -7   1 4535.05  330.61
  -9   7  -1 4968.71  346.04
  -7   6   9 1036.17  210.43
  -9   7  -1 4712.82  312.34
   7  -6  -9  631.01  336.04
   5 -10  -4  626.82  173.02
  -8  10   115426.48  552.57
  -9   4  -1   80.51  203.14
   9  -4   1  651.33  196.66
 -10   6   6  487.63  360.70
   8 -10  -115222.79  630.98
  -9   4  -1   -1.76  105.71
 -10   6   6  627.53  176.94
  -8  10   116281.12  632.83
  10  -6  -6  491.97  170.65
   8 -10  -115074.36  307.02
   8 -10  -115863.52  490.17
   9  -4   1  655.64  186.56
   8 -10  -114679.99  445.05
  10  -6  -6  555.32  189.14
   1 -10   5 5213.95  299.55
  -1  10  -5 5110.01  470.20
   3   4   510958.38  574.50
  -3  -4  -510993.94  554.59
  -3  -4  -510710.04  588.26
   1 -10   5 5133.98  604.77
   1 -10   5 4996.87  373.84
   3   4   510609.66  555.65
  -8   2  10 5025.31  356.87
   8  -2 -10 4932.96  416.00
  -8   2  10 4564.56  216.63
  -8   2  10 4845.19  358.69
   2   6   434379.11 1121.85
  -2  -6  -434337.32 1761.25
   2   6   433784.64 1018.72
  -2  -6  -435879.77 1048.62
   0   0  10 4000.76  343.73
   0   0  10 4369.76  191.39
   0   0  10 4529.72  265.34
   0   0  10 3865.54  297.10
   0   0 -10 3993.73  177.20
   0   0 -10 4063.17  315.11
   2  -9  -4 2095.92  287.08
   5   4   219200.73  809.44
   5  -6  -910731.27  459.57
  -5  -4  -221595.87  719.94
  -5  -4  -219715.32  879.00
   8  -4   3 2567.65  226.99
   2  -9  -4 1771.73  211.35
  -5   6   910502.03  444.95
  -5   6   911265.23  402.01
  -8   4  -3 2765.19  265.42
  -8   4  -3 3128.26  304.52
  -2   9   4 2050.25  172.59
  -5   6   910739.56  405.76
   2  -9  -4 1943.16   84.27
   8  -4   3 2835.10  174.38
  -8   4  -3 3530.12  237.37
  -2   9   4 2120.60  366.78
  -5   6   910904.48  482.90
  -2   9   4 2144.10   81.66
   5   4   219049.75  651.80
  -8   4  -3 3287.77  296.45
  -2   9   4 1795.89  508.86
   5  -6  -910053.71  485.48
  -4  -7   2  247.29  141.43
  -6  -5   721721.00  641.73
  -6  -5   722013.57  411.28
 -10   4   2   48.08  163.58
 -10   4   2  210.60  142.74
  -4  -7   2  436.52  248.69
   4   7  -2  376.01  147.33
  -6  -5   721317.73  743.40
   4   7  -2  217.22  247.99
  10  -4  -2  190.37   91.43
  -4  -7   2  211.31  139.26
 -10   4   2   62.42   74.68
  -6  -5   721783.04  410.65
  -6  -5   719776.39  655.37
  -6  -5   722289.90  737.96
  -5  -2  11   64.72   95.70
   5   2 -11  -64.93   61.93
  -5  -2  11  -61.18   97.94
  -5  -2  11   -6.54   54.29
  -6   9   6 8300.06  477.28
   6  -9  -6 8021.56  210.60
  -5  -4  10 3312.26  329.42
  -5  -5   9  761.43  209.55
   6  -9  -6 7926.63  464.08
   6  -9  -6 8217.15  327.05
  -6   9   6 7909.81  354.72
   2  -8   8 5195.53  451.41
  -5  -4  10 3520.23  176.44
  -5  -5   9  810.51  128.05
  -5  -4  10 3584.15  281.66
   6  -9  -6 8061.01  205.10
   2  -8   8 4913.08  388.36
  -2   8  -8 5101.92  391.25
  -5  -5   9  655.24  290.06
  -2   8  -8 5120.10  455.70
  -5  -4  10 3695.31  300.84
   2   3 -11 7473.10  686.35
  -2  -3  11 8410.36  802.80
   2   3 -11 8189.47  498.05
  -2  -3  11 8085.07  505.79
   5  -5   7   -2.60  106.37
   5  -5   7  111.59  118.67
  -2  -3  11 8262.39  407.85
  -5   5  -7  275.73   66.98
  -5   5  -7  199.14   61.45
  -5   5  -7  109.47  167.61
  -5   5  -7  248.80  124.51
   1  -7  -628181.94  816.12
  -1   7   626633.39  585.11
  -7  -4   613085.01  322.09
   1  -7  -628135.25 1477.97
  -7  -4   611814.63  413.52
  -7  -4   612507.29  304.46
  -1   7   627939.08  469.42
   1   1   9 7917.21  324.53
   1   1   9 7335.28  487.64
  -1   7   627440.96  785.98
  -1   7   627525.56  932.14
  -7  -4   612215.93  318.52
   1   1   9 7896.88  469.81
   1   1   9 7944.53  265.75
  -7  -4   611721.91  547.97
  -1  -1  -9 8370.96  527.41
  -1  -1  -9 8650.07  470.49
  -7  -4   611674.54  268.62
  -8  -1   9 2546.83  204.76
   4 -11   0 2771.18  299.15
   4 -11   0 2559.20  181.98
  -4  11   0 2327.03  208.05
  -8  -1   9 2910.44  236.42
  -8   7  -3 3429.00  394.22
  -8  -1   9 2327.96  199.73
   8  -7   3 3074.88  210.42
   4 -11   0 2626.48  221.26
  -8   7  -3 3547.68  221.81
  -8   7  -3 3773.74  473.39
   8  -7   3 3043.31  288.06
  -8  -1   9 2643.48  138.82
  -8   7  -3 3386.68  239.62
  -4  11   0 2301.85  201.33
   0  -4  -8 1414.37  230.51
   4 -11   2 9658.77  397.24
   4 -11   2 9499.04  405.56
   4 -11   2 9712.66  235.93
  -6  -4   9   -4.48  111.33
   5  -2 -11 3369.74  151.95
   0   4   8 1508.90  100.00
  -5   2  11 4044.85  337.56
   0  -4  -8 1303.29  243.68
  -9   3   9 1779.46  189.73
  -6  -4   9 -129.21   81.67
   0   4   8 1352.46  229.70
  -9   3   9 1576.49  244.81
  -5   2  11 3885.51  178.68
  -5   2  11 3708.87  168.93
  -9   3   9 1696.84  241.94
  -5   2  11 4049.80  371.42
  -6  -4   9  -73.84   61.09
   4 -11   2 9437.91  410.34
   5  -2 -11 3348.01  298.97
  -4  11  -210043.83  634.37
   0   4   8 1706.60  112.23
  -4  11  -2 8641.09  270.74
   9  -3  -9   13.13   87.53
   0   4   8 1284.90  261.23
  -7  -3   1  -29.27  147.24
   2  -1   910864.62  309.46
   7   3  -1   -8.92   67.11
  -2   1  -910261.07  400.41
   2  -1   9 9496.55  527.53
  -2   1  -910355.79  526.87
   2  -1   9 9729.46  357.85
  -7  -3   1  141.42  236.55
  -7  -3   1   74.55   89.65
  -2   1  -910432.81  298.12
  10  -4  -7 1215.26  225.35
 -10   4   7 1021.18  185.55
 -10   4   7 1387.08  219.85
  10  -4  -7 1153.77  196.58
   5   1   5   61.64  163.05
   1  -7   9 3051.98  322.97
  -1   7  -9 3322.84  352.30
  -5  -1  -5  332.87  176.83
  -5  -1  -5  302.12  164.79
  -1   7  -9 4149.85  391.17
   1  -7   9 3580.71  375.76
  -5  -1  -5  164.59  162.03
  -4  10  -5 8247.39  445.82
   4 -10   5 8423.95  443.48
   5   1   5  236.81  246.87
  -1   9   325805.26  876.36
   1  -9  -328275.57  916.27
   4 -10   5 8022.21  410.96
  -1   9   326333.33  752.39
  -4  10  -5 8665.36  481.06
   4 -10   5 7736.53  503.33
   1  -9  -326325.52 1179.59
   5   6  -2 5623.21  365.23
  -5  -6   2 6389.63  367.32
  -9   1   1   -6.21  141.18
  -5  -6   2 6229.82  679.11
   9  -1  -1   52.93   36.55
  -5  -6   2 6397.78  349.42
   5   6  -2 6195.87  315.83
  -9   1   1   56.22   37.66
  -9   1   1  222.44  260.46
  -5  -6   2 6888.07  349.46
  -9   1   1   92.77   71.93
   9  -1  -1   42.09   52.70
  -7  10   4  203.66  223.22
   2   3   7 8882.80  190.21
   2   3   7 8477.59  180.71
   2   3   7 8938.23  459.87
  -7  10   4  149.44  151.83
  -2  -3  -7 9176.15  528.72
  -2  -3  -7 9242.07  466.48
   7 -10  -4  158.65  126.92
   7 -10  -4  148.95  136.65
   7 -10  -4  152.20   51.24
   7 -10  -4  255.91   52.62
   2   3   7 8470.33  539.62
   7 -10   216745.78  698.29
  -4   8  -724995.47  941.73
   4  -8   723783.16 1262.73
   7 -10   216424.19  693.72
  -7  10  -216213.29  447.60
   7 -10   216943.79  396.41
  -7  10  -217297.93  657.15
  -4   8  -726166.89  862.57
   4  -8   725470.31  935.30
   7 -10   215497.33  448.52
  -7  10  -217206.10  748.71
  -3   1  11 1004.14  438.80
  -3   1  11 1473.21  113.55
  -7  -4   4  110.43   71.95
  -7  -4   4    9.36  113.28
  -7  -4   4   57.93  175.15
   7   4  -4  125.13   75.14
   3  -1 -11    1.35  146.91
  -6  -3  10 3261.66  226.21
   3  -1 -11 1387.93  102.52
  -7  -4   4  -27.79  127.91
  -6  -3  10 2841.51  161.16
  -3   1  11 1551.40  309.31
  -6  -3  10 3364.59  258.91
  -6  -3  10 3872.64  481.65
  -3   1  11 1253.69  225.30
   4   3 -11    5.86   63.45
  -4  -3  11  -19.84   98.19
  -4  -3  11   26.13  101.84
  -5   4  -714751.76  470.55
  -5   4  -714409.04  510.58
   9  -2   031516.16  588.38
  -9   2   034015.73  768.83
  10  -2  -5 2860.94  172.61
 -10   2   5 2829.82  161.18
  -9   2   033724.75 1143.94
  -5   4  -715606.26  547.42
 -10   2   5 2525.98  319.53
   5  -4   714175.62  605.54
   9  -2   031638.23  861.37
  -9   2   034444.72  637.42
  -5   4  -715315.38  620.50
  -9   2   033662.20 1074.42
   5  -4   714510.06  484.49
 -10   2   5 2586.85  321.59
   8  -1 -10  715.04  127.54
  -8   1  10 1056.22  218.64
  -8   1  10 1272.01  118.54
  -8   1  10 1010.91  225.92
   1  -5  -820198.08  685.56
  -8   3  10 1521.69  286.14
  -8   3  10 1605.81  453.05
  -1   5   819489.11  541.71
 -10   7   528720.15 1300.70
  -8   3  10 1511.40  262.78
  -1   5   819696.01  685.69
   9  -6  -8  917.38  218.08
   0   9  -7    0.07   69.06
   9  -9  -1 6223.76  425.27
  -1   5   819494.94  438.16
 -10   7   528350.03  963.86
   8  -3 -10    5.01   72.71
   9  -9  -1 5982.58  175.83
  -9   6   8  986.01  209.84
  -1   5   819999.42 1071.57
   0  -9   7  904.91  201.15
  10  -7  -527422.39 1304.60
  -9   9   1 6117.05  378.80
   0  -9   7  911.76  213.73
   9  -9  -1 5688.28  212.95
  -9   9   1 5945.72  410.27
  -9   6   8  997.78  222.67
   9  -9  -1 5915.09  320.11
   1  -5  -818973.70  712.66
  10  -7  -527500.20  883.58
   9  -6  -8 1016.88  213.79
  -9   8   6 1522.14  245.49
  -9   8   6 1164.43  259.14
   9  -8  -6 1225.33  294.70
   9  -8  -6   38.85  180.60
  -7   9   6 1456.29  268.50
   7  -9  -6 1596.55  256.97
   7  -9  -6 1461.51   79.95
  -7   9   6 1520.95  374.63
   7  -9  -6 1353.14  198.44
   7  -9  -6 1537.57   71.39
  -9   2   9 1583.76  217.30
  -6   5  -616275.98  413.08
  -6   5  -616268.86  625.68
  -1   3 -10 1227.88  208.89
  -9   2   9 1513.07  168.46
  -6   5  -615521.87  383.63
   1  -3  10 1230.00  237.69
  -1   3 -10   26.86  195.06
   9  -2  -9  -38.66   93.69
  -9   2   9 1616.92  228.13
  -6   5  -616453.68  510.89
   6  -5   615877.40  532.30
   6  -5   615761.54  584.16
  -3  -5  -414669.04  718.87
  -1  -7  -4 9985.13  594.42
   3   5   414300.17  632.01
   1   7   410261.79  556.98
   3   5   414356.03  691.44
  -3  -5  -415283.73  625.41
   1   7   4 9926.32  500.81
  -1  -7  -4 9768.61  487.19
   3 -10  -313019.76  446.78
  -3  10   312794.40  433.22
   3 -10  -313839.11  540.19
  -3  10   313251.93  331.60
   3 -10  -312537.75  433.82
   3 -10  -312834.12  399.30
  -3  10   312962.62  567.09
   0 -10   336227.25 1048.95
   0  10  -333093.82  652.11
   0 -10   337066.44  688.64
   0 -10   335166.93 1484.90
   0 -10   336000.49  848.12
   0  10  -332314.29  702.69
   8  -7  -8 3816.47  327.10
   2   7  -922734.33  734.50
  -5  11   135399.59 1314.64
   2   7  -923920.19  759.82
  -2  -7   923215.26  709.27
   8  -7  -8 4264.28  351.80
  -8   7   8 4201.23  344.66
   5 -11  -135913.47  830.82
  -2  -7   922848.05  700.06
   5 -11  -136844.13 1193.19
  -5  11   137154.33 1288.35
  -8   7   8 3840.32  339.48
  -2  -7   922386.59  758.37
   5 -11  -136991.92  865.71
   5 -11  -137020.61  847.26
   6   4   0 7525.03  831.85
   6   4   0 7647.51  366.34
  -6  -4   0 8244.69  831.43
  -6  -4   0 8612.63  401.11
  -6  -4   0 7822.23  545.63
 -10   3   727277.07  827.82
   9  -9  -4 6102.28  407.22
 -10   3   728442.32  895.14
   2 -10  -2 9815.49  425.95
  -2  10   210219.97  483.56
  -9   9   4 5899.60  416.80
  10  -3  -726605.63  727.88
 -10   3   728071.77  753.25
   2 -10  -211398.55  467.04
  -2  10   210409.04  254.91
   2 -10  -210803.86  441.51
   9  -9  -4 6110.46  384.54
  -2  10   210319.43  416.43
  10  -3  -726963.68 1267.11
 -10   3   728287.20  717.16
   2 -10  -210817.99  213.42
  -9   9   4 5455.04  394.43
  10  -7  -210934.47  471.50
  10  -7  -210587.87  504.48
 -10   7   211601.09  470.33
 -10   7   211412.50  595.02
   8 -10  -3   -1.83   38.82
  -8  10   3  232.77  147.17
  -3  -3  -6 5012.03  423.13
   8 -10  -3  220.28  122.22
   3   3   6 5258.76  395.52
   8 -10  -3   36.35  111.83
   8 -10  -3  128.87   35.86
  -3  -3  -6 4436.44  393.51
   3   3   6 4943.67  779.10
  -8  10   3  136.42  150.41
  -7   2  -4   69.16   86.83
  -7   2  -4    6.32   38.66
   7  -2   4   52.34   46.85
  -7   2  -4  -44.07   85.74
  -7   2  -4   -2.02   92.68
   7  -2   4  -52.89  110.60
  -6  11   020540.96  661.60
  -6   2  11 3876.46  135.11
   6  -2 -11 3937.94  199.13
  -6   2  11 4046.15  183.78
   6 -11   020583.61  506.88
   8  -8  -7 3867.79  351.85
  -6  11   018690.47  560.63
   6  -2 -11 3660.34  203.17
  -6   2  11 4016.56  345.89
  -8   8   7 3949.52  366.68
   6 -11   019713.35  650.79
  -6   2  11 3903.89  395.51
  -8   8   7 3990.30  333.73
   6 -11   020136.86  730.10
   8  -8  -7 3776.69  307.72
   6 -11   019784.50  507.00
  10  -5  -7 8833.67  423.84
  10  -5  -7 8442.18  463.15
  -1   4 -1017247.27  675.05
 -10   5   7 8386.93  412.45
   1  -4  1017286.62  692.03
   1  -4  1017388.91  681.77
  -1   4 -1017164.77  726.90
 -10   5   7 8667.40  766.03
  -8  -2   8 1897.03  187.38
  -8  -2   8 2012.59  136.12
  -8  -2   8 1775.35  149.53
  10  -2  -6 1234.56  146.09
  -8  -2   8 1736.04  135.61
  -8  -2   8 1828.54  171.23
 -10   2   6 1084.55  134.45
 -10   2   6 1360.64  247.88
 -10   2   6 1115.65  225.99
  -8  -2   8 1832.26  136.12
  -5   6  -7   26.44   94.48
  -5   6  -7   39.59  117.89
  -5   6  -7   14.00   33.76
   5  -6   7   91.69  126.59
  -5   6  -7   -1.80   62.89
   5  -6   7   32.01  123.12
  -5  11  -222664.56  716.26
  -3  -8   6 2550.11  239.28
  -3  -8   6 1919.69  238.80
  -9   4   9 1521.78  200.67
   5 -11   222429.65  628.11
   9  -4  -9  -19.96  166.14
  -3  -8   6 1790.08  117.39
  -3  -8   6 2102.65  229.98
   5 -11   222491.95  639.73
   5 -11   221982.04  728.13
   3   8  -6 2201.72  195.85
  -5  11  -220989.71  697.34
  -9   4   9 1528.05  244.93
   9  -4  -9 1408.40  195.32
  -9   4   9 1361.16  247.28
   5 -11   222765.28  456.11
  -3  11  -2   36.45  164.45
   3 -11   2  240.15  181.72
  -3  11  -2  138.38  121.14
   3 -11   2    4.90   49.30
   3 -11   2   92.03   78.17
   3 -11   2  122.89  103.61
  -4  -7   7   25.01   85.44
   4  -4   8 8568.33  409.62
 -10   2   4  -55.81   57.49
  10  -2  -4    0.14   40.42
  -4   4  -8 8998.97  502.39
   4  -4   8 8553.69  479.40
  -4   4  -8 8954.03  393.51
 -10   2   4 -175.63  142.29
 -10   2   4   52.87  141.42
  -4  -7   7  -62.72   82.79
  -4   4  -8 8491.66  214.60
  -4   4  -8 8887.20  225.44
   8 -10   012579.06  298.52
   8 -10   013258.57  626.15
  -8  10   013278.86  757.50
   3 -11   1  762.48  111.79
   6   1 -1117131.73  454.47
  -8  10   013436.89  602.47
   3 -11   1  684.26  168.44
   3 -11   1  537.47   99.28
   8 -10   012372.47  315.72
   3 -11   1  683.98  287.14
  -3  11  -1  492.72  205.59
  -3  11  -1  542.60  206.24
  -6  -1  1117632.01  311.68
   6   1 -1115587.37  436.69
   8 -10   013695.47  994.17
  -6  -1  1116410.75 1093.04
  -6  -1  1117387.89  664.51
  -6  -1  1117012.77  412.04
   4  -5   813716.17  566.78
   4  -5   814250.90  971.55
  -4   5  -814056.14  277.34
   6  -6   6 2385.57  267.27
   6  -6   6 2353.08  269.31
  -6   6  -6 2383.29  253.21
  -4   5  -814474.17  654.92
  -6   6  -6 3235.57  151.89
  -4   5  -814554.13  831.75
  -6   6  -6 2811.54  137.65
  -6   6  -6 2728.94  318.84
  -4   5  -813767.39  262.08
  -1  -9   0  260.13  155.87
   2   0 -11 3177.58  132.77
  -4   2  11 7465.95  254.83
  -4   2  11 7334.77  400.32
  -2   0  11 3145.89  332.76
  -1  -9   0  273.67  153.85
   4  -2 -11 6505.65  248.28
  -2   0  11 3460.66  138.75
   1   9   0  115.02  209.77
  -4   2  11 7073.57  281.97
   4  -2 -11 6686.68  259.60
  -2   0  11 3665.40  511.65
   1   9   0   92.73  127.30
  -1  -9   0  193.23  138.91
  -4   2  11 7932.92  452.66
  -2   0  11 3829.86  281.32
   0  10  -225350.54  465.60
   0  10  -224244.68  609.85
   1   6 -10 3186.66  330.25
  -1  -6  10 3283.07  319.80
   0 -10   227166.36  587.85
   1   6 -10 3029.10  327.89
   0 -10   226829.38 1283.94
   0 -10   228789.52  482.37
  -1  -6  10   43.40  476.44
   0 -10   226731.67  842.28
  -3  -8   2   50.66  177.66
  -3  -8   2   56.08  175.14
  -3  -8   2    2.52   82.47
   3   8  -2  -34.58  161.40
  -4  -5  10  101.47   85.57
   4   5 -10    5.67   66.08
  -4  -5  10   15.15  108.77
   4   5 -10  -22.06   85.34
  -4  -5  10   -4.46  118.94
  -5   9   615509.83  686.32
   5  -9  -614563.47  405.07
   5  -9  -614866.50  543.67
  -5   9   614228.71  346.77
   5  -9  -615057.40 1027.19
   5  -9  -615069.62  366.64
  -5   9   615577.48  655.52
  -3   9   5 2200.76  196.93
  -3   9   5 2504.41  312.48
   3  -9  -5 2093.98  184.95
  -3   9   5 2432.24  134.51
   3  -9  -5 2301.18  305.30
   3  -9  -5 2052.70  197.30
  -3   9   5 2305.14  110.89
  -9   0   8 2878.02  270.18
   1   3   8  928.07   83.56
   1   3   8  970.39  246.05
  -9   0   8 3610.12  202.70
  -1  -3  -8  878.57  194.21
  -9   0   8 3257.26  209.89
   1   3   8 1037.38   96.01
  -1  -3  -8   -7.45  162.85
   6 -11  -1 3696.14  194.26
   6 -11  -1 3941.44  197.15
  -6  11   1 3825.90  470.80
   6 -11  -1 3923.47  283.92
  -6  11   1 4033.69  299.29
   6 -11  -1 3766.14  228.50
  -6   1  -5 4663.25  328.75
  -6   1  -5 4680.94  357.54
   6  -1   5 4054.13  142.08
   6  -1   5 4355.17  375.09
  -6   1  -5 4603.49  151.38
  -6   1  -5 4935.95  332.13
   4  -7  -8 9139.27  493.60
   0 -10   4    9.05   78.68
   0 -10   4  305.82   46.17
   6  -4   610444.09  372.88
   0 -10   4  336.33  155.53
  -4   7   8 9004.40  332.19
  -4   7   8 9176.89  496.71
  -4   7   8 9311.83  472.71
   0  10  -4  270.09  104.03
   0  10  -4    2.32   47.15
   6  -4   610422.92  497.41
   4  -7  -8 8676.76  308.86
   0 -10   4  281.58  155.83
  -4   7   8 9320.08  307.16
  -6   4  -610289.75  510.16
  -6   4  -610749.84  360.90
  -6   4  -610706.94  349.53
  -6   4  -610657.48  501.97
   3   7   1 1572.73  279.90
  -3  -7  -1 1618.17  254.45
  -3  -7  -1 1763.61  513.59
   3   7   1 1586.17  427.21
  -4  -6   9   22.45  155.42
  -4  -6   9  -18.95   93.40
   4   6  -9  -27.52   81.67
  -4  -6   9  192.63  103.89
  -8   9  -2  200.65  132.01
   8  -9   2   81.86   87.97
   8  -9   2  322.58  153.41
  -8   9  -2   37.18   92.23
   8  -9   2   94.14   82.88
  -8   9  -2   97.74   87.72
  -8   9  -2   73.95   82.21
   1  -2  1011591.06  555.97
  -1   2 -1011375.16  345.72
  -1   2 -1011558.73  541.51
   1  -2  1011824.21  260.98
  -1   2 -1011232.94  502.25
   1  -2  1011480.50  470.68
  -4  -6  -1  646.93  237.67
  -8  -2   226132.16 1400.11
   4   6   1  405.92  322.58
  -4  -6  -1  529.92  326.88
   8   2  -225549.70  574.14
  -8  -2   227519.33  911.03
  -8  -2   228589.54  994.51
   4   6   1  618.47  223.10
  -6  11  -111935.43  590.41
   6 -11   112488.85  328.18
   6 -11   112475.83  376.33
   6 -11   112121.97  535.66
  -6  11  -113232.82  541.90
   6 -11   111914.43  394.34
   2   6 -10 3446.04  332.95
  -2  -6  10 3325.89  351.57
  -2  -6  10 3138.96  279.60
   2   6 -10 3355.77  306.50
  -7  -4   7 8314.29  249.70
  -7  -4   7 8106.51  298.21
  -7  -4   7 8798.44  378.25
  -7  -4   7 7524.10  242.75
  -7  -4   7 8004.95  233.81
  -7  -4   7 8360.96  294.66
  -2   3  10 2387.26  222.42
   2  -3 -10 2289.52  226.81
  -7  -3   911602.98  247.55
  -7  -3   910416.30  290.46
  -7  -3   911265.99  318.90
  -2   3  10 2282.21  196.89
  -2   3  10 2204.31  241.97
   2  -3 -10 2205.71  206.94
  -7  -3   910809.96  266.53
  -7  -3   911264.85  360.12
  -7  -3   911364.20  423.84
  -2   3  10 2245.19  200.77
  -9   0   219728.89 1241.90
  -9   0   220031.15  795.99
  -9   0   220076.05  493.44
   9   0  -218925.69  393.36
   4 -11  -1 9443.30  367.87
   4 -11  -1 9965.48  305.33
  -4  11   1 8894.57  663.25
   4 -11  -1 9297.41  362.05
   4 -11  -110300.92  577.04
  -4  11   1 9583.08  343.19
  -7  -1  -2 2045.01  315.57
  -7  -1  -2 2176.84  259.66
  -7  -1  -2 1918.56  323.79
   7   1   2 1982.65  225.29
   4  -8  -7 2775.87  167.33
  -4   8   7 2647.04  162.07
   4  -8  -7 2417.67  334.16
   4  -8  -7 2600.06  180.22
  -4   8   7 2688.92  299.24
  -4   8   7 2891.43  301.37
  -4   8   7 2808.11  335.14
   3  -9   7 3240.48  322.90
   3  -9   7 3424.40  396.06
  -3   9  -7 3819.91  341.02
  -3   9  -7 3167.53  402.05
  -4  11  -3 1467.30  216.59
   4 -11   3 1744.53  246.97
   4 -11   3 1809.94   90.87
   4 -11   3 2103.42  234.95
   4 -11   3 1564.38  217.84
  -4  11  -3 1395.95  104.67
  -9  -1   5 6382.92  151.22
  -9  -1   5 6318.39  158.23
  -9  -1   5 6243.88  426.59
  -9  -1   5 6361.24  177.42
  -9  -1   5 6008.44  193.10
  -9  -1   5 5815.88  642.70
  -6  -5   221881.18  624.30
  -6  -5   220765.27  783.40
 -10   6   1 1042.77  449.33
   6   5  -219063.77  696.31
  -6  -5   220061.88 1093.39
  10  -6  -1   -6.88   79.99
 -10   6   1  896.38  166.88
 -10   6   1  956.24  228.97
   6   5  -219524.18  556.00
   0   9   2 5909.97  365.96
   0  -9  -2 5929.93  418.52
   0  -9  -2 6222.05  388.89
   0   9   2 5734.98  408.13
   5  -3   7   -1.52   77.82
  -5   3  -7   45.46   80.18
  -5   3  -7  152.84  129.42
  -5   3  -7   -5.87   70.64
   5  -3   7  148.20  126.03
  -5   3  -7  113.91   75.14
  10  -5  -113902.65  442.69
 -10   5   115812.48  736.77
 -10   5   115968.55  458.23
 -10   5   114807.39  647.91
  10  -5  -114279.81  353.51
  -1   2  10 1782.54  175.95
   1  -2 -10 1789.97  233.73
   1  -2 -10 2031.05  175.69
  -1   2  10 1980.75  173.01
  -1   2  10 1607.49  196.95
  -9  -1   615305.39  534.36
  -9  -1   615176.05  621.23
  -9  -1   614707.01  519.18
  -9  -1   615168.65  305.32
  -3  11  -3  605.65  246.78
   3 -11   3  479.05  180.62
   4 -10  -4 6581.64  280.46
  -4  10   4 6578.13  270.15
   4 -10  -4 6303.31  214.08
   3 -11   3  681.01  176.65
  -2  -9   416255.29  607.76
   2   9  -414842.17  366.77
  -2  -9   417256.81  359.25
   4 -10  -4 6445.40  277.10
   4 -10  -4 6205.06  688.22
  -4  10   4 6377.58  441.17
  -2  -9   416173.38  623.90
  -4  10   4 6651.36  246.96
  -3  11  -3  529.17   79.58
   3 -11   3  541.32  150.42
  -2   7   7    3.01  145.85
   2  -7  -7  574.24  219.69
   2  -7  -7  569.39  264.27
  -2   7   7  589.18   70.25
  -2   7   7  510.49  134.49
  -2   7   7  578.82  201.44
  -6   5  10 9087.63  289.15
  -7  -2  1034780.52  956.52
  -7  -2  1035832.15  619.19
  -7  -2  1035781.37  730.86
  -7  -2  1033189.72  679.00
   6  -5 -10 8634.34  407.78
  -6   5  10 9085.92  431.15
  -7  -2  1032080.23  684.02
   6  -5 -10 8318.35  300.04
  -6   5  10 9308.36  402.90
  -6   5  10 9518.97  481.23
  -7  -2  1035317.42  921.65
  10  -3  -211505.17  463.13
  -7  -4   3 1607.31  166.21
  10  -3  -211200.98  272.27
  -7  -4   3 1602.21  170.68
 -10   3   211846.87 1036.12
 -10   3   213281.17  333.15
 -10   3   211887.18 1109.52
   7   4  -3 1509.42  151.80
  -9   1   9 7113.09  355.66
  -2  -4  1114555.61  653.68
   3 -11   0 1504.45  206.41
  -2  -4  1112983.00  653.37
   1   2 -11   28.62  205.22
   9  -1  -9 6863.05  336.99
  -9   1   9 7144.98  567.72
  -1  -2  11  703.11  329.46
   3 -11   0 1574.61  127.00
  -2  -4  1113828.95  547.13
  -1  -2  11  706.26  177.74
   2   4 -1113529.89  663.97
  -1  -2  11   12.92  159.10
   1   2 -11    5.61  170.84
   3 -11   0 1458.16  204.97
   2   4 -1114015.63  558.97
  -9   1   9 7006.25  277.10
  -3  11   0 1295.51  312.90
  -4   3  -8 5813.37  207.15
   4  -3   8 6031.93  748.87
  -4   3  -8 5436.43  285.24
  -4   3  -8 5887.52  418.85
  -4   3  -8 5497.83  200.48
   4  -3   8 6180.64  313.40
  -8   6   9 8941.82  441.99
  -8   6   9 8506.50  816.38
  -3  -4  11   14.20  142.15
  -3  -4  11  117.71  104.35
   3   4 -11  -19.28   97.68
  -8   6   9 8878.69  769.72
   3   4 -11 -120.34  136.33
   8  -6  -9 8175.51  734.67
  -3  -4  11   -2.29  244.01
   8  -6  -9 8425.68  772.04
   4   0   7 8395.03  541.81
  -4   0  -7 8705.71  514.61
   9  -8   110861.89  413.90
   4   0   7 8152.26  224.50
  -9   8  -111385.07  315.56
  -4   0  -7 8472.21  372.21
   9  -8   111214.38  529.07
  -9   8  -111566.34  498.76
  -9   8  -111433.95  482.06
   4   0   7 8651.47  404.00
  -9   8  -111321.54  438.51
   9  -8   110916.56  298.35
  -4   0  -7 8660.67  616.04
  -9   3  -1  880.75  228.05
  -9   3  -1  642.73   87.48
  -8   0  1010496.69  471.57
   9  -3   1  560.03  111.08
   8   0 -10 9645.20  329.55
  -9   3  -1   15.48  201.14
  -9   3  -1  560.91  116.08
  -8   0  10 9862.88  343.23
   9  -3   1  609.36   89.98
  -8   0  1010502.91  454.54
  -8   0  1010150.51  413.13
   0  -6  10 4729.09  376.37
  -2   6   832695.40  998.44
  -2   6   832703.13  889.89
   2  -6  -831283.00  999.11
  -2   6   831412.25  678.01
  -2   6   832424.47  656.91
   2  -6  -831423.32 1229.17
   0  -6  10 4506.34  423.82
   0   6 -10 4794.47  429.22
   0   6 -10 4725.56  698.61
   3   0   8  738.78  145.03
   4  -6   811465.90  564.20
   3   0   8  669.70  237.24
  -4   6  -811799.32  512.76
   3   0   8  700.45   98.37
  -4   6  -811497.20  642.10
  -3   0  -8   17.43  213.66
   3   0   8  659.55  108.70
  -3   0  -8  652.41  104.92
  -3   0  -8  500.15  135.03
   4  -6   812128.23  598.08
   1 -10  -1  151.75  114.68
  -8   4  10  221.28  158.40
  -1  10   1   89.63  209.82
  -8   3  -3 2686.17  277.54
  -8   3  -3 2831.19  145.71
  -2  -9   3 3559.18  179.46
   1 -10  -1   -7.63  104.98
  -2  -9   3 3109.17  314.08
   1 -10  -1   67.07  207.99
   8  -4 -10   -0.29  119.09
  -8   4  10  119.03  199.17
  -2  -9   3 3492.71  311.35
   8  -3   3 2426.18  141.80
   8  -3   3 2560.11  236.87
   2   9  -3 2633.57  196.94
  -8   4  10  197.61  161.77
  -8   3  -3 2766.10  388.32
  -8   3  -3 3073.71  299.46
   1   3 -11 6104.04  417.53
  -1  -3  11 6757.91  468.18
  -1  -3  11 6946.82  753.22
  -1  -3  11 6722.65  400.24
   1   3 -11 6391.29  459.88
  -1   5 -10   39.96  139.40
   1  -5  10  128.63  151.92
   1  -5  10   56.92  144.68
  -1   5 -10    8.90  220.72
   8   0   114782.57  446.31
  -8   0  -115510.00  706.94
  -8   0  -115495.17  524.88
  -8   0  -115362.65  712.89
   1  -8  -5  -42.60  170.00
  -1   8   5  117.38  127.14
   1  -8  -5   -3.72  128.80
  -1   8   5  -27.30  102.32
   2 -10   6  498.67  164.96
   2 -10   6  395.65  174.79
  -2  10  -6   23.69  104.34
   2 -10   6   -6.05  171.95
  -4   6   9   75.98  125.04
   4  -6  -9   98.90  138.55
  -4   6   9   74.61  130.23
  -4   6   9  133.11  145.91
  -4   6   9   45.80   95.84
   4  -6  -9  138.92  150.39
  10  -2  -7 5203.88  274.17
 -10   2   7 5466.04  391.57
 -10   2   7 5428.32  344.22
 -10   2   7 5352.64  424.75
  10  -2  -7 4748.57  367.61
   2   8   1 4276.33  584.82
   7   2   1  -38.81   93.41
  -2  -8  -1 5119.79  394.01
  -7  -2  -1   18.65  145.62
  -7  -2  -1  -19.82  139.27
  -7  -2  -1  151.32  170.49
   2   8   1 4195.69  367.77
  -2  -8  -1 4405.44  363.26
  -7   5  -521102.13  688.15
  -7   5  -519978.45  822.39
  -7   5  -520331.45  528.83
  -7   5  -521244.42  572.18
   7  -5   520853.96  662.57
   7  -5   519909.11  590.92
  -8   8  -323643.81  658.23
  -8   8  -322437.25  566.35
  -8   8  -322452.35  865.53
  -8   8  -322956.34  748.33
   8  -8   323584.58  900.64
   8  -8   321610.24  786.30
  10  -8  -3  123.68  132.54
 -10   8   3   -7.52  235.05
 -10   8   3  164.67  156.05
  10  -8  -3   61.19  138.07
 -10   7   6 2831.81  308.63
 -10   7   6 2815.43  342.98
  10  -7  -6 2466.91  294.32
  10  -7  -6 2907.48  308.77
  -9   9   010821.85  265.34
  -9   9   010469.94  472.01
   9  -9   0 9884.28  399.20
   9  -9   010563.93  400.65
  -9   9   010806.63  539.95
   9  -9   010264.93  553.29
   9  -9   010061.19  237.57
  -7   6  -5  841.36  130.19
   7  -6   5  -89.72   96.07
  -7   6  -5  785.19  116.32
   7  -6   5   47.11   92.80
  -7   6  -5  -62.81  346.08
  -7   6  -5 1032.47  168.91
   8  -9  -6   25.91  147.54
   8  -9  -6  207.06  126.79
  -8   9   6   87.55  129.72
  -7   0  -3  333.47  192.46
  -8   9   6   -6.19  114.66
   7   0   3   12.29   97.28
  -7   0  -3  468.82  167.91
  -7   0  -3  281.61  193.15
 -10   2   3   94.33  190.30
 -10   2   3    7.94  184.09
  -2  -8   8  248.02  135.70
   0 -10   1 7783.71  300.63
   0 -10   1 7469.07  434.22
  10  -2  -3   -1.75   40.16
   2   8  -8   44.72  152.86
  -7   1  11  -21.05  104.39
  -6  11   2 1324.13  198.64
 -10   2   3  262.44   66.76
   7  -1 -11  232.28   84.59
   0  10  -1 6489.08  314.73
  -7   1  11  332.35  143.60
   0 -10   1 7608.74  439.78
  -2  -8   8   90.88  251.72
   6 -11  -2 1216.03  175.61
  -2  -8   8  280.37  144.20
   6 -11  -2 1017.73  172.47
  -6  11   2 1141.49  213.90
   6 -11  -2  947.59  120.22
  -7   1  11   85.93  154.55
  10  -6  -7 1927.00  475.06
   6  -7   616606.18  640.75
  -6   7  -616221.94 1064.71
 -10   6   7 2030.41  297.86
  -4  -4  -4  527.93  200.63
  10  -6  -7 1809.53  260.62
   6  -7   616478.02  659.63
  -6   7  -615675.27  345.46
  -4  -4  -4  504.96  241.46
 -10   6   7 2207.05  270.26
  -6   7  -615547.12  320.46
   4   4   4  446.27  226.37
   4   4   4  526.11  207.73
  -6   7  -615832.13  912.65
   0  -8  -4   -9.67  510.56
   0   8   4  398.04  349.90
   0   8   4  993.51  400.68
   0  -8  -4 1516.61  226.59
  -5  11   2 6539.98  311.99
   3  -4 -1010865.93  387.83
  -3   4  1011898.71  405.14
  -3   4  1011952.67  430.95
  -3   4  1012273.95  450.65
  -5  11   2 5978.41  373.62
   5 -11  -2 6392.78  266.00
  -3   4  1011765.54  731.49
   5 -11  -2 6371.86  272.14
   5 -11  -2 6057.68  263.67
   3  -4 -1010773.57  687.22
   5 -11  -2 6849.50  546.03
  -4  -3  -533165.49 1114.77
  -9  -1   4 1377.98  424.37
  -9  -1   4   -3.49  445.33
 -10   8   4  974.86  245.33
   4   3   533619.04 1622.19
 -10   8   4  770.63  216.70
  10  -8  -4 1084.03  232.21
   4   3   531183.53 1064.00
  10  -8  -4  913.03  222.52
  -4  -3  -534669.65 1121.78
  -9  -1   4 1205.13  150.72
   9   1  -4   -8.11   59.52
  -2  -9   546352.48 1253.60
  -2  -9   545378.65 1769.23
  -2  -9   547810.93  922.43
   2   9  -543917.20  821.02
   2   9  -545775.98 1025.53
  -6  -5   8    7.14   79.68
   5  -5 -10 1339.36  116.01
  -6  -5   8  108.73   59.71
  -5   5  10  -74.66  180.54
  -5   5  10   -3.74   89.46
   5  -5 -10    8.55  353.99
  -6  -5   8  104.04   70.85
  -6  -5   8   36.82  129.74
  -8  10   4 8279.52  736.43
   6  -9   521583.14  860.24
  -6   9  -523158.55  800.03
  -8  10   4 8283.53  483.36
  -6   9  -523901.58 1233.50
  -6   9  -523090.16  453.14
   6  -9   521356.89  697.48
   8 -10  -4 8336.42  443.18
   8 -10  -4 8681.04  441.42
   7  -5 -10  -30.21  100.12
  -7   5  10  426.49  346.46
  -7   5  10  500.10  181.41
  -7   5  10  466.95  150.96
  -9   5   917409.81 1104.43
  -9   5   917338.26  932.81
  -9   5   917600.37 1095.81
   9  -5  -916586.06  976.65
   9  -5  -917367.21 1071.49
  -5  -6   8 1250.24  156.50
  -5  -3  1122591.68  587.10
  -5  -3  1123771.36  805.23
   0 -10   517817.08  670.89
   0 -10   518504.98  703.54
   0 -10   518704.36  750.07
  -5  -6   8 1361.58  118.08
  -5  -6   8 1269.39  153.96
   0  10  -517573.99  470.19
  -5  -3  1123715.89  805.87
   5   3 -1124554.33  560.77
  -5  -6   8 1167.58  159.89
   5  -7   7  268.63  334.87
   3   6   3 1558.17  269.68
   9  -9  -5  180.42  132.41
  -9   9   5 -107.26  144.57
   5  -7   7  444.39  320.36
  -3  -6  -3 1439.20  559.30
  -9   9   5 -145.51  158.65
   9  -9  -5  -22.42  133.19
   3   6   3 1481.37  309.32
  -3  -6  -3 1546.58  266.35
  -5   7  -7  171.14  164.01
  -5   7  -7  450.57  190.17
  -6  -2  -320300.34  744.69
  10  -7  -137929.03 1519.55
  -6  -2  -320885.82 1286.55
  10  -7  -137125.38 1029.64
   6   2   318708.09  683.50
 -10   7   139928.26 1072.75
  -6  -2  -321102.13  870.01
   6   2   319005.12  799.10
 -10   7   139140.79 1122.21
 -10   7   139217.09 1239.57
  -4  -7   1 8749.39  442.81
   4   7  -1 7868.64  388.18
  -4  -7   1 8832.96  792.81
   4   7  -1 6928.11  421.76
  -3   4  -9  -46.43  254.11
   3  -4   9   70.52  248.98
  -3   4  -9   94.52   38.76
   3  -4   9   89.08  215.07
  -3   4  -9  -11.62   64.95
  -3   4  -9  107.52  200.32
   6 -10   4  475.16  256.01
  -6  10  -4  849.74  186.01
  -2  -7  -3   14.89  240.95
   2   7   3  740.49  248.40
  -2  -7  -3  879.55  195.89
  -6  10  -4  496.05  138.73
  -6  10  -4  469.26  353.97
  -8  -1   011441.22  640.10
   6 -10   4  121.01  400.84
   6 -10   4  547.51  110.16
  -8  -1   010326.88  608.24
  -6  10  -4  591.03  118.41
   2   7   3  800.62  220.85
   8   1   010109.12  541.66
  -8  -1   010617.14  611.27
   3 -10   6 6221.43  396.94
  -3  10  -6 5879.95  391.94
  -3  10  -6 6124.74  783.37
   3 -10   6 6661.51  752.12
   3 -10   6 5902.94  780.34
  -7   2  11 7648.01  783.13
   7  -2 -11 6510.71  273.86
  -7   2  11 7603.67  260.84
  -7   2  11 8066.37  871.16
   5  -3 -1118448.91  511.91
   1  -4  -9 7907.40  438.29
  -1  -1  11  935.46   80.30
  -5   3  1120571.83  529.61
   1  -4  -9 7793.29  412.00
  -5   3  1120383.46  793.29
  -5   3  1120349.68  710.93
  -1   4   9 8111.63  444.39
  -1  -1  11 1125.75  389.88
  -6   3  11    7.72   64.13
  -1   4   9 7979.34  450.47
   5  -3 -1118141.22  582.26
  -1  -1  11 1125.65  204.45
   5   5   1   48.80  104.76
  -5   3  1120133.17  459.90
  -1   4   9 8488.73  412.85
   1   1 -11  698.41  110.77
   5   5   1  -22.74  135.29
  -5  -5  -1  111.68  139.06
   6  -3 -11  -15.12   37.38
  -6   3  11  242.67  221.64
  -5  -5  -1  161.18  176.03
  -6   3  11  133.27  107.30
   6  -3 -11  -19.60   68.79
  -1   4   9 8029.64  390.96
  -6   3  11    0.25   36.41
   1   1 -11   19.42  167.14
  -6   3  -6   -9.38   54.30
   6  -3   6  217.95  119.90
  -6   3  -6  -37.74   94.05
  -6   3  -6   54.54  113.69
   6  -3   6   -9.38   70.77
  -6   3  -6  102.45  122.57
   5 -11   313898.56  630.75
 -10   4   1   71.45   74.46
   5 -11   313546.75  769.49
  -9  -1   7 1470.89  110.48
  -5  11  -313136.71  551.44
   5 -11   313820.53  517.11
 -10   4   1   87.81   50.82
  -5  11  -313140.91  451.43
  -9  -1   7 1337.49  229.19
  -9  -1   7 1218.48  306.28
 -10   4   1  125.26  167.92
  10  -4  -1   43.97   38.48
  10  -4  -1   57.61   69.24
 -10   4   1  172.16  148.51
   5 -11   314700.57  403.88
   1 -10   6 6064.74  377.72
  -1  10  -6 5617.28  325.13
   1 -10   6 6119.08  421.47
   2  -7   922635.50  850.76
   1 -10   6 6260.51  399.16
   2  -7   923891.63  937.74
  -2   7  -923516.70  975.99
  -2   7  -923759.79  859.04
   8 -10   1 1731.08  136.51
   8 -10   1 1586.79  301.34
   8 -10   1 1689.86  141.70
  -8  -3   5 1739.15  439.61
  -8  10  -1 1663.59  154.34
  -8  -3   5 2018.55  224.53
  -8  10  -1 1709.28  200.28
  -8  -3   5 2104.89  225.44
   1   9  -7   13.33  132.65
  -1  -9   7   -0.55  151.62
   8 -10   1 1683.76  163.97
  -1  -9   7  -22.76  108.65
  -8  10  -1 2111.44  278.50
  -8  -3   5 1912.28  128.91
  -1  -9   7  153.82  179.71
  -8   1  -2 6497.61  448.13
  -8   1  -2 6810.05  807.16
   8  -1   2 5967.46  315.88
  -8   1  -2 6471.55  335.78
  -6  11  -2  765.72  120.07
  -6  11  -2  916.19  361.35
   6 -11   2  738.93  142.60
   6 -11   2  872.97  220.78
  -3  -2  -711104.41  517.62
  -3  -2  -711556.00  631.22
   6 -11   2  743.69  148.28
   3   2   711059.33  637.35
   6 -11   2  719.43   93.16
   3   2   711120.59  515.95
   3  -8   8 1718.09  324.11
  -3   8  -8 1675.41  269.82
  -3   8  -8 1505.95  330.13
  -7  11   1  958.90  222.15
  -8  -3   6  971.12  151.62
  -2  11  -2 1783.43  154.58
  10  -8  -2  -90.59  270.95
  10  -8  -2  272.91  143.14
   2 -11   2 2601.50  154.16
   3  -8   8 1809.20  285.25
  -7  11   1 1165.77  192.37
  -8  -3   6 1020.66   96.14
   7 -11  -1  827.25  265.79
   2 -11   2 1958.08  479.84
 -10   8   2  162.78  165.17
  -8  -3   6 1005.64   94.52
   2 -11   2 2417.82  130.63
 -10   8   2  152.09  139.98
   7 -11  -1  943.45  102.90
   2 -11   2 2460.78  281.49
   7 -11  -1  872.90  212.79
  -2  11  -2 2417.69  167.97
  -8  -3   6 1020.28  191.52
  -5   9  -6  271.04  200.88
   5  -9   6  479.14  167.67
   5  -9   6  180.28  212.25
  -5   9  -6  383.33  179.87
  -2   8   623130.91  455.95
   2  -8  -624160.08 1048.26
  -2   8   623669.00  704.32
   2  -8  -623307.91  902.19
  -2   8   623553.06  424.82
  -2   8   623838.97  887.63
  -7   0  1122291.84  433.17
  -7   0  1122379.93  811.10
  -7   0  1122784.04  813.81
   7   0 -1120119.22  459.89
  -6  -2  1118425.56  695.06
  -6  -2  1118098.35  681.19
  -6  -2  1116739.37  438.17
   6   2 -1117893.46  376.22
 -10   4   8 2221.29  249.11
  10  -4  -8 1746.87  258.46
  -3   5  -9 2539.17  286.86
 -10   4   8 1785.70  251.88
  -3   5  -9 2784.11  362.53
 -10   4   8 1793.84  242.90
   3  -5   9 2585.62  327.99
  10  -4  -8 1783.04  241.60
   3  -5   9 2608.93  315.39
   5 -10   5 6525.90  478.47
   5 -10   5 5579.02  353.45
  -5  10  -5 6184.51  431.10
  -5  10  -5 5832.66  419.38
  -1   1 -10   66.23  116.01
  -1   1 -10  147.00  135.47
   1  -1  10    1.25  101.89
   1  -1  10    3.51   90.82
   1  -1  10  115.34   91.79
  -1   1 -10   77.34   59.58
   1  -1  10   59.93  229.49
   3  -2 -11 8149.53  324.30
   5   6  -1 1215.67  354.59
  -5  -6   1 1285.48  218.41
  -3   2  11 7814.54  396.12
  -3   2  11 8356.11  285.68
   3  -2 -11 7707.48  274.31
  -3   2  11 8336.52  461.55
  -5   0  -6 2810.96  270.65
   5   0   6 2179.66  279.94
   5   6  -1 1395.98  432.51
  -5   0  -6 1481.03  547.70
  -5  -6   1 1308.32  263.13
  -3   2  11 8247.56  351.83
  -5   0  -6 2533.25  264.51
  -5   0  -6 2591.90  118.12
   5   0   6 2547.77  104.20
  -7   4  -5  478.75  170.85
   0  -3  -926112.78  865.93
   7  -4   5  -12.52   65.37
   0   3   926203.60  896.76
   0   3   925442.02  557.33
   0  -3  -925397.69  768.03
   0   3   926218.99  757.65
   7  -4   5   -3.32   90.12
  -7   4  -5  283.12  113.14
  -7   4  -5  287.09  209.66
   0   3   926053.74  817.58
  -7   4  -5   52.56  146.26
  -3  -8   718366.68  625.59
   7 -11   0 8398.82  466.54
   3   8  -718750.33  450.97
  -7  11   0 8223.46  454.24
   7 -11   0 8039.85  438.76
  -7  11   0 7750.05  360.02
   7 -11   0 7937.25  265.44
   7 -11   0 8639.07  308.82
  -3  -8   717873.81  514.24
  -3  -8   719356.31  636.38
   6 -10  -5  289.01  285.18
  -3  -6  10 2496.84  249.45
   3   6 -10 2776.69  302.22
  -3  -6  10 2988.47  292.34
   3   6 -10 2863.34  259.83
   6 -10  -5    6.27  184.58
  -3  -6  10 3044.57  533.46
  -6  10   5  340.98  187.61
   6 -10  -5   -1.22  116.13
  -6  10   5  306.61  128.09
   6 -10  -5  317.75   68.16
   2   2   8 3489.04  219.19
  -2  -2  -8 3518.15  368.37
  -2  -2  -8 3362.13  288.73
   2   2   8 3439.28  407.51
   2   2   8 3651.73  296.47
  -1  -4  11  654.74  220.07
  -2  -9   2 7295.87  514.12
  -2  -9   2 7118.67  730.35
  -1  -4  11  475.77  334.02
  -2  -9   2 7236.44  431.11
   1   4 -11  685.89  196.17
   1   4 -11  -13.18  202.20
   2   9  -2 6108.92  315.95
   0  -1 -1011303.68  488.42
   0   1  1010478.08  347.65
   0  -1 -1010197.65  337.99
   0   1  10 9995.03  398.15
   0   1  1010044.17  536.44
   0   1  1010257.19  366.05
 -10   3   8 3967.51  511.39
  10  -3  -8 3628.97  324.70
  10  -3  -8 4196.00  302.89
  -2   1  11 5635.67  349.31
  -2   1  11 5595.71  387.02
  -2   1  11 5938.88  336.57
   2  -1 -11 5375.00  309.49
   2  -1 -11 5356.29  207.17
  -2   1  11 5386.38  332.83
   6   3   2 1609.91  312.09
  -6  -3  -2 1738.46  325.76
  -7   9  -4  763.19  311.14
  -6  -3  -2 2326.07  263.44
   6   3   2 1504.42  240.69
  -7   9  -4  697.97  170.84
  -7   9  -4  557.85   84.74
   7  -9   4  775.26  237.63
  -6  -3  -2 1881.49  358.86
   7  -9   4  674.49  169.77
  -7   9  -4  776.93  202.20
  -2   0  -918572.54  721.19
  -2   0  -918360.84  500.15
  -2  11  -326488.95  688.63
  -2   0  -918147.73  505.13
   2   0   918065.60  503.32
   2   0   919456.64  779.37
   2 -11   328102.22  503.66
  -2  11  -325910.83  696.40
   2   0   919262.72 1242.98
   2 -11   328535.03  682.11
   2 -11   326651.75 1284.35
   2   0   917915.87  463.11
   2 -11   327645.14  866.32
  -4  -4  11 6158.61  424.92
   9  -6   213798.29  388.93
  -9   6  -214960.32  585.50
  -9   6  -215091.52  484.16
  -3   3  -917766.94  884.18
   9  -6   213212.41  473.15
  -9   6  -215269.70  439.14
  -4  -4  11 6036.55  438.60
  -3   3  -918141.30  731.36
  -3   3  -917611.23  366.13
   3  -3   917085.48  730.55
  -4  -4  11 5952.83  304.61
   3  -3   917109.01  565.19
   4   4 -11 6004.23  288.19
  -3   3  -917389.11  365.10
  -9   6  -214556.50  542.87
   4  -9  -6   76.43   63.76
  -4   9   6   81.95  146.94
   4  -9  -6  -39.34   49.34
  -4   9   6   39.78   69.63
  -4   9   6   74.05  131.12
   4  -9  -6   80.12  119.94
  -4   9   6   65.30   58.31
   3   8  -1  838.29  200.25
  -3  -8   1  829.01  212.39
  -3  -8   1  692.66  210.15
   3   8  -1  913.70  200.20
  -3  -8   1  852.71  194.41
   7  -7   5  891.65  215.09
  -7   7  -5  849.24  106.65
  -7   7  -5  871.55  211.59
   7  -7   5  787.69  181.02
  -7   7  -5 1130.48  193.00
   6   1   4    9.86  139.11
  -6  -1  -4   65.45  159.87
   6   1   4   74.77  128.93
  -6  -1  -4  237.28  167.87
  -6  -1  -4  204.46  161.99
 -10   1   539941.80 1762.07
 -10   1   540171.94 1843.99
 -10   1   542954.95  844.07
  10  -1  -539700.66  822.64
  -3  -7   9 1908.55  210.79
   3   7  -9 2075.20  222.44
  -3  -7   9 1506.66  231.85
   2 -11   112619.83  522.63
  -7  10   525054.99 1136.15
  -2  11  -112465.52  348.87
   7 -10  -523578.79  436.70
   2 -11   112383.97  347.81
  -2  11  -111100.04  384.64
   7 -10  -524159.77  697.86
   7 -10  -525113.17  841.52
   2 -11   112766.28  301.82
   7 -10  -524380.71  444.37
  -7  10   524587.66  896.40
   2 -11   112765.49  530.58
 -10   8   510773.50  598.43
  10  -8  -510221.28  528.22
  10  -8  -510674.69  525.97
 -10   8   510749.14  538.62
  -7  10  -3 1175.67  109.04
   7 -10   3 1424.66  281.82
  -7  10  -3 1337.71  254.26
   7 -10   3  949.34  177.38
   7 -10   3 1275.66  289.99
  -7  10  -3  908.00  219.15
  -7  10  -3 1312.65  191.88
   2  -5  -9  797.00  315.18
 -10   1   613396.82  339.57
  -2   5   9  820.92  325.83
 -10   1   612140.56  536.14
 -10   1   613668.86  625.86
  -3  11  -4 7742.38  628.19
   2  -5  -9  754.10  352.49
   3 -11   4 7985.21  716.45
   3 -11   4 8257.01  723.11
   3 -11   4 8306.89  453.06
  -2   5   9  769.37  121.17
  -2   5   9   -7.01  301.53
  -2   5   9  627.98  103.82
  -9   5  -2 7758.36  417.64
  -7  -4   8 3014.69  123.21
  -9   5  -2 8136.93  490.35
  -7  -4   8 3318.73  152.27
  -7  -4   8 3143.26  156.32
  -9   5  -2 8006.75  457.44
   9  -5   2 6880.27  452.15
  -9   5  -2 7875.45  302.88
  -7  -4   8 2873.70  193.22
  -7  -4   8 3220.29  147.38
   9  -5   2 7143.54  299.63
  -7  -4   8 3371.05  171.83
   8   3  -4 1544.55  121.71
  -8  -3   4 1348.69  130.33
  -7  11   2  962.24  207.21
   7 -11  -2  648.96  155.67
  -7  11   2  890.29  209.63
  -8  -3   4 1565.46  135.43
   7 -11  -2  145.05  130.67
   4   5   312630.74  687.78
  -4  -5  -312662.12  726.76
   4   5   312456.78  579.48
  -4  -5  -313414.16  619.32
   3 -11  -1 2363.08  219.65
   3 -11  -1 2426.10  245.55
  -3  11   1 2352.51  263.64
   3 -11  -1 2613.82  244.48
   3 -11  -1 2716.40  218.42
  -3  11   1 2259.48  250.55
   4 -11  -211445.16  403.28
  -4  11   211178.69  360.11
  -4  11   210600.07  508.26
   4 -11  -211229.20  443.80
   4 -11  -210964.00  398.85
   4 -11  -211215.61  478.12
   4   2   6 3519.46  422.04
 -10   5   810524.49  494.98
  -4  -2  -6 3607.09  404.79
  -4  -7   8 1491.79  141.04
  10  -5  -810133.22  506.21
  10  -5  -810329.64  504.80
   4   7  -8 1310.61  135.11
   4   2   6 3572.11  340.92
  -4  -2  -6 3970.48  357.99
  -4  -7   8 1353.39  293.75
  -4  -7   8 1258.00  191.73
 -10   5   810379.63  510.64
  -4   2  -8    5.70   63.46
   4  -2   8   49.82   99.79
  -4   2  -8   41.33   62.67
   4  -2   8  -14.65   56.87
  -4   2  -8   81.96  119.25
  -4   2  -8   -8.49   70.38
   4 -11   4  846.25  185.61
   9  -7  -8 3094.07  331.21
   9  -7  -8 3700.51  342.21
  -9   7   8 3173.66  578.90
  -4  11  -4  813.94  196.58
   4 -11   4  274.89  390.17
   4 -11   4  866.69  201.58
  -9   7   8 3234.67  335.56
  -8  -3   7   21.48   47.16
  -8  -2   912732.83  610.55
  -8  -3   7   40.05   59.54
  -1  -8  -3    9.63  549.66
  -8  -2   914118.48  414.95
  -8  -3   7   62.19   42.48
  -8  -2   914133.52  467.49
  -8  -2   913569.46  309.95
   1   8   3 2073.47  280.16
   1   8   3 1800.95  312.07
  -8  -3   7  141.26  151.92
  -1  -8  -3 1928.49  262.93
  -8  -3   7  -27.50   83.83
  -8  -3   7   81.53   68.10
   9  -8  -7  485.69  198.71
   9  -8  -7  461.59  188.15
  -9   8   7  502.13  366.49
  -9   8   7  433.56  195.77
   5  -2   725798.78  598.46
  -5   2  -726271.89  684.53
  -5   2  -727682.71  995.06
  -5   2  -726500.90 1362.97
   5  -2   726492.27  928.23
  -5   2  -727941.53  635.69
  -2  -9   6   11.81  246.67
  -2  -9   6  128.53   81.92
   2   9  -6  170.54  124.53
  -2  -9   6  294.21  140.42
  -4   7  -811388.11  539.60
   4  -7   810384.90  595.58
  -4   7  -811266.70 1065.19
  -9   7  -2 6853.47  598.03
  -9   7  -2 7170.50  284.74
   9  -7   2 5568.61  369.33
   4  -7   810873.26  571.89
  -9   7  -2 6742.46  350.58
  -9   7  -2 6579.76  608.53
   9  -7   2 6522.87  251.37
  -7   3  11 2760.47  331.67
   7  -3 -11  -12.61  129.17
  -7   3  11 2824.30  191.93
  -7   3  11 2888.88  365.05
  -4   3  1114375.91  539.74
  -4   3  1114592.24  994.39
   4  -3 -1113636.84  388.39
  -4   3  1115093.65  440.65
  -4   3  1114512.21  428.01
   4  -3 -1112956.20  416.49
  -9  -1   3 3662.54  385.45
  -9  -1   3 3877.83  178.47
  -9  -1   3 2857.64  646.09
   9   1  -3 2992.18  218.07
   5 -10  -5    4.60   80.28
   5 -10  -5  243.14   77.50
   5 -10  -5   -4.31  132.69
  -5  10   5  336.09  320.23
   5 -10  -5  270.60  152.20
   0   8  -9 3028.93  276.41
   0  -8   9 2540.61  594.17
   0  -8   9 2626.61  312.82
  -5  10   5  237.58  105.13
   0   8  -9   -0.23  308.37
   7   3   016464.33  532.70
  -7  -3   017401.85  771.04
  -7  -3   017481.12  572.27
  -7  -3   018630.25 1326.17
  -9   1   0 1159.98  290.97
   9  -1   0 1172.21  130.72
 -10   1   4  177.12  181.93
 -10   1   4   -9.52  185.17
  10  -1  -4    0.48   36.08
 -10   1   4  307.35  102.79
  -9   1   0 1269.81  154.57
   7 -11   1 4923.61  240.87
  -9   0   9 5966.83  327.70
   7 -11   1 5265.49  240.51
  -9   0   9 5765.15  291.83
   7 -11   1 5480.47  366.96
   7 -11   1 5224.52  715.60
  -7  11  -1 5435.02  398.53
  -9   0   9 5840.87  244.03
  -7  11  -1 4860.55  270.13
  -7  -4   2  -18.08  285.09
   7   4  -2   18.14   72.49
  -7  -4   2  150.87  104.34
   1  -6  10 2972.92  356.10
  -1   6 -10 2960.51  353.73
  -1   6 -10 2715.86  397.39
   1  -6  10 2903.84  374.72
   7  -8  -828957.49  836.36
  -7   8   828895.84  967.37
   7  -8  -828593.66  978.44
   1   9   1  430.82  180.12
  -1  -9  -1  374.20  185.32
   1   9   1  368.99  316.51
  -7   8   828502.45  862.28
  -1  -9  -1  382.33  191.51
  -1  -9  -1  614.53  333.96
  -3   6  -9   72.53  120.35
  -3   6  -9  -36.07  146.16
   3  -6   9  244.50  174.23
   3  -6   9  120.81  180.74
   6  -8  -818450.36  750.07
   6  -8  -817565.52  549.92
   6  -8  -818357.00  564.41
  -6   8   818035.86  540.92
  -6   8   818141.14  735.60
  -6   8   817918.05  345.30
  -6   8   817719.99  583.18
  10  -2  -8   33.73  186.02
 -10   2   8  126.95  170.83
 -10   2   8   35.12   87.31
 -10   2   8  -32.45  203.82
  -7   1  -4  -68.92   97.96
   7  -1   4   33.44  211.29
  -7   1  -4   21.07   98.66
  -7   1  -4   27.15   90.87
  -8  -1  10 4551.17  320.11
  -8  -1  10 3663.17  359.18
  -8  -1  10 4224.69  248.54
  -8  -1  10 4372.74  495.83
  -1   9  -8 7493.58  463.77
   1  -9   8 7150.52  777.22
  -1   9  -8 7804.22  535.64
   1  -9   8 7603.81  495.34
   1  -9   8 7277.62  517.69
  -9  10   2  303.98  167.72
  -9  10   2  116.54  155.68
   9 -10  -2  242.91  129.72
   9 -10  -2  148.10  172.28
  -6  11   3 6810.94  427.70
  -6  11   3 6775.50  349.49
   6 -11  -3 6673.09  533.82
   6 -11  -3 6995.27  240.39
   4  -5 -1016048.85  583.15
  -4   5  1015992.18  565.13
   6 -11  -3 7043.09  636.04
   6 -11  -3 6858.42  236.34
  -4   5  1016486.61  586.06
  -4   5  1016466.79  516.23
   4  -5 -1015474.66  444.50
  -4   5  1016190.05  449.91
  -2  11  -422235.47  629.45
   2 -11   423195.33  663.89
   8  -5 -1016579.35  601.77
   2 -11   423553.04  799.55
   2 -11   424035.00  812.38
  -8   5  1017358.51  707.20
  -8   5  1017193.99  916.55
  -8   5  1017594.07  735.15
   0 -10   0 1732.10  271.62
   0  10   0 1716.24  383.31
   0 -10   0 1998.15  473.99
 -10   8   1  894.89  202.86
 -10   8   1  775.34  209.62
  10  -8  -1  643.79  375.28
   0 -10   0 1879.54  215.46
 -10   8   1  670.20  410.91
  10  -8  -1  886.94  338.07
  -2  -5  11 6951.49  473.46
  -1   0  11 3954.72  326.24
   2   5 -11 7073.91  495.62
  -1   0  11 3459.28  321.11
   2   5 -11 7336.56  431.42
  -2  -5  11 7214.11  404.87
   1   0 -11 3418.57  154.45
  -1   0  11 3784.89  289.48
  -1   0  11 3949.36  164.45
   7   1 -11 1065.65  162.83
 -10   1   7  502.70  156.72
 -10   1   7  -17.23  161.87
  -7  -1  11 1487.05  257.37
  -7  -1  11 1458.71  259.62
  -7  -1  11 1072.96  191.76
  -7  -1  11 1703.98   87.50
   2 -10  -326185.52  881.62
   2 -10  -326047.09  783.38
  -3   7   811185.57  400.21
   2 -10  -325607.77  765.15
  -2  10   324708.09  718.95
  -8  -2   1 1290.95  169.47
   3  -7  -810776.12  596.59
   3  -7  -810984.07  416.87
   4  -9   7 2012.45  505.47
  -3   7   811258.65  307.97
  -4   9  -7 2213.32  372.60
  -8  -2   1 1513.89  296.59
   8   2  -1   -7.30   64.70
  -2  10   324762.93  874.15
  -3   7   811824.41  577.58
  -8  -2   1 1102.43  288.75
  -3   7   810690.86  508.28
   4  -9   7 2103.85  349.47
  -4   9  -7 2569.13  325.18
  -4  10  -638330.29 1152.02
 -10   2   2 2855.08  136.13
  -4  10  -640619.72 1274.19
  10  -2  -2 2497.93  102.12
   4 -10   637926.46 1110.85
 -10   2   2 2833.31  129.47
   1   2   912650.92  463.71
   1   2   911747.69  337.64
   1   2   911527.01  304.46
  10  -2  -2 2481.69  124.26
 -10   2   2 2527.18  669.39
  -1  -2  -912408.48  588.10
   1   2   912578.48  646.28
  -1  -2  -912253.22  468.85
   4 -10   637268.53 1260.02
  -6  -4  10 1779.49  209.74
  -9  -1   816588.24  462.82
  -9  -1   816967.89  596.57
  -6  -4  10 1695.38  232.18
  -6  -4  10 1901.80  142.89
  -9  -1   817217.40  426.83
   6   5  -1  -31.25  102.88
  -6  -5   1  416.96  148.07
  -6  -5   1  253.26  209.34
   6   5  -1  243.05  141.64
  10  -6   0  -82.05   99.31
 -10   6   0  -97.76  130.16
 -10   6   0   29.63   85.63
  10  -6   0  140.20   80.62
 -10   6   0   99.42   85.07
 -10   6   0   18.64  113.98
  -6   7   9  138.59  204.14
  -9   0   1 2731.80  199.33
  -6   7   9   12.83   91.57
  -6   7   9  -12.87  102.76
  -9   0   1 2888.97  368.47
  -9   0   1 2878.05  365.93
  -6   7   9   43.79   66.53
   6  -7  -9   91.63  132.17
   6  -7  -9   44.45   90.78
   9   0  -1 2722.13  153.87
  -1   8  -9    1.30  115.16
  -6   8  -6  -49.58  101.91
  -6   8  -6    7.58   48.88
  -6   8  -6   24.96   91.40
   6  -8   6   46.27  133.95
  -6   8  -6    0.89   32.69
   6  -8   6   19.87  112.77
   1  -8   9    3.56  171.40
   1  -8   9  513.35  199.06
  -7   7   9 3230.66  282.53
  -7   7   9 2652.89  316.32
  -9  10   3 1465.30  476.36
   7  -7  -9 2728.78  281.33
  -9  10   3 1627.87  278.80
   7  -7  -9 2674.29  325.71
   9 -10  -3  -10.18  380.95
   9 -10  -3 1529.17  245.71
  -7   7   9 3231.42  307.76
  10  -3  -1  236.40   57.86
 -10   3   1  328.30   71.36
 -10   3   1  175.43   74.32
  -8   6  -424371.39  682.23
  10  -3  -1  191.10  131.00
   8  -6   423248.97  698.29
   8  -6   424257.04  681.57
  -8   6  -425276.44  691.16
 -10   3   1  -22.40  328.27
  -8   6  -423975.23  642.13
  -8   6  -424547.80 1065.13
 -10   3   1  550.70  208.31
   9  -4   217005.36  494.35
  -5  -5  1016620.45  617.27
  -9   4  -220024.62  763.96
   1   8  -912927.22  607.36
  -9   4  -218853.58  450.97
  -5  -5  1016919.13  486.19
  -1  -8   911434.82  581.24
  -9   4  -219412.50  696.76
  -9   4  -219448.64  536.23
   9  -4   217475.75  437.92
   1   8  -911384.96  888.01
  -1  -8   912254.41  550.49
  -1  -8   912130.94  556.33
  -5  -5  1017126.72  573.52
   0 -10   627729.03  773.72
   0  10  -626387.00  706.14
   0 -10   627741.31  903.81
 -10   7   7 6970.53  476.00
   0  -9   8   34.03  140.76
  10  -7  -7 6618.14  437.45
   0  -9   8   47.45  132.88
 -10   7   7 6900.56  453.67
   0   9  -8    0.00  121.71
   0   9  -8   20.66   97.65
  10  -7  -7 6883.31  462.06
   0  -9   8  124.23  137.47
  -9   9  -1 7017.07  397.86
  -9   9  -1 6928.09  334.40
   9  -9   1 7173.17  254.35
  -9   9  -1 6761.15  380.06
   2 -11   021522.43  582.14
  -2  11   019168.94  908.67
   9  -9   1 6518.10  477.28
   9  -9   1 7099.26  320.00
   2 -11   020994.94  710.36
  -9   9  -1 6999.10  438.82
   2 -11   021246.98  712.11
   2 -11   021306.04  406.48
  -2  11   019388.72  437.18
  -3  10   4   69.88  151.21
  -3  10   4  115.19  100.81
   3 -10  -4   17.76   91.71
   3 -10  -4   39.84   42.78
   3 -10  -4   -0.05   87.67
   3 -10  -4  101.30  130.23
   3  -2   9 3023.09  232.51
   3  -2   9 3448.75  653.38
  -3   2  -9 3484.84  254.29
  -9   2  -118443.16  758.17
  -9   2  -119196.07  534.54
   9  -2   117713.17  478.27
  -3   2  -9 3263.71  166.35
   3  -2   9 3623.55  179.21
   9  -2   117405.33  344.30
  -9   2  -118580.63  803.44
  -9   2  -118543.30  371.92
  -3   2  -9 2862.71  364.48
  -3   2  -9 3331.36  166.84
   8  -2   3 5710.80  581.49
  -8   2  -3 5996.85  425.31
  -8   2  -3 6343.23  353.87
   8  -2   3 5419.72  256.71
  -8   2  -3 6077.48  438.16
  -8   2  -3 6682.56  184.32
  -7   3  -534882.35  737.81
  -7   3  -535006.25 1001.97
  -7   3  -535502.28  950.75
   7  -3   533934.08 1424.72
   7  -3   532502.44  706.92
  -7   3  -534664.00  909.77
   5 -11  -3 2968.87  190.02
   9 -10  -1  615.53  113.66
  -9  10   1  825.38  236.42
  -9  10   1  701.22  202.55
  -5  11   3 2962.78  218.59
   5 -11  -3 2910.90  192.92
   5 -11  -3 2953.56  278.84
   9 -10  -1  559.46   80.92
   9 -10  -1  879.08  234.64
   5 -11  -3 2515.05  330.34
  -5  11   3 2120.16  542.61
   9 -10  -1  857.41  156.47
 -10   5   019344.10  519.70
  -8   5  -4 2562.35  245.17
  -8   5  -4 2349.49  418.74
  -9   3  1013635.28  612.87
 -10   5   019975.59 1325.43
  -9   3  1012737.07  438.84
  -8   5  -4 2830.25  224.70
 -10   5   018944.95  749.28
   8  -5   4 2651.77  237.55
  -8   5  -4 2302.19  199.75
  -9   3  1014223.94  614.79
  10  -5   018276.64  382.64
   9  -3 -1011563.67  452.51
 -10   5   019836.87  433.05
  10  -5   017610.24  512.36
   8  -5   4 2719.99  215.74
  -9   2  10  604.43  184.90
   3  -8  -710986.34  408.71
  -3   8   711694.60  418.35
   9  -2 -10   42.30  155.01
   3  -8  -711314.62 1047.80
  -3   8   711301.87  406.92
  -3   8   711150.13  311.99
  -9   2  10  469.04  120.86
  -3   8   711609.96  603.07
  -8  10   5 2935.02  366.98
   8 -10  -5 3215.90  306.07
  -8  10   5 3367.76  315.30
   8 -10  -5 3731.07  341.21
  -9   6   9  -55.46  125.18
   9  -6  -9 -233.83  242.59
  -9   6   9  184.81  132.22
   9  -6  -9  -51.94  146.70
  -9   6   9   59.03  138.51
  -3  -5  11   31.28  131.44
  -3  -5  11   23.40  220.98
   3   5 -11 2802.32  299.11
   3   5 -11   17.40  394.71
   2   9  -110731.62  518.85
  -2  -9   111625.42  549.38
   2   9  -110690.89  467.10
   0   3 -11  350.73  161.67
   0  -3  11  445.49  193.27
  -2  -9   111783.55  477.70
   0   3 -11  -16.19  168.75
   0  -3  11  549.92  197.38
  -2  -9   110891.10  550.61
   8  -9   3  168.33  108.82
  -8   9  -3   80.25   78.30
   8  -9   3  254.50  179.69
  -8   9  -3  117.00  140.51
   7 -11  -3  412.34  139.52
   7 -11  -3  290.90   68.44
  -8   9  -3   72.55   87.23
   7  -9  -7    5.75   79.69
  -7  11   3  297.76  260.36
   7 -11  -3    3.23  139.90
  -7  11   3  256.18  168.31
  -7   9   7   16.63  152.22
   7  -9  -7    5.34  198.00
   7 -11  -3  248.31   70.47
  -7   9   7  122.89  119.74
  -8   9  -3  158.67  107.54
   6   4   114497.46  727.59
  -6  -4  -115734.17  729.86
  -6  -4  -115715.15  822.01
  -6  -4  -116405.40  625.06
   6   4   115133.73  581.98
   5  -8   710912.65  617.84
   6 -11   315396.90  784.72
  -5   8  -710954.09 1031.12
  -6  11  -314953.43  624.44
   5  -8   710812.68  562.34
   5   3   4   46.65  110.54
   6 -11   315824.09  326.51
  -5  -3  -4   52.97  143.94
   6 -11   314854.80  527.02
   5   3   4  -36.18   99.60
   6 -11   314979.66  717.24
  -6  11  -314897.66  377.18
  -5  -3  -4    4.11  128.30
  -5   8  -710404.83  549.80
   2  -9   825188.59  889.18
  -2   9  -826400.77  927.22
  -1  -5  1129195.68 1048.55
   1   5 -1128270.66  983.40
   2  -9   826602.18 1009.20
   1   5 -1128137.08 1584.18
  -1  -5  1128953.58  957.09
  -2   9  -828039.95 1063.52
   1  -9  -423739.83  911.63
  -1   9   422905.79 1331.24
  -1   9   422572.06  733.93
   1  -9  -422578.45  751.71
  -6   2  -6 3520.55  163.09
   6  -2   6 3119.37  345.23
  -6   2  -6 3418.35  329.34
   6  -2   6 3217.96  161.66
  -6   2  -6 3249.03  266.37
  -6   2  -6 3281.98  257.54
  -8  -3   3 1474.13  147.08
  -6   9   7 1783.63  308.13
   6  -9  -7 1585.44  107.34
   6  -9  -7 1631.19  112.50
  -6   9   7 1893.80  178.38
  -6   9   7 1593.01  211.96
   6  -9  -7 1923.97  300.31
   8   3  -3   -2.32   50.50
  -8  -3   3  -24.61  271.31
   6  -9  -7 1938.42  188.93
   9  -9  -627352.09  925.55
  -9   9   628110.08  960.00
   9  -9  -626494.14  879.37
  -9   9   628186.60 1025.06
  -5  -7   5  420.31  141.91
  -5  -7   5  344.54  253.31
  -5  -7   5  385.84  105.38
 -10   7   0 1425.90  214.82
  10  -7   0 1218.57  139.69
 -10   7   0 1778.58  114.19
 -10   7   0 1624.50  289.76
  10  -7   0  -61.19  202.05
 -10   7   0 1484.94  253.19
  -1  -7  1025170.23 1250.50
  -1  -7  1025610.05  953.03
   1   7 -1024712.38  882.86
   1   7 -1025029.88  901.30
  -7   8  -5  493.59  182.32
   6   0   520752.57  782.54
  -6   0  -520974.59  791.12
   7  -8   5  380.99  216.98
   6   0   519810.91  824.78
  -7   8  -5  452.31  139.23
  -7   8  -5  517.01  186.23
   7  -8   5  639.29  174.20
  -6   0  -522144.44 1183.02
  -6   0  -521737.48  769.45
   2  -9  -5 3761.18  284.20
   2  -9  -5 3675.10  701.46
 -10   8   6 3833.91  411.69
  10  -8  -6 3563.89  371.36
 -10   8   6 4104.81  374.88
  10  -8  -6 3437.89  615.53
  -2   9   5 3998.48  288.69
  -2   9   5 3969.20  402.83
  -3   6   9 5522.32  369.68
  -1  10   2  298.37  174.72
  -3   6   9 5679.04  303.27
   1 -10  -2   -8.53  157.78
  -1  10   2  310.51  279.99
   3  -6  -9 5153.98  300.22
   3  -6  -9 5166.11  403.34
   1 -10  -2  493.28  272.16
  -3   6   9 4918.30  385.91
   1 -10  -2  328.97  152.99
  -3   6   9 5445.77  264.80
  -1 -10   4 8102.60  488.29
  -1 -10   3  268.04  177.77
   5 -11   4 5716.61  468.33
  -1 -10   3  420.19  175.07
   5 -11   4 5779.80  347.63
  -1 -10   3  321.58  136.45
   5 -11   4 5674.91  372.83
   1  10  -3  394.07  106.10
   1  10  -4 8158.51  213.05
   1  10  -4 7856.46  242.00
  -5  11  -4 5563.86  412.49
  -1 -10   4 8390.94  204.22
  -1 -10   4 8974.69  201.64
  -1 -10   4 8050.61  476.27
  -8   7  -4 3678.08  292.89
  -8   7  -4 3385.64  228.58
   8  -7   4 3617.79  241.81
   8  -7   4   11.59  511.27
  -8   7  -4 3712.86  288.35
  -8   7  -4 3550.84  214.72
   8 -10   219141.13  522.59
   2  -4  1018748.00  705.40
   8 -10   220063.49  492.63
   2  -4  1019022.55  758.49
  -8  10  -219422.78  553.16
   8 -10   218848.08  513.96
  -2   4 -1019037.86 1253.31
  -2   4 -1019376.25  708.91
  -8  10  -220268.76  570.18
   8 -10   219438.51 1319.84
  -8  10  -220403.78  777.59
   8  -8  -8  742.41  221.15
  -6  -6   5 2327.67  205.43
   8  -8  -8  672.30  199.41
  -6  -6   5 1974.56  201.42
  10  -6  -8 6866.15  444.33
  -8   8   8  809.34  237.03
  -8   8   8  768.48  212.81
  -6  -6   5 2256.03  345.24
  10  -6  -8 7007.40  448.32
 -10   6   8 7226.59  454.15
 -10   6   8 7150.96  457.05
   0   2 -11 4088.29  364.25
   0  -2  11 3509.03  362.76
   0   2 -11 2997.89  584.03
  -6   4  1129291.40 1020.40
   6  -4 -1127413.47  763.83
   0  -2  11 4247.38  327.16
  -6   4  1130044.45  772.70
   0  -2  11 4098.24  362.54
  -6   4  1129790.11  956.62
  10  -9  -314034.20  581.83
 -10   9   314142.55  690.08
 -10   9   315061.15  652.17
  10  -9  -313809.64  643.11
   5  -8  -8  -54.84   59.22
  -5   8   8  150.92   98.53
  -5   8   8   86.79   65.44
  -7  -3  10 3109.50  412.03
  -7  -3  10 3046.36  122.25
  -7  -3  10 3257.46  276.80
  -5   8   8  191.34  153.36
  -7  -3  10 2997.83  242.99
   5  -8  -8    4.27   73.29
  -5   8   8   83.52   87.50
   5  -8  -8  176.36  226.01
  -5  -7   4   50.53  109.69
  -5  -7   4   30.39  111.68
  -5  -7   4  150.45   98.12
  -9   8  -2 7468.49  301.79
   9  -8   2 6950.23  444.50
   4   1 -12  612.04  134.32
  -9   8  -2 6656.36  370.82
  -4  -1  12  896.52  246.72
  -9   8  -2 6853.61  328.05
  -4  -1  12  851.63  276.00
  -9   8  -2 7572.91  413.72
   9  -8   2 6984.65  259.12
  -4  -1  12 1028.93  151.65
   1   6   6 3975.61  403.59
  -1  -6  -6 3566.17  353.16
  -1  -6  -6 3568.13  426.09
   1   6   6 3785.93  392.23
   0  -4  11  338.40  187.67
   0   4 -11  411.96  304.84
  -6  -5   9 9412.87  307.08
   0   4 -11  -61.78  317.15
   0  -4  11  349.00  194.44
  -6  -5   9 8852.62  380.95
  -6  -5   9 9204.11  298.13
  -6  -5   9 9610.20  292.90
   1   0  10 3854.05  336.57
   0  -7  10  -24.53  237.11
   1   0  10 3319.99  379.69
  -1   0 -10 3963.10  323.07
   1   0  10 3597.78  227.81
   0  -7  10 2267.34  281.35
  -1   0 -10 2848.28  339.93
   1   0  10 3424.20  257.64
   0   7 -10    0.29  289.56
   0   7 -10 2208.10  278.43
  -8  -3   8  650.65  102.77
   1   5   7 7305.80  511.67
  10  -1  -3 5965.18  263.65
  -8  -3   8  762.08   95.91
 -10   1   3 7007.35  848.76
   1   5   7 7301.72  790.03
 -10   1   3 6444.94  492.65
  -1  -5  -7 7234.68  493.30
  -8  -3   8 1113.87  135.59
  -8  -3   8  984.07  138.77
  -8  -3   8 1120.55   87.34
  -1  -5  -7 7610.94  516.03
  -2   3 -10 4924.85  412.29
   2  -3  10 1138.29  691.23
  -2   3 -10 4858.37  357.80
   2  -3  10 4934.79  321.04
  -8   2  11 3913.11  371.89
  -3  -7  -215803.53  798.72
  -8   2  11 3687.39  329.93
   8  -2 -11 2892.10  209.47
  -6  -6   6 6923.53  501.48
  -6  -6   6 6916.26  501.08
   3   7   214861.06  652.25
   3   7   215222.31  727.76
  -3  -7  -215788.78  668.47
   5   4   322657.50  822.38
  -5  -7   6 8355.17  239.53
  -8   2  11 2836.63  655.63
  -6  -6   6 6700.76  426.29
   5   4   321558.41  944.39
  -5  -4  -322729.85 1002.67
  -5  -7   6 8057.02  371.56
  -5  -7   6 8149.27  361.88
  -5  -4  -323325.59  831.99
  -9   4  10  357.19  188.70
   9  -4 -10    4.62   85.98
  -9   4  10  432.85  185.47
  -9   4  10  198.00  133.16
   5   2   515737.65  769.30
  -5  -2  -515683.83  722.89
  -5  -2  -517071.34  740.85
   5   2   515710.21  718.91
  -9  10   4  506.84  200.62
  -9  10   4  430.89  210.82
  -5  -4  11 3070.91  355.56
  -5  -4  11 2917.04  547.65
   9 -10  -4  483.16  188.79
   5   4 -11 3078.34  196.52
   9 -10  -4    8.98  307.47
  -5   7   914037.22  465.62
  -6  -3  11 7497.32  428.72
  -5   7   913764.08  620.88
  -6  -3  11 6789.63  261.19
  -5   7   914255.02  497.29
   5   0 -12  398.58   96.22
  -5   0  12  272.81   90.85
   0  -6  -7  174.07  250.40
  -5   7   913817.62  351.24
   0  -6  -7   73.62  172.59
   0   6   7  219.73  172.32
   5  -7  -913010.06  376.20
  -5   0  12  164.92  194.15
   0   6   7   99.44  298.73
  -6  -3  11 6765.91  424.81
  -5   0  12  160.95  179.62
   5  -7  -913463.50  622.23
   8 -11  -1 5142.62  283.74
   8 -11  -1 4624.00  409.33
   8 -11  -1 4453.12  267.84
  -8  11   1 5211.30  416.94
  -8  11   1 5087.99  354.73
   8 -11  -1 4912.74  180.96
 -11   5   5  984.17  264.72
  11  -5  -5  717.55  166.55
  -4  -7   016686.73  747.79
 -11   5   5  752.60  484.81
  -4  -7   016323.64  659.85
   4   7   015545.44  605.71
  11  -5  -5  721.99  234.41
   4   7   014765.76  662.42
   2   5   6  706.82  255.35
   2   5   6  724.92  241.15
  -2  -5  -6  470.55  224.52
  -2  -5  -6  813.32  250.22
  -5  -6   9  881.49  147.54
  -5  -6   9  919.45  162.48
  10  -9  -214617.32  588.15
   1 -11   331446.90  988.67
 -10   9   214414.02  678.65
  10  -9  -213576.49 1054.05
   1 -11   331370.91  648.65
   1 -11   331293.16  584.41
  -1  11  -328989.66  666.72
 -10   9   215046.73  647.23
   1 -11   330844.93  979.82
  -1  11  -328516.94  621.87
 -10   9   4   81.45   95.76
  -8   7   9 1346.00  452.26
  -4   0  12   -7.04  185.72
  -8   7   9 1308.44  254.55
   8  -7  -9 1359.46  245.33
 -10   9   4  -99.67  107.21
  -4   0  12    2.31   60.01
  10  -9  -4  -43.54  118.85
  -4   0  12   -6.31   97.06
  10  -9  -4  -17.34  131.53
   4   0 -12  -11.44   67.78
   8  -7  -9 1260.56  265.88
  -8   7   9 1249.13  236.34
   9  -1 -1019613.26  848.65
  -9   1  1021627.51  699.18
  -9   1  1018760.15  580.05
  -9   1  1022091.21  533.27
  -4  -6  10 6752.84  395.27
  -8   1  11 8258.00  496.50
  -4  -6  10 6723.34  335.42
  -8   1  11 8805.45  410.62
   8  -1 -11 7636.04  295.10
  -8   1  11 8849.54  517.63
  -4  -6  10 6730.09  378.46
   4   6 -10 6633.02  368.24
   7 -11   2 6278.55  340.40
  -7  11  -2 6619.73  279.62
   7 -11   2 5648.91  483.00
  -6  -6   4  333.41  157.95
  -7  11  -2 6452.52  454.08
   7 -11   2 6766.12  297.11
   7 -11   2 6376.06  288.34
  -6  -6   4  455.18  140.81
  -6  -6   4  481.20  141.38
  -5  -1  1211501.89  607.09
  -5  -1  1210060.70  331.66
   3 -11   5 9849.38  501.15
  -3  11  -5 9901.00  739.78
   5   1 -1210491.28  313.87
   3 -11   510804.64  532.62
  -5  -1  1210256.67 1012.13
   3 -11   510114.66  535.24
   5  -4 -11  471.98   85.37
  -3  -8   813990.46  485.92
  -3  -8   815321.69  875.85
   8 -11  -216494.07  341.22
  -5   4  11  571.33  215.31
   8 -11  -216531.05  345.32
   5  -4 -11  -19.62  130.24
   3   8  -815303.61  448.23
   8 -11  -217516.88  574.61
  -5   4  11  663.70  183.01
  -8  11   217267.02  658.47
   8 -11  -216281.47  665.38
  -8  11   217651.26  710.25
  -2   5 -1010061.20  622.46
   2  -5  10 9641.19  548.74
   1 -11   2 1109.95  433.43
  -2   5 -1010514.65  548.68
  -1  11  -2 1670.10  150.86
  -1  11  -2 1385.25  114.59
   8  -4   4 3185.95  324.11
  -8   4  -4 3757.47  322.61
   8  -4   4 3724.73  281.67
   2  -5  1010259.25  574.23
   1 -11   2 1515.43  119.51
  -8   4  -4 3718.19  281.93
   1 -11   2 1546.26  255.91
   1 -11   2 1301.02   97.14
  -8   4  -4 3270.49  276.30
  -8   4  -4 3863.71  310.72
 -11   5   4 3840.51  250.21
  11  -5  -4 3697.31  261.39
 -11   5   4 3754.62  407.90
 -11   5   4 2474.00  758.47
  11  -5  -4 3867.96  384.01
  -1   3  1011383.20  353.42
   1  -3 -1010766.60  435.52
   1  -3 -1011445.96  494.81
  -1   3  1010942.32  393.39
  -1   3  1011168.31  865.07
  -1   3  1011475.87  438.68
   2 -10   7 1963.85  290.61
  -2  10  -7 2159.54  349.07
   2 -10   7 1640.62  561.25
   2 -10   7 2174.83  317.08
  -4  -8   5  702.87   96.53
  -4  -8   5  584.01  181.17
  -2  10  -7 1907.45  273.60
  -4  -8   5  697.49  182.15
 -10   4   0   29.79  460.85
  10  -4   0 1772.56  153.65
   0  -9  -3 9416.14  584.67
   0   9   3 8930.64  469.89
   0  -9  -3 9245.01  813.62
  10  -4   0 2075.74  122.75
   0   9   3 8492.92  532.22
 -10   4   0 1705.36  298.43
   4   6   2 2531.40  315.48
   3   1   8 2689.15  232.06
   3   1   8 2635.53  399.63
  -3  -1  -8 3132.09  239.57
   3   1   8 2913.51  253.49
  -3  -1  -8  -25.95  321.84
  -2  -7  10 6765.82  463.34
   3   1   8 2802.39  134.76
  -4  -6  -2 2549.50  685.33
  -2  -7  10 7117.24  410.47
  -4  -6  -2 2625.83  330.20
   2   7 -10 7180.20  448.42
   4   6   2 2097.10  361.14
   2   7 -10 7396.56  451.64
  -4  -2  12 3676.08  241.94
  -4  -2  12 3793.51  403.57
   4   2 -12 3709.19  235.91
  -4  -8   4 9413.39  456.26
   4   8  -4 8489.90  333.14
  -4  -8   4 9248.73  325.42
   7  -4 -11 2749.22  246.23
  -4  -8   4 9688.46  758.50
  -7   4  11 3195.58  228.50
  -7   4  11 2704.33  370.84
  -7   4  11 2646.26  576.09
  11  -6  -412362.12  621.11
 -11   6   413525.03  735.38
 -11   6   413132.96  493.29
  11  -6  -412315.12  496.68
 -11   6   413622.87  676.38
  -2   4  1020386.75  868.72
  -2  -9   7 2422.79  293.81
   4 -10  -5 1381.71  270.11
   2  -4 -1019008.93  642.40
   2   9  -7 3213.48  322.52
  -2   4  1020185.18  683.18
  -2  -9   7 2845.66  224.64
   2  -4 -1019544.92  631.65
  -2   4  1020076.36  537.07
  -2   4  1020455.37  644.33
   4 -10  -5 1090.92  159.84
  -4  10   5 1240.91  128.88
  -4  10   5 1395.78  275.33
   4 -10  -5 1170.47  109.81
  -4  10   5 1013.49  154.35
  -8   9   7 9384.56  490.93
   1  10  -216415.05  511.35
   8  -9  -7 8546.44  512.51
  -6   6  10  509.78  215.25
   6  -6 -10  359.83  159.95
  -1 -10   217994.51 1158.73
  -6   6  10   63.25  140.06
  -6   6  10  -19.67  126.34
  -1 -10   218809.32  730.94
  -1 -10   510221.24  878.69
  -1 -10   218832.73  491.61
  -1 -10   510073.05  286.63
   6  -6 -10  205.76  110.94
   8  -9  -7 8921.84  448.48
  -8   9   7 8693.19  567.20
   1  10  -5 9984.87  426.81
  -1 -10   5 9689.55  514.18
   3 -11  -2  -20.83   87.55
  -3  11   2  780.52  203.50
   3 -11  -2  -19.11   90.58
   3 -11  -2   10.03   84.27
   9 -10   0 3765.32  171.45
   9 -10   0 3704.40  256.27
  -9  10   0 3105.89  301.62
  -9  10   0 3384.46  350.19
   9 -10   0 3830.21  400.28
  -3  11   2  677.77  103.09
   9 -10   0 3405.28  143.81
   2  -2 -11 5088.03  248.68
  11  -6  -5 1351.12  224.48
   2  -2 -11 5183.56  307.87
  -2   2  11 5810.55  251.20
  -2   2  11 5264.37  358.16
  11  -6  -5 1446.10  281.60
  -2   2  11 5255.34  601.25
  -2   2  11 5254.78  306.61
 -11   6   5 1521.21  341.75
 -11   6   5 2093.48  238.61
 -10   1   8 7296.87  573.69
 -10   1   8 6264.77  420.08
  -1  10  -718811.89  664.17
   1 -10   719052.54 1142.71
 -10   1   8 7146.12  296.08
   3   8   0  746.32  209.64
  -3  -8   0 1127.73  442.92
   1 -10   719221.39  758.46
  -3  -8   0 1085.42  248.82
   1 -10   718117.02  732.67
 -10   3   9 5300.55  323.55
   7  -6 -1012037.84  911.99
  -7   6  1012957.40  917.69
  -7   6  1013548.81  540.65
  10  -3  -9 4869.28  341.67
  -7   6  1011401.59  595.64
 -10   3   9 5492.40  361.50
  -4  -1  -721341.61  868.17
  -4  -1  -721370.50  723.23
   4   1   721320.85  743.39
   4   1   720903.13  937.75
  -3  -1  12  730.07  232.41
  11  -4  -5 5497.96  455.85
  11  -4  -5 5770.19  296.83
   3   1 -12  581.05  161.09
 -11   4   5 5907.07  822.65
 -11   4   5 6356.36  513.94
  -7  -4   916153.71  420.68
  -3  -1  12  781.75  213.43
 -11   4   5 6288.08  297.55
  -7  -4   915646.33  373.52
   0   7   617956.95  772.69
  -7  -4   916282.65  362.30
  -7  -4   915302.97  495.56
   0   7   617223.13  681.36
   0  -7  -617445.78  682.82
   0  -7  -617958.59  851.46
  -3  -1  12  -34.04  268.99
  -2  -8  -218083.76  735.13
  -3  -2  12   24.26  181.27
  -2  -8  -217976.37 1309.13
   2   8   217058.00  753.82
   2   8   216948.08  689.78
   3   2 -12   72.53  187.09
 -10   4   9 -137.91  113.17
  -3  -2  12  233.61  115.16
  10  -4  -9   47.13   96.64
  -3  -2  12   58.83  167.33
 -10   4   9   39.62  124.90
  10  -4  -9  -37.39  104.48
   9   1  -2 4159.24  182.83
  -3   7  -913629.47  768.73
  -9  -1   2 4688.23  235.84
  -9  -1   2 5170.24  439.22
  -3   7  -913818.52  650.29
   3  -7   914057.67  724.34
   3  -7   912932.39 1106.40
  -9  -1   2 4435.74  446.39
   2 -11   5 2834.73  320.80
   2 -11   5 2339.13  302.40
   2 -11   5 2613.85  273.18
   1   9  -813268.21  508.48
  -1  -9   813749.02  583.10
  -2  11  -5 2810.82  263.05
  -1  -9   813954.45  588.41
  -1  -9   813540.80  614.98
  -2  -6  -525443.13  908.25
  -2   8  -9 8890.24  547.63
   2  -8   9 7693.92  517.16
   2   6   524679.24  911.64
  -2  -6  -525211.63 1038.49
   2  -8   9 8317.06  596.67
   2   6   525255.89 1491.21
  -2   8  -9 8862.59  641.25
  -8   3  11 9118.42  556.62
  -8   3  11 9043.96  334.83
  -8   3  11 8385.89  883.03
   8  -3 -11 8057.10  579.83
 -11   5   6 1849.03  345.29
  -3   3  11   18.28  112.85
  11  -5  -6 2192.04  329.17
   8 -11   0  120.06  161.18
   8 -11   0  115.34  114.92
 -11   5   6 2753.16  254.22
   3  -3 -11  262.21  180.38
  -8  11   0  188.16  218.23
   3  -3 -11  107.96  185.07
  -3   3  11  212.36  134.94
  -3   3  11  296.58  111.92
  -3   3  11   52.50   96.93
   8 -11   0  138.74   90.25
  11  -5  -6 2439.05  255.17
   8 -11   0   -0.97  117.34
  -8  11   0  168.93  163.16
   5   6   030308.82 1065.76
  -5  -6   032583.06 1445.02
   5   6   031135.90 1367.16
  -5  -6   031691.18 1136.55
  -5   9   714797.77  414.10
  -5   9   715368.52  706.55
   5  -9  -714219.62  583.10
  -5   9   714244.41  365.05
  -5   9   715108.26  465.56
   5  -9  -714918.66  421.59
   5  -9  -714677.79 1168.26
  -4   1  -8 5453.86  414.08
   2   4   719362.16  876.25
  -2  -4  -719238.95  798.48
  -4   1  -8 4838.58  368.60
  -4   1  -8 5108.07  430.93
   4  -1   8 4653.81  213.70
   4  -1   8 4987.10  446.45
  -2  -4  -719457.13  852.60
   2   4   720024.93  778.47
   4  -1   8 4984.70  459.35
  -4   1  -8 4713.17  266.94
  -5   1  12 1501.45  256.14
   5  -1 -12    6.73  180.91
  -5   1  12 2071.65  344.40
   0   5   8 4162.46  393.25
   0  -5  -8 4738.14  400.28
  -5   1  12 2183.28  123.84
   5  -1 -12 2118.48  199.05
   0   5   8 3999.12  368.05
   0  -5  -8 3902.72  406.90
  -5   1  12 2191.10  300.62
  -9  -2   6 7716.54  372.65
  -9  -2   6 8349.32  454.68
  -9  -2   6 7715.95  193.01
  -9  -2   6 7732.02  206.73
   1 -11   4 3903.84  359.96
   1 -11   4 3942.69  218.04
  -1  11  -4 4174.03  373.91
   1 -11   4 3847.69  361.48
  -2  -8   9 2947.53  300.81
  -2  -8   9 2666.87  288.47
   2   8  -9 3207.85  284.33
   4 -11  -3 5159.59  279.84
   4 -11  -3 4568.61  360.15
   4 -11  -3 5056.46  282.64
  -4  11   3 4706.98  230.59
   4 -11  -3 4941.02  309.83
  -4  11   3 4708.41  396.75
  -3   9   6  993.63  264.40
  -3   9   6  803.36  101.71
  -3   9   6 1008.20   87.15
   3  -9  -6  962.78  287.68
  -3   9   6  880.71  165.20
   3  -9  -6 1074.21  178.20
   5   7  -3  543.77  163.62
  -5  -7   3  635.98  175.81
  -5  -7   3  654.87  177.78
  -5  -7   3  440.02  171.77
  -9  -2   510747.55  894.57
  -9  -2   5 9880.21  479.62
  -9  -2   510543.95  274.96
  -9  -2   510049.12  250.26
  -7  -5   517203.07  603.32
  -7  -5   517524.35  488.66
  -7  -5   517238.12  728.74
   4  -8   8 8138.70  521.21
   4  -8   8 7326.72  566.81
  -4   8  -8 7504.45  486.16
  -4   8  -8 8123.47  588.49
  -1  -7  -5  266.98  174.92
  10  -8   0  118.47  161.09
  10  -8   0  147.86  100.10
 -10   8   0  551.56  183.98
   1   7   5  284.61  186.53
 -10   8   0  451.04  161.72
  11  -4  -616835.68 1166.83
 -10   8   0   32.59  161.52
 -11   4   617933.21 1250.57
   1   7   5  226.81  204.40
 -11   4   618492.09  567.96
  -1  -7  -5   27.43  380.35
 -11   4   619359.19 1275.42
  10  -8   0  297.21  134.21
  11  -4  -617145.95  549.60
   4 -11   5  215.59  265.46
   4 -11   5  256.59  190.92
  -4  11  -5  221.88  158.17
   4 -11   5  170.91  164.35
   0   1 -11 6160.23  409.76
  -9   3  -2 1272.17  270.70
  -7  -5   614135.62  399.70
   0   1 -11 6642.63  191.46
  11  -4  -4  981.80  148.63
   0  -1  11 6945.56  457.70
   9  -3   2 1142.76   98.97
 -11   4   4 1164.94  300.24
 -11   4   4 1053.86  289.66
   0  -1  11 6922.79  201.86
  -9   3  -2  740.03  270.96
  -7  -5   613970.10  403.45
   0  -1  11 6143.85  406.92
  -9   3  -2 1093.47  100.60
   0   1 -11 6847.78  419.49
  -7  -5   614168.25  402.71
  -7  -5   614812.60  702.95
   9  -3   2    1.05  150.10
   0  -1  11 6620.76  368.73
  -4  -8   622858.95  722.65
  -4  -8   622831.62  729.81
  -6  10  -5  400.13  184.81
  -6  10  -5  189.67  185.48
   6 -10   5  266.70  196.16
   6 -10   5  139.84  136.94
  -6  -6   7   55.78   72.09
  -4  -5  11   27.97  169.59
  -6  -6   7    4.45   76.98
  -6  -6   7   16.22   51.91
  -4  -5  11  -49.61  284.26
   4   5 -11   -5.17  130.55
  -4  -5  11  324.18  122.19
  -7  -2  11 9922.04  824.54
  -7  -2  1110973.94  827.81
   2  -2  10   38.62  138.59
  -5   1  -7 1801.12  131.53
  -6   0  1212743.46  624.05
  -2   2 -10  401.12   75.08
  -5   1  -7 1457.37  358.65
   5  -1   7  -57.26  513.84
  -2   2 -10  476.47  199.25
  -5   1  -7 1734.18  297.67
 -10   0   6  111.04  131.06
 -10   0   6    6.04   49.75
 -10   0   6  191.14  115.90
  -5   1  -7 1590.30  353.52
  -2   2 -10  309.99  121.44
  -2   2 -10  494.85  158.91
   2  -2  10  585.93  201.82
   6   0 -1212183.93  285.08
   2  -2  10  445.71  127.45
  -6   0  1212385.63  322.91
  -6   0  1212887.33  676.20
   5  -1   7 1543.02  207.90
  -2  11   1 4508.38  568.88
   2 -11  -1 4161.66  343.31
   2 -11  -1 4502.04  348.00
   2 -11  -1 4778.55  307.68
   1   4   8 2963.16  378.25
   1   4   8 2930.95  318.15
  -1  -4  -8 2519.13  580.09
  -1  -4  -8 2995.22  362.19
 -11   6   3 6110.04  486.31
  11  -6  -3 6250.32  441.61
  11  -6  -3 5558.71  347.59
 -11   6   3 6457.85  532.07
 -11   6   3 6100.66  339.75
   1 -11   1  978.11  237.08
   1 -11   1 1088.89  416.62
  -1  11  -1  816.37  152.52
   1 -11   1 1094.64  142.82
  -2  -1  -9  136.27  152.85
   2   1   9  943.60  275.52
   2   1   9  945.58  173.36
   0  -5  1113672.26  674.39
   0   5 -1114228.21  701.54
   0  -5  1113411.06  634.37
   0   2  10 1552.40  174.21
  -8   8  -413824.33  577.88
   0  -2 -10 1860.63  179.78
   0   2  10 1645.54  155.07
  -8   8  -413166.69  384.45
   2   1   9  845.87  180.14
   0   5 -1113077.63  726.84
   2   1   9  913.09  120.85
  -8   8  -413124.78  411.16
   0  -2 -10    5.18  246.44
  -8   8  -414282.38  539.03
  -2  -1  -9   -9.62  175.36
   0   2  10 1856.46  191.73
   8  -8   412739.01 1002.08
   0   2  10 1650.77  527.57
   8  -8   413254.21  469.16
  -8  11   3  -12.09  186.98
   8 -11  -3  151.30   74.06
  -8  11   3   35.55  193.31
   8 -11  -3    4.52   44.25
   8 -11  -3   85.72  114.05
   8 -11  -3  182.84  126.28
   8   0 -11 9909.86  484.26
  -8   0  1111250.27  886.41
  -8   0  1110812.31  267.67
  -8   0  11 9856.47  331.73
 -10   0   5 2402.48  321.82
  -8   0  1111339.84  556.04
 -10   0   5 2702.37  115.67
 -11   5   3 8381.49  641.57
  11  -5  -3 7719.01  347.58
 -11   5   3 9035.33  563.57
 -11   5   3 8857.85  357.58
  -1   7   7 1291.14  226.15
   1  -7  -7 1183.11  226.77
  -1   7   7    0.80  185.77
   1  -7  -7 1277.79  303.38
  -1   1  11 6094.37  326.82
  -4  -8   314043.78  572.39
  -4  -8   313322.09  956.29
  -1   1  11 6272.47  387.74
  -4  -8   314710.56  502.27
   4   8  -312440.30  467.71
  -1   1  11 6158.13  421.46
  -1   1  11 6583.93  377.29
  -5  -2  12    8.81  109.57
   5   2 -12   -4.37   54.86
  -5  -2  12   -2.00   62.27
   1  -1 -11 6469.87  359.02
  -5  -7   7 3799.69  266.20
  -5  -2  12   24.93  118.62
   1  -1 -11 5793.51  238.62
  -5  -7   7 4050.91  270.29
   3 -10   7  693.61  255.91
  -3  10  -7  605.64  268.84
  -3  10  -7  759.82  227.05
   3 -10   7 1126.76  266.68
   3 -10   7  576.37  227.90
  -8  -1  -1 6429.51  389.13
  -8  -1  -1 6449.00  881.58
  11  -6  -6 3122.51  358.30
 -11   6   6 3744.80  326.50
   6  -1 -12 8240.82  259.10
  -6   1  12 9169.27  550.46
  -6   1  12 9214.32  244.99
   6  -1 -12 8470.65  221.08
  -8  -1  -1 6801.34  519.43
  -6   1  12 9284.02  602.96
   8   1   1 6628.54  340.98
 -11   6   6 3357.30  400.84
 -10   9   1 1887.20  289.02
 -10   9   1 1451.76  510.37
  10  -9  -1 1771.33  550.48
  10  -9  -1 1997.12  426.85
   7   4  -1  -36.76   90.82
  -4   1  12 8868.13  940.33
   6 -11  -4 3674.26  248.37
 -10   9   5 7560.73  482.88
 -10   9   5 6630.89  881.99
  -4   1  12 9222.42  515.98
 -10   2   9  664.81  142.13
  -6  11   4 3697.72  273.69
  10  -2  -9  -54.83  111.79
  -7  -4   1   82.87   86.41
   6 -11  -4 4082.59  308.30
   4  -1 -12 8002.18  316.20
   6 -11  -4 4264.08  350.09
  -8   0  -2  728.70  250.47
  -4   1  12 9094.19  350.61
  10  -9  -5 7064.37  482.74
  -7  -4   1 -229.04  133.79
  -4   1  12 9114.65  244.90
  -8   0  -2  575.85  184.08
   8   0   2  655.11  165.87
 -10   2   9   69.47  173.22
  -8   0  -2  659.28  239.80
  10  -9  -5 7023.29  480.14
   4  -1 -12 8096.52  242.20
 -10   2   9  594.12  157.66
   6 -11  -4 4038.70  183.75
  -6  11   4 3872.47  381.60
  -9  -1   922515.13  685.74
   1  -7  10  133.87  155.99
  -9  -1   922851.33  542.59
  -3   9  -8 8830.67  531.54
  -1   7 -10  317.68  188.97
  -9  -1   923932.12  603.37
   1  -7  10  -26.11  139.52
   3  -9   8 9719.69 1055.33
  -9  -1   924093.77  691.04
   3  -9   8 8747.80  550.80
  -3   9  -8 9345.07 1096.47
  -1   7 -10   33.74  204.78
  -1   6   8 1952.53  197.03
   3   5   519155.11  836.80
   7 -10  -621871.63  994.87
   1  -6  -8 1664.09  306.48
  -1   6   8 2036.84  104.77
   1  -6  -8 1672.96  256.73
  -7  10   622939.23  900.00
  -7  10   622708.59  727.01
  -3  -5  -518979.32  811.08
   7 -10  -622061.35  431.11
   7 -10  -623217.61  858.59
  -1   6   8 1878.25  300.12
   3   5   519005.83  852.07
  -3  -5  -518920.41  890.95
   7 -10  -622141.00  412.48
  -3  -4  -6  166.31  181.54
   3   4   6  190.02  199.05
  -3  -4  -6   80.52  179.04
   3   4   6  184.33  181.33
   3   0 -1211750.46  376.00
  -3   1  -929889.43 1014.34
   3   0 -1211769.30  438.57
  -3   0  1213299.39  665.60
  -3   0  1212949.42  494.84
  -3   1  -929268.59  726.42
   3  -1   927674.50  671.99
  -3   1  -927979.16  663.57
  -3   1  -928552.25  687.73
   3  -1   929545.12  714.39
   3  -1   928173.03 1062.90
  -3   0  1212916.11  589.35
  -4  -7   9  184.07  106.88
   7 -10   4 1534.59  353.86
  -9  -2   7 2914.55  222.29
  11  -7  -4 4982.72  370.39
  -7  10  -4 1159.87  480.10
  -4  -7   9   12.99   96.00
  -7  10  -4 1452.54  244.60
  -9  -2   7 2792.09  123.49
   7 -10   4 1391.41  319.98
  -4  -7   9  122.78  110.10
  11  -7  -4 4955.07  424.62
  -7  10  -4 1576.88  109.65
  -9  -2   7 2693.11  166.67
 -11   7   4 4718.73  480.76
   4   7  -9   -2.85   64.32
  -9  -2   7 3412.66  285.25
 -11   7   4 5106.37  356.81
  -7  10  -4 1467.05  126.78
  -7  -2  -2  545.96  235.98
   7   2   2  463.17  307.09
  -7  -2  -2   78.22  318.48
  -7  -2  -2  430.47  232.40
   7   1   336017.09 1075.57
  -7  -1  -341181.03 1351.51
  -7  -1  -339985.62 1290.65
  -7  -1  -339597.72 1186.88
   0  10   113134.18  576.95
   0 -10  -112987.96  609.82
   0  10   112366.86  572.24
   0 -10  -113127.53  609.52
   0 -10  -113373.23  573.11
  -6  10   615220.37  717.72
   6   6  -3 8659.88  379.99
  -3  -3  12    7.26  141.24
  -6  -6   3 9469.53  424.70
   6 -10  -614940.92  504.34
   6 -10  -615263.47  706.42
  -6  10   615562.90  523.31
  -3  -3  12   31.69  130.05
   6 -10  -615128.13  472.49
  -6  -6   310387.39  432.38
   3   3 -12  309.63  149.68
   6 -10  -615449.83  515.05
  -6  -6   3 9637.74  500.53
  -5   6  10  272.87  109.63
  -5   6  10  -19.36  129.80
   5  -6 -10  492.14  182.07
  -5   6  10  -12.13  134.64
   5  -6 -10  390.59   95.48
  10  -5  -9  300.42  168.39
  10  -5  -9  306.72  179.70
 -10   5   9  274.48  315.60
 -10   5   9  289.35  163.18
 -10   5   9  319.16  314.34
   7 -11  -4   43.39  270.82
   7 -11  -4  439.99  134.23
  -7  11   4 1046.01  212.45
   7 -11  -4  954.62  314.52
  -7  11   4 1282.05  260.56
  -3   5  10 4868.11  284.79
  -3   5  10 5205.22  507.40
   3  -5 -10 5166.26  296.64
   3  -5 -10 5074.80  367.46
  -3   5  10 5107.32  341.42
  -3   5  10 4772.26  249.58
  -7  -5   4 4361.68  355.22
 -10   2   1   47.51   62.41
  10  -2  -1    5.03   40.38
  -7  -5   4 4280.46  263.41
 -10   2   1   22.04  161.12
  -7  -5   4 4674.96  261.05
 -10   2   1   15.52  148.08
   9  -5 -10    7.64   96.05
  -9   5  10   19.56  106.90
  -9   5  10  104.70  137.22
  -9   5  10    6.00  139.88
  -7   2  -5   -5.59  118.22
  -7   2  -5  124.54  119.51
  -7   2  -5  282.59  110.30
  -7   2  -5   -0.99   51.29
   7  -2   5  172.70  105.16
   7  -2   5  -20.22   42.37
  -8  -2  10 8573.86  315.39
   5 -10   617079.55 1321.22
  -2   6 -10 7196.98  841.62
  -5  10  -616234.69  717.31
  -8  -2  10 8484.69  398.78
   2  -6  10 6117.55  479.19
   2  -6  10 6019.39  478.77
  -2   6 -10 6961.27  967.23
  -8  -2  10 9206.08  598.04
   5 -10   615947.70  659.61
  -5  10  -616999.45  772.94
  -8  -2  10 7656.54  277.51
  11  -7  -5  630.40  224.38
 -11   7   5  770.08  268.09
  11  -7  -5  589.67  200.73
 -11   7   5  769.77  361.64
  -8  -3   216397.50  508.72
  -8  -3   215927.92 1245.91
   8   3  -214254.58  419.37
   5   5   2  622.77  221.88
   5   5   2  802.87  270.16
  -5  -5  -2  594.48  276.71
  -5  -5  -2  660.67  222.00
  -4  -3  12 8893.97  955.36
   4   3 -12 7757.29  342.96
  -4  -3  12 8561.52  896.36
  -8   6  10 2277.87  335.44
  -8   6  10 2272.92  309.51
   8  -6 -10 1864.66  278.12
  -6  -1  12 5623.83  762.80
 -10   0   7 1181.81  112.40
 -10   0   7 1089.46  193.66
 -10   0   7 1079.91  243.16
   6   1 -12 5980.73  193.74
  -6  -1  12 6006.07  226.57
  -6  -1  12 6448.22  828.67
  -9  -2   411699.53  629.21
   9   2  -411029.66  267.97
  -9  -2   412482.83  337.35
  -9  -2   411928.08  305.60
  -9  -2   412082.80  595.58
  -5  -1  -6 1251.09  250.37
  -5  -1  -6 1436.86  256.36
   5   1   6   -3.46  288.10
   5   1   6 1398.35  231.71
  -5  -1  -6 1484.25  290.76
  -7  -5   7  405.88   80.97
  -7  -5   7  320.55  178.18
  -7  -5   7  259.45   97.70
  -7  -5   7  290.20  100.46
   0 -10   7 6291.83  389.03
   0  10  -7 5938.24  341.31
   0 -10   7 6256.21  436.25
   0 -10   7 5889.69  454.25
   9 -10  -5 3394.57  340.31
  -9  10   5 3953.18  412.35
   6  -9   6 2515.12  368.53
   9 -10  -5 2977.67  343.51
  -9  10   5 4110.14  377.28
  -6   9  -6 3258.69  360.05
  -6   9  -6 2653.36  342.19
   6  -9   6 2228.88  304.40
  -4   4  11   15.46   79.88
  -5   5  -8   -7.83   39.96
  -5   5  -8 -192.33  154.05
  -4   4  11  171.53  179.05
  -4   4  11  158.38  121.38
   4  -4 -11   29.57  190.50
  -5   5  -8   46.78   41.02
  -5   5  -8  -47.29  118.08
   5  -5   8   -4.42  128.51
   5  -5   8  262.50  153.99
   4  -4 -11  125.39   80.41
  -4   4  11   -0.25   93.80
   5 -12   1  449.33  151.93
  -5  12  -1  307.93  288.59
   6  -5   7 3731.87  316.89
  -6   5  -7 3624.91  174.22
  -6   5  -7 3556.03  185.05
  -5  12  -1  670.55  221.58
   5 -12   1    6.71  142.40
  -6   5  -7 3910.59  361.57
   5 -12   1  545.39   94.33
  -6   5  -7 3615.26  258.44
   5 -12   1  662.05  248.70
   6  -5   7    3.44  426.16
  -2  -9   0 4811.07  383.09
  11  -3  -5 2142.37  305.15
 -11   3   5 3035.01  376.60
   2   9   0 4187.16  355.13
  -2  -9   0 4586.02  413.23
  11  -7  -3 4421.52  356.43
 -11   7   3 5361.66  351.04
   2   9   0 3649.52  345.91
 -11   3   5 3054.65  371.66
 -11   7   3 4685.59  441.80
  -2  -9   0 4872.70  707.13
 -11   3   5 2984.75  189.00
 -11   7   3 4858.65  486.63
  11  -7  -3 4791.60  403.18
  -9   0  10 2967.17  169.03
  -9   0  10 2954.51  231.84
  -9   0  10 2745.77  445.86
  -9   8   8 1393.13  282.41
   1  10  -6 5431.14  247.12
  -9   8   8 1304.49  281.15
   9  -8  -8 1320.89  274.29
  -1 -10   6 5527.16  431.04
  -1 -10   6 5456.28  419.74
  -1 -10   6 5680.63  430.24
   9  -8  -8 1116.04  252.97
  -1 -10   121279.10  807.45
  -3  -9   426682.72 1334.07
   2   2 -1217785.64  659.79
  -2  -2  1217306.07  733.79
  -1 -10   122368.17  648.64
  -3  -9   427663.65  605.31
  -2  -6  11   30.86  152.41
   3   9  -424458.19  598.86
  -2  -2  1217622.99  808.75
  -3  -9   426268.40  877.36
   2   6 -11   19.09  125.43
  -1 -10   120526.86 1271.00
   2   6 -11   75.21  141.77
  -2  -2  1217791.09  620.10
   1  10  -119063.15  946.76
  -2  -6  11   85.41  123.03
   6  -6   712800.48  882.15
  -6   6  -712807.59  660.19
  -6   6  -712558.97  318.20
  -6   6  -713410.68  502.42
  -6   6  -712358.15  293.89
   6  -6   712600.33  943.17
  -8  11  -1 1898.41  206.80
   8 -11   1 1327.57  264.55
  -8  11  -1 1791.29  307.92
   8 -11   1 1705.33  319.63
 -11   3   6 4406.57  250.75
  11  -3  -6 3960.30  251.89
 -11   3   6 4091.23  726.84
   8 -11   1 1594.33  148.30
 -11   3   6 4814.75  433.02
   8 -11   1 1697.42  254.89
  -5  12   0  135.42  190.97
  11  -5  -7 1108.91  221.19
 -11   5   7 1445.17  404.07
   5 -12   0  201.67   99.43
   5 -12   0    4.77   97.64
   5 -12   0  -37.99  173.63
 -11   5   7 1369.09  282.25
  -5  12   0   94.65  106.41
  11  -5  -7 1100.03  448.48
   5 -12   0    8.10  140.18
 -11   4   7 3898.19  391.22
 -11   4   7 3401.26  367.72
  11  -4  -7 3155.43  279.88
  11  -4  -7 2927.97  353.76
 -11   4   7 3549.03  278.63
 -10   1   227173.00 1038.41
 -10   0   4   -8.53  190.27
 -10   1   225767.85 1054.94
 -10   0   4  451.92  191.92
  10  -1  -226082.00  507.42
 -10   1   228080.37  620.49
  -1  -6  11  -29.09  162.44
  10  -8  -7 1770.91  520.37
  -1  -6  11  484.62  188.59
 -10   7   8 4438.82  402.99
   3   9  -5    3.54   41.86
   4  -8  -8   80.77  189.42
 -10   8   7 1525.76  296.84
  -4   8   8  609.73  107.83
  10  -7  -8 4555.91  408.51
  10  -8  -7 1448.05  282.49
 -10   7   8 4315.29  708.12
  -4   8   8  441.83  118.04
  -4   8   8  633.71  228.18
  10  -7  -8 4134.49  388.74
 -10   8   7 1386.18  288.33
  -3  -9   5  626.31  201.20
  -3  -9   5  597.55  356.77
  -4   8   8  515.94  121.90
   1   6 -11   -1.22  194.58
   4  -8  -8  449.70  201.36
   1   6 -11  523.23  201.55
   8  -3   4   90.51   92.55
  -8   3  -4    6.66   44.85
  -9   9  -2  180.14  101.92
  -9   9  -2   50.95   90.45
   9  -9   2 -145.82  143.61
  -8   3  -4  157.30   93.77
   8  -3   4  -40.78  108.34
  -9   9  -2  -26.22  134.24
   9  -9   2  102.32   74.18
  -8   3  -4 -166.95   87.39
  -9   9  -2   32.19   83.53
  -8   3  -4  -16.59   81.73
 -11   4   3 6079.46  258.03
  -8   4  11 1225.38  182.40
   8  -4 -11   -9.77   86.51
  -8   4  11 1214.84  293.15
 -11   4   3 4116.27  917.42
  11  -4  -3 5861.12  265.39
  -8   4  11 1214.74  271.13
 -11   4   3 6439.12  481.41
   7  -9   519573.64  860.04
  -1  11  -5 3251.56  230.68
   1 -11   5 3359.59  369.67
  -7   9  -519216.43  420.69
  -7   9  -518955.16  536.33
  -7   9  -519112.23  749.68
   1 -11   5 3618.74  265.00
   7  -9   519066.96  673.19
  -7   9  -519579.30  733.69
   6 -11   410615.78  446.52
  -6  11  -411799.28  605.05
   5 -11  -417965.54  696.45
   9  -6   310839.31  377.32
  -9   6  -311528.50  677.26
   5 -11  -417443.60  482.91
   5 -11  -416904.01  473.68
   9  -6   310729.96  424.50
  -6  11  -411609.85  557.09
  -9   6  -311621.73  738.59
  -5  11   417733.63  757.16
  -9   6  -312440.66  814.70
   5 -11  -417786.75  455.88
  -5  11   417421.93  755.86
   6 -11   410613.11  655.40
  -9   6  -311813.71  676.59
   6 -11   411360.89  493.42
   0  -8  -5   66.12  128.02
   0  -8  -5  -11.69  164.38
   1   9   2 5633.51  427.63
   1   9   2 6495.90  772.27
   0   8   5   30.25  178.42
  -1  -9  -2 7094.82  455.22
   0   8   5  218.79  157.31
  -1  -9  -2 5986.30  503.05
  -5   2  12 2226.72  315.17
  -5   2  12 2463.80  361.58
  -5   6  -818343.79  812.45
   5  -6   817141.87  692.79
  -5   2  12 2681.56  274.62
  -5   2  12 2276.47  263.07
  -5   6  -817343.01  646.45
   5  -6   816701.30  727.55
   5  -2 -12 2185.43  154.71
   5  -2 -12 2080.04  150.74
   4 -12   113712.56  441.86
  -4  12  -112399.60  420.33
   4 -12   113589.65  530.24
  -4  12  -112938.60  699.93
   4 -12   113519.29  540.21
   4 -12   114226.73  369.99
  -8  -3   9 2970.05  132.53
  -6  -5   0 1859.51  382.54
  -8  -3   9 3056.23  177.56
  -8  -3   9 3230.84  233.85
  -6  -5   0 2387.20  283.08
   6   5   0 1932.68  330.94
  -8  -3   9 2596.00  181.69
   6   5   0 1795.81  249.73
  10  -3   0 4941.17  309.09
  -4   7   9  691.28  126.66
  -4   7   9  687.92  126.12
   4  -7  -9  772.23  228.13
   4  -7  -9  548.11  136.09
 -10   3   0 5137.61  502.91
  -1   8   6 5967.29  502.10
  -3  -7  10  280.74  130.82
  10  -3   0 5646.48  313.95
  -1   8   6 6406.57  698.78
   1  -8  -6 6331.40  416.43
 -10   3   0 5544.49  221.21
   3   7 -10    4.31   93.80
 -10   3   0 5484.41  459.29
   1  -8  -6 6926.31  549.35
  -4   7   9  692.66  224.78
  -3  -7  10   10.10  141.73
  -3  -7  10  125.26  144.45
 -10   6  -1  -12.43  414.40
  -6   2  12 1553.47  326.79
   6  -2 -12 1263.14  136.62
  -6   2  12 1580.73  133.10
  10  -6   1 1117.95  110.07
 -10   6  -1 1364.24  271.99
 -10   6  -1 1327.94  172.90
  -6   2  12 1396.31  288.65
  10  -6   1   30.94  307.27
   8 -10  -6  251.27  151.22
  -8  10   6  210.72  159.65
   8 -10  -6  257.52  181.00
  -8  10   6  244.84  335.61
   2   7   4  530.38  225.28
   5  -4   8  261.04  226.53
   2   7   4  395.27  422.31
  -2  -7  -4    8.41  201.56
  -5   4  -8  -18.86  132.65
  -5   4  -8  349.50   77.87
  -2  -7  -4  453.87  301.45
   5  -4   8  -15.63   87.87
  -5   4  -8  305.33  325.47
   2   3 -12  -18.48  225.37
  -2  -3  12 2349.10  342.44
  -2  -3  12 2143.08  355.47
   2   3 -12 1191.87  323.20
   6 -12   0 7413.91  315.34
   6 -12   0 7183.46  406.25
  -6  12   0 6529.48  342.30
   6 -12   0 7482.65  316.95
   6 -12   0 7406.56  473.21
  -6  12   0 7356.23  409.90
   8   2   0 8741.43  372.76
  -8  -2   010012.18  419.13
  -8  -2   0 9615.33  634.98
  -8  -2   0 8828.99  605.79
   4 -12   216020.11  529.97
   4 -12   215747.60  480.52
   4 -12   214902.01  579.77
   4 -12   215597.70  591.12
  -4  12  -214435.62  399.57
  -4  12  -215325.69  515.68
   2   1 -12 6797.14  621.10
  -4  -8   714570.22  327.14
   9  -7  -9 9630.98  544.36
  -2  -1  12 6668.49  821.32
   9  -7  -9 9992.20  914.10
  -4  -8   714680.33  553.21
  -2  -1  12 6599.48  386.09
  -9   7   9 9766.34  563.48
  -4  -8   714595.54  557.02
  -4  -8   714917.33  398.90
  -9   7   9 9387.96  530.96
  -2  -1  12 6493.53  443.16
  -9   7   910086.50  541.30
  -3  -6  -4    1.29  281.76
   3   6   4  122.14  161.14
   9 -10   1  955.71  150.04
   3   6   4  -16.24  143.15
  -9   0   0 7093.99  546.50
   9   0   0 7073.87  287.65
  -9  10  -1  759.68  169.65
  -9  10  -1  952.35  221.37
  -9   0   0 8018.76  563.01
   9 -10   1  288.89  194.33
  -9  10  -1   -1.62  184.89
   9 -10   1  962.03  261.29
  -9   0   0 7697.32  556.54
  -3  -6  -4  139.35  194.25
   5 -12   2 2293.01  128.69
  -5  12  -2 2229.96  271.35
   5 -12   2 2099.60  234.53
   5 -12   2 2375.41  273.08
   5 -12   2 2242.34  255.01
  -5  12  -2 2151.82  432.11
   6  -1   6  -90.55  291.51
  -8   1  -3 8726.20  432.16
  -2  -3  -8   79.37  131.96
  -6   1  -6 3157.55  350.84
   2   3   8    0.68  103.77
  -2  -3  -8  -34.91  111.15
  -8   1  -3 8999.22  554.49
  -6   1  -6 3060.49  289.83
  -6   1  -6 2927.40  292.04
  -8   1  -3 9470.95  534.60
   2   3   8   17.61  132.21
   8  -1   3 8475.71  450.37
 -11   3   4 1858.16  150.00
 -11   3   4 2005.12  368.76
  11  -3  -4 1792.19  261.68
 -11   3   4 2079.28  347.69
  -9   1  -1   71.65  187.89
  -9   1  -1  213.03  109.03
  -9   1  -1  -13.74  315.68
   9  -1   1  113.25   92.81
   0  -4  -9   -9.36  224.94
  -3  -3  -7 9180.06  611.70
   3   3   7 9592.82  539.79
   0   4   9 1902.35  138.00
   3   3   7 8662.32 1098.15
  -3  -3  -7 9606.73  551.34
  -7  -3  -116794.30  858.82
   0   4   9 1934.55  115.92
   0  -4  -9 1867.42  249.54
   0   4   9 1765.43  558.49
  -7  -3  -116407.54  805.37
   7   3   115623.41  892.83
  -7  -3  -116894.75  624.19
   5  -9   7 3200.61  729.47
  -5   9  -7 2992.41  633.85
   5  -9   7 3393.55  358.06
  -5   9  -7 3719.77  420.87
   9  -7   3   27.62  180.35
  -1   5   9 5325.04  644.38
   1  -5  -9 5236.08  401.80
  -1   5   9 4863.99  207.24
   9  -7   3  -36.31   75.57
  -9   7  -3   -6.10  182.80
  -9   7  -3    1.74  188.44
  -9   7  -3  126.57  116.51
  -1   5   9 4939.17  176.19
  -9   7  -3  195.33  113.13
  -1   5   9 5444.01  388.56
   1  -5  -9 5035.36  649.02
  -6   4  -7 7605.26  277.09
  -6   4  -7 7782.45  291.74
   6  -4   7 7766.43  340.51
  -9   9   722023.21  836.62
   6  -4   7 7525.59  494.65
  -3  -9   321922.77  799.05
  -9   9   721337.44  890.32
   9  -9  -721517.57  852.67
  -6   4  -7 7815.83  473.89
  -6   4  -7 7625.00  524.88
  -7   0  -4  443.26  183.61
   3   9  -319067.63  847.58
  -7   0  -4  249.00  350.90
  -3  -9   322862.29  606.59
  -3  -9   322038.28  802.75
  -7   0  -4  348.33  202.80
   9  -9  -720497.02  787.31
   7   0   4  -48.57  141.87
 -11   6   2  729.87  289.47
 -11   6   2  858.21  166.01
  11  -6  -2  465.49  154.42
 -11   6   2  565.02  251.11
  10  -7   1 5460.89  200.79
  10  -7   1 5293.31  360.23
 -10   7  -1 6546.53  441.05
   6 -12   1 3007.29  235.94
   6 -12   1 2827.23  307.00
   6 -12   1 2782.54  166.71
 -10   7  -1 6492.45  584.07
 -10   7  -1 6267.64  243.97
 -10   7  -1 5771.40  624.83
  -6  12  -1 2629.71  290.62
   6 -12   1 2426.66  374.93
  -6  12  -1 2337.98  347.35
   7 -11   3  -59.07  108.10
  -9   5  -3    0.13  194.28
   7 -11   3  130.99   58.34
   9  -5   3   13.74  143.64
  -7  11  -3   60.23  136.44
  -9   5  -3   28.42   79.59
  -7  11  -3   72.16  312.84
   7 -11   3  101.78  309.03
   9  -5   3  -37.48   75.45
  -9   5  -3  -43.37   90.63
  -7  11  -3  279.54   87.04
   7 -11   3  110.80  178.98
  -9   5  -3  308.62  123.85
   5   7  -2  -27.75  108.78
  -5  -7   2   -7.69  113.60
  -5  -7   2 -180.60  190.31
  -5  -7   2   26.47  107.57
   5   7  -2   -4.06  178.26
 -11   7   6  331.29  196.73
  11  -7  -6  177.13  157.19
 -11   7   6   98.71  166.70
  11  -7  -6  155.16  178.19
  -5  10   6  168.31  194.21
   5 -10  -6  263.53  140.74
   5 -10  -6  107.96  308.49
  -5  10   6 -173.53   85.47
   5 -10  -6   14.04   82.22
   5 -10  -6  212.60   84.25
  -7   6  -6  261.51   87.64
  -7   6  -6  -68.35  290.48
  -7   6  -6   83.42  215.25
  -7   6  -6  160.23   78.74
   7  -6   6   62.13  172.25
   7  -6   6   -4.83   94.74
   8 -10   320624.03  610.73
  -8  10  -321174.22  562.12
   5 -11   5  936.28  285.32
   8 -10   319777.21  469.70
 -10   5  -1 4201.68  313.71
   8 -10   319639.00  858.10
  -9  -2   8 4216.72  353.74
  -8  10  -321172.07  507.65
 -10   5  -1 3527.88  407.79
  -9  -2   8 4285.77  273.94
   5 -11   5  807.89  229.09
  -9  -2   8 3714.57  204.94
  10  -5   1 3570.57  231.34
  -5  11  -5 1034.71  264.94
  10  -5   1 3361.78  178.67
   5 -11   5  798.49  206.34
  -8  10  -321749.55  991.12
  -8  10  -320572.85  821.18
  -5  11  -5  985.65  247.60
 -10   5  -1 3619.46  360.83
  -9  -2   8 3515.40  287.46
 -10   5  -1 3772.73  365.75
   1 -11   023615.00  843.15
   1 -11   024242.89  685.70
  -1  11   020908.89 1013.38
   1 -11   023747.06  845.11
  -6  -6   8  -58.32   66.79
   4 -12   0 3143.03  325.15
   4 -12   0 2498.34  194.12
  -6  -6   8   26.45   41.68
  -6  -6   8  -50.00   57.76
  -4  12   0 2496.00  242.63
   4 -12   0 2375.17  258.00
  -6  -6   8    3.62   69.00
   4   8  -2 5232.28  367.37
  11  -6  -712948.28  656.46
   4   8  -2 4634.85  342.45
  -4  -8   2 5413.98  370.11
  11  -6  -712647.47  580.44
 -11   6   713933.27  610.93
  -4  -8   2 5372.53  400.87
 -11   6   713605.01  688.86
  -4  -8   2 4858.87  401.89
   6 -12  -1 7330.39  329.06
   6 -12  -1 7642.96  304.93
   6 -12  -1 8064.09  383.35
  -6  12   1 7393.05  401.64
  -6  12   1 7588.84  396.94
   6 -12  -1 7893.63  306.74
   8 -11  -4 1641.33  218.32
  -8  11   4 1572.86  299.11
  -8  11   4 1494.37  457.21
   8 -11  -4   14.36  225.91
  -6  -2  -4 6805.62  829.27
   6   3   311296.50  685.70
  -4   5  -9 7369.43  897.51
  -6  -3  -312138.98  609.22
  -6  -3  -311984.15  736.50
   6   2   4 5409.94  490.44
  -6  -2  -4 6256.85  476.71
   6   2   4 5775.80  451.88
   4  -5   9 7364.53  458.60
  -6  -3  -311654.93  677.37
  -6  -2  -4 6078.13  523.11
   4  -5   9 7773.50  848.17
  -4   5  -9 6942.11  399.42
   6   3   312294.09  968.55
 -10   1   9 8810.70  370.44
 -10   1   9 8756.77  355.92
 -10   1   9 8455.99  435.44
  -2   7   8  206.32  158.89
 -11   5   2 3478.52  395.95
 -11   5   2 3311.24  435.06
  -7   5  -6 6696.45  290.95
   2  -7  -8   28.38  111.97
   7  -5   6 6770.06  428.04
  -2   7   8    1.04  124.30
   2  -7  -8  209.45  272.66
  -7   5  -6 6694.64  426.73
  -7   5  -6 6322.48  265.48
  -7   5  -6 7189.93  330.68
  -2   7   8  119.94   92.16
  -2   7   8  108.42   63.64
  11  -5  -2 3489.49  245.32
 -11   5   2 3679.11  240.63
   7  -5   6 6531.33  554.89
 -11   3   7 -215.88  171.87
  11  -3  -7  199.35  143.90
 -11   3   7    3.70  160.67
   2 -10  -412195.85  860.56
 -11   3   7 -205.35  108.36
  11  -3  -7    7.07  100.45
   6  -7   7  656.82  224.63
  -6   7  -7  662.26  202.47
   6  -7   7  638.51  209.65
  -6   7  -7  571.43  426.66
  -2  10   412020.29 1050.03
  -2  10   411993.56  815.98
   2 -10  -413475.01  680.12
  -7   1  12 1506.86  351.22
  -8  -4   6 2749.50  228.52
  -8  -4   6 2968.61  166.88
  -7   1  12 1830.71  322.24
  -8  -4   6 3216.46  265.91
   7  -1 -12 1708.19  142.31
  -7   1  12 1870.94  120.31
  -8  -4   6 3406.75  177.86
   5 -12  -1  259.75  100.57
   5 -12  -1    7.23  102.88
   5 -12  -1  120.38  165.58
  -5  12   1  242.07  208.71
  -5  12   1  206.72  140.66
   5 -12  -1   45.09   98.38
  -3  -9   610641.93  524.85
  -3  -9   611026.28  533.61
  -3  -6  11 9064.62  545.58
  -3  -6  11 8864.44  442.81
  -3  -6  11 8655.17  528.44
   3   6 -11 9277.65  540.68
   3   6 -11 9353.93  463.06
   3  -1 -12 3925.18  273.77
   3  -1 -12 4839.58  186.51
   1   1  10  718.46  262.32
   1   1  10 1168.64  134.20
  -4  -4  -5 5196.54  488.78
  -3   1  12 4663.97  363.79
   4   4   5 5180.03  831.12
   4   4   5 5250.20  493.15
   0   0  11   -7.70  184.14
  -3   1  12 5356.07  313.95
   1   1  10  886.33  281.98
   0   0  11   37.72   90.56
  -1  -1 -10   11.18  131.21
   0   0 -11 1333.90  124.12
  -3   1  12 5016.38  418.90
  -1  -1 -10   22.44  117.53
  -3   1  12 4771.08  190.30
  -4  -4  -5 5910.49  528.91
  -4   9   721764.44  909.61
   4  -9  -720558.49  849.01
  -4   9   721267.30  752.67
   4  -9  -720365.21  882.30
  -4   9   721223.54  486.45
  -4   9   721234.02  566.57
   2  -1  10  -58.75  246.53
   2  -1  10   67.69   63.38
  -2   1 -10  -10.91  274.40
   2  -1  10   22.06   90.43
   2  -1  10  -18.27   82.94
  -2   1 -10  250.56  126.70
  -2   1 -10    9.52  112.29
   7   5  -3 8340.43  555.01
   6  -5 -11  -34.03  183.97
  -4   4  -9 2440.97  246.12
  -4   4  -9 1947.64  325.51
  -8  -1  11 4272.74  343.99
  -6   5  11 2658.73  305.21
  -6   5  11 2549.68  337.66
  -7  -5   3 8847.38  895.31
  -7  -5   3 9436.58  392.99
  -4   4  -9 2146.00  183.06
  -4   4  -9 1930.02  112.23
   4  -4   9 2129.99  261.03
  -8  -1  11 4022.78  352.65
  -7  -5   3 8770.05  640.67
  -8  -1  11 3983.99  143.03
   4  -4   9 2340.15  335.18
  -8  -4   525195.84  837.22
   5   3 -1215135.22  434.35
  -8  -4   525824.89  602.04
  -8  -4   527246.34  628.21
  -5  -3  1216401.65 1187.49
  -5  -3  1215091.22  706.70
  11  -7  -2 2549.66  329.24
  11  -7  -2 2657.06  287.68
 -11   7   2 3089.08  415.83
 -11   7   2 2882.16  356.61
 -11   7   2 3030.57  290.06
 -10   0   8  926.68  152.50
 -10   0   8  117.07  195.32
   1   8   410650.18  635.71
  -1  -8  -411770.90  720.08
  -1  -8  -411127.63  602.51
   1   8   411038.67 1002.75
  -3  -4  12 4792.70  332.38
  -3  -4  12 4482.35  455.89
   3   4 -12 4677.80  337.73
 -10   9   0  126.02  125.36
   3   4 -12 5045.52  457.46
  -3  -4  12 5090.61  459.13
 -10   9   0    1.11  222.58
  10  -9   0  139.38  303.22
 -10   9   0  -10.87  109.35
  10  -9   0  151.38  126.75
  -7   5  11 1787.05  280.04
  -1   4 -11  398.88  278.26
 -11   8   414163.81  747.86
  11  -8  -414037.99  659.41
  -7   5  11 1522.33  316.94
   7  -5 -11  -13.13   93.50
 -11   8   414712.89  636.54
   1  -4  11  751.05  216.57
   1  -4  11  291.08  207.98
  -1   4 -11  -26.81  153.06
  11  -8  -414398.11  654.69
  -2  11  -6   66.65  206.15
 -10   9   6 8366.73  591.77
   1  -3  11  709.27  206.06
  10  -9  -6 9379.45  925.64
  -1   3 -11   33.23  192.53
  10  -9  -6 9112.51  546.21
   1  -3  11  707.85  229.09
   2 -11   6 1464.80  293.39
   2 -11   6 1473.40  268.76
 -10   9   6 9227.44  544.32
  -1   3 -11  714.00  200.87
  -5  -7   8 -134.67   58.56
  -5  -7   8  243.89   73.82
  -5  -7   8   -5.59   43.44
  -5  -7   8    9.76   75.78
  -6  -2  12 6582.42  486.67
 -10   6   9 9534.33  562.72
   3 -11   6   38.38  156.62
   3 -11   6   -9.68  280.19
   3 -11   6  160.45  144.66
  -7   0  12 8735.10  553.05
  10  -6  -910118.99  551.44
  -3  11  -6   85.17  243.14
 -10   6   910522.53  567.53
  -7   0  12 8968.68  586.18
 -10   6   9 9967.49  521.51
   6   2 -12 7268.10  225.29
  10  -6  -9 9152.89  557.51
  -6  -2  12 6610.05  269.93
  -6  -2  12 7118.97  498.21
  -2  -9   814435.57  611.82
   2   9  -814917.69  496.44
  -2  -9   814609.69  550.34
  -4   2  12  244.56  101.81
   4  -2 -12  -12.89   75.05
  -4   2  12  -50.10  304.72
  -4   2  12  -20.64  137.87
   4  -2 -12   85.96   66.73
  -4   2  12  246.15  149.47
   0  -6  1112549.86  647.40
  -4  10  -7  622.83  231.39
   0   6 -1112626.13 1113.10
   0  -6  1112141.87  711.42
   4 -10   7  207.51  174.41
  -4  10  -7  503.72  265.97
   0   6 -1111398.38 1162.97
   4 -10   7  228.51  378.12
   1 -10  -3 1359.99  254.78
   1 -10  -3 1690.41  269.43
   4 -12   3 1289.72  216.61
  -4  12  -3 1301.46  218.41
  -1  10   3 1155.03  239.32
   4 -12   3  874.12  386.23
   4 -12   3 1141.63  238.40
   1 -10  -3 1488.60  295.51
  -1  10   3 1465.43  283.61
   2  -8  -7 1106.90  207.51
   2  -8  -7 1089.22  528.11
  -2   8   7 1207.53  288.97
  -2   8   7 1256.58  222.30
  -7  -5   8 8870.31  287.06
  -7  -5   8 8757.31  343.71
  -7  -5   8 8833.67  294.27
  -7  -5   8 8277.08  440.91
  -9  -2   3   21.75  126.35
  -9  -2   3    4.59   60.09
  -6  -5  1019481.62  556.35
   9   2  -3  381.65   85.00
  -6  -5  1018545.84  709.85
  -6  -5  1016728.24  610.86
  -3   8  -9  116.81  256.62
  -3   8  -9 -140.25  182.37
   3  -8   9 -119.57  138.89
   3  -8   9  266.10  221.28
  -7   7  -627176.03  930.83
  -7   7  -625353.08  797.17
  -7   7  -625403.51  721.64
   7  -7   625109.10  862.88
  -7   7  -625080.20  553.47
   7  -7   624812.83  815.22
  -6  -4  11 2575.53  178.10
  -6  -4  11 3044.80  294.80
  -5   7  -8 1935.81  281.19
  -6  -4  11  740.98  477.43
   5  -7   8 1889.58  321.33
   5  -7   8 2248.73  574.83
  -5   7  -8 2021.93  356.33
 -11   8   3  406.17  474.49
  -3  12  -2 1993.20  161.37
   1   3   916066.44  595.34
   1   3   915156.56  363.40
   3 -12   2 2748.84  289.82
   7  -2 -1211462.48  363.78
   3 -12   2 2397.20  133.30
  -3  12  -2 2552.39  333.78
  -1  -3  -915458.46  701.86
   1   3   914591.81  334.39
  -7   2  1212936.80  352.49
  11  -8  -3  896.32  240.75
   3 -12   2 2250.83  322.84
 -11   8   3  773.77  217.32
  11  -8  -3  791.67  236.68
  -1  -3  -914741.09  603.41
   3 -12   2 2075.94  297.68
   1   3   916262.06 1226.01
  -7   2  1213275.64 1237.95
  -7   2  1212694.11  682.78
  -8   9  -4  -20.64   82.13
   6   6  -2 8755.77  410.96
  -8   9  -4  -53.61   99.26
   8  -9   4   93.71   92.85
  -8   9  -4   94.33   47.98
  -6  -6   210480.12  763.29
  -8   9  -4  -95.34   52.96
  -6  -6   2 9410.89  466.15
   6   6  -2 8709.83  501.49
   8  -9   4 -133.23  137.41
  -6  -6   2 9626.55  565.55
  -4   6  -9 1951.40  294.73
  -3  10   5 7819.40  231.05
 -10  10   3 7989.07  526.27
  10 -10  -3 8126.91  451.52
  -4   6  -9 2322.45  379.12
  -3  10   5 8459.02  550.25
  -3  10   5 7116.64  358.65
  10 -10  -3 7177.51  538.25
   3 -11  -3 4076.10  363.23
  -3  11   3 3744.08  171.31
  -3  11   3 3759.64  386.55
   3 -11  -3 3862.82  304.26
 -10  10   3 6962.82  527.39
   3 -10  -5 8403.85  572.04
   4  -6   9 1956.41  314.38
   3 -11  -3 3875.58  514.12
   4  -6   9 2016.58  329.40
  -3  10   5 7748.49  298.00
   3 -10  -5 7581.82  631.34
   2   4 -12 1128.44  224.06
   9   1  -1  285.32  172.60
   0   9  -9   -1.74  294.47
   0  -9   9 2867.96  341.07
   0   9  -9 2707.90  411.49
  -2  -4  12  -44.60  148.65
  -9  -1   1  -74.61  161.74
  -9  -1   1  -69.99   90.40
  -8  -4   7  116.82   64.38
   0  -9   9 3056.16  382.25
  -8  -4   7  -51.09   76.46
   2   4 -12   42.54  271.30
  -2  -4  12  -40.84  159.66
  -8  -4   7   88.70  161.56
  -9  -1   1   42.58  156.25
  -8  -4   7  134.29   65.35
  -4  -5  -4 2066.22  330.35
  -9  11   2 1231.29  279.25
   4   5   4 1202.90  552.67
   9 -11  -2 1199.35  214.45
   9 -11  -2 1097.44  278.14
  -9  11   2 1089.43  249.24
  -4  -5  -4 2032.18  402.05
   4   5   4 1897.42  357.37
  -4  -3  -610655.67  642.67
   4   3   610038.55  673.90
  -4  -3  -610146.14  612.40
   4   3   610218.07  568.10
   1  -9   9  -15.80  172.77
  -5   3  -8  302.13  187.31
  -5   3  -8  340.58   94.83
  -2   6   9 7185.66  417.44
  -5   3  -8   49.11  112.33
  -1   9  -9  227.76  260.43
   5  -3   8  243.06  146.33
  -5   3  -8  283.22   90.74
   2  -6  -9 7488.76  489.85
  -2   6   9 6789.49  220.40
  -2   6   9 6961.89  412.30
  -1   9  -9   -0.06  177.19
  -2   6   9 7512.60  454.74
   1  -9   9  477.97  207.97
   2  -6  -9 6869.76  409.99
   5  -3   8  -12.37   86.58
   0 -11   3 3563.86  154.99
  -4   6  10 3013.19  363.11
   0 -11   3 3872.34  372.94
   4  -6 -10 2477.68  568.91
  -3  -8   9 7120.86  394.25
  -4   6  10 3024.68  265.85
   0  11  -3 3416.42  194.18
   0 -11   3 3237.96  377.65
  -4   6  10 2915.40  221.99
   3   8  -9 7354.57  579.78
   4  -6 -10 3180.73  215.72
  -3  -8   9 6405.13  380.47
   6 -12   2   37.54   48.69
  -6  12  -2   96.80  152.69
 -10  10   2  -59.09  307.24
  10 -10  -2  105.11  223.00
   6 -12   2    9.24   89.71
  10 -10  -2   86.15  293.53
 -10  10   2  243.63  178.99
   6 -12   2   55.61   79.88
   6 -12   2 -200.23  120.11
  -6  12  -2  218.07  151.07
 -10   0   3    6.82  133.91
  10   0  -3    1.63   56.56
 -10   0   3   23.96  136.22
 -11   8   5 8164.38  584.11
  11  -8  -5 7570.88  516.36
  11  -8  -5 7586.70  834.72
 -11   8   5 7920.63  504.94
   2   0 -1222453.11  693.04
  -2   0  1223021.72 1344.15
   2   0 -1221748.14  448.29
   9  -2   2  -31.39   91.31
  -9   2  -2   28.30  383.46
  -2   0  1222052.22 1195.07
  -9   2  -2  587.42  144.91
  -9   2  -2  509.14  231.23
  -2   0  1222372.12  742.29
   3 -12   119855.05  705.37
   3 -12   119527.69  475.30
  -3  12  -116894.34  521.94
   3 -12   118884.22  709.58
   3 -12   120064.34  689.06
  -3  12  -118319.52  512.76
  -4  -7  -1 7363.93  477.92
   4   7   1 5821.31  825.89
   4   7   1 7522.79  792.10
  -4  -7  -1 7490.22  571.24
  -5  -5  1115535.67  655.23
  -5  -5  1114804.18  472.77
  -5  -5  1116271.52  619.74
  -9   8  -3 2380.25  229.24
   9  -8   3 1530.83  280.67
  -9   8  -3 2446.83  270.67
  -9   8  -3 2123.40  223.20
   9  -8   3 1951.20  178.34
 -10   8  -1 3895.26  196.04
   7 -12   012542.65  589.08
 -10   8  -1 4282.01  342.53
  -7  12   012034.68  476.87
   7 -12   011964.53  368.02
  10  -8   1 4237.74  297.81
 -10   8  -1 4176.58  537.30
 -10   8  -1 4088.24  356.57
  -7  12   012970.40  585.00
  10  -8   1 4017.72  366.87
   7 -12   012064.11  368.44
   7 -12   012912.17  622.09
  -9  11   122035.82  877.02
  -5  12  -3 4787.89  369.80
   5 -12   3 4695.88  346.53
   9 -11  -120684.56  894.68
   5 -12   3 4795.40  326.69
   9 -11  -121620.25  642.01
   9 -11  -119912.00  573.02
  -9  11   120512.62  752.52
   5 -12   3 4968.81  398.31
   9 -11  -120194.41  408.61
   9  -2 -11 1096.31  173.99
   0 -11   4 3116.05  153.92
  -9   2  11 1262.02  281.00
   0 -11   4 3000.41  358.08
   2 -11  -2   50.37  123.24
   2 -11  -2  100.85  121.06
  -9   2  11 1485.09  156.17
   0 -11   4 2758.89  365.52
   0  11  -4 2732.82  262.00
   2 -11  -2  -13.89  118.83
  -2  11   2  133.80  150.42
  -5  -6  1010475.89  420.49
  -5  -6  10 9537.49  447.60
  -2   7 -1013962.16  815.54
  -2   7 -1013956.40  698.37
  -5  -6  1010441.14  606.03
   2  -7  1014330.69  734.40
   2  -7  1014238.01  788.85
   7 -12  -1  423.03  150.54
   7  -8  -9 6419.45  862.96
   7 -12  -1   75.17  265.52
  -7   8   9 6619.16  388.13
  -7   8   9 6395.90  481.58
   7 -12  -1  234.99   84.88
   7 -12  -1   21.80  114.46
  -7   8   9 6551.70  414.95
  -7  12   1   93.66  126.39
  -7  12   1  -19.65  200.20
   7  -8  -9 6245.35  386.04
  -7  -4  1015480.99  352.90
  -7  -4  1015165.83  725.22
  11  -3  -3 9836.76  297.15
  -7   4  -6  488.12  132.24
   7  -4   6  570.58  206.63
   7  -4   6  778.26  138.74
  -7   4  -6  -10.69  192.25
 -11   3   310077.78 1192.23
 -11   3   311004.31  308.82
  -7   4  -6  487.23  244.02
  -7  -4  1015075.21  382.56
  -7  -4  1014513.73  545.11
  -7   4  -6  740.45  117.29
 -11   3   311012.37  663.16
   4   4 -12 5847.37  529.43
   0  -8  1016598.84  729.38
   0  -8  1016148.90  779.69
   0   8 -1018403.71  864.87
  -4  -4  12 6187.79  349.71
  -4  -4  12 5640.16  483.54
  -4  -4  12 6718.75  506.31
   9  -4   320572.79  501.78
  -9   4  -322474.06 1182.32
 -11   4   8  406.25  195.67
  -9   4  -323797.79  853.29
  11  -4  -8  825.28  193.10
 -11   2   612294.18  362.43
 -11   4   8  466.29  167.14
  -9   4  -323946.26  680.41
  11  -2  -611306.67  374.12
   9  -4   320892.62  637.48
  -9   4  -323569.17  742.30
  11  -4  -8  410.02  224.80
 -11   2   611677.68 1027.34
 -11   2   612293.40  989.22
   3   8   1  296.62  270.31
  -3  -8  -1   23.98  192.60
   3   8   1   19.52  166.60
  -3  -8  -1  268.60  172.30
  -8  -4   417884.77  731.79
   3 -12   3 4854.21  374.69
   3 -12   3 3583.98  640.44
  -3  12  -3 3812.50  267.19
  -8  -4   417861.04  750.38
  -8  -4   419306.56  772.88
   3 -12   3 4637.62  280.33
  -3  -9   2 1533.11  289.55
   3   9  -2 1198.17  200.48
  -3  -9   2 1716.28  279.75
  -3  -9   2 1543.89  378.55
   1  -5  11  309.20  208.50
  -9   3  1121229.06  602.42
   1  -5  11  368.01  352.86
  -1   5 -11  -27.93  219.97
   9  -3 -1118131.86  867.96
  -1   5 -11   -6.04  136.07
  -9   3  1120598.19  847.71
  -9   3  1121259.28  853.82
  -4   0  -8  175.73  160.08
  -6  -4  -2 2068.91  344.20
  -6  -4  -2 2021.04  388.25
  -5   5  11 5771.47  224.01
  -6  -1  -5 1666.18  318.40
   6   1   5  -80.52  291.56
   4   0   8   20.71   51.67
 -11   2   5 7756.50  557.51
  11  -2  -5 7166.55  262.15
   4   0   8   81.27   53.85
  -2   3  11    4.90   92.90
  -5   5  11 6076.96  686.13
   5  -5 -11 5238.15  353.03
 -11   2   5 7773.05  249.18
  -2   3  11  -15.72  205.01
   4   0   8  -41.51  100.10
   6   1   5 1617.47  264.08
  -2   3  11   62.14  107.27
  -4   0  -8   24.66  105.06
   2  -3 -11  -57.60  102.27
  -5   5  11 6326.03  358.35
  -6  -1  -5 1465.54  293.67
  -2   3  11  124.66   88.87
  -6  -4  -2  830.10  498.18
 -11   2   5 6939.51  947.63
   4   0   8  -63.83  158.13
   5  -5 -11 5542.01  211.65
  -5   5  11 5588.54  359.58
   6   4   2 1363.91  336.49
  -4   0  -8  134.34  102.19
  -6  -1  -5 1745.76  306.31
   6   4   2 1568.81  260.25
  -4   0  -8   40.58   61.13
   2  -3 -11  -67.86   97.88
 -11   4   2  588.43  298.34
 -11   4   2  242.19  467.26
  11  -4  -2  847.05  126.39
 -11   4   2  825.25  118.78
  -1   2 -1112787.31  629.78
  -9   6  10  784.07  266.01
   1  -2  1113151.16  572.14
   9  -6 -10  938.84  215.10
   1  -2  1112388.24  523.70
  -1   2 -1113435.79  591.75
  -9   6  10  940.28  219.80
   9  -6 -10    9.49  193.22
  -9   6  10  888.51  260.24
   1  -2  1112892.53  665.63
   9 -11  -3 2971.02  291.42
  -1  -8  10  960.46  221.96
   9 -11  -3 2284.65  350.38
  -9  11   3 2093.77  350.23
  -9  11   3 2986.25  339.13
  -1  -8  10   34.70  188.91
   1   8 -10    0.80  108.82
  -4   3  -911819.24  313.84
   4  -3   911682.37  668.36
  -4   3  -912570.66  643.50
  -4   3  -912367.27  466.27
  -4   3  -911916.17  453.65
   4  -3   912297.19  461.33
   6 -12  -2  290.71  108.77
  -7   9   8  157.98  198.00
  -6  12   2  199.56  153.18
  -7  -3  11    7.52  113.06
  -7  -3  11   52.51  118.29
   6 -12  -2  234.56  171.50
 -10   4  -1   32.87  145.32
  -7   9   8  263.23  150.57
  -7  -3  11  108.19  105.35
   7  -9  -8   20.35  118.79
   6 -12  -2  -12.12   78.60
  -6  12   2  195.25  135.54
  10  -4   1  340.13   94.71
   6 -12  -2  -18.84   77.69
 -10   4  -1   22.07  112.24
   7  -9  -8  -21.80  145.75
 -10   4  -1  342.86  161.62
 -10   4  -1  -26.36  123.73
  10  -4   1  357.85   94.51
  10 -10  -4  172.01  158.50
  10 -10  -4  -23.81  142.14
 -10  10   4  235.04  215.96
 -10  10   4  488.53  207.82
  10  -3 -10 9223.89  442.72
   8 -11   2 5412.01  272.22
 -10   3  1010876.42  437.84
  -6   3  12 1433.15  155.52
   6  -3   7 9261.75  537.36
  -6   3  12 1370.90  278.71
   6  -3 -12 1551.80  282.49
  -8  11  -2 5741.70  477.19
  -8  11  -2 6220.84  311.08
  -6   3  -7 8732.64  308.28
  -6   3  12 1362.37  326.13
   6  -3   7 8485.67  315.87
 -11   5   8 1077.41  449.97
  11  -5  -8 1151.20  263.52
   8 -11   2 5836.65  228.62
   8 -11   2 5489.62  265.15
   8 -11   2 5774.79  518.85
  -6   3  -7 9285.22  529.64
  -6   3  -7 8881.13  347.89
 -10   3  1010811.82  555.95
 -11   5   8 1596.03  279.14
  -6   3  -7 8942.53  564.91
  11  -5  -8 1344.81  255.58
  -8  11  -2 5726.30  472.92
   4 -12  -1  -42.86   94.61
   4 -12  -1    5.65   94.23
  -4  12   1 1096.31  225.41
  -4  12   1 1445.86  156.54
   0 -11   2 7048.09  257.48
   0 -11   2 7075.23  472.73
   0 -11   2 7083.37  830.75
   0  11  -2 5968.13  290.07
   4 -11  -4 3533.45  260.74
  -4  11   4 3706.91  326.80
   4 -11  -4 3638.24  164.36
   4 -11  -4 3840.53  374.70
  -4  11   4 3926.05  408.01
   4 -11  -4 3782.88  436.44
   1  10  -7 1581.86  182.85
  -1 -10   7 1135.34  201.77
  -1 -10   7 1728.31  272.15
   1  10   0 4051.87  345.09
  -1 -10   0 4967.72  754.32
  -1 -10   0 5194.54  378.56
  -1 -10   0 5459.63  438.80
   4  -9   8   56.06  156.40
  -4   9  -8   41.35  113.83
   4  -9   8  -78.41  132.98
  -4   9  -8  -74.87  140.69
   1 -11   6 8408.74  519.73
  -1  11  -6 7769.33  379.83
   1 -11   6 8136.66  927.59
   1 -11   6 9221.00  722.27
  -6   8   913978.79 1096.92
  -6   8   913277.32  489.53
  -6   8   913279.84  531.28
  -6   8   913183.70  300.43
   6  -8  -913411.48  672.11
   6  -8  -912495.11  338.23
  -1  -3  12 6454.85  472.59
  -1  -3  12 6243.68  872.59
   1   3 -12 6677.97  458.63
   1   3 -12 5734.83  904.07
   4 -11   6 1092.46  268.25
  -7  -1  12  328.94  204.59
  -4  11  -6  998.08  303.78
   4 -11   6  923.97  232.87
   4 -11   6  930.25  285.49
  -7  -1  12  268.07  189.92
  -4  11  -6 1201.15  249.49
   1 -10   8 3086.05  691.38
  -1  10  -8 3617.39  435.84
   9 -10  -6   -9.75  121.00
  -9  10   6  264.41  184.24
   1 -10   8 3319.11  367.83
  -7  11   5  221.00  253.52
   7 -11  -5   -5.88  101.57
  -1  10  -8 3150.65  344.54
   7 -11  -5  -20.95   51.45
   9 -10  -6   55.39  193.21
   7 -11  -5  132.69   51.37
  -9  10   6  231.83  207.43
  -7  11   5  -75.99  104.93
   7 -11  -5  112.31  143.26
  10  -4 -10 8614.95  446.61
 -10   4  10 8744.47  897.35
  -3   0  -9  329.38  234.62
   3   0   9  235.56   87.25
   3   0   9  416.51  126.34
  -3   0  -9    1.45  219.00
   3   0   9  231.86   92.77
  -3   0  -9  597.21  106.20
 -10   4  10 8650.60  413.99
   3   0   9  165.55  381.70
   1   2 -12 7696.46  471.98
  -1  -2  12 8231.73  474.31
  -1  -2  12 7787.48  532.52
  -1  -2  12 7641.89  804.11
   1   2 -12 8449.78  531.75
  -9  -1  10 6118.93  311.00
  -9  -1  10 5638.71  610.34
  -9  -1  10 5966.14  210.82
  -9  -1  10 5693.88  300.91
 -11   7   7  264.34  170.20
  -1   2  11 8695.43  648.71
  -1   2  11 8835.98  524.04
   1  -2 -11 8293.81  344.60
   8  -5 -11   -5.74   92.81
  -1   2  11 8841.45  346.35
  11  -7  -7  214.54  161.69
  -1   2  11 9116.53  355.69
 -11   7   7   21.05  193.77
   1  -2 -11 8901.61  429.10
  -8   5  11  543.25  170.30
  11  -7  -7   35.39  169.79
  -1   9   5   87.31  193.82
  -8   5  11  614.95  256.62
   1  -9  -5  -41.29  356.12
  -1   9   5  254.43  156.22
   1  -9  -5  173.63  150.57
  -8   5  11  720.27  410.25
  11  -8  -2 2584.87  332.37
  11  -8  -2 3144.92  329.71
 -11   8   2 2371.89  399.56
 -11   8   2 3024.39  327.09
 -11   8   2 3205.56  352.98
  -2 -10   4 9387.59  253.62
  -2 -10   4 8746.24  526.58
   2  10  -4 8814.88  290.68
  -2 -10   4 9188.49  898.51
   7 -12   112460.19  618.73
  -7  12  -113111.08  604.56
  -9   1  11 8669.34  505.74
   7 -12   112944.52  431.50
   9  -1 -11 8634.28  355.57
  -9   1  11 9206.17  291.83
   7 -12   113330.69  376.90
  -7  12  -112255.72  433.10
   7 -12   112453.51  648.32
  -8   8   9  265.54  205.44
  -8   8   9  618.89  228.28
  -8   8   9  633.89  189.49
   8  -8  -9  504.38  217.63
   8  -8  -9  416.95  190.94
   8  -6   5 5932.97  370.81
   8  -6   5 6234.54  354.62
  -5  -6  -127898.68  964.06
  -8   6  -5 6107.93  399.22
  -8   6  -5 6524.44  281.31
  -8   6  -5 6548.80  311.51
  -5  -6  -125048.94 1099.80
   5   6   125350.10  879.98
  -8   6  -5 6314.65  334.47
   5   6   123811.34 1013.68
   5  -3 -12 2041.12  151.08
  -5   3  12 2736.30  194.65
  -5   3  12 2356.54  366.00
  -5   3  12 2415.66  165.71
   5  -3 -12 2427.59  324.20
  -5   3  12 2490.61  307.69
 -11   3   8  -31.00  232.62
 -11   3   8   42.65  119.05
  10 -10  -1  304.38  148.57
  10 -10  -1  397.17  383.54
 -10  10   1  407.03  196.38
  11  -3  -8  110.25  118.53
 -11   3   8   46.48   94.72
  11  -3  -8  -29.91  251.20
 -10  10   1  298.93  208.00
   6 -11  -5 2134.68  147.02
  -6  11   5 1870.97  210.03
   6 -11  -5 1953.34  244.73
   6 -11  -5 1787.10  314.45
   6 -11  -5 1863.34  188.88
  -3   4  11 2586.21  265.44
   3  -4 -11 2477.65  221.80
  -6  11   5 1621.12  329.65
  -3   4  11 2435.75  248.08
  -3   4  11 2611.48  223.76
   3  -4 -11 2418.51  248.43
 -11   2   7 3153.42  337.02
  -3  -9   7 7383.77  449.96
   3   9  -7 7666.93  248.95
 -11   2   7 3170.41  211.28
 -11   2   7 3186.95  361.05
  -3  -9   7 7099.30  440.57
  -3  -9   7 7612.75  433.18
  -6   9   8  142.18  117.72
  -4  -8   8 2211.81  237.86
  -4  -8   8 1846.82  245.70
  -6   9   8   73.11  175.71
  -5  12   2  169.43  112.26
  -4  -8   8 1773.93  187.62
   5 -12  -2  103.81  215.51
   6  -9  -8   -0.29   42.97
  -5  12   2  371.03  162.24
   6  -9  -8  -22.09  126.58
  -6   9   8 -112.22  183.43
   6  -9  -8   -4.51  129.60
   5 -12  -2   -7.02  103.31
   5 -12  -2   -1.01  101.74
   5 -12  -2  327.81   91.06
  -6   9   8  137.11   57.84
   6  -9  -8   -9.97   47.34
   2 -10   8  -27.94  147.77
  -8  -3   110417.78  431.28
   1   9  -917279.19  653.33
  -1  -9   917787.97 1157.43
  -1  -9   918213.78  744.81
  -2  10  -8  112.61  143.09
  -2  10  -8  -10.50  181.74
   2 -10   8  -38.10  149.23
  -8  -3   110473.08  679.44
   8   3  -1 9871.50  385.45
   2 -10   8  -13.12  131.98
  -5   0  -711182.50  603.97
  -5   0  -711513.35  500.91
   5   0   711804.63  533.30
   5   0   711564.62  707.83
  -5   0  -711182.95  499.70
  10  -2 -10 7544.57  398.71
 -10   2  10 8366.84  362.20
 -10   2  10 7969.66  752.89
   7 -12  -2 5521.62  222.42
  -7  12   2 5240.59  378.96
   7 -12  -2 5980.10  339.07
   7 -12  -2 5186.24  349.63
   7 -12  -2 5253.66  360.88
  -7  12   2 5434.43  390.87
  -6   8  -7  307.46  201.29
  -8   9   812008.57  672.03
   6  -8   7  323.37  206.73
   8  -9  -811415.78  634.05
   8  -9  -811512.60  547.35
  -8   9   811720.26  580.21
  -6   8  -7  494.89  229.83
   6  -8   7  478.86  222.10
   3   7   331888.74 1251.81
  -3  -7  -335377.89 1218.26
   3 -12   019081.25 1070.98
  -3  12   017286.03  457.81
   3 -12   018735.30  598.45
   3 -12   018248.10  675.41
  -3  -7  -333490.57 2072.24
  -3  12   017074.82  589.40
   3 -12   019233.71  536.91
   3   7   334097.71 1174.04
   2  -9   9 5035.02  467.16
  -2   9  -9 5980.50  496.24
   2  -9   9 5270.22  523.45
  -2   9  -9 6102.00  589.05
  -7   7  10  321.55  305.40
  -7   7  10  334.05  190.75
  -7   7  10  408.87  189.97
   7  -7 -10  379.96  201.98
   0 -10  -2   28.91  178.50
  -8   2  -4   99.54  132.67
   0  10   2  320.52  183.22
   0 -11   5 3488.87  396.96
   0 -11   5 4050.66  392.76
   8  -2   4  -34.00  210.88
   0 -11   5 4043.90  217.29
   0 -10  -2  193.44  172.56
   0  11  -5 3723.58  210.68
   0  10   2  296.03  336.42
  -8   2  -4   -3.50  200.62
   0 -10  -2  276.85  170.19
  -8   2  -4   73.46  139.31
 -11   6   1 6025.52  891.40
  -7  -4   0  927.94  389.22
  -7   3  12  311.89   99.18
 -11   6   1 6203.06  463.22
   7   4   0    9.11   93.24
  -7   3  12   96.28  185.16
   7  -3 -12  406.80  211.68
  -7   3  12 -100.86  213.92
 -11   6   1 6071.40  520.29
  -7  -4   0 1254.43  333.87
  11  -6  -1 5209.53  525.82
   3   2   8  519.70  190.05
   3   2   8  417.08  261.24
   3  -4  10  382.98  184.90
  -3  -2  -8  514.65  168.47
   3  -4  10   69.70  154.11
  -2 -10   5 6071.47  444.07
  -3  -2  -8 -107.77  211.30
  -2 -10   5 6014.76  452.58
  -3   4 -10  249.39  213.11
  -3   4 -10  336.98  163.23
   9 -11   0 5710.59  303.26
   9 -11   0 5364.25  190.13
  -1   8 -10   -0.97  229.90
   1  -8  10 2843.63  429.52
   9 -11   0 5167.43  494.60
   9 -11   0 5097.63  320.97
   1  -8  10 2833.41  363.99
  -9  11   0 5500.77  357.53
  -9  11   0 5261.58  453.35
 -11   2   4   -1.67  256.54
 -11   2   4  624.45   88.11
  11  -2  -4  390.63   89.81
 -11   2   4  697.11  465.70
   7  -1   5 5459.93  755.19
  -7   1  -5 6048.00  425.42
  -7   1  -5 5389.82  416.38
  -7   1  -5 5749.77  409.40
   3  -5  10 8339.64  560.78
  -3   5 -10 9677.99  634.00
   3  -5  10 8824.21  527.42
  -3   5 -10 9179.42  525.76
  -8  -4   824554.30  533.95
  -2 -10   3 5465.55  241.34
  -8  -4   824072.08  882.81
  -8  -4   825126.29  519.26
  -2 -10   3 5650.83  446.08
  -2 -10   3 5530.11  448.68
  -8  -4   825428.08  547.88
   2  10  -3 4858.03  411.48
  11  -8  -6  411.66  204.15
  -9  -2   9 4395.53  443.68
 -11   8   6  260.98  202.30
 -11   8   6  455.12  237.54
  -9  -2   9 4885.38  215.94
  -9  -2   9 4517.91  200.69
  11  -8  -6  355.92  213.84
  -9  -2   9 4764.17  264.29
   2  -9  -6   52.72  161.29
  -2   9   6  -13.75  157.22
  -2   9   6   88.15  114.82
  -8   5  -511276.64  428.06
  -7   8  -6 1848.35  111.98
   8  -5   511401.89  478.23
  -7   8  -6 2056.31  208.69
  -8   5  -511853.06  516.78
   2  -9  -6    7.31  192.42
  -7   8  -6 1795.33  280.31
   8  -5   510663.15  647.52
  -7   8  -6 1890.41  310.00
   7  -8   6 1864.43  272.44
  -8   5  -511622.33  392.11
  -8   5  -511893.11  450.08
   7  -8   6 1883.38  555.82
   1  -4 -10  139.89  164.81
 -10   1   110509.66  709.18
 -10   1   110690.64  649.85
 -10   1   110565.54  338.53
  -4   7  -9   33.13  269.63
   4  -7   9  -22.61  184.37
  -1   4  10  238.43   97.26
   4  -7   9 -234.10  180.14
   8  -7   5   -5.29   86.19
  10  -1  -1 8985.20  259.08
  -8   7  -5 1021.45  224.97
  -8   7  -5 1061.14  138.80
  -4   7  -9  -48.13  217.50
  -1   4  10  -44.46  172.62
  -8   7  -5  973.45  130.29
   1  -4 -10  582.29  173.65
   8  -7   5   24.56  100.76
  -1   4  10   -2.37  142.67
  -1   4  10  312.43   81.77
  -8   7  -5  877.12  201.26
   0  -9  -414339.03  645.07
   0  -9  -414444.37  803.77
   0   9   413644.35  633.74
   0   9   413127.35  712.10
  -9   4  11  439.40  139.43
   9  -4 -11  -11.99   94.69
  -9   4  11  320.59  385.22
  -9   4  11  151.26  226.32
 -10  -1   6 1836.40  306.55
 -10  -1   6 1903.53  264.54
  -4  12  -4 7851.46  424.22
   4 -12   4 8376.63  832.27
   4 -12   4 8200.10  495.17
   4 -12   4 8205.03  448.35
 -10   2   0  -21.24  277.34
  10  -2   0  848.93  116.15
 -10   2   0 1184.34  530.14
 -10   2   0 1107.85  133.37
  -1  -4  12  126.13  195.68
  -1  -4  12  132.19  182.70
   1   4 -12  210.89  166.06
   1   4 -12   -3.09  187.87
  -1  -4  12  190.26  158.48
   4   6 -1112052.60  556.47
  -4  -6  1111778.61  578.54
  -4  -6  1112321.49  566.41
  -4  -6  1111700.17  463.30
   2   9   1   13.03  264.03
   2   9   1  102.23  151.82
  -2  -9  -1  -36.67  136.57
  -2  -9  -1   -4.57  135.43
  -2  -9  -1   96.23  130.71
   4 -10  -6 2047.97  367.11
 -11   7   1 3977.23  310.68
   4 -10  -6 2493.68  207.99
  -4  10   6 2105.69  358.64
 -11   7   1 4168.61  395.91
  -4  10   6 1808.70  335.26
  -4  10   6 1889.76  157.44
  11  -7  -1 3718.95  315.94
 -11   7   1 3351.59  444.66
   4 -10  -6 2248.16  231.44
  -4  10   6 2270.96  213.14
   4 -10  -6 1851.29  209.53
   2   8   3 6822.78  561.45
   2   8   3 7619.02  518.97
  -2  -8  -3 7139.72  619.25
  -2  -8  -3 6976.42  503.43
 -11   6   811135.92  589.10
  11  -6  -810464.81  580.07
 -11   6   811208.72  622.59
  11  -6  -810855.14  596.46
  -6   7  10   18.40  322.27
  -6   7  10  564.73  290.75
  -4  -8   1  583.10  223.55
  -4  -8   1  595.50  227.48
   6  -7 -10  598.87  223.46
  -6   7  10  607.69  201.95
  -4  -8   1  738.04  227.43
   4   8  -1  432.37  195.42
   4   8  -1  595.56  330.41
   1 -11  -128466.49  878.64
   1 -11  -126294.54 1411.55
   1 -11  -128006.40  959.03
  -1  11   124828.62 1289.15
   9 -10   2 2052.26  181.42
  -5  -7   1  632.92  218.77
  -9  10  -2 1920.88  184.68
   9 -10   2 2116.31  177.88
   5   7  -1  614.87  336.71
  -5  -7   1  219.94  202.45
   9 -10   2 1950.56  358.28
  -5  -7   1  629.15  344.02
  -9  10  -2 1529.52  308.10
   5   7  -1  452.39  369.51
  -9  10  -2 2111.07  217.39
  -9  10  -2 1893.84  190.25
  -3  12  -4 9507.25  436.14
   3 -12   4 9861.26  566.66
   3 -12   410176.00  905.29
   3 -12   410242.32  474.03
  10  -8  -8 2244.76  342.85
   0 -10   8 2028.49  318.70
 -10   8   8 2256.10  625.88
  -7  -5   231061.17  878.24
   0  10  -8   -4.51   93.21
   0 -10   8 1998.09  293.43
   0 -10   8  -10.35  479.67
  10  -8  -8 1963.27  326.70
   7   5  -227786.48  756.53
  -7  -5   230056.81 1137.14
 -10   8   8 2376.25  354.23
  -4  -2  -7   84.21  154.80
   4   6   3 2143.01  396.42
  -4  -2  -7  262.99  334.73
  -4  -6  -3 2094.52  351.70
   4   6   3 2319.12  361.04
  -4  -6  -3 2159.92  415.98
   4   2   7   71.11  115.51
   4   2   7  -77.25  159.14
  -8  11   5 8818.89  490.66
  -8  11   5 8629.37  576.34
   8 -11  -5 8737.47  533.48
   8 -11  -5 8309.63  449.88
 -10   0   9   14.00  302.47
 -10   0   9  565.96  132.19
   9 -11  -419715.51  815.20
   9 -11  -421027.89  775.83
   4   7 -10 5980.43  333.73
  -4  -7  10 5983.67  375.77
 -10   0   9  539.03  130.36
  -4  -7  10 5657.05  345.35
  -9  11   419439.64  864.44
  -4  -7  10 6035.40  573.49
  -9  11   420970.54  830.03
 -11   5   1  758.68  307.52
 -10  -1   5 7987.22  505.99
  -6  -6   9  -68.51  105.69
  -6  -6   9  180.30  100.42
  -2  -8  10 1198.38  316.46
 -11   5   1  869.73  137.60
 -11   5   1  813.11  265.20
  11  -5  -1 1029.51  158.06
  -6  -6   9  212.18   77.85
 -10  -1   5 8621.44  536.78
  -6  -6   9  363.01  100.43
  -2  -8  10    7.78  166.39
  -8  -3  10  725.36  307.68
  -8  -3  10  887.63  259.70
  -2  -2  -912867.01  674.97
   2   2   912343.57  297.16
  -1  -1  1215393.07  698.24
   1   1 -1215146.17  955.72
  -2  -2  -913706.66  560.46
   2   2   913361.12  850.22
  -1  -1  1215573.24  655.08
   2   2   913192.71  731.90
   2   2   912302.00  314.17
  -1  -1  1214865.34  641.45
 -10  -1   7 5419.29  332.98
  -2   5  10  501.69  180.53
   6 -12   3 1036.27  304.55
  -2   5  10  317.88   93.09
   2  -5 -10  168.65  162.97
   2  -5 -10  250.05  144.35
 -10  -1   7 4978.79  666.74
   6 -12   3 1407.76  215.71
 -10  -1   7 5053.81  170.79
   6 -12   3 1328.30  201.94
 -10  -1   7 4845.15  224.62
  -2   5  10   -0.31  273.25
  -2   5  10  -26.82  159.68
  -6  12  -3 1159.06  251.37
  -3   8   8 9475.43  592.03
   3  -8  -8 8785.47  638.08
  -3   8   8 9455.71  402.07
  -3   8   8 9483.72  423.31
   3  -8  -8 8958.88  633.56
  -3   8   8 9055.70  448.67
   0   3  10 1407.25  307.74
   0  -3 -10   14.03   89.23
  -5   8  -829237.55 1169.25
   5  -8   827919.73 1021.27
   0   3  10 1555.94  136.30
   0  -3 -10  -31.52  105.58
 -10  10   5 1336.96  311.70
  -3   2  12 4772.79  574.61
   5  -8   829080.53 1089.45
  -3   2  12 4714.40  402.21
   3  -2 -12 4653.77  224.06
   3  -2 -12 4372.59  448.49
  -5   8  -828981.91 1003.45
   0   3  10 1828.82  156.11
 -10  10   5 1105.82  289.46
  10 -10  -5   22.26  444.29
  10 -10  -5 1060.09  257.65
  -3   2  12 4732.81  323.95
  -3   2  12 4888.33  225.95
  -7  10   7  523.22  254.32
  -7  10   7  577.14  183.88
   7 -10  -7    5.44  121.30
   7 -10  -7  528.43  189.70
   0 -11   1 6675.85  479.27
  -8   7  1020084.00  833.80
   0 -11   1 6392.81  506.97
   6 -10   6  598.09  212.38
  -6  10  -6  566.89  218.90
   0  11  -1 5868.77  540.90
   8  -7 -1019631.01 1287.78
   6 -10   6  783.63  285.73
   0 -11   1 6520.94  481.19
  -8   7  1020187.50  772.35
  -6  10  -6  -47.73  404.11
   1   7 -11 3842.57  438.20
  -1  -7  11 3132.95  369.31
   1   7 -11 4177.62  431.03
  -1  -7  11 4199.25  437.90
 -10   5  10 1044.97  281.73
  -7  10  -5 9655.93  901.44
  -6  -3  12 1306.14  265.56
  -7  10  -5 9296.00  563.86
   7 -10   5 8929.64  646.10
   7 -10   5 9283.44  479.05
 -10   5  10 1287.52  279.86
  -6  -3  12  985.29  452.76
  10  -5 -10  -66.75  145.41
 -10   5  10 1038.93  225.68
  10  -5 -10  -27.68  125.44
  -3   3 -10  143.22  128.45
   3  -7  -9 3525.24  480.57
  -3   3 -10   51.01  170.38
   3  -3  10 -117.98   99.09
  -3   7   9 3616.73  184.52
  -3   7   9 3648.40  274.97
  -3   7   9 3412.04  211.91
  -3   7   9 3896.43  389.70
   3  -7  -9 3146.69  407.37
   3  -3  10  177.85  142.77
   2   5 -12 1444.53  304.18
  -2  -5  12 1507.63  331.93
   2   5 -12   14.09  434.49
  -2  -5  12  -14.15  418.33
  -2  -5  12  -11.79  243.10
   8   4  -3   -7.94   66.18
   2 -12   2  533.55   87.71
   2 -12   2  362.51  205.21
  -8  -4   3  901.15  154.30
  -2  12  -2  376.66   99.46
   2 -12   2  513.19  155.82
  -8  -4   3  670.79  143.97
  -8  -4   3   -0.79  245.59
  -2  12  -2  255.52  103.31
   2 -12   2  231.69  205.77
   1  -6  1112099.72 1156.27
  -1   6 -1112772.94  689.78
   1  -6  1112638.98  675.83
  -1   6 -1112449.95  784.83
  -5  -3  -5 2271.31  384.54
   5   3   5 2257.54  376.68
   5   3   5 1957.21  372.24
  -5  -3  -5 2296.84  385.30
   5   4   4 8948.13  598.25
  -5  -4  -4 9873.95  693.56
   5   4   4 8696.33  639.34
  -5  -4  -4 9189.74  595.32
   7  -3   6 2837.67  295.39
  -7   3  -6 2795.57  257.19
   7  -3   6 3126.43  340.30
  -7   3  -6 3300.31  263.79
  -7   3  -6 3126.21  178.09
  -7   3  -6 2636.32  559.80
  -3  -5  12   31.89  123.47
  -7  -5   9 7996.51  414.89
   2 -12   314586.96  412.00
   3   5 -12   11.87  113.98
  -8   1  12 4826.89  459.22
  -3  -5  12  -38.47  118.06
  -7  -5   9 7099.91  313.84
  -8   1  12 5134.01  484.62
  -8   1  12 4836.54  192.64
  -7  -5   9 8068.26  387.83
  -2  12  -312945.26  416.45
   2 -12   314267.86  668.94
   3   5 -12   73.67  147.75
   2 -12   314167.53  662.68
  -7  -5   9 7555.69  270.58
   8  -1 -12 4637.05  229.08
   5  -2   8 8539.90  303.80
  -6  11  -5 4151.50  399.10
  -5   2  -8 8759.13  549.58
   5  -2   8 8622.71  987.05
  -5   2  -8 8796.19  304.25
  -6  11  -5 3346.75  396.98
   6 -11   5 3399.88  849.53
   6 -11   5 3957.63  336.48
   6 -11   5 3855.08  371.36
  -5   2  -8 8449.09  338.04
  -5   2  -8 8931.61  337.99
   1  -1  11 5307.45  317.58
   1  -1  11 5015.72  450.00
  -1   1 -11 4681.58  356.90
  -8  -2  11  958.09  210.78
  -8  -2  11  876.09  202.66
  -1   1 -11 5230.05  191.46
   1  -1  11 5186.16  350.27
  -1   1 -11 5019.48  418.34
   5   4 -12   20.90   73.16
  -8   2  12  905.73  276.21
   8  -2 -12  930.11  143.06
  -5  -4  12   42.80  173.96
  -5  -4  12   29.44  175.85
  -8   2  12 1058.54  303.67
  -9  -2   220178.44  573.85
  -9  -2   219776.94  902.72
   9   2  -218410.56  472.93
  -3   6 -10  -10.02  166.79
   3  -6  10  352.72  357.62
   3  -6  10  240.14  212.35
  -3   6 -10  429.58  210.06
 -10   7   9  603.69  246.87
  10  -7  -9  951.12  258.01
   2  -1 -12   20.35  126.52
  10  -9   133028.61  695.26
  -2   1  12  -24.18  148.74
  10  -7  -9  650.72  463.08
 -10   7   9  744.47  424.98
  10  -9   131773.70 1113.12
  -2   1  12   13.87  158.07
  -2   1  12  413.57  170.47
   2  -1 -12  221.10   75.60
 -10   9  -134962.76 1131.50
  -2   1  12  365.47   81.63
 -10   9  -135785.26 1413.01
 -10   9  -136657.41  799.58
 -10   9  -135237.58 1061.06
 -11   9   4 1997.98  548.82
   2   0  10 4689.76  264.63
  -2   0 -10 4875.44  420.07
   2   0  10 4776.12  246.85
 -11   9   4 1704.08  361.91
   2   0  10 4582.51  469.31
  -2   0 -10 4722.68  729.47
  11  -9  -4 2025.17  337.47
  11  -9  -4 1829.51  316.07
   2   0  10 4299.77  235.04
   9  -9   3  977.91  278.85
   7 -11   411552.22  734.23
  -7  11  -412502.07  576.00
  -9   9  -3 1401.67  182.77
   9  -9   3 1293.62  161.92
   7 -11   412121.50  522.65
  -9   9  -3 1375.47  283.56
  -9   9  -3 1241.60  256.65
  -7  11  -411969.26  659.65
   7 -11   411271.75  467.42
  10  -9  -7  341.85  219.64
 -10   9   7  563.66  235.90
  10  -9  -7  411.91  211.84
  -9  -3   6    0.13  101.37
  -9  -3   6  467.10  188.58
  -9  -3   6  -11.31  133.84
 -10   9   7  396.47  256.36
 -11   9   3    9.95  154.55
   0   1  1123116.22  623.08
  11  -9  -3  -27.76  116.93
   0   1  1123448.70  711.26
   0  -1 -1123843.25  824.63
   0  -1 -1123020.26  591.72
   0   1  1124650.47  627.14
   0   1  1124380.98 1437.08
  11  -9  -3    0.78  130.54
 -11   9   3   45.63  132.69
   5 -11  -512423.50  626.45
   5 -11  -512179.78  400.18
  -2  -7  11  138.29  193.01
  -5  11   512600.67  417.92
  -5  11   513078.12  712.43
   5 -11  -512203.71  359.34
   5  -8  -9  -61.05  102.11
   5 -11  -513067.38  661.23
  -5   8   9  246.93  126.66
   2   7 -11   90.18  145.87
   2   7 -11    9.08  138.34
  -5   8   9  374.83  156.05
  -5   8   9  243.40  200.65
  -2  -7  11  281.82  166.22
   5  -8  -9  271.33  209.51
  -5   8   9  181.88  114.05
   2  10  -6   66.81   60.35
  -2 -10   6  -52.12  149.13
  -2 -10   6  197.29  146.36
   4  -2   9 2061.58  367.21
   5 -12   4  310.13  160.95
  -7  12  -2   74.88  187.81
   7 -12   2  193.65  116.59
   5 -12   4  349.65  171.24
  -5  12  -4  431.42  193.04
  -4   2  -9 1951.32  162.74
  -7  12  -2  421.31  180.94
  -4   2  -9 2045.17  346.86
   7 -12   2  126.97  106.12
  -4   2  -9 2389.35  199.29
   5 -12   4  124.34  210.78
   7 -12   2  171.69   71.23
  -4   2  -9 1876.23  164.80
   4  -2   9 2348.71  196.84
   7 -12   2  282.82  193.75
  -5  -7   9 6139.79  332.02
  -5  -7   9 6462.17  316.39
  -5  -7   9 5749.70  303.58
   3 -10   8 4368.25  843.39
   3 -10   8 3715.60  685.99
  -3  10  -8 4112.91  410.95
  -3  10  -8 4184.99  515.33
   8 -12  -111527.09  314.47
 -11   3   210998.53  430.33
 -11   3   210684.21  667.50
   8 -12  -111661.41  443.65
   9   0 -11 1080.49  151.27
   8 -12  -111359.61  468.41
  -8  12   112294.57  545.86
  -9   0  11 1204.85  237.24
 -11   3   210217.21  719.80
  11  -3  -2 9268.23  274.89
  -9   0  11 1360.92  119.75
   8 -12  -111403.42  998.51
  -8  12   112760.31 1046.73
  -9   0  11 1306.24  260.11
 -11   2   8 7049.18  326.35
 -11   2   8 7342.85  491.35
   8 -10  -7   -5.83  201.80
  -8  10   7 1786.86  650.47
   8 -10  -7 1778.62  253.26
  -8  10   7 2186.59  303.36
 -11   2   8 6792.75  422.53
  -8  -1  -2 1311.92  328.99
  10   0  -2 1116.83  107.99
 -10   0   2 1555.19  355.97
  -8  -1  -2 1423.23  317.06
 -10   1  10 4194.93  241.55
   9  -3   3  404.66   77.85
  -9   3  -3  307.08  130.51
 -10   0   2 1516.33  256.04
  10  -1 -10 3547.34  283.25
  -8  -1  -2 1412.71  244.19
 -10   1  10 3908.67  314.86
   8   1   2 1346.71  228.99
  -9   3  -3  198.13  305.83
   9  -3   3   -9.39  251.65
 -10   1  10 3602.89  301.01
  -9   3  -3  204.81  196.99
  -6  10   713486.78  502.41
   6 -10  -713210.47  735.19
   6 -10  -713193.09  495.59
   6 -10  -713659.63  457.14
  -6  10   712548.29 1207.04
   6 -10  -712773.36  511.38
   6 -12  -311856.57  429.47
  -6  12   311447.91  590.85
   6 -12  -310929.35  353.10
   6 -12  -311828.25  571.82
  -6  12   311446.96  482.23
   6 -12  -312188.66  852.39
  -4   3  1216857.72  733.45
  -4   3  1215975.67  477.81
   4  -3 -1214775.24  657.91
  -4   3  1215554.17  618.08
  -4   3  1215427.24  727.60
   4  -3 -1214636.89  458.13
  -2 -10   2 1794.28  320.17
  -2 -10   2 1996.54  206.48
   4  -5 -11  487.78  158.70
  -4   5  11  362.03  106.05
   2  10  -2 2060.69  231.82
  -4   5  11  188.15  144.05
   4  -5 -11  249.11  113.21
  -2 -10   2 1825.34  571.16
  -4   5  11   99.80  212.66
  -4   5  11  -11.33  143.50
  -3  -9   1 6566.03  732.30
   3   9  -1 5603.57  414.01
   3   9  -1 6416.43  450.48
  -3  -9   1 6548.28  491.38
  -3  -9   1 6787.22  844.39
  -8   4  -513781.21  893.72
  -8   4  -512449.76  491.29
  -8   4  -513753.87  545.11
   8  -4   512012.34  535.91
  -8   4  -514021.38  596.47
   8  -4   512188.24  379.03
   8  -8   5   -3.29  146.99
  -8   8  -5  129.00  153.30
  -8   8  -5  290.22   79.20
  -8   8  -5   61.18   89.41
  -8   8  -5  257.46  156.89
  -9  -3   5 3480.53  311.89
  -9  -3   5 3380.63  330.74
   8  -8   5  104.22  109.82
  -9  -3   5 4004.19  379.64
 -10  10   0  398.57  192.64
  -6  -6   1  406.89  223.92
   6   6  -1   22.14  129.45
  10 -10   0  290.63  430.99
   6   6  -1  230.72  165.63
  -6  -6   1  328.02  172.28
  10 -10   0  500.78  160.13
 -10  10   0  503.73  216.43
  -5   9   8 3751.39  252.73
  -5   9   8 3772.56  223.34
   5  -9  -8 3536.25  207.99
  -5   9   8 3978.11  452.39
   5  -9  -8 3566.99  753.43
  -5   9   8 3699.73  196.05
   7 -12  -315895.69  570.48
 -11   8   119044.52  857.60
  -4  12   2 6974.69  287.76
  11  -8  -118065.26  707.83
   4 -12  -2 7245.99  368.86
 -10   3  -1 9633.16  595.05
   4 -12  -2 7458.86  389.20
 -11   8   118641.71  768.56
  11  -8  -117208.46  707.92
  10  -3   1 9389.90  326.77
  -7  12   316624.14 1154.72
   4 -12  -2 6834.21  370.71
 -10   3  -110274.51  344.51
   7 -12  -316306.73  609.93
  -4  12   2 7381.23  460.53
 -10   3  -110887.11  653.37
   7 -12  -316439.17  403.96
   4 -12  -2 7528.73  402.56
   7 -12  -316596.37  945.34
  -7  12   316609.35  652.57
 -11   8   119142.77  718.02
  -9  -3   7  804.27  192.91
   0   7 -11 4553.91  480.26
   0  -7  11 4434.67  439.04
  -9  -3   7  944.37  157.15
   0  -7  11 5844.76  863.09
   0   7 -11 5447.00  518.97
   6   5   1 8162.72  618.89
   9  -8  -9  282.05  183.49
   9  -8  -9   65.69  169.83
  -9   8   9   72.47  173.00
  -6  -5  -1 9035.18  538.75
   6   5   1 8891.37  510.58
   2 -12   1 1169.43  134.70
  -6   0  -616926.02  697.07
   2 -12   1  809.97  245.37
   2 -12   1  896.88  245.24
   6   0   616291.86  803.59
  -2  12  -1  946.90  160.85
  -6   0  -616816.33  686.29
  -9   8   9  198.55  182.65
  -9   8   9  170.12  160.56
  -2  12  -1  714.21  185.41
  -6  -5  -1 8662.30  678.71
  -6   0  -616978.40  757.23
  -7  -2  12 5378.22  451.85
  10  -6   2 2530.26  181.06
 -10   6  -2 2845.82  345.17
  -7  -2  12 5208.86  436.90
 -10   6  -2 2655.10  201.73
 -10   6  -2 2788.19  219.82
  10  -6   2 2507.44  231.08
 -10   6  -2 2803.76  303.85
   8 -12   0  415.35  192.66
   8 -12   0  288.69   82.82
  -8  12   0  237.47  343.72
   8 -12   0  -14.21   87.07
  -8  12   0  282.22  144.62
   8 -12   0  284.88  110.02
   8 -12  -2 6034.48  199.20
   8 -12  -2 6411.18  363.17
  -8  12   2 6132.36  440.31
   8 -12  -2 5899.09  317.31
   8 -12  -2 5682.53  440.09
  -8  12   2 6335.94  794.72
 -10  -1   412594.99  673.11
  -9   9   8 2282.72  387.11
   9  -9  -8 2182.05  367.99
  -9   9   8 2398.51  345.08
   9  -9  -8 2527.38  320.41
 -10  -1   412475.04 1120.12
  -3   9   7 1083.21  192.02
 -11   2   3    0.85  158.73
 -11   2   3   82.95  170.65
   3  -9  -7  998.12  181.91
  -3   9   7 1076.22  300.00
   3  -9  -7  744.14  313.40
 -10   7  -2 7429.48  388.81
  10  -7   2 6851.43  396.67
   5 -10   7 8943.77  550.92
  10  -7   2 7252.31  271.68
   5 -10   710564.70  693.86
 -10   7  -2 7803.50  451.55
 -10   7  -2 7760.25  428.89
  -5  10  -710557.11  702.29
  -5  10  -7 9684.37  990.06
 -10   7  -2 8095.44  312.00
  -3  12   1  177.40  154.95
   3 -12  -1   -7.26   78.21
  -3  12   1  268.93   89.66
  -8   0  12 1366.26  295.42
  -8   0  12 1022.31  276.74
   3 -12  -1  -17.05  164.53
   3 -12  -1    4.41   93.47
   0 -11   6 3132.47  381.39
   0 -11   6 2761.04  355.84
   0 -11   6 2442.42  232.12
   0  11  -6 3140.23  386.37
   6  -2   7 5807.58  488.47
  -6   2  -7 6066.06  361.04
  -6   2  -7 6123.03  542.26
   6  -2   7 6024.90  224.17
  -6   2  -7 6218.58  463.73
  -6   2  -7 5698.53  330.69
  11  -9  -5  254.33  200.95
   2 -12   4  967.64  257.50
  -1  -9  -3  330.91  297.36
   1   9   3  460.75  234.34
   2 -11   717788.76  797.90
  -1  -6  -7 6037.81  499.18
   1   6   7 5873.60  498.58
  -2  11  -717454.46  679.91
   1   6   7 5419.19  527.83
  -1  -6  -7 6329.87  558.67
   2 -11   716740.98  754.61
  -1  -9  -3   18.28  196.05
   1   9   3  379.14  215.81
  11  -9  -5  280.05  194.62
   2 -11   717398.86  774.47
   2 -12   4  934.79  448.83
  -2  12  -4 1149.86  183.42
 -11   9   5  495.59  224.70
 -11   9   5  415.37  256.97
 -11   4   922387.90  784.85
  11  -4  -922136.31  816.59
 -11   4   921333.21  776.81
  11  -4  -920083.98 1233.89
  -8  -2  -111047.62 1189.70
   9 -11   1  351.89  121.94
  -8  -2  -110504.94  523.01
   9 -11   1  434.66  101.80
  -8   0  -3 1208.39  300.58
  -8   0  -3  980.19  231.70
   8   2   1 9570.29  430.58
   8   0   3 1093.53  414.01
   8  -3 -1213221.02  711.38
  -9  11  -1  304.06  261.37
  -8  -2  -110939.43  684.56
   9 -11   1  398.54  244.81
  -8   0  -3 1202.49  288.73
  -9  11  -1  462.36  225.93
  -8   3  1214355.37  440.68
  -8   3  1214179.98  790.90
  -8   3  1214042.96 1202.09
   5 -11   610824.59  614.53
   5 -11   610073.26  702.96
  -1  -5  12  250.19  394.64
 -10  -1   813875.54  601.44
  -8  10  -4  404.70  163.89
   8 -10   4  563.48  254.05
  -8  10  -4  662.32  110.86
   5 -11   6 9710.22  535.68
  -5  11  -611213.16  684.70
   1   5 -12   26.49  245.52
  -8  10  -4  630.81  234.26
 -10  -1   815497.07  532.04
 -10  -1   814072.72  493.69
  -8  10  -4  284.00  332.66
  -5  11  -610252.39 1017.12
  -1  -5  12  850.40  269.48
 -10  -1   814364.22  443.56
   8 -10   4  467.10  157.44
   1   5 -12  746.90  232.37
 -11   1   6 1095.97  287.34
  11  -9  -2 3931.67  357.74
 -11   1   6 1441.87  318.59
 -11   9   2 3074.15  418.52
 -11   1   6 1929.56  214.44
  -9   0  -127313.81 1097.21
  -9   0  -126347.23 1063.57
 -11   9   2 3380.57  378.93
  11  -9  -2 3063.20  391.46
   9   0   125026.58 1023.13
  -9   0  -127758.89  820.26
  -5   7  10 4476.37  352.08
  -5   7  10 4108.59  415.06
   5  -7 -10 4081.31  217.02
  -5   7  10 4647.57  551.19
   5  -7 -10 4148.62  401.37
  -5   7  10 4685.05  284.72
  11  -4  -1  153.66  147.50
 -11   4   1   -3.62  331.70
 -11   4   1  133.77  214.97
 -11   4   1  177.72   80.06
  -7  -2  -3  127.80  174.17
  -7  -2  -3   50.07  245.45
   7   2   3 -135.76  163.49
  -7  -2  -3  -25.78  164.88
  -5  -2  -621652.59  889.43
  -5  -2  -622565.53  981.92
   5   2   621587.36 1403.45
   5   2   621063.23 1015.51
  -6   4  12 5629.38  302.93
   6  -4 -12 5156.91  519.86
  -6   4  12 5069.64  490.85
  -6   4  12 6228.29  752.71
  -2  -9   9 8956.98  491.26
  -7   6  11 6283.46  683.75
   7  -6 -11 5230.02  678.74
  -5  -5  -3 5407.87  481.15
  -2  -9   9 9601.17  495.91
  -7   6  11 6547.57  507.78
   2   9  -9 9871.84  449.15
   5   5   3 5060.16  528.04
   5   5   3 4706.42  765.49
  -5  -5  -3 5484.55  583.42
  -7   6  11 6104.60  432.98
  -9   5  11 7808.96  693.90
   9  -5 -11 6888.13  421.77
  -9   5  11 7908.39  568.63
  -9   5  11 7320.18  572.04
   3  -6 -10 6479.40  470.86
  -3   6  10 6382.54  453.94
  -3   6  10 6706.28  266.91
  -3   6  10 6953.06  373.70
   3  -6 -10 6235.71  604.65
  -3   6  10 6726.40  316.80
  -4  -5  1215710.46 1213.07
   4   5 -1216484.41  574.43
  -2   8 -10 1220.24  369.20
   2  -8  10 1580.78  308.59
   2  -8  10   19.88  265.63
  -4  -5  1216210.36  768.00
  -4  -5  1215354.10  565.90
  -6  -7   521830.01  912.79
 -11   8   7 5938.63  541.31
  -6  -7   521473.60  669.25
  11  -8  -7 5498.35  485.89
  11  -8  -7 5785.95  471.60
 -11   8   7 5932.37  494.31
  -6  -7   521339.68  694.78
  -1  -2 -10   -4.50  131.09
 -11   5   9 1832.58  295.07
  -1  -2 -10  -28.29   94.54
  11  -5  -9 1465.98  292.51
  11  -3  -9  -28.27  120.91
   1   2  10  409.96  166.90
   1   2  10  395.93  233.89
  11  -5  -9 2014.60  516.71
 -11   5   9 1648.46  292.30
   1   2  10    6.11  251.12
 -11   3   9  963.32  211.40
 -11   3   9  989.93  206.36
  -8  11  -3  902.69  172.28
  -8  11  -3  632.01  172.85
  -8  11  -3  417.53  122.84
   8 -11   3  707.05  167.74
  -6  -7   6 5864.12  338.68
   3 -11   7 3172.30  386.24
   3 -11   7 2532.61  342.65
  -3  11  -7 2328.09  562.32
 -11   1   5 9024.27  617.00
   8 -11   3  704.97  273.90
   8 -11   3  529.12  148.82
   8 -11   3  505.00  157.70
  -8  11  -3  589.71  412.13
   3 -11   7 2442.65  406.51
 -11   1   5 9928.90  608.64
  -3  11  -7 2513.43  427.56
  -6  -7   6 5892.81  406.42
  -6  -7   6 6089.30  340.46
  -2  -5  -7 2135.01  375.14
  -3  -9   8 7785.83  356.26
   3   9  -8 7898.89  303.29
  11  -7  -8  576.34  236.14
   2   6   6 4782.88  491.24
   2   5   7 2105.30  392.89
  -2  -6  -6 4845.09  465.95
 -11   7   8  572.12  248.86
 -11   7   8  496.21  415.79
   7  -4 -12 4750.27  305.81
  -7   4  12 5495.08  434.42
  -3  -9   8 7874.74  472.15
  -7   4  12 4348.76  495.37
  -2  -6  -6 4491.10  535.11
   2   5   7 1699.35  343.88
  -2  -5  -7 1832.34  381.26
  -7   4  12 4798.36  481.48
  11  -7  -8  729.36  422.45
   2   6   6 4223.35  483.56
  -3   9  -912191.63  660.65
   3  -9   911050.76 1089.53
   3  -9   911184.41  747.16
  -3   9  -912452.94  826.35
  -5  12   3  261.87  143.26
   5 -12  -3  269.44  129.41
   0   7   731063.55 1781.82
   5 -12  -3  -23.40   92.22
   0  -7  -731556.11 1265.94
  -8  -4   9 7348.97  331.82
   0   7   730760.56 1083.89
   5 -12  -3    0.14   93.19
  -8  -4   9 6542.93  357.49
   5 -12  -3  105.18   77.05
   0  -7  -731098.85 1071.52
  -8  -4   9 6048.53  282.54
  -8  -4   9 6771.07  342.70
  -5  12   3  -28.03   87.39
 -10   5  -2 7598.79  470.59
 -10   5  -2 8142.81  473.96
 -10   5  -2 7478.53  306.42
 -10   5  -2 8245.35  523.46
  10  -5   2 7029.51  461.33
  10  -5   2 6605.69  482.88
  -1  -7  -6  761.33  310.09
   1   7   6  467.33  238.32
  -1  -7  -6  708.27  437.50
   1   7   6  618.29  260.81
   0   6   8  332.49  406.45
  -5  -8   513031.58  560.87
   0  -6  -8  248.17  232.50
  -5  -8   513605.81  599.32
   0   6   8  409.58  215.94
   0  -6  -8  401.67  211.98
  -5  -8   513025.51  558.98
  -1  -5  -8 5500.21  499.11
   1   5   8 5487.21  518.59
   1   5   8 6183.08  475.81
 -11   1   7 1329.18  261.15
  -1  -5  -8 6024.67  501.41
 -11   1   7 1408.90  136.58
  -1   0  12   -8.53  103.32
   1   0 -12  284.50   73.40
  -1   0  12   17.66   89.16
  -1   0  12   -4.15   99.77
   1   0 -12    9.48  152.03
  -6   6  1117194.52  665.50
  -6   6  1117720.67  771.20
   6  -6 -1116230.76  668.91
  -6   6  1117645.87  674.12
  -3   2 -10  742.63  463.54
   3  -2  10  228.43   82.66
  -3   2 -10  745.76  104.17
  -3   2 -10  988.05  185.88
   3  -2  10   56.84  129.11
   3  -2  10  992.48  208.42
  -3   2 -10  715.92  175.66
  -1  11  -7 6462.44  645.99
   1 -11   7 6396.94  483.05
   1 -11   7 6674.75  744.36
   1 -11   7 6383.61  538.51
  -9  -1   0   10.20  204.24
   3 -12   5 3769.88  368.31
  -9  -1   0  198.11  124.88
   3 -12   5 3690.33  619.71
   3 -12   5 3738.94  404.28
  -3  12  -5 3543.49  305.13
  -9  -1   0  226.49  209.50
   1  10  -8 5617.80  560.19
  -1 -10   8 5785.77  433.52
  -1 -10   8 5287.91  628.83
  -1 -10  -1 4620.41  439.15
  -1 -10  -1 4229.59  418.92
  -9   1  -2   67.33  163.54
   9  -1   2  130.99  119.43
  -9   1  -2   66.68  282.18
   1  10   1 3633.22  385.04
   1  10   1 4180.42  403.73
  -1 -10  -1 4231.33  433.96
  -9   1  -2   61.29  104.40
  -4   8  -9 3823.35  482.02
   4  -8   9 2381.95  689.07
   7   1   414103.53 1166.82
  -7  -1  -415602.11  733.22
  -4   8  -9 3005.26  383.03
   4  -8   9 2318.96  377.86
  -7  -1  -415896.82  770.59
  -7  -1  -415464.89  795.98
  -7   9  -618018.41  782.70
   7  -9   617303.95  720.33
   7  -9   617532.77  858.52
  -7   9  -617225.09  735.32
   6  -9   7 5866.96  449.39
  -6   9  -7 5594.02  791.33
   6  -9   7 5439.88  933.70
  -9  -3   4 3697.02  414.96
   9   3  -4 3445.95  175.20
  -6   9  -7 6828.62  902.84
  -9  -3   4 3669.59  211.70
   3 -11  -4    3.55  114.91
   3 -11  -4  708.91  281.49
  -2  11   3 2340.97  293.24
  -2  11   3 2508.73  350.11
   3 -11  -4   12.36  116.86
  -7  -3  -2 3880.39  506.38
  -3  11   4   74.32  125.47
   2 -11  -3 2446.33  453.33
  -7  -3  -2 3207.79  815.85
   7   3   2 4010.10  349.37
   2 -11  -3   12.11  529.38
  -9   7  10 7781.46  561.03
   9  -7 -10 7717.53  545.49
  -9   7  10 8065.91  551.14
  -7  -3  -2 3912.60  383.70
   7   3   2 3489.70  478.82
  -3  11   4  222.56  176.71
   9  -7 -10 7733.36  519.84
  -9   7  10 7490.85  523.13
  -5  -1  1312214.32  612.56
  -5  -1  1311955.11  732.24
  -5  -1  1312136.57  675.65
   9 -11  -5 9971.20  562.59
   9  -6   4   54.03   91.69
  -9  11   510417.90  665.86
   9  -6   4   -4.74   89.82
  -5  -8   620382.66  700.11
  -9   6  -4   13.44  149.72
  -9   6  -4    5.91   81.69
  -5  -8   620212.30  700.67
   5   1 -1311364.34  365.37
   9 -11  -510437.82  582.51
  -9  11   510733.75  593.10
  -4  -1  13 7335.46  527.15
  -4  -1  13 7591.68  587.89
   4   1 -13 6832.47  334.48
  -4  -1  13 6972.17  345.04
  -3  -7  11 1494.97  287.94
   3   7 -11   21.62  114.85
   3   7 -11   -6.14  105.28
  -3  -7  11 1443.32  236.58
   5   0 -13 3152.80  192.37
  -5   0  13 2522.07  404.08
  -5   0  13 2615.97  750.66
  -5   0  13 3319.17  342.47
 -10   8  -2   48.10   94.12
 -10   8  -2  -45.15   95.66
  10  -8   2   56.61  171.77
  10  -8   2  330.18   94.40
 -10   8  -2    8.75   62.14
 -10   8  -2  -43.68   85.03
   0  -3  12 8167.64  511.37
  -9  -3   810077.90  414.02
   0  -3  12 7553.05  543.50
   0   3 -12 7985.43  565.25
  -9  -3   810049.16  323.29
   0  -3  12 7605.17  499.79
   0   3 -12 7811.96  530.90
  -4  12  -515912.26  663.09
   4 -12   516054.88  716.61
   4 -12   515657.61  668.88
   4 -12   515636.81  768.88
   8 -12   114172.79  401.39
   8 -12   113726.65  632.83
  -8  12  -114352.07  505.67
  -8  12  -113429.09  690.67
  10  -6 -10 2284.19  295.36
 -10   6  10 2348.84  319.53
 -10   6  10 2484.94  380.94
  10  -6 -10   22.01  262.75
   8 -12   113639.35  742.63
 -10   6  10 2466.63  376.86
   8 -12   112942.62  394.65
   9  -7   4   -7.35   87.86
  -9   7  -4  156.50   90.52
  -9   7  -4    0.93   82.80
  -9   7  -4  105.57  101.48
  -9   7  -4 -142.59   97.80
   9  -7   4  -39.73  102.21
   3  -7  1014598.09  794.50
  -3   7 -1013501.89  696.06
  -3   7 -1014897.04  869.05
   3  -7  1015099.79  811.79
  -8  12   3 5293.90  446.92
   8 -12  -3 5274.63  177.97
   8 -12  -3 5485.91  377.59
   8 -12  -3 5142.53  178.81
   8 -12  -3 5688.40  403.64
  -8  12   3 5017.00  705.32
  -4  -8   9 2435.02  463.19
  -4  -8   9 2501.49  233.25
   0  11   0  409.70  175.24
   0 -11   0  427.95  178.41
   0 -11   0  -23.41  135.01
   0 -11   0  339.57  186.04
  -5  -8   4  575.30  345.46
  10 -10  -6 1379.69  255.53
  -5  -8   4  441.90  190.19
  10 -10  -6   54.73  256.97
 -10  10   6 1186.82  535.75
  -5  -8   4  583.26  145.50
 -10  10   6 1429.19  343.31
  -8   6  11  405.38  191.14
  -8   6  11  413.47  208.60
   8  -6 -11   16.75  117.16
  -7  -6   6 2926.24  229.19
  -8   6  11   -1.75  157.64
  -7  -6   6 3059.62  332.41
  -7  -6   6 2873.96  397.64
  -2   4 -1111460.11  599.82
  -2   4 -1110718.84  674.84
   2  -4  1110550.76  636.47
   2  -4  1110890.63  559.06
  -6  -5  11   43.60  343.94
  -6  -5  11 1243.51  219.89
  -6  -7   4 1803.72  258.43
  -6  -7   4 1997.25  448.00
  -6  -7   4 2411.86  419.01
   4   2 -13 3825.66  270.83
  -4  -2  13 1049.63  785.71
  -4  -2  13 3993.64  421.45
   2 -10  -5 2513.32  433.91
   0  -4  1212675.55  654.33
   0  -4  1212550.40  642.61
   0   4 -1213338.58  722.57
   2 -10  -5 3061.26  296.71
  -2  10   5 2645.05  282.20
  -2  10   5 2376.41  389.53
   0   4 -1212835.27  680.91
   9 -10  -7  126.29  135.40
   9 -10  -7  -61.62  156.72
  -9  10   7  188.58  187.33
  -9  10   7  217.19  219.91
  -5   4  12 9671.72  502.15
   5  -4 -12 9388.02  394.01
  -5   4  12 9831.05  503.31
  -5   4  1210407.72  414.09
   5  -4 -12 8677.60  437.71
  -5   4  1210281.63  600.31
   5 -10  -7 2740.44  306.84
  -2  12   0 2320.02  253.76
  -5  10   7 2880.90  182.80
  -2 -10   7 1497.17  165.93
  -5  10   7 2703.76  211.83
   2 -12   0 2521.39  317.66
  -3  -8  10 8663.90  817.61
   2 -12   0 2122.07  325.63
   5 -10  -7 2464.09  188.83
  -2 -10   7 1450.40  501.79
  -5  10   7 2496.41  180.01
  -2 -10   7 1388.96  282.75
   2 -12   0 2714.31  227.33
  -3  -8  10 9809.48  467.29
  -3  -8  10 9345.87  482.22
  -5  10   7 2368.15  421.18
   2  10  -7 1542.08  152.09
   5 -10  -7 2320.07  191.83
  -7  -6   5 4775.10  301.70
  -7  -6   5 5199.65  299.95
  -7  -6   5 4732.44  560.23
  -1  10   4 2083.09  365.67
  -6  -7   7   40.56   89.12
  -1  10   4 2091.92  294.42
 -11   6   0 3410.22  253.08
   1 -10  -4 2072.70  384.15
   1 -10  -4 2154.23  312.92
 -11   6   0 3405.09  424.85
  11  -6   0  -27.41  161.25
  -6  -7   7    4.94   92.38
  -9  -2  10 -123.48  150.09
  -9  -2  10   94.45   99.38
  -9  -2  10  141.46  102.93
  -9  -2  10   53.97   82.11
 -11   7   015201.08 1077.82
  11  -7   013858.08  571.51
 -11   7   017090.25  808.91
 -11   7   016253.23  587.13
   3   5   6 7336.61 1076.94
  -3  -5  -6 7662.55 1088.50
  -3  -5  -6 7493.55  608.93
   3   5   6 7615.78  602.96
  -4   0  13 1912.48  353.64
   4   0 -13 2115.12  205.87
  -4   0  13 1486.74  195.12
  -4   0  13 1966.57  307.17
   2  -5  11    6.86  165.83
  -7  -4  11  129.46   66.26
  -7  -4  11    1.35  120.58
   2  -5  11  259.99  178.56
  -2   5 -11  357.19  203.76
  -2   5 -11    0.77  171.49
  -7  -4  11  -40.63   97.24
  -7  -4  11   61.95  107.39
   6 -12   4 2913.92  308.96
   6 -12   4 2683.09  438.26
  -6  12  -4 3513.62  391.67
   6 -12   4 3144.58  286.47
  -6   0  1310085.24 1041.40
 -10  11   2 3644.72  438.89
  10 -11  -2 3274.46  434.17
  -6   0  13 9304.98  667.80
  10 -11  -2 3368.60  308.04
 -10  11   2 3577.47  390.03
  -1 -11   4 2717.67  651.05
   7 -11  -6 7393.52  375.72
  -7  11   6 7556.57  417.87
  11  -9  -6  105.15  401.67
 -11   9   6  444.08  232.85
  11  -9  -6  484.64  223.55
  -1 -11   4 2519.74  367.43
 -11   9   6  449.03  255.29
  -7  11   6 7384.79  583.53
   7 -11  -6 7561.56  943.07
  -9   5  -4 2393.04  259.08
  -9   5  -4 2561.50  291.84
  -9   5  -4 2615.28  194.85
  -9   5  -4 2601.89  256.63
   0   2 -12 2920.28  343.59
  -8  -4   2 6648.11  557.10
   0  -2  12 2977.25  364.94
  -1   7   8    4.51  107.76
   9  -5   4 2389.91  205.24
   0   2 -12 2612.19  350.82
  -8  -4   2 6004.49  349.85
   8   4  -2 5571.49  295.82
   1  -7  -8  133.87  150.82
   0  -2  12 3266.91  332.24
   0  -2  12 3088.13  374.97
   1  -7  -8  -59.31  331.56
   9  -5   4 2915.01  247.93
  -2 -10   116280.02  773.22
  -2 -10   115701.17  768.34
 -11   1   4   -9.85  737.75
  -2 -10   116448.89  964.70
   2  10  -113966.00  590.44
 -11   1   4 4604.75  454.79
 -10  11   3 6365.83  516.09
 -10  11   3 6700.99  524.29
  10 -11  -3 6794.08  431.05
  10 -11  -3 6413.76  552.00
  -1   7 -11  126.96  195.60
  -8  -1  12  872.69  249.28
  -5  -2  13  -23.42  202.19
  -1   7 -11   19.95  171.33
  -5  -2  13    1.87  215.77
  -2  12  -5  -37.64  103.41
  -5  -2  13  300.76  102.11
  -2   3 -11 2068.83  637.33
   1  -7  11  461.52  241.09
  -2   3 -11 2391.50  305.18
   2 -12   5  266.42  274.94
  -8  -1  12  973.38  261.14
   2  -3  11  -28.28  363.37
   2 -12   5  -17.95  113.25
   2  -3  11 2225.04  483.97
   5   2 -13   -7.30   63.73
   1  -7  11  342.38  248.10
   2 -12   5  180.67  258.90
   2   7   5  277.34  242.92
  -2  -7  -5  -10.17  260.29
   2   7   5  482.18  253.19
  -3  -8  -2 3022.04  336.75
   3   8   2 2549.93  366.19
  -3  -8  -2  -15.15  390.45
  -2  -7  -5  454.56  209.68
   3   8   2 2342.73  403.62
  -2  -4  -812428.58  698.14
   2   4   812562.42  666.02
  -4  -1  -817631.50  668.76
   4   7   2 1641.08  315.88
   4   1   818268.65  688.08
  -4  -7  -2 1667.74  336.95
  -2  -4  -813977.78 1230.33
   0  -8  -6    4.79  270.17
   0   8   6  947.70  523.23
   4   1   816765.57  898.91
   2   4   812806.25 1308.79
  -4  -1  -818375.67  842.64
  -4  -7  -2 1582.39  399.59
   4   7   2  894.76  608.83
   0   8   6  852.25  479.40
   0  -8  -6  606.45  206.59
  -7  12  -3 1066.59  263.49
   7 -12   3  397.67  311.78
   7 -12   3  705.71  160.84
   7 -12   3  962.94  286.60
  -4  -9   5  195.25  168.14
  -4  -9   5  223.64  291.18
  11  -6  -9 2915.65  365.68
  11  -6  -9 2311.74  351.37
  -7  -6   7 2988.68  158.99
 -11   2   9 9820.49  425.52
  -7  -6   7 3095.10  382.77
 -11   6   9 2933.13  376.57
 -11   2   9 9738.54  866.05
  -7  -6   7 2961.30  329.79
  -7  -6   7 3428.64  230.84
 -11   2   9 9191.68  742.17
 -11   6   9 3025.29  643.46
 -11   9   1 1706.11  619.42
  -7  -5   119906.21  740.25
   7   5  -117878.38  627.44
 -11   9   1 2912.47  318.84
  11  -9  -1 1775.84  340.10
  -7  -5   119695.47  962.74
  11  -9  -1 2330.78  290.56
 -11   9   1 1904.34  334.99
 -10   0  10  119.57  128.49
  -1 -11   3   65.75  130.13
   1   0  1113835.62  737.11
   1   0  1113850.77  811.26
   1   0  1114924.08  625.01
   1  11  -3  169.66  167.78
  -1 -11   3   38.36  134.86
  -1   0 -1113577.15  391.64
  -1 -11   3    2.59   54.62
 -10  -1   3  554.88  111.69
  -8   3  -5 9794.28  480.67
 -10  -1   3  359.31  245.55
   8  -3   5 9230.73  504.81
  -8   3  -5 9562.54  489.37
  10   1  -3  523.17   83.06
   8  -3   5 8653.95  261.85
 -10  -1   3   15.61  244.47
  -8   3  -5 9829.34  271.76
  -8   3  -5 9551.28  471.75
  -5   1  1313893.06  778.05
   5  -1 -1312533.11  373.97
  -5   1  1314310.36  722.50
 -12   6   5 5324.53  593.64
  -5   1  1313159.13  411.34
   0  -5  -9 7113.39  859.48
  12  -6  -5 4710.58  352.57
   3   1   9 7823.66  627.71
 -12   6   5 5836.80  624.08
  -3  -1  -9 7678.86  571.46
 -12   6   5 6213.80  907.95
   0   5   9 6663.87  464.21
   0  -5  -9 6353.49  498.72
   0   5   9 6199.81  514.83
  -3  -1  -9 7261.77  394.62
   3   1   9 7265.11  383.32
  12  -6  -5 4571.41  805.89
  -8   9  -5 3705.84  344.96
   4   8   011202.63  586.48
   8  -9   5 3582.53  304.65
   8  -9   5 3184.03  420.86
  -4  -8   012524.73  668.78
   4   8   010707.49  601.40
  -8   9  -5 3232.79  360.96
  -4  -8   012300.66  700.73
  -8   9  -5 3187.44  183.54
  -8   9  -5 3433.17  265.18
  -8   1  -414924.11  726.95
   8  -4 -12 3772.07  290.22
  -8   1  -416712.56  752.75
  -8   4  12 4501.66  284.13
  -8   4  12 4700.14  473.54
  -8   4  12 4212.98  506.58
   8  -1   414411.46  671.90
  -8   1  -416159.21  996.90
 -11   1   8 8490.57  314.83
   8   3   0   30.12  101.94
  -5  -8   7 6782.24  398.85
  -4  11   519542.42 1426.43
  -8  -3   0  266.16  250.04
  -4  11   519839.60  598.95
  -9  -1  11   66.22  111.78
 -11   1   8 8642.27  446.27
  -3  -2  13 3794.19  407.66
  -8  -3   0  289.80  156.66
   4 -11  -520905.99  895.77
 -11   1   8 8363.34  520.10
  -7   2  -6  160.30  130.75
   4 -11  -520922.82  454.00
  -7   2  -6   31.89  145.65
  -5  -8   7 6964.88  386.36
  -7   2  -6   29.19  220.41
  -5  -6  11 2484.57  293.50
  -5  -6  11 2565.21  225.62
   3   2 -13 3053.76  299.87
  -5  -6  11 2301.81  278.25
  -3  -2  13 3606.20  290.02
   4 -11  -519169.33  621.75
   7  -2   6 -119.28  170.48
  -3  -2  13 3158.50  449.22
  -4  11   519334.40  484.72
   4 -11  -519837.72  627.27
  -9  -1  11   35.97  122.59
  -1  11   2 2175.52  309.83
   1 -11  -2 2630.38  326.23
  -1  11   2 2179.79  554.45
  -5   9  -8 5617.71  567.04
   5  -9   8 6573.25  587.84
   1 -11  -2 2096.24  328.86
   1 -11  -2 1966.41  326.45
   5  -9   8 6534.64  521.83
  -5   9  -8 5797.00  477.79
  -6   1  13 2615.61  371.18
  -6   1  13 2398.66  424.61
 -12   5   5  351.66  229.51
 -12   5   5   -5.01  231.65
  12  -5  -5  469.94  158.40
 -12   5   5  502.36  253.67
   2  -4 -1111427.71  518.12
  -6  -1  13  144.99  189.32
   2  -4 -1112051.61  517.56
  -2   4  1111962.26  564.13
  -6  -1  13   51.73  187.11
  -2   4  1112460.66  505.33
  -2   4  1112061.49  456.73
  -2   4  1111694.74  386.17
   3   4   7 1274.73  340.16
  -3  -4  -7 1039.75  296.59
   3   4   7  958.46  293.82
  -3  -4  -7  819.86  312.29
 -10   3  11    6.16  176.03
 -10   3  11  296.70  289.80
  -4  10  -8  404.64  235.49
  10  -3 -11  -44.47  185.25
   4 -10   8  306.36  286.62
  -4  10  -8  668.18  299.33
   4 -10   8  595.24  229.53
  -2  -6  12 5320.10  414.96
   3   6   5 1211.00  327.75
   3   6   5 1405.60  350.48
  -2  -6  12 5825.86  888.97
  -2  -6  12 5726.55  520.11
   2   6 -12 5500.65  532.79
  -3  -6  -5 1087.98  356.60
  -3  -6  -5 1135.78  309.43
   2   6 -12 5736.54  456.83
   8 -11  -6 4932.62  347.44
   9  -8   413777.25  466.01
  -9   8  -414251.76  727.15
  -9   8  -414206.67  597.93
  -8  11   6 4472.78  396.27
  -8  11   6 5137.40  500.78
   9  -8   412220.03  602.64
   1  -3 -11 5219.14  377.10
   1  -3 -11 4848.42  323.50
  -1   3  11 5076.33  247.78
  -1   3  11 4996.83  315.86
  -1   3  11 5217.26  289.59
   8 -11  -6 4580.87  446.17
  -9   8  -413291.97  434.40
  -9   8  -414656.50  565.28
  -1   3  11 5487.98  427.75
  -5  -7   0  290.17  147.14
  -4  -9   4 3912.49  384.96
  -5  -7   0 -221.32  121.69
  -4  -9   4 3727.55  379.92
  -4  -9   4 4204.74  387.44
   5   7   0  205.11  168.09
  -3  -1  13  107.91  153.22
   5   7   0  -17.01  146.11
   4   9  -4 4013.82  248.82
  -3  -1  13   23.42  102.38
  -3  -1  13  -29.65  137.58
   3   1 -13   32.74  102.37
  11  -5   013905.83  678.39
  12  -5  -6 1029.37  284.75
   4 -11   7  414.38  257.82
  -4  11  -7  248.23  236.86
  -1 -11   5   35.49  164.87
   4 -11   7  254.34  239.61
  -4  11  -7  238.10  203.77
 -11   5   015128.58  814.10
 -12   5   6 1028.35  330.60
   1  -8  -7 3240.39  785.87
  -1 -11   5   96.98  156.68
   4 -11   7  355.97  200.22
  -1   8   7 3043.68  773.42
   1  -8  -7 2762.47  324.07
 -12   5   6 1165.98  320.19
 -11   5   014093.44  714.62
  -1   8   7 3659.56  374.27
 -11   5   014660.79  426.43
  12  -5  -6 1011.35  204.38
   1 -12   3   11.13  172.84
   1 -12   3  233.25  175.64
 -10  -1   9 6226.92  466.89
 -10  -1   9 5998.90  324.14
 -10  -1   9 6585.68  258.90
 -10  -1   9 5655.20  615.06
   7 -12  -4 8721.55  410.42
  -7  12   4 8803.07  447.10
  -7  12   4 7997.95  570.84
  -4   8   9  422.37  173.74
   4  -8  -9  137.11  116.28
   7 -12  -4 8494.49  417.53
   4  -8  -9  188.35  196.67
  -4   8   9   26.36  173.39
  -4   8   9 -130.55   90.97
   7 -12  -4 9157.84  880.28
   7 -12  -4 8221.48  411.04
  -4   8   9  213.94   79.29
  10  -4   2  413.27  118.54
  -3  10   6 3717.33  443.30
 -10   4  -2   55.14  248.12
   3 -10  -6 3679.38  310.38
   3 -10  -6 3957.55  483.76
 -10   4  -2   16.10  124.98
  10  -4   2  380.70  160.59
 -10   4  -2   15.31  128.62
  -3  10   6 3555.43  287.28
   5  -6 -11  -35.13  225.60
  -5   6  11  101.97  133.53
   5  -6 -11 1033.83  121.24
  -5   6  11   23.09  130.97
   4  -1   9 2572.68  166.18
   6 -11  -6    3.92   87.97
   6 -11  -6  -64.59  114.83
  -4   1  -9 2136.58  193.03
   4  -1   9 2030.76  172.75
  -6  -6  10  145.65   95.21
  -4   1  -9 1717.56  354.24
  -6  -6  10    1.57   92.80
   4  -1   9 2076.44  218.54
 -10   1   0 1617.98  391.61
 -10   1   0 1637.26  173.19
  10  -1   0 1295.37  148.68
  -6  -6  10  310.61   95.07
  -4   1  -9 2035.84  199.28
  -4   1  -9 2230.03  175.66
   6 -11  -6  117.98   68.60
  -6  11   6   69.15  110.60
  -6  -6  10  -17.43  193.62
  -6  11   6  241.58  190.64
   6 -11  -6  222.87  166.15
 -10  10  -1  336.73  364.07
 -12   6   4 1338.86  650.59
 -12   6   4 1075.30  560.87
  12  -6  -4 1329.43  222.76
  10 -10   1  319.22   87.88
 -12   6   611728.98  758.69
  12  -6  -610983.58  664.03
  10 -10   1  434.53  231.22
 -12   6   611920.86  711.94
 -10  10  -1  705.10  165.69
  12  -6  -611242.39  537.45
  10 -10   1  336.26  137.58
 -10  10  -1   20.88  141.56
 -12   6   611608.12  538.94
  -4  -9   6 2914.29  332.25
   1  -6  -9 4180.85  429.07
  -5   1  -8 5913.73  328.08
   5  -1   8 6485.20  549.65
  -5   1  -8 6241.18  479.24
   5  -1   8 6030.23  214.70
  -5   1  -8 5365.08  327.86
  -4  -9   6 2959.96  319.15
  -1   6   9 4291.45  419.71
  -1   6   9 4482.53  416.79
   1  -6  -9 3842.17  387.32
  -7  -6   4   26.72  104.36
  10 -11  -1 1901.01  392.77
 -10  11   1 1190.77  503.41
  -7  -6   4  -69.36  182.51
  -7  -6   4  148.58  131.80
  10 -11  -1 2381.90  262.68
 -10  11   1 1932.69  349.29
  -6  -4  12  239.38  300.92
  -6  -4  12  189.21  170.93
  -6  -4  12  266.68  174.80
   9 -10   312835.53 1207.30
   9 -10   312922.94  463.13
  -9  10  -311554.70  625.93
  -9  10  -311815.32  380.21
  -9  10  -312381.46  431.99
  -9  10  -313846.25  500.96
  -6  -3  -4 1000.00  291.81
   0  -9  10 5118.57  444.63
  -6  -3  -4 1026.75  296.96
   0   9 -10 4601.57  462.73
   0   9 -10 4941.76  527.86
   0  -9  10 4742.11  870.20
   6   3   4  839.13  291.78
  -6  -3  -4  609.57  321.22
   6   3   4 1118.55  321.50
   0   5 -12 5139.82  503.83
   0  -5  12 5360.96  481.74
  -3   3  12   21.30  124.28
   2  -2 -12   -0.60  186.78
  -2   2  12    5.58   96.31
   2  -2 -12 1219.85  136.78
   0  -5  12 4963.00  772.77
   0   5 -12 4653.17  499.09
  -3   3  12    3.32  102.54
  -3   3  12  583.09  264.12
   3  -3 -12  683.14  144.00
  -2   2  12   -7.26   79.38
   3  -3 -12  609.45  256.66
  -3   3  12  743.46  223.12
   1   8   513357.90  771.63
  -1  -8  -513947.05  729.52
   1   8   513999.31  761.00
  -1  -8  -513555.74  856.36
 -11   8   0  394.53  360.55
  -7  -5  10  702.44  126.97
  -7  -5  10  632.39  189.32
  -4  -3  13 7578.03  601.34
  -7  -5  10  715.75  113.29
  -4  -3  13 7799.23  573.05
 -11   8   0  -32.01  300.43
 -10   2  11 1706.54  312.93
   4   3 -13 7591.19  376.72
  -7  -5  10  639.97  161.09
  10  -2 -11 2163.48  235.93
 -11   8   0  369.72  164.48
  -4  -3  13 7362.95  376.76
 -10   2  11 1618.57  297.84
  11  -8   0   34.64  216.55
  -5  12  -5 6109.12  466.43
   5 -12   5 6654.83  737.10
   5 -12   5 6667.35  479.85
   5 -12   5 6644.12  577.47
 -11   2   2   -3.43  314.93
 -11   2   2 2218.41  345.98
  -6  12   4 8767.05  576.28
  -6  12   4 8894.35  404.82
   6 -12  -4 8600.64  314.68
  -5  -8   312972.57 1013.58
   6 -12  -4 9039.56  484.45
   6 -12  -4 8651.08  523.64
   6 -12  -4 8547.78  356.92
   5   8  -310550.79  482.93
  -5  -8   312969.54  539.80
  -5  -8   312470.76  606.65
   6  -6   8  524.87  207.17
   6  -6   8    0.97  314.20
  -1  -4  -9 9317.76  553.38
  -1  -4  -9 9003.29  625.64
  -6   6  -8  667.51  270.17
  -6   6  -8  718.34  192.81
   1   4   9 8791.99  651.19
   1   4   9 9175.06  522.23
  10 -11  -4 3570.98  455.66
 -10  11   4 3915.09  448.15
   0  10   3  472.51  226.83
  10 -11  -4 4322.86  400.58
 -11   3   1 8845.85  635.71
   0 -10  -3  -10.27  235.61
   0 -10  -3  608.98  210.05
 -10  11   4 4340.81  469.81
   1 -12   2  454.89  233.30
   1 -12   2  711.07  175.28
   1 -12   2  426.13  236.14
 -11   3   1 9592.32  704.78
   0  10   3  292.99  200.17
  -1  12  -2  197.80  101.19
   9   2  -1 4873.96  437.89
  -9  -2   1 5314.37  318.07
  -9  -2   1 4399.29  898.93
  -7   0  -5    0.61  154.90
  -1  12  -4  152.93  146.55
   1 -12   4    8.60   57.61
  -7   0  -5  -75.45  152.31
   7   0   5   35.10  152.46
   1 -12   4   79.60  126.12
  -7   0  -5 -124.17  147.12
   1 -12   4  -48.16  132.80
   0  11  -7   21.26   89.24
  -6   5  -8 3760.24  285.49
 -10   4  11 4105.77  443.50
 -10   4  11 3981.22  305.04
 -12   7   5  -79.90  153.46
   0 -11   7  661.18  272.12
   6  -5   8   -9.71  433.17
  -9   2  -311363.06  601.36
   0 -11   7  640.67  187.65
  -3  -3  13  758.80  322.58
  -6   5  -8 3250.37  169.61
  -3  -3  13  772.16  302.70
  -9   2  -310011.80  437.47
 -12   7   5    2.40  118.54
  -6   5  -8 3504.84  176.14
  12  -7  -5  182.28  237.53
   6  -5   8 3457.70  352.60
   0 -11   7  517.80  240.70
  -9   2  -310591.41  629.07
  12  -7  -5 -130.62  292.04
  -3  -3  13  729.41  285.42
  10  -4 -11 3468.89  308.13
  -6   5  -8 3926.63  408.99
   3   3 -13  695.69  197.68
   9  -2   3 9399.19  459.64
 -12   5   4 2955.79  872.40
  12  -5  -4 2464.36  230.75
  -4   9   818616.82  438.61
   4  -9  -817087.64  550.33
  -4   9   819062.00  908.67
 -12   5   4 2391.15  410.21
  -4   9   817872.94  506.33
   4  -9  -818585.99  908.62
  -4   9   818259.04  559.86
 -12   5   4 3149.85  241.33
   3 -12  -210475.44  515.21
  -1  10  -9   -2.96  371.47
  -1  10  -9 1935.34  283.34
   1 -10   9   17.36  124.88
   1   6 -12   45.63  157.85
  -1  -6  12   78.61  157.96
   1 -10   9  -12.24  114.09
   3 -12  -210814.43  859.68
  -3  12   210023.35  547.62
   3 -12  -210801.17  519.07
  -1  -6  12   83.15  182.27
   1   6 -12   -0.28  150.98
   3   9   016782.15  749.23
  -3  -9   018742.62  854.92
  -3  -9   018265.01  829.57
   3   9   016011.70  738.55
  -3  -9   019220.91  847.95
  -5  -1  -7  773.95  224.44
  -5  -1  -7  738.55  210.14
   5   1   7   35.33  532.81
  -5  -1  -7  663.98  273.26
   5   1   7  902.66  231.19
  -3  -6  1217669.88  806.70
  -7  -4  -1 2033.22  426.85
  -3  -6  1217778.90  833.00
   7   4   1   29.62  446.58
  -7  -4  -1 1967.35  290.29
   7   4   1 1958.98  347.17
   3   6 -1217160.36  810.55
  -3  -6  1216320.06 1018.33
  -7  -4  -1 1562.92  676.15
   3   6 -1217783.41 1098.25
  -2  -9  -2 6164.19  534.15
   2   9   2 5715.43  470.22
  -2  -9  -2 6127.72  959.87
   2   9   2 5075.20  511.99
  11 -10  -3 8905.29  608.31
  -4  12   3  610.26  247.90
   4 -12  -3  -15.23   86.86
  -4  12   3  823.81  122.42
   4 -12  -3    3.27   85.82
   2  -6  11  712.50  524.47
  11 -10  -3 7911.30  530.86
  -2   6 -11  699.04  367.13
   2  -6  11 1098.36  499.46
  -2   6 -11  -27.96  176.98
 -11  10   3 8512.78  591.10
 -11  10   3 9124.96 1078.79
  -6  -7   3 2299.10  569.41
  -6  -7   3 3203.93  315.32
  -9   2  12    8.93   54.13
 -12   7   4 2995.46  308.74
  -9   2  12 -111.28  208.11
  12  -7  -4 2349.25  550.16
   9  -2 -12  192.55  111.79
  -9  11  -2 3641.12  224.94
 -12   7   4 2414.83  477.55
  -9  11  -2 3652.92  254.39
 -12   7   4 2541.17  715.15
   9 -11   2 3235.37  225.83
  -9  11  -2 3615.11  267.88
  -5  -6  -2  365.92  438.11
  -5  -6  -2  230.04  210.44
   9 -11   2 3485.75  215.36
   5   6   2   20.68  180.00
   9 -11   2 2939.35  803.70
   5   6   2  243.33  204.84
  12  -7  -4 3089.15  396.32
   9 -11   2 3380.61  209.30
 -10   0   111665.93 1341.17
  -9  -3   3   -1.16   61.57
 -10   0   112504.34  432.22
 -10   0   112582.40 1220.70
  10   0  -111076.89  335.11
 -10   9  -2 3270.86  217.94
  -1   9 -10  -69.26  251.70
  10  -9   2 3191.25  185.47
   1  -9  10  198.68  203.68
  10  -9   2 2650.99  380.21
 -10   9  -2 2497.09  506.06
  10  -8  -915609.81 1264.44
 -10   8   915610.20  813.31
 -10   8   916530.45  801.95
 -10   9  -2 3277.93  256.86
 -10   9  -2 3167.48  351.95
  10  -8  -915567.55  794.24
  -1   9 -10   -0.35  177.03
   1  -9  10    4.83  176.69
  -9  12   2  414.09  205.04
  -9  12   2  332.61  408.89
  -1 -11   2 2231.37  181.98
  -1 -11   2 1715.26  352.39
  -1 -11   2 1963.71  357.84
   9 -12  -2  367.55  226.80
   1  11  -2 1901.26  215.66
   9 -12  -2  425.35  170.94
 -10   2  -1 9179.40  576.89
 -10   2  -1 9429.53  612.93
  10  -2   1 8343.19  324.13
 -10   2  -1 9857.12  687.99
  -9  12   1 2180.55  626.79
  -9  12   1 2669.19  537.86
 -10   9   8    6.11  200.48
 -10   9   8  223.92  186.26
  10  -9  -8  -42.32  164.43
   9 -12  -1 2630.31  245.56
   9 -12  -1 2412.62  396.96
  10  -9  -8  218.71  175.89
   6   2   5  840.23  535.62
   4  -1 -13    9.84   74.13
  -6  -2  -5 1131.04  296.87
  -4   1  13   46.34  152.77
  -6  -2  -5 1019.23  294.23
   6   2   5 1143.04  323.00
  -4   1  13  116.24  175.62
  -4   1  13  174.90  186.43
 -12   4   6 7396.79  346.21
  -6  -2  -5  621.02  281.81
 -11  10   4 3222.92  390.40
 -11  10   4 2197.07  422.90
  11 -10  -4 2366.94  343.08
  11 -10  -4 2435.01  396.53
  -4   7  1013582.59  461.37
   5  -5   9   -8.14  182.96
  -4   7  1014152.73  493.22
  -4   7  1014304.85  703.55
  -4   7  1014208.07  655.66
  -3   5  11 6467.28  561.99
  -7   6  -7  586.88  170.93
  -7   6  -7  622.64  107.68
   7  -6   7  434.35  168.68
  -5   5  -9 1037.99  293.61
   4  -7 -1013814.29  490.10
   4  -7 -1013352.88 1139.09
   7  -6   7  -13.82  145.96
   3  -5 -11 6731.39  545.75
   3  -5 -11 5767.89  408.66
   5  -5   9 1139.07  236.64
  -3   5  11 6341.17  401.51
  -3   5  11 6310.04  298.12
  -3   5  11 6652.20  371.95
  -7   6  -7  693.74   98.73
  -5   5  -9  947.86  206.91
  -7   6  -7   23.30  245.24
   6   4   3 8240.83  661.26
  -6  -4  -3 7668.81  695.69
  -6  -4  -3 8330.16  575.12
   6   4   3 8011.65  542.46
  -6  -4  -3 8755.90  639.63
  -8  12  -211858.62  415.07
   8 -12   211284.36  746.97
   8 -12   211428.35  326.82
   8 -12   210909.29  405.01
  -8  12  -211913.47  668.51
   8 -12   211570.89  420.12
  -2  -1 -10    1.81   87.37
  -2  -1 -10   63.72  134.90
   2   1  10   53.70  161.39
   2   1  10 -118.76   63.44
   2   1  10 -138.59  305.80
   2   1  10   27.13   72.13
   0  -1  12   51.65  121.28
   0  -1  12  -15.07  114.50
   8 -12  -4    4.35  115.61
  -2   2 -1115536.83  625.42
   8 -12  -4  -19.70  104.21
  -8  12   4  790.10  272.82
  -8  12   4  843.72  229.01
   0  -1  12    7.40   98.98
   0   1 -12  108.99  152.84
   2  -2  1114859.91  749.06
   2  -2  1114743.65  587.70
   2  -2  1114372.97  543.95
  -2   2 -1115542.79  746.01
;
_shelx_hkl_checksum              66914
_shelx_res_file
;
    shelxl.res created by SHELXL-2014/7
TITL 10061110
CELL  0.71075 8.62293 9.21849 9.43539 93.524 112.919 115.978
ZERR  2 0.00018 0.00019 0.00020 0.001 0.001 0.001
LATT 1
SFAC C H BR O N
UNIT 20 22 4 10 2
SHEL 99999.000000 0.000000
OMIT     9  -6   4
L.S. 15
FMAP 2
PLAN -22
WPDB -2
HTAB
BOND $H
CONF
LIST 4
TEMP -128.0
ACTA
SIZE 0.400 0.340 0.180
LIST 4
DFIX 0.8400 0.020 O2 H2
DFIX 0.8400 0.020 O4 H4
WGHT    0.020000    0.361100
FVAR       4.64574   0.52091
BR1   3    0.758118    0.696584    0.160866    11.00000    0.01574    0.01685 =
         0.01495    0.00055    0.00658    0.00556
BR2   3   -0.015701    0.167912    0.123238    11.00000    0.01706    0.01455 =
         0.02405    0.00865    0.00668    0.00653
O1    4    1.182429    0.982584    0.331896    11.00000    0.01610    0.01986 =
         0.01948    0.00498    0.01101    0.00807
O2    4    0.620595    0.767767    0.410355    11.00000    0.01080    0.01644 =
         0.01838    0.00145    0.00637    0.00303
H2    2    0.547498    0.698278    0.323000    21.00000   -1.50000
O3    4   -0.346530    0.228412   -0.086609    11.00000    0.01362    0.01576 =
         0.03083    0.00815    0.00681    0.00392
O4    4    0.337740    0.505863    0.192077    11.00000    0.01276    0.01382 =
         0.01948    0.00375    0.00351    0.00508
H4    2    0.429901    0.602868    0.231244   -21.00000   -1.50000
O5    4    0.824225    0.263794    0.422613    11.00000    0.01668    0.02579 =
         0.02400    0.00375    0.00792    0.01298
N1    5    0.487336    0.294443    0.328525    11.00000    0.01459    0.02097 =
         0.02440    0.01177    0.01055    0.01080
C1    1    1.092155    0.986228    0.404535    11.00000    0.01241    0.01267 =
         0.01499    0.00575    0.00606    0.00691
C2    1    0.890476    0.867606    0.353065    11.00000    0.01241    0.01335 =
         0.01339    0.00254    0.00507    0.00556
C3    1    0.797515    0.872068    0.440869    11.00000    0.01127    0.01249 =
         0.01512    0.00492    0.00465    0.00639
C4    1   -0.185562    0.349788   -0.045578    11.00000    0.01675    0.01311 =
         0.01608    0.00281    0.00832    0.00628
C5    1   -0.004051    0.358432    0.056295    11.00000    0.01557    0.01229 =
         0.01612    0.00471    0.00708    0.00668
C6    1    0.173131    0.496848    0.102573    11.00000    0.01659    0.01387 =
         0.01388    0.00209    0.00755    0.00598
C7    1    0.681217    0.427347    0.458711    11.00000    0.01947    0.01715 =
         0.02228    0.00593    0.01071    0.00948
AFIX  23
H7A   2    0.663895    0.483861    0.539318    11.00000   -1.20000
H7B   2    0.749476    0.512809    0.413473    11.00000   -1.20000
AFIX   0
C8    1    0.800557    0.347893    0.537091    11.00000    0.01874    0.02509 =
         0.01768    0.00515    0.00662    0.01287
AFIX  23
H8A   2    0.929962    0.435826    0.622756    11.00000   -1.20000
H8B   2    0.734919    0.266660    0.586827    11.00000   -1.20000
AFIX   0
C9    1    0.638693    0.130735    0.303544    11.00000    0.02089    0.01846 =
         0.02547    0.00280    0.00726    0.01081
AFIX  23
H9A   2    0.574800    0.051511    0.355569    11.00000   -1.20000
H9B   2    0.656728    0.068320    0.227820    11.00000   -1.20000
AFIX   0
C10   1    0.509700    0.197684    0.212353    11.00000    0.01851    0.02064 =
         0.01893    0.00216    0.00473    0.00931
AFIX  23
H10A  2    0.568718    0.271630    0.154482    11.00000   -1.20000
H10B  2    0.380583    0.103380    0.132722    11.00000   -1.20000
AFIX   0
H1A   2    0.424644    0.342417    0.277680    11.00000    0.02384
H1B   2    0.422327    0.224300    0.364602    11.00000    0.03041
HKLF 4
REM  10061110
REM R1 =  0.0175 for    3181 Fo > 4sig(Fo)  and  0.0210 for all    3473 data
REM    178 parameters refined using      2 restraints
END
WGHT      0.0200      0.3611
REM Instructions for potential hydrogen bonds
EQIV $1 -x, -y+1, -z
HTAB O2 O3_$1
HTAB O2 O4
HTAB O4 Br1
HTAB O4 O2
EQIV $2 -x+1, -y+1, -z+1
HTAB C7 O4_$2
HTAB C7 Br1
EQIV $3 x+1, y, z
HTAB C9 Br2_$3
EQIV $4 -x, -y, -z
HTAB C10 Br2_$4
HTAB N1 Br2
HTAB N1 O4
EQIV $5 x-1, y-1, z
HTAB N1 O1_$5
HTAB N1 O2_$2
REM Highest difference peak  0.475,  deepest hole -0.441,  1-sigma level  0.079
Q1    1   0.7303  0.3779  0.4882  11.00000  0.05    0.48
Q2    1   0.9926  0.9210  0.3820  11.00000  0.05    0.44
Q3    1  -0.1033  0.3526  0.0019  11.00000  0.05    0.44
Q4    1  -0.0432  0.2013  0.1758  11.00000  0.05    0.44
Q5    1   1.1402  1.0571  0.4857  11.00000  0.05    0.43
Q6    1  -0.1847  0.4165 -0.0763  11.00000  0.05    0.43
Q7    1   0.0899  0.4225  0.0816  11.00000  0.05    0.42
Q8    1   0.8496  0.8510  0.4096  11.00000  0.05    0.42
Q9    1   0.8041  0.6620  0.2075  11.00000  0.05    0.40
Q10   1   0.5637  0.1545  0.2624  11.00000  0.05    0.37
Q11   1   0.8005  0.2910  0.4724  11.00000  0.05    0.33
Q12   1   0.6932  0.6403  0.0983  11.00000  0.05    0.31
Q13   1   0.7267  0.7269  0.1950  11.00000  0.05    0.30
Q14   1  -0.0827  0.0627  0.0801  11.00000  0.05    0.30
Q15   1   0.7264  0.2022  0.3633  11.00000  0.05    0.28
Q16   1   0.7106  0.8104  0.4230  11.00000  0.05    0.28
Q17   1   0.5842  0.3712  0.3841  11.00000  0.05    0.28
Q18   1   0.7125  0.7602  0.1217  11.00000  0.05    0.28
Q19   1   0.8197  0.3186  0.3952  11.00000  0.05    0.28
Q20   1   0.0509  0.2213  0.2355  11.00000  0.05    0.27
Q21   1   1.1226  0.9449  0.2596  11.00000  0.05    0.27
Q22   1   0.3479  0.4339  0.1974  11.00000  0.05    0.27
;
_shelx_res_checksum              69391
loop_
_symmetry_equiv_pos_site_id
_symmetry_equiv_pos_as_xyz
1 +X,+Y,+Z
2 -X,-Y,-Z
loop_
_atom_site_type_symbol
_atom_site_label
_atom_site_fract_x
_atom_site_fract_y
_atom_site_fract_z
_atom_site_U_iso_or_equiv
_atom_site_adp_type
_atom_site_calc_flag
_atom_site_occupancy
Br Br1 0.75812(2) 0.69658(2) 0.16087(2) 0.01737(4) Uani d 1
Br Br2 -0.01570(2) 0.16791(2) 0.12324(2) 0.02003(5) Uani d 1
O O1 1.18243(15) 0.98258(14) 0.33190(13) 0.0179(2) Uani d 1
O O2 0.62059(15) 0.76777(13) 0.41035(13) 0.0172(2) Uani d 1
H H2 0.547(5) 0.698(4) 0.323(3) 0.026 Uiso d 0.52(3)
O O3 -0.34653(16) 0.22841(14) -0.08661(15) 0.0227(2) Uani d 1
O O4 0.33774(15) 0.50586(13) 0.19208(13) 0.0175(2) Uani d 1
H H4 0.430(5) 0.603(3) 0.231(5) 0.026 Uiso d 0.48(3)
O O5 0.82422(16) 0.26379(15) 0.42261(14) 0.0219(2) Uani d 1
N N1 0.48734(19) 0.29444(17) 0.32852(17) 0.0183(2) Uani d 1
C C1 1.0922(2) 0.98623(17) 0.40454(17) 0.0131(2) Uani d 1
C C2 0.8905(2) 0.86761(17) 0.35306(17) 0.0138(2) Uani d 1
C C3 0.7975(2) 0.87207(17) 0.44087(17) 0.0133(2) Uani d 1
C C4 -0.1856(2) 0.34979(18) -0.04558(17) 0.0156(3) Uani d 1
C C5 -0.0041(2) 0.35843(17) 0.05629(17) 0.0149(3) Uani d 1
C C6 0.1731(2) 0.49685(18) 0.10257(17) 0.0154(3) Uani d 1
C C7 0.6812(2) 0.42735(19) 0.45871(19) 0.0191(3) Uani d 1
H H7A 0.6639 0.4839 0.5393 0.023 Uiso calc 1
H H7B 0.7495 0.5128 0.4135 0.023 Uiso calc 1
C C8 0.8006(2) 0.3479(2) 0.53709(19) 0.0204(3) Uani d 1
H H8A 0.9300 0.4358 0.6228 0.025 Uiso calc 1
H H8B 0.7349 0.2667 0.5868 0.025 Uiso calc 1
C C9 0.6387(2) 0.1307(2) 0.3035(2) 0.0227(3) Uani d 1
H H9A 0.5748 0.0515 0.3556 0.027 Uiso calc 1
H H9B 0.6567 0.0683 0.2278 0.027 Uiso calc 1
C C10 0.5097(2) 0.1977(2) 0.21235(19) 0.0212(3) Uani d 1
H H10A 0.5687 0.2716 0.1545 0.025 Uiso calc 1
H H10B 0.3806 0.1034 0.1327 0.025 Uiso calc 1
H H1A 0.425(3) 0.342(3) 0.278(3) 0.024(5) Uiso d 1
H H1B 0.422(3) 0.224(3) 0.365(3) 0.030(6) Uiso d 1
loop_
_atom_site_aniso_label
_atom_site_aniso_U_11
_atom_site_aniso_U_22
_atom_site_aniso_U_33
_atom_site_aniso_U_12
_atom_site_aniso_U_13
_atom_site_aniso_U_23
Br1 0.01574(7) 0.01685(7) 0.01495(7) 0.00556(6) 0.00658(5) 0.00055(5)
Br2 0.01706(8) 0.01455(7) 0.02405(8) 0.00653(6) 0.00668(6) 0.00865(6)
O1 0.0161(5) 0.0199(5) 0.0195(5) 0.0081(4) 0.0110(4) 0.0050(4)
O2 0.0108(5) 0.0164(5) 0.0184(5) 0.0030(4) 0.0064(4) 0.0015(4)
O3 0.0136(5) 0.0158(5) 0.0308(6) 0.0039(4) 0.0068(5) 0.0081(4)
O4 0.0128(5) 0.0138(5) 0.0195(5) 0.0051(4) 0.0035(4) 0.0038(4)
O5 0.0167(5) 0.0258(6) 0.0240(6) 0.0130(5) 0.0079(4) 0.0038(5)
N1 0.0146(6) 0.0210(6) 0.0244(7) 0.0108(5) 0.0105(5) 0.0118(5)
C1 0.0124(6) 0.0127(6) 0.0150(6) 0.0069(5) 0.0061(5) 0.0057(5)
C2 0.0124(6) 0.0134(6) 0.0134(6) 0.0056(5) 0.0051(5) 0.0025(5)
C3 0.0113(6) 0.0125(6) 0.0151(6) 0.0064(5) 0.0046(5) 0.0049(5)
C4 0.0168(7) 0.0131(6) 0.0161(6) 0.0063(5) 0.0083(5) 0.0028(5)
C5 0.0156(6) 0.0123(6) 0.0161(6) 0.0067(5) 0.0071(5) 0.0047(5)
C6 0.0166(7) 0.0139(6) 0.0139(6) 0.0060(5) 0.0076(5) 0.0021(5)
C7 0.0195(7) 0.0172(7) 0.0223(7) 0.0095(6) 0.0107(6) 0.0059(6)
C8 0.0187(7) 0.0251(7) 0.0177(7) 0.0129(6) 0.0066(6) 0.0051(6)
C9 0.0209(7) 0.0185(7) 0.0255(8) 0.0108(6) 0.0073(6) 0.0028(6)
C10 0.0185(7) 0.0206(7) 0.0189(7) 0.0093(6) 0.0047(6) 0.0022(6)
loop_
_atom_type_symbol
_atom_type_description
_atom_type_scat_dispersion_real
_atom_type_scat_dispersion_imag
_atom_type_scat_source
C C 0.0033 0.0016
;
International Tables for Crystallography
(1992, Vol. C, Tables 4.2.6.8 and 6.1.1.4)
;
H H 0.0000 0.0000
;
International Tables for Crystallography
(1992, Vol. C, Table 6.1.1.4)
;
Br Br -0.2901 2.4595
;
International Tables for Crystallography
(1992, Vol. C, Tables 4.2.6.8 and 6.1.1.4)
;
O O 0.0106 0.0060
;
International Tables for Crystallography
(1992, Vol. C, Tables 4.2.6.8 and 6.1.1.4)
;
N N 0.0061 0.0033
;
International Tables for Crystallography
(1992, Vol. C, Tables 4.2.6.8 and 6.1.1.4)
;
loop_
_geom_angle_atom_site_label_1
_geom_angle_atom_site_label_2
_geom_angle_atom_site_label_3
_geom_angle_site_symmetry_3
_geom_angle
C3 O2 H2 . 118(3)
C6 O4 H4 . 113(3)
C8 O5 C9 . 109.77(12)
C7 N1 C10 . 110.93(12)
C7 N1 H1A . 108.5(14)
C10 N1 H1A . 108.6(14)
C7 N1 H1B . 111.9(16)
C10 N1 H1B . 106.6(15)
H1A N1 H1B . 110(2)
O1 C1 C2 . 124.48(13)
O1 C1 C3 2_776 117.39(12)
C2 C1 C3 2_776 118.13(12)
C3 C2 C1 . 122.62(13)
C3 C2 Br1 . 120.30(11)
C1 C2 Br1 . 117.03(10)
O2 C3 C2 . 127.87(13)
O2 C3 C1 2_776 112.96(12)
C2 C3 C1 2_776 119.17(12)
O3 C4 C5 . 124.23(13)
O3 C4 C6 2_565 118.58(13)
C5 C4 C6 2_565 117.19(12)
C6 C5 C4 . 122.86(13)
C6 C5 Br2 . 119.20(11)
C4 C5 Br2 . 117.92(10)
O4 C6 C5 . 123.68(13)
O4 C6 C4 2_565 116.36(12)
C5 C6 C4 2_565 119.95(13)
N1 C7 C8 . 109.23(12)
N1 C7 H7A . 109.8
C8 C7 H7A . 109.8
N1 C7 H7B . 109.8
C8 C7 H7B . 109.8
H7A C7 H7B . 108.3
O5 C8 C7 . 110.62(13)
O5 C8 H8A . 109.5
C7 C8 H8A . 109.5
O5 C8 H8B . 109.5
C7 C8 H8B . 109.5
H8A C8 H8B . 108.1
O5 C9 C10 . 111.19(13)
O5 C9 H9A . 109.4
C10 C9 H9A . 109.4
O5 C9 H9B . 109.4
C10 C9 H9B . 109.4
H9A C9 H9B . 108.0
N1 C10 C9 . 108.74(13)
N1 C10 H10A . 109.9
C9 C10 H10A . 109.9
N1 C10 H10B . 109.9
C9 C10 H10B . 109.9
H10A C10 H10B . 108.3
loop_
_geom_bond_atom_site_label_1
_geom_bond_atom_site_label_2
_geom_bond_site_symmetry_2
_geom_bond_distance
Br1 C2 . 1.8807(14)
Br2 C5 . 1.8775(14)
O1 C1 . 1.2298(17)
O2 C3 . 1.2937(17)
O2 H2 . 0.82(3)
O3 C4 . 1.2231(18)
O4 C6 . 1.2997(18)
O4 H4 . 0.82(3)
O5 C8 . 1.4201(19)
O5 C9 . 1.428(2)
N1 C7 . 1.492(2)
N1 C10 . 1.493(2)
N1 H1A . 0.86(3)
N1 H1B . 0.85(3)
C1 C2 . 1.4377(19)
C1 C3 2_776 1.5282(19)
C2 C3 . 1.3684(19)
C4 C5 . 1.446(2)
C4 C6 2_565 1.518(2)
C5 C6 . 1.363(2)
C7 C8 . 1.509(2)
C7 H7A . 0.9900
C7 H7B . 0.9900
C8 H8A . 0.9900
C8 H8B . 0.9900
C9 C10 . 1.510(2)
C9 H9A . 0.9900
C9 H9B . 0.9900
C10 H10A . 0.9900
C10 H10B . 0.9900
loop_
_geom_hbond_atom_site_label_D
_geom_hbond_atom_site_label_H
_geom_hbond_atom_site_label_A
_geom_hbond_site_symmetry_A
_geom_hbond_distance_DH
_geom_hbond_distance_HA
_geom_hbond_distance_DA
_geom_hbond_angle_DHA
_geom_hbond_publ_flag
N1 H1A O4 . 0.86(3) 2.04(3) 2.888(2) 166(2) y
N1 H1B O1 1_445 0.85(3) 2.17(3) 2.938(2) 151(2) y
N1 H1B O2 2_666 0.85(3) 2.29(3) 2.959(2) 136(2) y
O2 H2 O4 . 0.82(3) 1.77(3) 2.5174(16) 153(4) y
O2 H2 O3 2_565 0.82(3) 2.58(3) 3.0628(17) 120(3) y
O4 H4 O2 . 0.82(3) 1.79(4) 2.5174(16) 147(4) y
C7 H7A O4 2_666 0.99 2.54 3.394(2) 145 y
C10 H10B Br2 2_555 0.99 2.90 3.8905(17) 175 y
loop_
_geom_torsion_atom_site_label_1
_geom_torsion_atom_site_label_2
_geom_torsion_atom_site_label_3
_geom_torsion_atom_site_label_4
_geom_torsion_site_symmetry_1
_geom_torsion_site_symmetry_4
_geom_torsion
O1 C1 C2 C3 . . 177.25(14)
C3 C1 C2 C3 2_776 . -3.4(2)
O1 C1 C2 Br1 . . -0.21(19)
C3 C1 C2 Br1 2_776 . 179.18(9)
C1 C2 C3 O2 . . -176.36(13)
Br1 C2 C3 O2 . . 1.0(2)
C1 C2 C3 C1 . 2_776 3.4(2)
Br1 C2 C3 C1 . 2_776 -179.22(9)
O3 C4 C5 C6 . . -178.65(15)
C6 C4 C5 C6 2_565 . 0.5(2)
O3 C4 C5 Br2 . . 2.6(2)
C6 C4 C5 Br2 2_565 . -178.23(10)
C4 C5 C6 O4 . . -178.92(13)
Br2 C5 C6 O4 . . -0.2(2)
C4 C5 C6 C4 . 2_565 -0.6(2)
Br2 C5 C6 C4 . 2_565 178.19(10)
C10 N1 C7 C8 . . -54.81(16)
C9 O5 C8 C7 . . -62.38(16)
N1 C7 C8 O5 . . 58.53(17)
C8 O5 C9 C10 . . 62.43(17)
C7 N1 C10 C9 . . 54.27(17)
O5 C9 C10 N1 . . -57.89(18)

_cod_database_fobs_code 2241104
