#------------------------------------------------------------------------------
#$Date: 2016-01-21 04:20:23 +0200 (Thu, 21 Jan 2016) $
#$Revision: 174633 $
#$URL: svn://www.crystallography.net/cod/cif/2/24/14/2241478.cif $
#------------------------------------------------------------------------------
#
# This file is available in the Crystallography Open Database (COD),
# http://www.crystallography.net/. The original data for this entry
# were provided by IUCr Journals, http://journals.iucr.org/.
#
# The file may be used within the scientific community so long as
# proper attribution is given to the journal article from which the
# data were obtained.
#
data_2241478
loop_
_publ_author_name
'Nithya, C.'
'Sithambaresan, M.'
'Kurup, M. R. Prathapachandra'
_publ_section_title
;
 Crystal structures of
 (1<i>E</i>,4<i>E</i>)-1,5-bis(5-bromothiophen-2-yl)-2,4-dimethylpenta-1,4-dien-3-one
 and (<i>E</i>)-4-(5-bromothiophen-2-yl)-1,3-diphenylbut-3-en-2-one
;
_journal_coeditor_code           BG2578
_journal_issue                   2
_journal_name_full               'Acta Crystallographica Section E'
_journal_page_first              199
_journal_page_last               202
_journal_paper_doi               10.1107/S205698901600058X
_journal_volume                  72
_journal_year                    2016
_chemical_formula_iupac          'C20 H15 Br O S'
_chemical_formula_moiety         'C20 H15 Br O S'
_chemical_formula_sum            'C20 H15 Br O S'
_chemical_formula_weight         383.29
_chemical_name_systematic
;
(<i>E</i>)-4-(5-Bromothiophen-2-yl)-1,3-diphenylbut-3-en-2-one
;
_space_group_crystal_system      triclinic
_space_group_IT_number           2
_space_group_name_Hall           '-P 1'
_space_group_name_H-M_alt        'P -1'
_symmetry_space_group_name_Hall  '-P 1'
_symmetry_space_group_name_H-M   'P -1'
_atom_sites_solution_hydrogens   geom
_atom_sites_solution_primary     direct
_atom_sites_solution_secondary   difmap
_audit_creation_method           SHELXL-2014/7
_cell_angle_alpha                99.510(3)
_cell_angle_beta                 97.673(3)
_cell_angle_gamma                101.956(3)
_cell_formula_units_Z            2
_cell_length_a                   7.5879(4)
_cell_length_b                   8.5361(6)
_cell_length_c                   14.0970(8)
_cell_measurement_reflns_used    3038
_cell_measurement_temperature    296(2)
_cell_measurement_theta_max      28.191
_cell_measurement_theta_min      2.488
_cell_volume                     867.58(9)
_computing_cell_refinement
;
APEX2 and SAINT (Bruker, 2004)
;
_computing_data_collection
;
APEX2 (Bruker, 2004)
;
_computing_data_reduction
;
SAINT and XPREP (Bruker, 2004)
;
_computing_molecular_graphics
;
ORTEP-3 for Windows (Farrugia, 2012) and DIAMOND (Brandenburg,
2010)
;
_computing_publication_material
;
SHELXL97 (Sheldrick, 2008) and publCIF (Westrip, 2010)
;
_computing_structure_refinement
;
SHELXL2014 (Sheldrick, 2015)
;
_computing_structure_solution
;
SHELXS97 (Sheldrick, 2008)
;
_diffrn_ambient_temperature      296(2)
_diffrn_measured_fraction_theta_full 0.984
_diffrn_measured_fraction_theta_max 0.955
_diffrn_measurement_device_type  'Bruker Kappa APEXII CCD'
_diffrn_measurement_method       '\w and \f scan'
_diffrn_radiation_monochromator  graphite
_diffrn_radiation_source         'fine-focus sealed tube'
_diffrn_radiation_type           MoK\a
_diffrn_radiation_wavelength     0.71073
_diffrn_reflns_av_R_equivalents  0.0249
_diffrn_reflns_limit_h_max       8
_diffrn_reflns_limit_h_min       -10
_diffrn_reflns_limit_k_max       11
_diffrn_reflns_limit_k_min       -7
_diffrn_reflns_limit_l_max       18
_diffrn_reflns_limit_l_min       -18
_diffrn_reflns_number            6863
_diffrn_reflns_theta_full        25.242
_diffrn_reflns_theta_max         28.414
_diffrn_reflns_theta_min         2.489
_exptl_absorpt_coefficient_mu    2.491
_exptl_absorpt_correction_T_max  0.4560
_exptl_absorpt_correction_T_min  0.3065
_exptl_absorpt_correction_type   multi-scan
_exptl_absorpt_process_details
;
(SADABS; Bruker, 2004)
;
_exptl_crystal_colour            yellow
_exptl_crystal_density_diffrn    1.467
_exptl_crystal_description       block
_exptl_crystal_F_000             388
_exptl_crystal_size_max          0.600
_exptl_crystal_size_mid          0.500
_exptl_crystal_size_min          0.350
_refine_diff_density_max         0.556
_refine_diff_density_min         -0.856
_refine_ls_extinction_method     none
_refine_ls_goodness_of_fit_ref   1.054
_refine_ls_hydrogen_treatment    constr
_refine_ls_matrix_type           full
_refine_ls_number_parameters     208
_refine_ls_number_reflns         4363
_refine_ls_number_restraints     0
_refine_ls_restrained_S_all      1.054
_refine_ls_R_factor_all          0.0676
_refine_ls_R_factor_gt           0.0428
_refine_ls_shift/su_max          0.001
_refine_ls_shift/su_mean         0.000
_refine_ls_structure_factor_coef Fsqd
_refine_ls_weighting_details
'w=1/[\s^2^(Fo^2^)+(0.0571P)^2^+0.3404P] where P=(Fo^2^+2Fc^2^)/3'
_refine_ls_weighting_scheme      calc
_refine_ls_wR_factor_gt          0.1070
_refine_ls_wR_factor_ref         0.1175
_reflns_number_gt                3040
_reflns_number_total             4363
_reflns_threshold_expression     'I > 2\s(I)'
_cod_data_source_file            bg2578sup1.cif
_cod_data_source_block           II
_cod_database_code               2241478
_shelx_space_group_comment
;
The symmetry employed for this shelxl refinement is uniquely defined
by the following loop, which should always be used as a source of
symmetry information in preference to the above space-group names.
They are only intended as comments.
;
_shelx_estimated_absorpt_t_min   0.316
_shelx_estimated_absorpt_t_max   0.476
_shelx_hkl_file
;
  -1   0   0   75.91    2.32
  -1   0   0   84.06    2.49
   1   0   0   63.09    2.31
  -2   0   0  960.02   30.78
  -2   0   0  889.73   31.26
  -2   0   0 1000.00   28.67
   2   0   0  918.04   30.70
   2   0   0  917.80   28.66
  -3   0   0   15.97    0.67
  -3   0   0   16.04    0.55
  -3   0   0   16.92    0.65
   3   0   0   16.87    0.69
   3   0   0   16.74    0.56
  -4   0   0   88.62    3.10
  -4   0   0   87.97    2.79
  -4   0   0   91.19    3.05
   4   0   0   91.93    3.07
  -5   0   0    3.85    0.37
  -5   0   0    4.62    0.31
  -5   0   0    3.90    0.46
   5   0   0    3.81    0.43
  -6   0   0   24.14    0.91
  -6   0   0   26.29    1.22
   6   0   0   24.37    1.19
   6   0   0   26.29    0.85
  -7   0   0    1.56    0.61
  -8   0   0   -0.04    0.66
  -9   0   0    2.99    0.91
  -9   1   0    4.51    0.84
  -8   1   0   11.79    1.18
  -7   1   0    9.94    0.85
  -6   1   0   25.50    1.15
  -6   1   0   26.19    0.90
  -5   1   0    0.30    0.35
  -5   1   0    0.09    0.30
  -5   1   0    0.73    0.16
  -4   1   0   32.02    1.20
  -4   1   0   32.62    1.03
  -3   1   0   27.10    0.85
  -3   1   0   26.60    0.99
  -2   1   0  516.48   17.28
  -2   1   0  542.28   16.21
   1  -1   0    0.29    0.06
  -1   1   0    0.27    0.07
   0  -1   0   67.30    2.08
  -1  -1   0  264.52    7.85
  -1  -1   0  262.08    8.57
   1   1   0  240.32    8.57
   1   1   0  260.84    7.85
  -2  -1   0    4.08    0.23
   2   1   0    4.88    0.25
   2   1   0    4.06    0.31
   2   1   0    4.66    0.30
  -3  -1   0   38.51    1.28
  -3  -1   0   39.40    1.45
   3   1   0   40.72    1.29
   3   1   0   40.85    1.43
  -4  -1   0   87.65    3.10
  -4  -1   0   86.13    2.79
   4   1   0   90.77    3.06
   4   1   0   92.05    2.80
  -5  -1   0    0.46    0.23
  -5  -1   0    0.16    0.41
   5   1   0    0.25    0.38
   5   1   0    0.51    0.25
  -6  -1   0   48.03    1.93
   6   1   0   49.60    1.62
   6   1   0   48.26    1.91
  -7  -1   0    1.94    0.66
   7   1   0    1.91    0.59
  -8  -1   0    9.03    0.93
   8   1   0    8.81    0.88
  -9  -1   0    3.61    0.86
 -10   2   0    1.72    0.98
  -9   2   0   -0.06    0.84
  -8   2   0   17.88    1.17
  -7   2   0    1.31    0.55
  -6   2   0   68.12    2.42
  -6   2   0   63.16    2.06
  -5   2   0   -0.17    0.30
  -4   2   0  122.30    3.71
  -4   2   0  118.98    4.04
  -3   2   0   11.92    0.42
  -2   2   0  472.22   14.30
  -2   2   0  463.20   14.35
   1  -2   0  245.10    7.40
  -1   2   0  238.79    7.40
   0  -2   0  314.75    9.63
   0   2   0  315.19    9.63
  -1  -2   0   49.06    1.54
   1   2   0   47.36    1.68
   1   2   0   48.60    1.54
  -2  -2   0   44.02    1.43
  -2  -2   0   45.33    1.60
   2   2   0   44.65    1.59
   2   2   0   44.49    1.44
  -3  -2   0    0.10    0.28
  -3  -2   0    0.52    0.21
   3   2   0    0.52    0.24
  -4  -2   0   28.21    1.16
   4   2   0   28.65    1.04
   4   2   0   27.96    1.17
  -5  -2   0   11.88    0.81
   5   2   0   14.14    0.86
   5   2   0   12.84    0.69
  -6  -2   0   24.81    1.27
   6   2   0   25.37    1.30
   6   2   0   30.03    1.08
  -7  -2   0    3.20    0.73
   7   2   0    1.81    0.64
  -8  -2   0    6.97    0.86
   8   2   0    5.85    0.80
  -9  -2   0    1.14    0.93
 -10   3   0    1.03    0.90
  -9   3   0    4.30    0.91
  -8   3   0   37.14    1.69
  -6   3   0   60.46    1.91
  -5   3   0    2.94    0.27
  -5   3   0    3.08    0.30
  -5   3   0    2.59    0.36
  -4   3   0  247.29    7.69
  -4   3   0  254.60    7.70
  -3   3   0    0.13    0.14
  -3   3   0    0.22    0.15
   2  -3   0  537.16   16.25
  -2   3   0  548.36   16.28
  -2   3   0  511.19   16.25
  -1   3   0   22.92    0.77
   0   3   0  125.82    3.90
   1   3   0   48.88    1.76
   1   3   0   50.59    1.61
  -2  -3   0    5.61    0.45
   2   3   0    6.19    0.39
  -3  -3   0   -0.35    0.38
   3   3   0   -0.40    0.30
  -4  -3   0   17.65    0.87
   4   3   0   17.02    0.91
   4   3   0   16.13    0.79
  -5  -3   0    1.66    0.53
   5   3   0    1.07    0.50
   5   3   0    1.78    0.45
  -6  -3   0    0.70    0.57
   6   3   0    1.25    0.50
   6   3   0    0.12    0.54
  -7  -3   0    0.35    0.74
   7   3   0   -0.38    0.64
  -8  -3   0    1.10    0.80
   8   3   0    0.16    0.73
  -9   4   0   -1.22    0.88
  -8   4   0    1.05    0.28
  -7   4   0   14.52    0.61
  -6   4   0   15.75    0.63
  -6   4   0   15.55    0.62
  -5   4   0   41.21    1.37
  -5   4   0   42.77    1.39
  -4   4   0   65.66    2.10
  -4   4   0   67.26    2.13
  -3   4   0   93.73    2.94
  -3   4   0   92.30    2.90
  -2   4   0   51.82    1.75
  -2   4   0   57.62    1.80
  -1   4   0   51.69    1.67
   0   4   0   67.42    2.16
   1   4   0    2.14    0.30
   2   4   0  104.35    3.31
   3   4   0   12.65    0.67
  -4  -4   0   31.48    1.38
   4   4   0   30.17    1.19
  -5  -4   0    3.77    0.68
   5   4   0    4.33    0.63
   5   4   0    4.01    0.59
  -6  -4   0    7.18    0.85
   6   4   0   10.40    1.06
  -7  -4   0   -0.18    0.90
   7   4   0    3.85    0.78
  -8   5   0   16.87    0.69
  -7   5   0    5.22    0.43
  -6   5   0   14.08    0.62
  -5   5   0    4.33    0.36
  -5   5   0    4.05    0.40
  -4   5   0    6.47    0.44
  -4   5   0    7.08    0.47
  -3   5   0    6.91    0.47
  -3   5   0    6.26    0.43
  -2   5   0   19.64    0.78
  -1   5   0    8.19    0.49
   0   5   0   17.85    0.80
   1   5   0   14.82    0.71
   2   5   0    8.67    0.69
   3   5   0    4.88    0.52
   4   5   0   17.44    1.00
   5   5   0    0.35    0.58
   5   5   0   -0.44    0.61
  -6  -5   0    4.44    0.82
   6   5   0    5.92    0.81
  -7  -5   0    1.30    0.89
   7   5   0    0.16    0.77
  -8   6   0   13.08    0.64
  -7   6   0    4.36    0.40
  -6   6   0   12.26    0.64
  -5   6   0    2.86    0.37
  -4   6   0   29.56    1.10
  -4   6   0   29.61    1.13
  -3   6   0   16.90    0.76
  -2   6   0    9.41    0.63
  -1   6   0    7.84    0.63
   0   6   0   10.56    0.65
   1   6   0    5.81    0.53
   2   6   0    6.74    0.63
   3   6   0    1.49    0.54
   4   6   0    1.69    0.60
   5   6   0    0.00    0.72
   6   6   0    2.12    0.79
  -8   7   0    2.72    0.42
  -7   7   0    5.09    0.48
  -6   7   0   15.40    0.79
  -5   7   0    0.23    0.39
  -4   7   0   35.88    1.33
  -3   7   0    0.60    0.44
  -2   7   0   76.81    2.56
  -1   7   0    0.93    0.50
   0   7   0   23.42    1.05
   1   7   0    3.12    0.57
   2   7   0    7.98    0.75
   3   7   0    0.58    0.68
   4   7   0    1.07    0.77
   5   7   0    0.93    0.78
  -8   8   0    0.00    0.46
  -7   8   0   -0.66    0.46
  -6   8   0    0.25    0.48
  -5   8   0    0.24    0.49
  -4   8   0    6.93    0.63
  -3   8   0    9.31    0.83
  -2   8   0   -0.03    0.50
  -1   8   0   39.69    1.53
   0   8   0    4.06    0.64
   1   8   0    6.89    0.74
   2   8   0   15.13    1.07
   3   8   0    0.17    0.72
   4   8   0    5.78    0.97
   5   8   0    1.18    1.02
  -7   9   0    0.20    0.57
  -6   9   0    2.66    0.62
  -5   9   0    2.09    0.61
  -4   9   0    0.01    0.61
  -3   9   0    3.29    0.68
  -2   9   0   -0.27    0.63
  -1   9   0    0.46    0.62
   0   9   0    3.54    0.73
   1   9   0    5.72    0.86
   2   9   0    0.71    0.77
   3   9   0   -0.81    0.91
  -6  10   0    2.77    0.72
  -5  10   0    0.49    0.67
  -4  10   0    2.76    0.74
  -3  10   0    0.38    0.65
  -2  10   0    1.76    0.77
  -1  10   0    0.93    0.82
   0  10   0    0.07    0.77
   1  10   0    0.92    0.81
   2  10   0   -0.03    0.88
  -4  11   0    0.93    0.79
  -3  11   0    5.15    0.85
  -2  11   0    2.61    0.84
  -1  11   0    0.73    0.83
   0  11  -1    1.37    1.00
  -1  11  -1    0.06    0.89
  -2  11  -1    1.42    0.77
  -3  11  -1    0.96    0.84
  -4  11  -1    5.07    0.89
   2  10  -1   -1.13    0.85
   1  10  -1   -0.07    0.81
   0  10  -1    0.35    0.74
  -1  10  -1    1.93    0.81
  -2  10  -1    0.18    0.75
  -3  10  -1    8.29    0.87
  -4  10  -1    3.53    0.74
  -5  10  -1    1.96    0.68
  -6  10  -1    0.35    0.61
   4   9  -1    2.90    1.06
   3   9  -1   -0.49    0.81
   2   9  -1    2.75    0.89
   1   9  -1    2.67    0.81
   0   9  -1    1.30    0.66
  -1   9  -1    2.10    0.72
  -2   9  -1    0.77    0.63
  -3   9  -1    0.40    0.58
  -4   9  -1   -0.32    0.57
  -5   9  -1    0.33    0.57
  -6   9  -1   -0.20    0.55
  -7   9  -1    0.15    0.53
   5   8  -1   -2.34    0.90
   4   8  -1   -0.29    0.76
   3   8  -1    0.04    0.70
   2   8  -1    5.48    0.76
   1   8  -1    2.78    0.63
   0   8  -1   22.50    1.12
  -1   8  -1    0.70    0.58
  -2   8  -1   24.68    1.09
  -3   8  -1    1.55    0.51
  -4   8  -1   12.40    0.83
  -5   8  -1   16.00    0.92
  -6   8  -1    0.13    0.47
  -7   8  -1    6.83    0.58
  -8   8  -1    0.44    0.45
   5   7  -1   -3.00    0.80
   4   7  -1    5.23    0.83
   3   7  -1    7.93    0.81
   2   7  -1   16.36    1.08
   1   7  -1    1.55    0.57
   0   7  -1   10.90    0.77
  -1   7  -1    4.52    0.50
  -2   7  -1   19.39    0.94
  -3   7  -1   -0.05    0.42
  -4   7  -1    5.50    0.49
  -5   7  -1    2.44    0.42
  -6   7  -1   12.10    0.72
  -7   7  -1   11.31    0.70
   6   6  -1    4.18    0.79
   5   6  -1   -0.57    0.70
   4   6  -1    3.68    0.70
   3   6  -1    2.12    0.54
   2   6  -1    0.99    0.47
   1   6  -1    2.02    0.49
   0   6  -1    0.43    0.39
  -1   6  -1    3.08    0.39
  -2   6  -1   11.71    0.66
  -3   6  -1    2.60    0.37
  -4   6  -1   33.62    1.22
  -4   6  -1   32.46    1.18
  -5   6  -1    1.40    0.32
  -6   6  -1   18.32    0.76
  -7   6  -1    0.60    0.30
   7   5  -1    1.80    0.75
  -7  -5   1    1.12    0.83
   6   5  -1   11.86    1.12
  -6  -5   1   10.46    0.99
   5   5  -1    3.02    0.68
   5   5  -1    3.66    0.64
  -5  -5   1    3.24    0.72
   4   5  -1   24.54    1.09
   3   5  -1    0.06    0.42
   2   5  -1   61.43    2.06
   1   5  -1    5.11    0.44
   0   5  -1   77.92    2.51
  -1   5  -1   55.37    1.83
  -2   5  -1   24.64    0.91
  -3   5  -1   29.81    1.06
  -3   5  -1   27.87    1.00
  -4   5  -1    4.28    0.43
  -4   5  -1    4.09    0.37
  -5   5  -1    3.82    0.30
  -5   5  -1    4.20    0.33
  -6   5  -1    2.14    0.26
  -7   5  -1    1.07    0.24
  -9   5  -1   -0.54    0.84
   8   4  -1    0.25    0.76
   7   4  -1    2.38    0.70
  -7  -4   1    0.55    0.88
   6   4  -1    1.19    0.62
   6   4  -1    0.30    0.58
  -6  -4   1    1.64    0.78
   5   4  -1    5.70    0.57
   5   4  -1    5.07    0.60
  -5  -4   1    5.12    0.69
   4   4  -1   17.98    0.86
  -4  -4   1   18.05    0.97
   3   4  -1    5.19    0.45
  -3  -4   1    5.27    0.59
   2   4  -1  119.19    3.76
   1   4  -1    0.26    0.27
   0   4  -1  283.47    8.72
  -1   4  -1   10.44    0.49
  -2   4  -1  398.16   12.19
  -3   4  -1   15.59    0.60
  -3   4  -1   17.29    0.65
  -4   4  -1   65.64    2.12
  -4   4  -1   69.93    2.16
  -5   4  -1   20.94    0.74
  -5   4  -1   22.49    0.78
  -6   4  -1   22.33    0.78
  -6   4  -1   23.56    0.79
  -7   4  -1   39.46    1.27
  -8   4  -1   -0.08    0.72
  -9   4  -1    2.41    0.87
   8   3  -1    1.24    0.71
  -8  -3   1    3.48    0.90
   7   3  -1    0.71    0.61
  -7  -3   1    0.94    0.69
   6   3  -1    9.81    0.76
   6   3  -1   11.74    0.94
  -6  -3   1   12.83    1.06
   5   3  -1    4.34    0.53
  -5  -3   1    3.47    0.55
   4   3  -1   17.78    0.85
   4   3  -1   20.35    0.94
  -4  -3   1   19.04    0.93
   3   3  -1    0.97    0.29
  -3  -3   1    1.46    0.35
   2   3  -1   18.14    0.71
  -2  -3   1   18.97    0.82
   1   3  -1    6.52    0.36
   0   3  -1  145.89    4.51
  -1   3  -1    1.50    0.17
  -2   3  -1   30.90    1.02
   2  -3   1   32.57    1.01
  -3   3  -1   16.60    0.58
  -3   3  -1   15.60    0.55
  -4   3  -1   21.45    0.90
  -4   3  -1   20.37    0.69
  -4   3  -1   19.84    0.67
  -5   3  -1    1.90    0.34
  -5   3  -1    1.13    0.15
  -6   3  -1   58.96    1.86
  -6   3  -1   60.71    1.88
  -7   3  -1   -0.08    0.53
  -8   3  -1   48.62    2.07
  -9   3  -1   -0.40    0.75
  -9  -2   1    1.48    0.93
   8   2  -1   10.72    1.13
  -8  -2   1   10.03    1.02
   7   2  -1    1.70    0.58
  -7  -2   1    1.22    0.66
   6   2  -1   28.30    1.10
   6   2  -1   27.27    1.31
  -6  -2   1   28.98    1.37
   5   2  -1    0.88    0.39
   5   2  -1    1.35    0.35
  -5  -2   1    0.23    0.45
   4   2  -1   64.70    2.07
   4   2  -1   63.54    2.24
  -4  -2   1   62.06    2.29
   3   2  -1    3.70    0.39
   3   2  -1    4.63    0.43
  -3  -2   1    5.23    0.36
  -3  -2   1    5.37    0.44
   2   2  -1  112.24    3.47
   2   2  -1  112.18    3.79
  -2  -2   1  111.58    3.47
  -2  -2   1  110.44    3.79
   1   2  -1   44.85    1.43
   1   2  -1   45.23    1.56
  -1  -2   1   44.85    1.42
  -1  -2   1   44.87    1.57
   0   2  -1  251.89    7.77
   0  -2   1  255.66    7.77
  -1   2  -1  167.95    5.16
   1  -2   1  168.84    5.16
  -2   2  -1  106.47    3.27
  -3   2  -1    1.74    0.23
  -3   2  -1    2.45    0.13
  -3   2  -1    2.38    0.14
  -4   2  -1    5.62    0.49
  -4   2  -1    6.73    0.25
  -5   2  -1    0.83    0.13
  -5   2  -1    1.27    0.31
  -6   2  -1   82.14    2.94
  -6   2  -1   82.94    2.56
  -7   2  -1    0.15    0.58
  -8   2  -1   16.61    1.12
  -9   2  -1   -0.41    0.81
  -9  -1   1    3.89    0.91
  -8  -1   1    3.23    0.75
   7   1  -1    5.49    0.64
  -7  -1   1    5.69    0.74
   6   1  -1   62.96    2.02
   6   1  -1   61.21    2.27
  -6  -1   1   60.39    2.33
   5   1  -1    2.46    0.39
   5   1  -1    3.15    0.31
  -5  -1   1    2.25    0.44
  -5  -1   1    3.70    0.36
   4   1  -1  130.02    4.33
   4   1  -1  131.83    4.01
  -4  -1   1  131.95    4.42
  -4  -1   1  122.77    4.00
   3   1  -1   25.93    0.86
   3   1  -1   24.89    0.95
  -3  -1   1   25.23    0.98
  -3  -1   1   24.46    0.84
   2   1  -1  821.36   23.87
   2   1  -1  789.70   25.51
   2   1  -1  732.49   25.86
  -2  -1   1  751.01   25.92
  -2  -1   1  788.92   23.80
   1   1  -1  686.48   21.35
  -1  -1   1  730.20   21.39
  -1  -1   1  674.02   23.33
   0  -1   1  187.08    5.77
  -1   1  -1   46.75    1.45
  -2   1  -1   50.05    1.70
  -3   1  -1   28.06    0.90
  -3   1  -1   29.55    1.05
   3  -1   1   28.90    1.06
  -4   1  -1  132.61    4.51
  -4   1  -1  132.64    4.06
  -4   1  -1  131.96    4.43
   4  -1   1  132.82    4.45
  -5   1  -1   10.81    0.65
  -5   1  -1   10.01    0.68
  -5   1  -1   10.73    0.41
  -6   1  -1   23.44    0.82
  -6   1  -1   22.82    1.12
  -7   1  -1   -0.08    0.53
  -8   1  -1    0.29    0.71
  -9   1  -1    0.80    0.82
  -9   0   1    2.90    0.83
  -8   0   1   12.36    1.20
  -7   0   1    1.75    0.59
   6   0  -1   20.95    1.07
  -6   0   1   21.52    0.82
  -6   0   1   24.16    1.08
   5   0  -1   29.42    1.20
   5   0  -1   31.68    1.02
  -5   0   1   30.48    1.24
  -5   0   1   29.55    1.17
  -5   0   1   28.86    1.01
   4   0  -1  110.24    3.29
   4   0  -1  105.46    3.57
  -4   0   1  105.74    3.56
  -4   0   1  102.07    3.29
  -4   0   1  106.69    3.64
   3   0  -1    5.32    0.27
   3   0  -1    6.00    0.35
  -3   0   1    4.38    0.26
  -3   0   1    5.60    0.35
  -3   0   1    5.33    0.35
   2   0  -1  233.10    7.67
   2   0  -1  244.02    7.16
  -2   0   1  229.39    7.66
  -2   0   1  227.09    7.82
  -2   0   1  235.81    7.16
  -1   0   1   31.36    1.00
  -1   0   1   32.22    1.07
  -1   0  -1    6.66    0.24
  -1   0  -1    7.23    0.28
  -1   0  -1    7.01    0.23
   1   0   1    5.38    0.23
   1   0   1    6.92    0.23
   1   0   1    6.09    0.26
  -2   0  -1   61.35    2.09
  -2   0  -1   63.59    2.06
  -2   0  -1   60.42    1.89
   2   0   1   60.98    1.89
   2   0   1   59.01    2.09
   2   0   1   60.62    2.06
  -3   0  -1   33.01    1.05
  -3   0  -1   34.15    1.20
  -3   0  -1   32.42    1.21
   3   0   1   33.13    1.05
   3   0   1   32.97    1.22
  -4   0  -1  230.88    7.11
  -4   0  -1  229.63    7.80
  -4   0  -1  232.77    7.67
   4   0   1  234.24    7.69
  -5   0  -1   17.63    0.88
  -5   0  -1   17.44    0.63
   5   0   1   17.30    0.90
   5   0   1   15.76    0.58
  -6   0  -1   61.55    2.26
  -6   0  -1   59.83    1.96
   6   0   1   61.23    2.29
  -7   0  -1   15.29    0.99
   7   0   1   14.55    1.10
  -8   0  -1    6.32    0.78
  -9   0  -1   12.90    1.35
  -9   1   1    0.60    0.86
  -8   1   1   29.01    1.56
  -7   1   1    0.32    0.55
  -6   1   1   33.03    1.18
  -6   1   1   38.12    1.49
   5  -1  -1    2.85    0.20
  -5   1   1    2.30    0.23
  -5   1   1    3.30    0.35
  -5   1   1    4.14    0.45
  -4   1   1   24.55    0.83
  -4   1   1   25.51    0.97
   3  -1  -1   10.14    0.42
  -3   1   1   13.12    0.43
  -3   1   1   12.73    0.52
   2  -1  -1  113.46    3.61
  -2   1   1  120.39    3.62
   1  -1  -1    2.92    0.18
   1  -1  -1    3.21    0.17
  -1   1   1    2.70    0.17
  -1   1   1    2.91    0.17
   0  -1  -1   20.25    0.63
   0  -1  -1   19.76    0.60
   0   1   1   16.19    0.61
  -1  -1  -1   14.99    0.52
  -1  -1  -1   16.35    0.59
  -1  -1  -1   15.74    0.56
   1   1   1   15.37    0.53
   1   1   1   15.69    0.59
   1   1   1   16.13    0.55
  -2  -1  -1  200.15    6.76
  -2  -1  -1  198.92    6.18
   2   1   1  198.10    6.76
   2   1   1  213.48    6.21
   2   1   1  196.89    6.18
  -3  -1  -1   16.01    0.68
  -3  -1  -1   15.21    0.57
   3   1   1   15.48    0.58
   3   1   1   16.86    0.73
  -4  -1  -1  250.67    7.90
  -4  -1  -1  250.17    8.65
   4   1   1  260.87    8.52
   4   1   1  266.56    7.89
  -5  -1  -1    0.68    0.25
  -5  -1  -1    1.01    0.43
   5   1   1    1.19    0.43
   5   1   1    0.51    0.24
  -6  -1  -1   43.75    1.68
   6   1   1   37.92    1.41
   6   1   1   44.85    1.75
  -7  -1  -1    0.67    0.65
   7   1   1    0.28    0.54
  -8  -1  -1   15.25    1.29
   8   1   1   14.32    1.28
  -9  -1  -1    0.97    0.86
 -10   2   1   14.57    1.57
  -9   2   1    1.42    0.79
  -8   2   1   45.27    1.99
  -7   2   1    1.38    0.58
  -6   2   1   56.42    1.80
  -5   2   1    2.79    0.36
  -5   2   1    2.67    0.27
   4  -2  -1  209.85    7.03
  -4   2   1  237.85    7.61
  -4   2   1  243.32    7.07
   3  -2  -1   94.84    3.10
  -3   2   1  106.11    3.12
   2  -2  -1  487.42   14.72
  -2   2   1  479.15   14.66
  -2   2   1  473.61   14.72
   1  -2  -1  330.69   10.12
   1  -2  -1  332.36   10.09
  -1   2   1  322.90   10.09
  -1   2   1  333.90   10.11
   0  -2  -1  123.71    3.88
   0   2   1  123.07    3.88
   0   2   1  130.94    3.91
  -1  -2  -1   58.06    1.87
   1   2   1   63.91    1.91
   1   2   1   56.48    2.05
   1   2   1   59.19    1.88
  -2  -2  -1  181.54    6.03
  -2  -2  -1  174.78    5.51
   2   2   1  176.69    6.04
   2   2   1  182.33    5.52
  -3  -2  -1   10.43    0.47
  -3  -2  -1   10.36    0.61
   3   2   1   10.04    0.49
  -4  -2  -1   15.70    0.80
   4   2   1   16.15    0.68
   4   2   1   16.48    0.88
  -5  -2  -1    1.58    0.49
   5   2   1    1.21    0.48
  -6  -2  -1    4.83    0.66
   6   2   1    3.91    0.60
  -7  -2  -1    0.37    0.69
   7   2   1    0.12    0.64
  -8  -2  -1    3.15    0.85
   8   2   1    3.47    0.78
  -9  -2  -1    1.72    0.83
 -10   3   1    0.83    0.99
  -9   3   1    1.78    0.86
  -8   3   1    2.76    0.79
  -6   3   1   23.19    0.83
  -5   3   1   24.52    1.05
  -5   3   1   24.92    0.86
  -5   3   1   24.12    0.88
  -4   3   1  140.77    4.38
  -4   3   1  142.56    4.39
  -3   3   1   63.12    1.98
  -3   3   1   62.06    1.99
  -2   3   1  103.41    3.17
  -2   3   1   98.67    3.14
  -1   3   1  144.74    4.43
  -1   3   1  139.50    4.40
   0   3   1  249.45    7.67
   1   3   1    1.46    0.24
   2   3   1  100.74    3.18
  -3  -3  -1   13.32    0.70
   3   3   1   12.69    0.63
  -4  -3  -1   39.10    1.58
   4   3   1   39.07    1.39
   4   3   1   39.20    1.58
  -5  -3  -1   23.93    1.24
   5   3   1   28.90    1.11
   5   3   1   29.48    1.34
  -6  -3  -1    3.44    0.63
   6   3   1    3.80    0.67
  -7  -3  -1    5.41    0.76
   7   3   1    5.41    0.81
  -9   4   1   -0.58    0.81
  -8   4   1    4.05    0.40
  -7   4   1    0.04    0.31
  -6   4   1    4.35    0.43
  -6   4   1    4.58    0.35
  -5   4   1    6.71    0.44
  -5   4   1    6.77    0.43
  -4   4   1   50.88    1.68
  -4   4   1   50.99    1.65
  -3   4   1   39.71    1.34
  -3   4   1   39.19    1.31
  -2   4   1  204.09    6.22
  -2   4   1  196.41    6.18
  -1   4   1   10.61    0.48
   0   4   1  123.95    3.88
   1   4   1   19.83    0.79
   2   4   1   88.17    2.83
   3   4   1    0.04    0.37
  -4  -4  -1   57.30    2.12
   4   4   1   52.53    1.87
  -5  -4  -1    1.80    0.59
   5   4   1    0.75    0.53
   5   4   1    0.81    0.53
  -6  -4  -1   37.95    1.74
   6   4   1   34.06    1.72
  -7  -4  -1    3.74    0.81
   7   4   1    1.61    0.78
  -8  -4  -1   10.14    1.11
  -8   5   1    6.84    0.55
  -7   5   1    2.67    0.36
  -6   5   1   17.78    0.75
  -5   5   1    0.08    0.29
  -5   5   1   -0.32    0.28
  -4   5   1    6.35    0.45
  -4   5   1    5.73    0.46
  -3   5   1    5.85    0.45
  -2   5   1    1.82    0.30
  -1   5   1    3.23    0.38
   0   5   1    0.74    0.33
   1   5   1    6.79    0.55
   2   5   1   13.90    0.75
   3   5   1    4.91    0.55
   4   5   1   18.32    1.01
   5   5   1    0.40    0.64
   5   5   1   -0.19    0.58
   6   5   1    4.53    0.80
  -8   6   1    6.81    0.60
  -7   6   1    1.96    0.39
  -6   6   1   15.70    0.77
  -5   6   1    1.27    0.37
  -4   6   1   38.50    1.36
  -3   6   1    0.46    0.37
  -2   6   1   56.02    1.90
  -1   6   1    1.31    0.39
   0   6   1   48.16    1.69
   1   6   1   23.51    1.02
   2   6   1   20.14    1.06
   3   6   1    1.74    0.58
   4   6   1    3.12    0.67
   5   6   1   -0.16    0.69
   6   6   1   -0.27    0.77
  -8   7   1    1.16    0.43
  -7   7   1    1.75    0.45
  -6   7   1    0.21    0.42
  -4   7   1   16.73    0.84
  -3   7   1   24.88    1.07
  -2   7   1   66.13    2.26
  -1   7   1    0.15    0.45
   0   7   1   57.51    2.02
   1   7   1    8.33    0.73
   2   7   1   26.61    1.24
   3   7   1    0.95    0.62
   4   7   1    4.53    0.81
   5   7   1    1.96    0.83
  -8   8   1    1.31    0.50
  -7   8   1    0.61    0.49
  -6   8   1    0.45    0.51
  -5   8   1   -0.25    0.51
  -4   8   1    0.16    0.46
  -3   8   1    0.59    0.50
  -2   8   1    0.57    0.52
  -1   8   1    6.45    0.73
   0   8   1    2.47    0.67
   1   8   1    0.60    0.64
   2   8   1    6.89    0.79
   3   8   1    2.07    0.83
   4   8   1    1.97    0.89
  -7   9   1    3.72    0.65
  -6   9   1    4.25    0.66
  -5   9   1    0.32    0.60
  -4   9   1   18.22    1.11
  -3   9   1    3.24    0.70
  -2   9   1   11.79    1.07
  -1   9   1    2.38    0.74
   0   9   1    7.17    0.82
   1   9   1    0.16    0.73
   2   9   1   -0.33    0.82
   3   9   1    1.19    0.85
  -6  10   1   12.50    1.06
  -5  10   1    3.11    0.76
  -4  10   1   12.23    1.15
  -3  10   1    0.61    0.76
  -2  10   1   11.46    1.06
  -1  10   1    1.78    0.86
   0  10   1    1.43    0.91
   1  10   1    0.40    0.81
   2  10   1   -0.64    0.88
  -4  11   1    0.57    0.83
  -3  11   1    0.82    0.84
  -2  11   1    0.22    0.93
  -1  11   1    2.46    1.00
   0  11  -2   -0.10    0.86
  -1  11  -2    0.41    0.91
  -2  11  -2    2.66    0.86
  -3  11  -2    0.38    0.70
  -4  11  -2    2.17    0.79
   2  10  -2   -1.18    0.92
   1  10  -2   -0.12    0.89
   0  10  -2    0.54    0.76
  -1  10  -2    0.68    0.69
  -2  10  -2    0.47    0.72
  -3  10  -2    0.20    0.66
  -4  10  -2    0.57    0.68
  -5  10  -2    1.47    0.67
  -6  10  -2    1.06    0.64
   4   9  -2    3.87    1.01
   3   9  -2    1.60    0.94
   2   9  -2    9.65    1.00
   1   9  -2   10.86    1.06
   0   9  -2    3.87    0.69
  -1   9  -2    9.81    1.00
  -2   9  -2    7.04    0.74
  -3   9  -2    4.28    0.66
  -4   9  -2    0.51    0.55
  -5   9  -2    4.23    0.63
  -6   9  -2    0.60    0.55
  -7   9  -2    0.68    0.54
   5   8  -2   -2.85    0.94
   4   8  -2    1.66    0.84
   3   8  -2    0.64    0.75
   2   8  -2   -0.22    0.70
   1   8  -2    5.16    0.69
   0   8  -2   15.05    0.92
  -1   8  -2    4.49    0.64
  -2   8  -2   18.21    1.01
  -3   8  -2   -0.01    0.47
  -4   8  -2    1.66    0.49
  -5   8  -2    2.86    0.50
  -6   8  -2    0.82    0.46
  -7   8  -2    6.32    0.54
   6   7  -2    0.82    0.75
   5   7  -2   -1.88    0.84
   4   7  -2    0.67    0.79
   3   7  -2    0.37    0.67
   2   7  -2    1.98    0.64
   1   7  -2    2.03    0.54
   0   7  -2    0.20    0.45
  -1   7  -2    3.91    0.54
  -2   7  -2   -0.28    0.41
  -3   7  -2    0.06    0.39
  -4   7  -2   14.91    0.79
  -5   7  -2    2.35    0.42
  -6   7  -2   21.69    0.93
  -7   7  -2    2.06    0.37
   7   6  -2    0.83    0.77
   6   6  -2    4.30    0.75
   5   6  -2    4.21    0.84
   4   6  -2   10.43    0.86
   3   6  -2   12.33    0.96
   2   6  -2    4.17    0.55
   1   6  -2   10.81    0.69
   0   6  -2   -0.55    0.40
  -1   6  -2    4.12    0.42
  -2   6  -2    4.59    0.42
  -3   6  -2   15.06    0.70
  -4   6  -2    1.89    0.35
  -4   6  -2    0.99    0.32
  -5   6  -2    0.85    0.31
  -6   6  -2    2.83    0.33
  -7   6  -2    0.52    0.27
   7   5  -2    1.24    0.71
  -7  -5   2    2.34    0.94
   6   5  -2    5.99    0.78
   6   5  -2    4.96    0.71
  -6  -5   2    4.15    0.81
   5   5  -2    0.51    0.54
   5   5  -2    0.38    0.58
  -5  -5   2    0.07    0.62
   4   5  -2   13.92    0.95
   3   5  -2   -0.37    0.44
   2   5  -2   53.55    1.83
   1   5  -2   32.79    1.19
   0   5  -2  139.01    4.36
  -1   5  -2  186.56    5.79
  -2   5  -2   63.32    2.04
  -3   5  -2   25.42    0.90
  -4   5  -2   79.26    2.55
  -4   5  -2   82.89    2.61
  -5   5  -2   47.13    1.53
  -5   5  -2   47.30    1.56
  -6   5  -2   16.73    0.63
  -6   5  -2   16.45    0.68
  -7   5  -2   12.63    0.48
  -9   5  -2    0.92    0.86
   8   4  -2    1.01    0.73
  -8  -4   2    1.43    1.01
   7   4  -2    1.62    0.66
  -7  -4   2    3.74    0.90
   6   4  -2    0.76    0.56
   6   4  -2    1.83    0.62
  -6  -4   2    1.23    0.74
   5   4  -2    0.98    0.57
   5   4  -2    0.34    0.47
  -5  -4   2   -0.08    0.62
   4   4  -2    5.28    0.53
  -4  -4   2    6.61    0.73
   3   4  -2   -0.54    0.38
  -3  -4   2   -0.35    0.41
   2   4  -2   13.62    0.64
   1   4  -2   21.53    0.82
   0   4  -2   28.43    1.00
  -1   4  -2    4.73    0.32
  -2   4  -2  144.39    4.46
  -3   4  -2    1.97    0.21
  -4   4  -2  134.71    4.20
  -4   4  -2  138.22    4.24
  -5   4  -2   13.87    0.51
  -5   4  -2   14.51    0.53
  -6   4  -2   95.73    2.85
  -6   4  -2   89.15    2.84
  -8   4  -2   17.66    1.28
  -9   4  -2    2.76    0.86
   8   3  -2    4.90    0.75
  -8  -3   2    6.51    1.00
   7   3  -2    0.72    0.58
  -7  -3   2    0.24    0.73
   6   3  -2   23.66    1.04
   6   3  -2   22.17    1.21
  -6  -3   2   22.03    1.21
   5   3  -2    0.23    0.41
   5   3  -2    0.53    0.45
  -5  -3   2   -0.31    0.52
   4   3  -2   15.06    0.81
   4   3  -2   18.65    0.82
  -4  -3   2   15.60    0.91
   3   3  -2   16.85    0.76
  -3  -3   2   18.39    0.86
   2   3  -2   44.12    1.47
  -2  -3   2   44.04    1.61
   1   3  -2   88.33    3.08
   1   3  -2   92.05    2.83
   0   3  -2   97.83    3.05
  -1   3  -2   33.91    1.10
  -2   3  -2  153.91    4.65
   2  -3   2  148.83    4.64
  -3   3  -2   42.49    1.33
  -4   3  -2  292.01    8.89
  -4   3  -2  281.45    8.87
  -4   3  -2  299.60    9.60
  -5   3  -2    4.24    0.44
  -5   3  -2    3.68    0.17
  -7   3  -2    3.69    0.65
  -8   3  -2    7.35    0.81
  -9   3  -2    0.86    0.75
  -9  -2   2    2.04    0.94
   8   2  -2    7.99    0.79
  -8  -2   2    7.94    0.96
   7   2  -2   -0.17    0.51
  -7  -2   2    0.52    0.67
   6   2  -2   23.21    1.18
   6   2  -2   23.27    0.97
  -6  -2   2   23.99    1.18
   5   2  -2    4.43    0.45
   5   2  -2    6.67    0.51
  -5  -2   2    3.93    0.52
   4   2  -2   90.93    2.90
   4   2  -2   92.69    3.11
  -4  -2   2   89.59    3.18
   3   2  -2  393.01   12.61
   3   2  -2  392.74   11.79
  -3  -2   2  367.87   12.86
   2   2  -2  209.69    6.25
   2   2  -2  199.05    6.81
  -2  -2   2  204.17    6.81
  -2  -2   2  198.37    6.24
   1   2  -2  417.93   12.46
   1   2  -2  396.05   13.57
  -1  -2   2  410.90   12.46
  -1  -2   2  405.34   13.58
   0   2  -2  385.75   11.95
   0  -2   2  396.34   11.94
  -1   2  -2    3.88    0.18
   1  -2   2    3.52    0.17
  -2   2  -2  439.32   13.45
  -3   2  -2   52.66    1.83
  -4   2  -2  106.99    3.62
  -5   2  -2    3.22    0.43
  -5   2  -2    3.95    0.20
  -5   2  -2    2.60    0.36
  -6   2  -2    3.10    0.26
  -6   2  -2    2.32    0.50
  -7   2  -2   17.90    1.02
  -8   2  -2    0.30    0.70
  -9   2  -2    0.58    0.81
  -9  -1   2    2.39    0.92
  -8  -1   2    1.10    0.76
   7   1  -2    0.41    0.50
  -7  -1   2    0.42    0.58
   6   1  -2   15.53    0.92
   6   1  -2   15.01    0.72
  -6  -1   2   15.84    0.92
   5   1  -2   -0.04    0.32
   5   1  -2   -0.03    0.27
  -5  -1   2    0.45    0.23
  -5  -1   2    0.01    0.39
   4   1  -2   68.22    2.13
   4   1  -2   68.90    2.30
  -4  -1   2   62.26    2.11
  -4  -1   2   67.55    2.36
   3   1  -2   33.65    1.20
   3   1  -2   34.62    1.12
  -3  -1   2   33.36    1.10
  -3  -1   2   33.72    1.25
   2   1  -2  756.67   22.22
   2   1  -2  752.78   23.74
   2   1  -2  669.70   24.07
  -2  -1   2  695.59   24.14
  -2  -1   2  744.78   22.16
   1   1  -2  567.37   20.14
   1   1  -2  637.92   18.55
  -1  -1   2  591.92   20.18
  -1  -1   2  613.40   18.46
   0  -1   2  566.98   17.40
  -1   1  -2  333.83   10.88
  -1   1  -2  320.93   10.19
   1  -1   2  344.19   10.20
  -2   1  -2  415.69   12.30
  -2   1  -2  410.04   13.17
  -2   1  -2  387.82   12.30
   2  -1   2  396.28   13.17
  -3   1  -2   20.56    0.67
  -3   1  -2   20.86    0.65
  -3   1  -2   20.57    0.80
  -3   1  -2   20.04    0.80
   3  -1   2   20.93    0.82
  -4   1  -2  116.59    4.03
  -4   1  -2  119.30    3.63
  -4   1  -2  118.65    3.97
   4  -1   2  117.78    4.00
  -5   1  -2   19.50    0.87
  -5   1  -2   19.72    0.68
  -5   1  -2   19.62    0.93
   5  -1   2   20.51    0.99
  -6   1  -2   25.19    1.16
  -6   1  -2   24.04    0.85
  -7   1  -2   43.62    1.81
  -8   1  -2    1.16    0.69
  -9   1  -2   12.47    1.32
  -9   0   2    1.68    0.82
  -8   0   2    7.77    0.83
  -7   0   2    0.29    0.57
   6   0  -2   10.32    0.54
  -6   0   2    7.99    0.52
  -6   0   2   10.22    0.68
  -6   0   2   11.46    0.84
   5   0  -2    0.91    0.25
  -5   0   2    0.91    0.29
  -5   0   2    1.12    0.39
  -5   0   2    1.45    0.22
   4   0  -2  184.95    5.53
  -4   0   2  179.99    6.06
  -4   0   2  174.95    5.51
  -4   0   2  176.04    5.92
   3   0  -2   43.71    1.34
  -3   0   2   40.50    1.43
  -3   0   2   39.64    1.47
  -3   0   2   41.45    1.33
   2   0  -2  335.22   10.42
  -2   0   2  333.12   11.13
  -2   0   2  353.93   10.42
   1   0  -2    9.01    0.35
  -1   0   2    9.53    0.34
   0   0   2   28.86    0.92
   0   0   2   29.23    0.92
  -1   0  -2   11.87    0.41
  -1   0  -2   11.67    0.40
  -1   0  -2   13.93    0.44
   1   0   2   11.55    0.39
   1   0   2   11.68    0.47
   1   0   2   11.40    0.44
   1   0   2   11.79    0.40
  -2   0  -2  282.94    8.57
  -2   0  -2  287.84    8.55
  -2   0  -2  292.60    9.18
  -2   0  -2  288.90    9.34
   2   0   2  282.09    9.18
   2   0   2  246.41    8.56
   2   0   2  271.40    9.34
   2   0   2  285.83    8.55
  -3   0  -2   13.37    0.61
  -3   0  -2   14.92    0.62
  -3   0  -2   13.16    0.48
   3   0   2   13.09    0.47
   3   0   2   13.39    0.66
  -4   0  -2  113.90    3.59
  -4   0  -2  116.25    3.97
   4   0   2  118.03    3.95
  -5   0  -2   13.26    0.74
  -5   0  -2   12.83    0.55
   5   0   2   13.38    0.86
   5   0   2   14.40    0.46
  -6   0  -2   14.17    0.63
  -6   0  -2   14.53    0.86
   6   0   2   14.55    0.99
  -7   0  -2    5.02    0.70
   7   0   2    4.62    0.67
  -8   0  -2   13.24    1.19
  -9   0  -2    1.47    0.84
 -10   1   2    4.64    1.02
  -9   1   2    0.35    0.79
  -8   1   2   18.38    1.31
  -7   1   2    2.77    0.64
  -6   1   2   51.76    1.88
  -6   1   2   43.51    1.56
  -6   1   2   49.00    1.77
   5  -1  -2   44.70    1.64
  -5   1   2   53.73    1.65
  -5   1   2   53.80    1.84
  -5   1   2   54.23    1.89
   4  -1  -2  101.43    3.07
  -4   1   2   98.33    3.07
  -4   1   2   96.10    3.31
   3  -1  -2   23.97    0.80
  -3   1   2   23.60    0.88
  -3   1   2   24.14    0.80
   2  -1  -2    4.39    0.24
  -2   1   2    4.30    0.23
   1  -1  -2  160.01    4.97
  -1   1   2  158.38    4.96
  -1   1   2  166.07    4.97
   0  -1  -2  159.45    4.94
   0  -1  -2  158.31    4.92
   0   1   2  160.52    4.93
   0   1   2  161.36    4.92
  -1  -1  -2   53.05    1.63
  -1  -1  -2   51.85    1.67
  -1  -1  -2   52.66    1.79
   1   1   2   49.60    1.79
   1   1   2   51.10    1.63
   1   1   2   52.65    1.65
  -2  -1  -2   75.40    2.36
  -2  -1  -2   76.17    2.41
  -2  -1  -2   76.44    2.59
   2   1   2   74.43    2.59
   2   1   2   75.53    2.36
  -3  -1  -2    0.53    0.16
  -3  -1  -2    0.42    0.24
   3   1   2    0.59    0.30
   3   1   2    0.70    0.18
  -4  -1  -2   19.93    0.86
  -4  -1  -2   19.20    0.71
   4   1   2   20.02    0.91
   4   1   2   18.98    0.72
  -5  -1  -2    6.45    0.40
  -5  -1  -2    4.91    0.52
   5   1   2    6.95    0.44
   5   1   2    5.55    0.58
  -6  -1  -2   16.36    0.95
   6   1   2   17.15    1.11
  -7  -1  -2   -0.05    0.58
   7   1   2   -0.26    0.58
  -8  -1  -2    8.16    0.93
   8   1   2    7.85    0.92
  -9  -1  -2    1.56    0.88
 -10   2   2    1.57    0.95
  -9   2   2    0.94    0.87
  -8   2   2   11.61    1.05
  -7   2   2    5.81    0.73
  -6   2   2  129.42    4.15
  -6   2   2  111.65    3.74
  -5   2   2    9.59    0.45
  -5   2   2    9.07    0.60
   4  -2  -2  479.19   14.61
  -4   2   2  476.28   14.61
   3  -2  -2   19.65    0.70
  -3   2   2   20.23    0.70
  -3   2   2   19.47    0.70
   2  -2  -2  702.09   21.95
  -2   2   2  718.90   21.87
  -2   2   2  723.09   21.83
   1  -2  -2  300.21    9.29
   1  -2  -2  309.92    9.26
  -1   2   2  300.23    9.26
  -1   2   2  299.62    9.28
   0  -2  -2   48.07    1.59
   0  -2  -2   49.15    1.55
   0   2   2   49.28    1.57
   0   2   2   48.88    1.55
  -1  -2  -2   89.65    2.83
  -1  -2  -2   90.89    2.77
   1   2   2   87.87    2.77
   1   2   2   86.39    3.03
  -2  -2  -2   36.64    1.34
  -2  -2  -2   35.69    1.20
   2   2   2   37.14    1.21
  -3  -2  -2   51.08    1.86
  -3  -2  -2   53.18    1.68
   3   2   2   50.77    1.68
  -4  -2  -2   10.53    0.65
   4   2   2   10.78    0.79
   4   2   2    9.12    0.55
  -5  -2  -2   30.75    1.30
   5   2   2   30.19    1.39
   5   2   2   30.79    1.13
  -6  -2  -2    1.38    0.58
   6   2   2    1.86    0.61
  -7  -2  -2    7.01    0.80
   7   2   2    6.00    0.79
  -8  -2  -2    0.85    0.80
   8   2   2    0.07    0.76
 -10   3   2   -0.39    1.01
  -9   3   2   -1.04    0.88
  -8   3   2    1.16    0.73
  -6   3   2   36.20    1.23
  -6   3   2   36.06    1.28
  -5   3   2    2.93    0.32
  -5   3   2    3.65    0.30
   4  -3  -2   76.32    2.42
  -4   3   2   77.85    2.42
  -4   3   2   74.47    2.41
   3  -3  -2    1.70    0.23
  -3   3   2    1.30    0.23
  -3   3   2    1.87    0.23
   2  -3  -2   37.00    1.25
  -2   3   2   36.01    1.23
  -2   3   2   37.48    1.22
   1  -3  -2   89.12    2.83
  -1   3   2   87.49    2.77
  -1   3   2   88.17    2.80
   0  -3  -2  435.19   13.45
   0   3   2  439.09   13.39
   1   3   2    0.30    0.22
   2   3   2  326.36   10.04
  -3  -3  -2   29.65    1.20
   3   3   2   29.91    1.10
  -4  -3  -2   80.67    2.87
   4   3   2   79.05    2.89
   4   3   2   80.60    2.60
  -5  -3  -2    7.62    0.82
   5   3   2   11.20    0.70
   5   3   2   10.39    0.98
  -6  -3  -2   12.28    1.01
   6   3   2   15.86    1.18
  -7  -3  -2    2.01    0.75
   7   3   2    5.09    0.83
  -8  -3  -2   -1.27    0.81
  -9   4   2   -0.15    0.42
  -9   4   2   -0.41    0.84
  -8   4   2   29.09    1.14
  -7   4   2    0.52    0.36
  -6   4   2   38.15    1.35
  -6   4   2   39.26    1.35
  -5   4   2    1.01    0.30
  -5   4   2    0.84    0.28
  -4   4   2   18.09    0.72
  -4   4   2   16.90    0.72
  -3   4   2    1.51    0.26
  -3   4   2    1.01    0.26
  -2   4   2   66.26    2.12
  -1   4   2   13.78    0.62
   0   4   2   14.35    0.62
   1   4   2   35.20    1.24
   2   4   2    6.85    0.52
   3   4   2    1.67    0.42
   4   4   2   31.77    1.26
  -5  -4  -2   -0.12    0.56
   5   4   2    0.17    0.60
   5   4   2    0.00    0.50
  -6  -4  -2   12.72    1.15
   6   4   2    8.78    0.92
  -7  -4  -2    1.27    0.81
   7   4   2    0.88    0.80
  -9   5   2    1.87    0.43
  -8   5   2    8.91    0.66
  -7   5   2    0.36    0.37
  -6   5   2   29.47    1.11
  -5   5   2    4.59    0.40
  -5   5   2    4.61    0.42
  -4   5   2  108.06    3.41
  -4   5   2  104.78    3.37
  -3   5   2   14.87    0.69
  -2   5   2  109.34    3.46
  -1   5   2   16.78    0.73
   0   5   2   23.75    0.94
   1   5   2    0.21    0.37
   2   5   2   38.64    1.41
   3   5   2    1.21    0.49
   4   5   2    2.07    0.51
   5   5   2    0.78    0.69
   5   5   2    1.81    0.62
   6   5   2    1.39    0.78
  -9   6   2    4.86    0.49
  -8   6   2    5.46    0.51
  -7   6   2    4.63    0.48
  -6   6   2   41.22    1.48
  -5   6   2    4.47    0.46
  -4   6   2  134.72    4.26
  -3   6   2    1.41    0.42
  -2   6   2  105.73    3.39
  -1   6   2    8.83    0.70
   0   6   2   55.16    1.91
   1   6   2   10.32    0.75
   2   6   2   12.84    0.83
   3   6   2    2.13    0.55
   4   6   2    2.83    0.67
   5   6   2   12.95    1.16
  -9   7   2    0.46    0.49
  -8   7   2    0.56    0.46
  -7   7   2    0.04    0.46
  -6   7   2    2.86    0.51
  -5   7   2    9.17    0.77
  -4   7   2    4.37    0.54
  -3   7   2    4.74    0.56
  -2   7   2    4.73    0.59
  -1   7   2    2.91    0.53
   0   7   2    1.20    0.52
   1   7   2    8.85    0.81
   2   7   2   17.78    1.06
   3   7   2    0.79    0.67
   4   7   2    4.91    0.83
  -8   8   2    2.36    0.56
  -7   8   2    0.83    0.55
  -6   8   2   16.00    0.93
  -5   8   2    4.10    0.60
  -4   8   2    1.97    0.52
  -3   8   2    3.65    0.62
  -2   8   2    1.47    0.62
  -1   8   2   -0.12    0.57
   0   8   2    9.18    0.84
   1   8   2    1.51    0.65
   2   8   2    3.60    0.81
   3   8   2    0.85    0.72
   4   8   2    1.20    0.89
  -7   9   2    0.69    0.60
  -6   9   2   10.74    1.03
  -5   9   2    0.64    0.64
  -4   9   2    4.29    0.73
  -3   9   2    7.28    0.80
  -2   9   2    0.94    0.72
  -1   9   2    2.10    0.70
   0   9   2    0.27    0.77
   1   9   2   -0.18    0.83
   2   9   2    0.26    0.77
   3   9   2    1.70    0.96
  -6  10   2    0.99    0.72
  -5  10   2    1.19    0.74
  -4  10   2   -0.15    0.76
  -3  10   2    3.73    0.85
  -2  10   2    4.86    0.89
  -1  10   2    2.97    0.81
   0  10   2    8.48    0.99
   1  10   2    1.64    0.88
   0  11  -3   -1.02    0.83
  -1  11  -3   -0.33    0.87
  -2  11  -3    0.40    0.75
  -3  11  -3    0.96    0.72
  -4  11  -3    0.19    0.75
   2  10  -3    1.33    0.99
   1  10  -3    2.30    0.91
   0  10  -3    2.89    0.87
  -1  10  -3    1.86    0.79
  -2  10  -3    1.01    0.72
  -3  10  -3    0.87    0.68
  -4  10  -3    1.59    0.66
  -5  10  -3    0.15    0.61
  -6  10  -3   -0.08    0.60
   4   9  -3   -0.43    1.04
   3   9  -3    1.06    0.87
   2   9  -3    4.34    0.91
   1   9  -3    0.44    0.76
   0   9  -3    7.94    0.80
  -1   9  -3    0.68    0.59
  -2   9  -3    2.36    0.62
  -3   9  -3    1.06    0.60
  -4   9  -3    1.14    0.58
  -5   9  -3    3.54    0.61
  -6   9  -3    0.12    0.51
  -7   9  -3    3.54    0.56
   5   8  -3    3.00    1.03
   4   8  -3   -2.13    0.77
   3   8  -3    3.07    0.83
   2   8  -3   -0.61    0.70
   1   8  -3    2.15    0.63
   0   8  -3    0.49    0.56
  -1   8  -3    1.37    0.55
  -2   8  -3    7.34    0.68
  -3   8  -3    2.14    0.53
  -4   8  -3   17.47    0.96
  -5   8  -3    7.90    0.74
  -6   8  -3   15.70    0.86
  -7   8  -3    5.12    0.49
   6   7  -3    2.63    0.76
   4   7  -3   -0.86    0.68
   3   7  -3    3.71    0.68
   2   7  -3   -0.54    0.54
   1   7  -3    2.60    0.55
   0   7  -3    0.41    0.51
  -1   7  -3    2.67    0.45
  -2   7  -3   -0.05    0.37
  -3   7  -3    0.72    0.42
  -4   7  -3    3.20    0.44
  -5   7  -3    0.25    0.38
  -6   7  -3    1.52    0.38
  -7   7  -3    0.34    0.32
   6   6  -3    1.72    0.76
   6   6  -3    1.45    0.66
   5   6  -3    1.54    0.59
   5   6  -3    3.47    0.75
   4   6  -3    3.91    0.69
   3   6  -3    0.44    0.55
   2   6  -3   29.24    1.20
   1   6  -3   27.96    1.12
   0   6  -3   21.05    0.89
  -1   6  -3   20.91    0.86
  -2   6  -3   32.74    1.20
  -3   6  -3   27.44    1.04
  -4   6  -3    0.28    0.31
  -5   6  -3   13.17    0.62
  -6   6  -3   -0.03    0.27
  -7   6  -3    1.00    0.23
  -9   6  -3   -0.06    0.88
   7   5  -3    0.02    0.64
  -7  -5   3   -0.82    0.87
   6   5  -3    2.46    0.73
   6   5  -3    0.47    0.58
  -6  -5   3   -0.07    0.80
   5   5  -3    1.47    0.52
   5   5  -3    2.77    0.70
  -5  -5   3    0.00    0.67
   4   5  -3   17.84    0.95
  -4  -5   3   13.99    0.99
   3   5  -3    3.24    0.51
   2   5  -3   11.20    0.68
   1   5  -3    3.02    0.38
   0   5  -3   81.32    2.61
  -1   5  -3   14.12    0.64
  -2   5  -3   94.19    2.97
  -3   5  -3   25.11    0.90
  -4   5  -3   59.35    1.90
  -5   5  -3  111.66    3.55
  -5   5  -3  114.88    3.51
  -6   5  -3   14.02    0.51
  -6   5  -3   12.62    0.54
  -9   5  -3    4.60    0.90
   8   4  -3    1.41    0.69
  -8  -4   3    3.25    1.06
   7   4  -3    1.25    0.61
  -7  -4   3    0.88    0.86
   6   4  -3    4.55    0.60
   6   4  -3    4.44    0.65
  -6  -4   3    4.80    0.81
   5   4  -3    0.85    0.44
   5   4  -3    1.61    0.57
  -5  -4   3    1.20    0.59
   4   4  -3    1.14    0.51
  -4  -4   3    0.92    0.51
   3   4  -3    0.16    0.41
  -3  -4   3   -0.26    0.42
   2   4  -3   20.87    0.84
   1   4  -3    6.85    0.44
   0   4  -3  119.99    3.75
  -1   4  -3    0.91    0.22
  -2   4  -3   57.90    1.84
  -3   4  -3  108.09    3.31
   3  -4   3  105.77    3.28
  -4   4  -3    6.67    0.32
  -4   4  -3    6.31    0.60
  -5   4  -3   18.70    0.61
  -5   4  -3   17.88    0.64
  -8   4  -3   14.66    1.17
  -9   4  -3    4.56    0.92
   8   3  -3    3.86    0.68
  -8  -3   3    4.95    0.96
   7   3  -3    0.34    0.53
  -7  -3   3   -0.53    0.67
   6   3  -3   14.99    0.85
   6   3  -3   14.20    0.91
  -6  -3   3   12.86    1.00
   5   3  -3    8.07    0.70
   5   3  -3   10.02    0.70
  -5  -3   3    9.37    0.78
   4   3  -3   22.60    0.93
   4   3  -3   23.46    0.99
  -4  -3   3   22.29    1.03
   3   3  -3  119.53    3.75
  -3  -3   3  118.79    4.10
   2   3  -3   54.76    1.84
  -2  -3   3   57.86    2.01
   1   3  -3  116.61    3.95
   1   3  -3  117.02    3.64
   0   3  -3   11.62    0.46
  -1   3  -3  154.85    4.77
  -2   3  -3   27.46    0.88
   2  -3   3   26.81    0.87
  -3   3  -3  164.69    5.17
  -3   3  -3  173.20    5.62
  -4   3  -3   31.66    0.99
  -4   3  -3   32.20    1.24
  -6   3  -3   38.72    1.56
  -7   3  -3    0.23    0.57
  -8   3  -3    5.30    0.76
  -9   3  -3   -0.41    0.81
  -9  -2   3    0.33    0.97
  -8  -2   3    3.24    0.85
   7   2  -3    4.47    0.58
  -7  -2   3    4.50    0.76
   6   2  -3   41.24    1.46
   6   2  -3   38.81    1.56
  -6  -2   3   38.60    1.70
   5   2  -3    0.07    0.33
   5   2  -3   -0.04    0.35
  -5  -2   3   -0.13    0.45
   4   2  -3  202.46    6.24
   4   2  -3  202.94    6.66
  -4  -2   3  198.41    6.83
   3   2  -3    0.44    0.25
   3   2  -3    0.26    0.21
  -3  -2   3    0.05    0.27
   2   2  -3  578.27   16.82
   2   2  -3  534.66   18.32
  -2  -2   3  536.61   18.32
   1   2  -3  107.88    3.66
   1   2  -3  106.76    3.37
  -1  -2   3  108.23    3.67
  -1  -2   3  111.97    3.37
   0   2  -3  470.36   14.74
   0  -2   3  492.72   14.70
  -1   2  -3  249.85    7.63
   1  -2   3  249.25    7.63
  -2   2  -3   97.60    3.09
  -2   2  -3  103.80    3.36
  -3   2  -3  191.83    5.98
  -3   2  -3  200.47    6.49
  -4   2  -3   23.92    0.97
  -4   2  -3   22.63    0.74
  -4   2  -3   23.78    0.73
  -5   2  -3   43.94    1.38
  -5   2  -3   44.82    1.66
  -6   2  -3    2.83    0.23
  -6   2  -3    2.06    0.48
  -7   2  -3    6.86    0.68
  -8   2  -3    0.49    0.62
  -9   2  -3    2.79    0.83
  -9  -1   3    0.71    0.89
  -8  -1   3   13.37    1.28
  -7  -1   3   -0.25    0.59
   6   1  -3   17.21    0.94
   6   1  -3   17.57    0.81
  -6  -1   3   17.34    1.05
   5   1  -3    0.94    0.31
   5   1  -3    0.57    0.31
  -5  -1   3    0.64    0.41
   4   1  -3   60.99    1.94
   4   1  -3   57.86    2.06
  -4  -1   3   60.96    1.94
  -4  -1   3   59.72    2.16
   3   1  -3    6.67    0.36
   3   1  -3    6.70    0.36
  -3  -1   3    6.81    0.43
  -3  -1   3    6.12    0.33
   2   1  -3  122.09    3.71
   2   1  -3  118.32    3.93
  -2  -1   3  119.21    4.04
  -2  -1   3  119.45    3.71
   1   1  -3    0.54    0.09
   1   1  -3    0.43    0.13
  -1  -1   3    0.66    0.12
  -1  -1   3    0.72    0.11
   0   1  -3  194.14    6.11
   0   1  -3  192.15    6.64
   0   1  -3  202.87    6.53
   0  -1   3  207.99    6.11
  -1   1  -3  212.69    6.54
  -1   1  -3  218.24    7.00
   1  -1   3  201.78    6.53
   1  -1   3  224.02    6.53
   1  -1   3  210.71    7.00
  -2   1  -3  492.39   14.23
  -2   1  -3  447.33   15.43
  -2   1  -3  445.32   14.23
  -2   1  -3  474.05   15.17
   2  -1   3  455.69   15.18
   2  -1   3  468.26   14.16
  -3   1  -3   32.65    1.22
  -3   1  -3   34.68    1.24
  -3   1  -3   33.63    1.06
  -3   1  -3   34.12    1.08
   3  -1   3   33.82    1.27
  -4   1  -3  167.47    5.68
  -4   1  -3  172.51    5.60
  -4   1  -3  166.70    5.15
   4  -1   3  165.16    5.62
  -5   1  -3    4.25    0.28
  -5   1  -3    4.09    0.45
   5  -1   3    4.01    0.49
  -6   1  -3   78.90    2.78
  -6   1  -3   74.36    2.41
   6  -1   3   77.30    2.83
  -7   1  -3   28.91    1.38
  -8   1  -3   16.92    1.24
  -9   1  -3    6.97    0.91
  -9   0   3    0.44    0.81
  -8   0   3    7.53    0.85
  -7   0   3    0.04    0.58
   6   0  -3   29.12    1.07
  -6   0   3   27.79    1.17
  -6   0   3   29.41    1.27
  -6   0   3   28.47    1.02
   5   0  -3   30.48    1.06
  -5   0   3   30.32    1.15
  -5   0   3   26.03    1.02
  -5   0   3   32.15    1.25
   4   0  -3   29.26    0.98
  -4   0   3   26.32    0.95
  -4   0   3   27.52    1.03
  -4   0   3   27.95    1.09
   3   0  -3    7.40    0.37
  -3   0   3    6.90    0.32
  -3   0   3    6.64    0.35
   2   0  -3    3.21    0.23
  -2   0   3    3.31    0.21
  -2   0   3    2.93    0.19
   1   0  -3   67.07    2.16
  -1   0   3   70.84    2.16
   0   0  -3   10.92    0.42
   0   0   3   11.49    0.42
   0   0   3   12.02    0.42
  -1   0  -3   14.61    0.55
  -1   0  -3   15.04    0.51
  -1   0  -3   14.79    0.53
   1   0   3   15.66    0.52
   1   0   3   14.50    0.51
   1   0   3   14.96    0.55
   1   0   3   14.60    0.58
  -2   0  -3  145.06    4.95
  -2   0  -3  148.18    4.56
  -2   0  -3  147.85    4.53
   2   0   3  149.78    4.91
   2   0   3  139.12    4.96
   2   0   3  145.71    4.53
   2   0   3  157.10    4.54
  -3   0  -3   14.62    0.65
  -3   0  -3   14.38    0.59
  -3   0  -3   14.84    0.53
   3   0   3   15.58    0.52
   3   0   3   15.67    0.73
   3   0   3   15.04    0.65
  -4   0  -3   79.02    2.47
  -4   0  -3   79.09    2.76
   4   0   3   78.79    2.78
  -5   0  -3    1.42    0.23
  -5   0  -3    1.09    0.37
   5   0   3    1.33    0.46
  -6   0  -3   30.11    1.34
   6   0   3   30.21    1.44
  -7   0  -3   -0.07    0.60
   7   0   3   -0.01    0.63
  -8   0  -3   10.54    1.15
   8   0   3   10.81    1.02
  -9   0  -3    1.15    0.86
 -10   1   3    6.02    1.03
  -9   1   3    7.21    1.01
  -8   1   3   39.52    1.86
  -7   1   3   -0.03    0.55
   6  -1  -3  101.56    2.99
  -6   1   3   89.69    2.98
  -6   1   3   94.64    3.34
  -6   1   3   90.92    3.24
   5  -1  -3    4.00    0.37
  -5   1   3    2.80    0.29
  -5   1   3    3.58    0.34
   4  -1  -3  241.12    7.33
  -4   1   3  234.31    7.84
  -4   1   3  238.43    7.32
   3  -1  -3   19.40    0.70
  -3   1   3   19.14    0.68
   2  -1  -3  196.43    6.15
  -2   1   3  202.64    6.14
   1  -1  -3    0.92    0.16
  -1   1   3    0.51    0.14
  -1   1   3    1.10    0.15
   0  -1  -3  409.32   12.37
   0  -1  -3  399.42   12.39
   0   1   3  419.89   12.38
   0   1   3  389.31   12.36
  -1  -1  -3   32.35    1.04
  -1  -1  -3   32.36    1.09
   1   1   3   33.03    1.05
   1   1   3   31.47    1.04
   1   1   3   31.54    1.14
  -2  -1  -3   48.88    1.57
  -2  -1  -3   49.28    1.73
  -2  -1  -3   50.16    1.63
   2   1   3   49.47    1.57
   2   1   3   49.19    1.74
  -3  -1  -3   15.99    0.74
  -3  -1  -3   17.18    0.63
   3   1   3   17.49    0.63
   3   1   3   17.27    0.80
  -4  -1  -3    2.02    0.38
  -4  -1  -3    2.43    0.25
   4   1   3    1.61    0.24
   4   1   3    2.12    0.44
  -5  -1  -3   14.29    0.67
  -5  -1  -3   15.63    0.91
   5   1   3   18.98    0.69
   5   1   3   15.54    1.01
  -6  -1  -3    3.18    0.55
   6   1   3    3.40    0.60
  -7  -1  -3    3.89    0.71
   7   1   3    1.93    0.72
  -8  -1  -3    5.87    0.82
   8   1   3    4.90    0.84
  -9  -1  -3    2.56    0.86
 -10   2   3   -0.12    1.02
  -9   2   3   -0.38    0.87
  -8   2   3    2.77    0.75
  -7   2   3    0.81    0.64
  -6   2   3   34.45    1.17
  -6   2   3   32.75    1.35
   5  -2  -3    0.97    0.23
  -5   2   3    0.34    0.29
  -5   2   3    0.38    0.23
   4  -2  -3   27.93    0.99
  -4   2   3   28.70    0.99
   3  -2  -3    0.28    0.19
  -3   2   3    0.70    0.21
  -3   2   3    0.22    0.18
   2  -2  -3  252.01    7.72
  -2   2   3  253.26    7.71
  -2   2   3  246.64    7.70
   1  -2  -3   91.72    2.90
  -1   2   3   92.21    2.88
  -1   2   3   90.79    2.87
   0  -2  -3  205.62    6.52
   0  -2  -3  214.94    6.48
   0   2   3  210.56    6.48
  -1  -2  -3  156.70    4.59
  -1  -2  -3  148.06    4.64
   1   2   3  146.09    4.58
   1   2   3  141.20    5.00
  -2  -2  -3  121.82    3.82
  -2  -2  -3  119.30    4.08
   2   2   3  118.35    3.73
  -3  -2  -3   63.43    2.27
   3   2   3   64.79    2.06
  -4  -2  -3   54.80    2.02
   4   2   3   54.40    2.09
   4   2   3   55.16    1.81
  -5  -2  -3   34.75    1.46
   5   2   3   34.97    1.59
   5   2   3   38.45    1.29
  -6  -2  -3   13.85    1.00
   6   2   3   12.69    1.15
  -7  -2  -3   10.91    0.96
   7   2   3    9.33    0.91
  -8  -2  -3    2.35    0.79
 -10   3   3    3.70    0.59
 -10   3   3    2.97    1.03
  -9   3   3   -0.56    0.88
  -8   3   3    8.62    0.90
   6  -3  -3    2.10    0.20
  -6   3   3    1.40    0.32
  -6   3   3    2.33    0.39
   5  -3  -3    3.61    0.32
  -5   3   3    3.80    0.33
  -5   3   3    3.28    0.37
   4  -3  -3   14.55    0.63
  -4   3   3   14.78    0.65
  -4   3   3   14.31    0.61
   3  -3  -3   32.50    1.14
  -3   3   3   32.40    1.11
  -3   3   3   32.88    1.12
   2  -3  -3   28.11    1.02
  -2   3   3   28.29    1.00
  -2   3   3   28.90    1.00
   1  -3  -3    9.92    0.52
  -1   3   3    9.50    0.45
   0  -3  -3    2.40    0.34
   0   3   3    2.05    0.26
  -1  -3  -3    0.87    0.37
   1   3   3    0.96    0.25
   2   3   3  127.95    4.02
  -3  -3  -3    5.95    0.56
   3   3   3    6.40    0.51
  -4  -3  -3   81.18    2.95
   4   3   3   83.60    2.68
   4   3   3   83.34    2.98
  -5  -3  -3    4.73    0.66
   5   3   3    4.74    0.68
   5   3   3    6.03    0.54
  -6  -3  -3   28.41    1.57
   6   3   3   33.14    1.64
  -7  -3  -3    0.96    0.78
   7   3   3    2.21    0.83
  -8  -3  -3    5.03    0.97
  -9   4   3   -0.43    0.48
  -9   4   3   -0.94    0.93
  -8   4   3    9.30    0.74
  -7   4   3    4.66    0.48
  -6   4   3   29.18    1.12
   5  -4  -3   54.69    1.73
  -5   4   3   48.00    1.71
  -5   4   3   50.80    1.73
   4  -4  -3   63.77    2.06
  -4   4   3   62.44    2.04
  -4   4   3   60.20    2.04
   3  -4  -3  168.45    5.26
  -3   4   3  166.04    5.21
   1  -4  -3   51.07    1.78
  -1   4   3   50.79    1.69
   0   4   3   59.84    1.96
   1   4   3   19.81    0.85
   2   4   3   86.10    2.78
   3   4   3   -0.22    0.39
   4   4   3   32.03    1.26
  -5  -4  -3    1.92    0.60
   5   4   3    0.17    0.49
   5   4   3    0.29    0.58
  -6  -4  -3    7.08    0.85
   6   4   3    6.93    0.90
  -7  -4  -3    1.09    0.83
  -9   5   3    1.53    0.49
  -8   5   3   10.26    0.76
  -7   5   3    0.54    0.43
  -6   5   3   45.44    1.58
  -5   5   3    5.54    0.48
  -4   5   3   60.00    2.00
  -3   5   3    3.84    0.42
  -2   5   3   85.56    2.77
  -1   5   3   53.75    1.83
   0   5   3  110.17    3.52
   1   5   3   26.51    1.07
   2   5   3   52.02    1.81
   3   5   3   15.57    0.93
   4   5   3    0.11    0.51
   5   5   3   -0.48    0.58
   5   5   3    0.84    0.70
   6   5   3   -0.49    0.77
  -9   6   3    1.51    0.50
  -8   6   3    0.58    0.48
  -7   6   3    0.61    0.47
  -6   6   3   12.94    0.82
  -5   6   3    6.28    0.64
  -4   6   3   12.92    0.76
  -3   6   3    2.64    0.47
  -2   6   3   17.26    0.88
  -1   6   3    6.03    0.60
   0   6   3  116.32    3.74
   1   6   3    0.59    0.48
   2   6   3   60.11    2.14
   3   6   3    4.82    0.63
   4   6   3   17.16    1.02
  -9   7   3   -0.05    0.52
  -8   7   3    2.92    0.56
  -7   7   3    4.31    0.58
  -6   7   3    3.78    0.57
  -5   7   3    5.24    0.57
  -4   7   3    1.14    0.52
  -3   7   3    1.90    0.48
  -2   7   3   41.81    1.55
  -1   7   3    0.77    0.51
   0   7   3   70.88    2.44
   1   7   3    1.11    0.58
   2   7   3   11.70    1.05
   3   7   3   -0.05    0.63
   4   7   3    1.87    0.70
  -8   8   3    9.08    0.89
  -7   8   3    0.53    0.59
  -6   8   3   12.91    0.94
  -5   8   3    0.39    0.58
  -4   8   3   12.14    0.95
  -3   8   3    2.06    0.57
  -2   8   3   18.77    1.13
  -1   8   3   -0.30    0.65
   0   8   3    0.84    0.65
   1   8   3   -0.15    0.64
   2   8   3    2.15    0.81
   3   8   3   -0.41    0.70
   4   8   3   -0.60    0.87
  -7   9   3    7.10    0.75
  -6   9   3    6.16    0.76
  -5   9   3    3.01    0.72
  -4   9   3   16.75    1.17
  -3   9   3    1.76    0.74
  -2   9   3   19.80    1.19
  -1   9   3    0.61    0.78
   0   9   3    3.53    0.79
   1   9   3    3.29    0.91
   2   9   3    0.47    0.90
   3   9   3    2.42    0.98
  -6  10   3   -0.19    0.76
  -5  10   3    0.00    0.77
  -4  10   3   -0.32    0.78
  -3  10   3    1.29    0.75
  -2  10   3    0.32    0.86
  -1  10   3    0.62    0.81
   0  10   3    2.59    0.96
   1  10   3    1.26    0.91
   0  11  -4    0.79    0.96
  -1  11  -4    1.53    0.81
  -2  11  -4    1.26    0.81
  -3  11  -4   -0.61    0.79
  -4  11  -4    1.64    0.76
   2  10  -4    4.81    1.08
   1  10  -4    1.64    0.85
   0  10  -4    2.24    0.78
  -1  10  -4   -0.34    0.73
  -2  10  -4    1.41    0.73
  -3  10  -4    0.99    0.71
  -4  10  -4    1.79    0.69
  -5  10  -4    6.31    0.76
  -6  10  -4    1.37    0.64
   4   9  -4   -0.33    0.97
   3   9  -4   -2.16    0.81
   2   9  -4   -1.00    0.73
   1   9  -4   -0.07    0.67
   0   9  -4    1.11    0.64
  -1   9  -4    0.81    0.66
  -2   9  -4    0.87    0.57
  -3   9  -4   10.30    0.92
  -4   9  -4    0.31    0.55
  -5   9  -4    6.02    0.65
  -6   9  -4    2.90    0.58
  -7   9  -4    8.46    0.80
   3   8  -4   -1.26    0.70
   2   8  -4    1.19    0.66
   1   8  -4    3.46    0.65
   0   8  -4   -0.36    0.52
  -1   8  -4   -0.09    0.50
  -2   8  -4    1.90    0.55
  -3   8  -4   -0.13    0.48
  -4   8  -4    8.85    0.77
  -5   8  -4    1.09    0.47
  -6   8  -4    3.93    0.50
  -7   8  -4    0.84    0.42
   6   7  -4    4.35    1.04
   4   7  -4   17.08    1.35
   3   7  -4   15.47    1.05
   2   7  -4   -0.71    0.60
   1   7  -4    9.62    0.78
   0   7  -4    1.23    0.51
  -1   7  -4   18.89    0.94
  -2   7  -4    1.03    0.45
  -3   7  -4   28.59    1.11
  -4   7  -4    1.29    0.39
  -5   7  -4    2.28    0.40
  -6   7  -4    0.60    0.35
  -7   7  -4    4.92    0.47
   6   6  -4    1.34    0.62
   5   6  -4    0.27    0.54
   5   6  -4    1.56    0.80
   4   6  -4    2.46    0.65
   3   6  -4    2.37    0.57
   2   6  -4   55.52    1.98
   1   6  -4    6.03    0.61
   0   6  -4  114.01    3.63
  -1   6  -4   44.25    1.53
  -2   6  -4   28.14    1.03
  -3   6  -4   59.94    1.96
  -4   6  -4    7.82    0.51
  -5   6  -4   17.86    0.74
  -6   6  -4   11.16    0.53
  -9   6  -4    3.82    0.92
   7   5  -4   -0.67    0.60
  -7  -5   4    0.02    0.95
   6   5  -4    0.59    0.70
   6   5  -4    2.15    0.57
  -6  -5   4    1.25    0.75
   5   5  -4   -0.09    0.46
   5   5  -4    0.87    0.66
  -5  -5   4   -0.82    0.61
   4   5  -4    5.90    0.70
  -4  -5   4    4.97    0.69
   3   5  -4   11.07    0.75
   2   5  -4    6.87    0.68
   1   5  -4    5.50    0.50
   0   5  -4   13.18    0.62
  -1   5  -4    2.82    0.34
  -2   5  -4   31.39    1.09
  -3   5  -4    8.73    0.47
  -4   5  -4   50.80    1.64
  -5   5  -4    4.65    0.34
  -6   5  -4   28.79    0.96
  -6   5  -4   30.86    0.99
  -8   5  -4    2.82    0.78
  -9   5  -4    8.30    0.97
  -8  -4   4    2.45    0.90
   7   4  -4    0.41    0.55
  -7  -4   4    0.06    0.75
   6   4  -4    1.27    0.49
  -6  -4   4    2.52    0.69
   5   4  -4   14.96    0.88
   5   4  -4   15.07    0.89
  -5  -4   4   15.76    1.11
   4   4  -4    1.30    0.36
   4   4  -4    0.83    0.51
  -4  -4   4    0.97    0.54
   3   4  -4   31.57    1.17
  -3  -4   4   28.86    1.24
   2   4  -4   14.33    0.69
   1   4  -4    7.19    0.47
   0   4  -4   47.76    1.56
  -1   4  -4   79.52    2.51
  -2   4  -4    5.97    0.34
  -3   4  -4   14.66    0.53
   3  -4   4   13.87    0.46
  -4   4  -4  100.29    3.15
  -4   4  -4  103.75    3.50
  -5   4  -4   20.60    0.67
  -7   4  -4   -0.20    0.54
  -8   4  -4   10.27    1.05
  -9   4  -4    0.39    0.79
   8   3  -4    4.76    0.68
  -8  -3   4    5.64    0.91
   7   3  -4    1.05    0.50
  -7  -3   4    1.31    0.76
   6   3  -4   19.07    1.01
   6   3  -4   17.76    0.96
  -6  -3   4   18.61    1.21
   5   3  -4   29.93    1.27
   5   3  -4   31.67    1.20
  -5  -3   4   31.87    1.42
   4   3  -4  132.07    4.19
   4   3  -4  132.79    4.43
  -4  -3   4  132.33    4.58
   3   3  -4   51.36    1.73
  -3  -3   4   51.85    1.90
   2   3  -4  406.36   12.38
  -2  -3   4  400.21   13.48
   1   3  -4   97.87    3.37
   1   3  -4  100.83    3.12
   0   3  -4   79.47    2.50
  -1   3  -4   39.70    1.28
  -2   3  -4   74.78    2.39
   2  -3   4   79.13    2.39
  -3   3  -4   20.65    0.70
  -3   3  -4   22.21    0.89
  -4   3  -4    2.73    0.37
  -4   3  -4    2.91    0.18
  -6   3  -4   14.20    0.87
  -7   3  -4   17.10    1.05
  -8   3  -4    1.54    0.66
  -9   3  -4    0.62    0.79
  -9  -2   4   -0.52    0.92
  -8  -2   4    1.73    0.85
   7   2  -4    0.45    0.47
  -7  -2   4    0.78    0.64
   6   2  -4    6.11    0.53
   6   2  -4    4.47    0.47
  -6  -2   4    5.49    0.68
   5   2  -4    2.26    0.34
   5   2  -4    2.13    0.39
  -5  -2   4    2.26    0.48
   4   2  -4   56.07    1.89
   4   2  -4   53.69    1.82
  -4  -2   4   52.96    1.98
   3   2  -4   10.75    0.49
   3   2  -4   11.55    0.53
  -3  -2   4   10.38    0.60
   2   2  -4   69.09    2.19
   2   2  -4   66.58    2.36
  -2  -2   4   70.79    2.38
   1   2  -4    4.41    0.29
   1   2  -4    3.73    0.24
  -1  -2   4    3.90    0.28
   0   2  -4  181.61    5.51
   0   2  -4  176.79    5.97
  -1   2  -4  122.10    3.94
  -1   2  -4  117.76    3.68
   1  -2   4  118.04    3.67
  -2   2  -4   83.11    2.75
  -2   2  -4   80.93    2.53
   2  -2   4   81.62    2.52
  -3   2  -4    1.23    0.13
  -3   2  -4    0.80    0.23
  -4   2  -4   84.05    2.92
  -4   2  -4   86.22    2.64
  -4   2  -4   82.61    2.94
  -4   2  -4   87.69    2.63
  -5   2  -4   40.49    1.55
  -5   2  -4   41.09    1.28
  -6   2  -4   28.88    0.95
  -6   2  -4   29.51    1.26
  -7   2  -4   40.71    1.71
  -8   2  -4    6.09    0.76
  -9   2  -4    4.31    0.87
  -9  -1   4    0.47    0.84
  -8  -1   4    4.02    0.80
  -7  -1   4   17.24    1.10
   6   1  -4    5.83    0.48
  -6  -1   4    5.66    0.65
   5   1  -4   12.17    0.63
  -5  -1   4   11.78    0.75
   4   1  -4   46.01    1.61
   4   1  -4   45.90    1.54
  -4  -1   4   46.72    1.70
   3   1  -4    3.62    0.27
   3   1  -4    3.96    0.33
  -3  -1   4    3.82    0.40
   2   1  -4   82.79    2.61
  -2  -1   4   84.60    2.61
  -2  -1   4   81.80    2.83
   1   1  -4    4.23    0.25
  -1  -1   4    3.98    0.22
  -1  -1   4    4.03    0.23
   0   1  -4  187.00    5.93
   0   1  -4  196.62    6.32
   0  -1   4  185.22    6.32
   0  -1   4  203.92    5.94
  -1   1  -4    1.13    0.14
  -1   1  -4    1.05    0.12
  -1   1  -4    1.15    0.15
   1  -1   4    1.09    0.13
   1  -1   4    1.17    0.17
   1  -1   4    1.52    0.14
  -2   1  -4  317.99   10.18
  -2   1  -4  294.61    9.49
  -2   1  -4  301.54   10.34
  -2   1  -4  318.29    9.49
   2  -1   4  305.40   10.19
   2  -1   4  323.74    9.47
  -3   1  -4   28.64    0.93
  -3   1  -4   28.38    0.91
  -3   1  -4   27.79    1.05
  -3   1  -4   27.05    1.03
   3  -1   4   28.18    1.09
  -4   1  -4  120.88    4.08
  -4   1  -4  122.49    3.68
  -4   1  -4  116.14    3.72
  -4   1  -4  118.24    4.03
   4  -1   4  118.99    4.08
  -5   1  -4   67.53    2.39
  -5   1  -4   66.67    2.09
   5  -1   4   65.22    2.42
  -6   1  -4   26.67    1.23
   6  -1   4   27.84    1.38
  -7   1  -4    8.77    0.91
   7  -1   4    7.63    0.78
  -8   1  -4   10.58    0.93
  -9   1  -4    4.25    0.87
  -9   0   4    0.80    0.88
  -8   0   4   19.11    1.27
  -7   0   4   17.40    1.08
   6   0  -4   81.04    2.59
  -6   0   4   74.93    2.75
  -6   0   4   82.74    2.91
   5   0  -4   38.82    1.33
  -5   0   4   37.16    1.40
  -5   0   4   38.98    1.49
   4   0  -4  123.11    3.88
  -4   0   4  122.14    4.12
  -4   0   4  125.12    4.25
  -4   0   4  125.56    3.87
   3   0  -4   19.44    0.75
  -3   0   4   19.27    0.73
  -3   0   4   21.47    0.73
   2   0  -4  257.31    8.13
  -2   0   4  272.13    8.13
   1   0  -4  158.40    5.16
  -1   0   4  176.11    5.16
   0   0  -4   99.99    3.18
   0   0   4   98.73    3.17
   0   0   4  107.94    3.18
  -1   0  -4   65.70    2.04
  -1   0  -4   63.93    2.20
  -1   0  -4   65.71    2.06
   1   0   4   64.35    2.20
   1   0   4   63.11    2.03
   1   0   4   68.22    2.04
   1   0   4   63.98    2.20
  -2   0  -4    2.11    0.21
  -2   0  -4    1.75    0.20
  -2   0  -4    2.01    0.22
   2   0   4    2.15    0.20
   2   0   4    1.95    0.28
   2   0   4    1.90    0.20
  -3   0  -4    2.40    0.28
  -3   0  -4    2.21    0.20
  -3   0  -4    2.35    0.27
   3   0   4    2.18    0.21
   3   0   4    2.59    0.36
  -4   0  -4    1.30    0.21
  -4   0  -4    1.67    0.32
  -4   0  -4    1.03    0.31
   4   0   4    1.46    0.42
  -5   0  -4    0.99    0.42
  -5   0  -4    1.86    0.25
   5   0   4    0.98    0.51
  -6   0  -4   20.77    1.09
   6   0   4   22.46    1.27
  -7   0  -4    2.23    0.65
   7   0   4    2.71    0.71
  -8   0  -4    6.56    0.85
   8   0   4    5.69    0.92
  -9   0  -4    1.75    0.76
 -10   1   4    0.86    1.06
  -9   1   4   -0.81    0.89
  -8   1   4   13.12    1.28
  -7   1   4    0.32    0.58
   6  -1  -4   45.55    1.48
  -6   1   4   42.92    1.70
  -6   1   4   40.02    1.45
  -6   1   4   42.31    1.60
   5  -1  -4   31.95    1.13
  -5   1   4   30.36    1.20
  -5   1   4   31.93    1.10
   4  -1  -4  235.16    7.28
  -4   1   4  232.31    7.77
  -4   1   4  239.97    7.28
   3  -1  -4    8.14    0.44
  -3   1   4    8.59    0.42
   2  -1  -4  365.46   11.56
  -2   1   4  387.88   11.55
   1  -1  -4  254.15    7.97
  -1   1   4  268.32    7.96
  -1   1   4  253.90    7.95
   0  -1  -4  231.14    7.24
   0  -1  -4  239.34    7.22
   0   1   4  229.92    7.22
   0   1   4  239.10    7.23
  -1  -1  -4  223.57    6.75
  -1  -1  -4  220.97    6.78
   1   1   4  211.98    7.34
   1   1   4  221.15    6.74
  -2  -1  -4  204.98    6.51
  -2  -1  -4  213.75    6.46
  -2  -1  -4  213.18    7.04
   2   1   4  206.63    6.45
   2   1   4  210.30    7.05
  -3  -1  -4  128.79    4.32
  -3  -1  -4  136.01    4.65
  -3  -1  -4  140.91    4.25
   3   1   4  139.43    4.64
   3   1   4  138.87    4.24
  -4  -1  -4   83.69    2.98
  -4  -1  -4   86.24    2.71
   4   1   4   83.41    3.02
   4   1   4   88.78    2.70
  -5  -1  -4   92.63    3.25
  -5  -1  -4   90.42    2.92
   5   1   4   93.66    2.89
   5   1   4   91.30    3.31
  -6  -1  -4    1.36    0.53
   6   1   4    3.01    0.63
  -7  -1  -4    6.66    0.76
   7   1   4    6.08    0.87
  -8  -1  -4    1.07    0.76
 -10   2   4    1.22    1.06
  -9   2   4    1.44    0.86
  -8   2   4    4.76    0.80
   6  -2  -4   32.88    1.13
  -6   2   4   29.93    1.28
  -6   2   4   29.76    1.12
   5  -2  -4    1.63    0.31
  -5   2   4    1.21    0.28
  -5   2   4    1.03    0.32
   4  -2  -4   66.48    2.21
  -4   2   4   69.56    2.20
   3  -2  -4    6.86    0.44
  -3   2   4    6.86    0.41
  -3   2   4    7.96    0.39
   2  -2  -4   36.54    1.26
  -2   2   4   36.50    1.24
  -2   2   4   37.46    1.24
   1  -2  -4  117.39    3.71
  -1   2   4  118.65    3.68
   0  -2  -4  287.50    8.92
   0   2   4  289.98    8.87
  -1  -2  -4    1.99    0.33
   1   2   4    1.49    0.25
   1   2   4    2.10    0.28
  -2  -2  -4  224.97    7.09
   2   2   4  229.48    7.01
  -3  -2  -4   30.47    1.20
   3   2   4   29.63    1.06
  -4  -2  -4   38.84    1.58
   4   2   4   40.94    1.68
   4   2   4   39.93    1.36
  -5  -2  -4    6.30    0.65
   5   2   4    7.92    0.57
   5   2   4    8.09    0.75
  -6  -2  -4   18.08    1.14
   6   2   4   20.10    1.32
   7   2   4    7.18    0.94
  -8  -2  -4    2.29    0.78
 -10   3   4    6.63    0.70
 -10   3   4    5.76    1.20
  -9   3   4   -0.19    0.85
  -9   3   4    0.70    0.56
   6  -3  -4   10.71    0.59
  -6   3   4    9.14    0.70
  -6   3   4    9.30    0.61
   5  -3  -4    9.70    0.56
  -5   3   4    9.33    0.60
  -5   3   4    8.85    0.56
   4  -3  -4   25.66    0.99
  -4   3   4   26.70    0.97
  -4   3   4   25.28    0.98
   3  -3  -4    1.65    0.31
  -3   3   4    1.79    0.31
   2  -3  -4  217.16    6.80
  -2   3   4  219.71    6.76
   1  -3  -4  107.67    3.44
  -1   3   4  106.59    3.37
   0  -3  -4  246.18    7.75
   0   3   4  251.65    7.68
  -1  -3  -4   30.31    1.19
   1   3   4   30.87    1.08
  -2  -3  -4   89.02    3.06
   2   3   4   95.34    2.94
   3   3   4    0.18    0.33
  -4  -3  -4   25.39    1.12
   4   3   4   23.79    1.30
   4   3   4   24.64    1.00
  -5  -3  -4    3.01    0.61
   5   3   4    2.13    0.66
   5   3   4    2.28    0.47
  -6  -3  -4   17.66    1.17
   6   3   4   14.15    1.30
  -7  -3  -4    4.83    0.85
  -8  -3  -4    4.52    0.91
  -9   4   4    0.09    0.54
  -8   4   4   12.80    0.89
  -7   4   4    3.29    0.52
   6  -4  -4   81.39    2.52
  -6   4   4   71.69    2.53
   5  -4  -4   14.14    0.74
  -5   4   4   13.33    0.73
   4  -4  -4  108.12    3.44
  -4   4   4  104.77    3.39
   3  -4  -4   64.67    2.14
  -3   4   4   61.23    2.08
   2  -4  -4   17.33    0.85
  -2   4   4   16.72    0.72
   1  -4  -4   21.49    0.94
  -1   4   4   20.57    0.87
   0  -4  -4   47.89    1.76
   0   4   4   49.42    1.65
   1   4   4   11.89    0.63
   2   4   4    0.56    0.36
   3   4   4    4.15    0.49
   4   4   4    4.23    0.53
   5   4   4    0.53    0.69
   5   4   4   -0.27    0.51
   6   4   4    0.23    0.78
  -9   5   4    0.57    0.54
  -8   5   4    5.45    0.60
  -7   5   4    2.76    0.52
  -6   5   4   37.15    1.39
  -5   5   4   22.22    0.98
   4  -5  -4   62.06    2.10
  -4   5   4   57.54    2.02
   3  -5  -4   51.54    1.86
  -3   5   4   50.19    1.76
   2  -5  -4  284.44    8.97
  -2   5   4  288.54    8.87
  -1   5   4    8.21    0.60
   0   5   4  143.00    4.52
   1   5   4   42.73    1.57
   2   5   4    6.50    0.61
   3   5   4   30.42    1.29
   4   5   4   10.95    0.79
   5   5   4   18.22    1.39
  -9   6   4    2.10    0.58
  -8   6   4    3.83    0.60
  -7   6   4    1.46    0.51
  -6   6   4    3.11    0.53
  -5   6   4    0.58    0.48
  -4   6   4    6.70    0.58
  -3   6   4   32.56    1.30
  -2   6   4   20.35    0.99
  -1   6   4   14.86    0.82
   0   6   4    7.57    0.63
   1   6   4    0.09    0.49
   2   6   4   15.84    0.94
   3   6   4    1.26    0.63
   4   6   4   16.73    1.10
  -8   7   4   15.16    1.01
  -7   7   4   -0.01    0.54
  -6   7   4   15.85    0.97
  -5   7   4    3.01    0.58
  -4   7   4    9.24    0.84
  -3   7   4    1.43    0.52
  -2   7   4    7.69    0.71
  -1   7   4    0.90    0.54
   0   7   4    0.32    0.56
   1   7   4   -0.21    0.59
   2   7   4    0.00    0.60
   3   7   4    1.13    0.67
   4   7   4    3.96    0.80
  -8   8   4   13.89    1.05
  -7   8   4    0.76    0.62
  -6   8   4   12.10    0.99
  -5   8   4    1.63    0.64
  -4   8   4   27.04    1.24
  -3   8   4    5.31    0.72
  -2   8   4   20.45    1.12
  -1   8   4   11.22    0.97
   0   8   4    1.09    0.67
   1   8   4    5.50    0.79
   2   8   4    4.28    0.87
   3   8   4    4.77    0.93
   4   8   4   -0.45    0.79
  -7   9   4    0.36    0.69
  -6   9   4   -0.07    0.69
  -5   9   4    0.16    0.63
  -4   9   4    2.14    0.68
  -3   9   4    1.66    0.69
  -2   9   4    4.95    0.79
  -1   9   4    0.49    0.82
   0   9   4    8.70    0.94
   1   9   4    1.09    0.80
   2   9   4    3.30    0.90
  -5  10   4    0.23    0.81
  -4  10   4    0.54    0.84
  -3  10   4    0.21    0.76
  -2  10   4    0.63    0.91
  -1  10   4    0.32    0.94
   0  10   4    0.47    0.86
   0  11  -5   -0.58    0.92
  -1  11  -5    1.02    0.83
  -2  11  -5   -0.60    0.72
  -3  11  -5   -0.44    0.74
  -4  11  -5    0.17    0.77
   2  10  -5   -2.70    0.96
   1  10  -5    0.29    0.94
   0  10  -5   -1.24    0.71
  -1  10  -5    0.09    0.68
  -2  10  -5    0.57    0.65
  -3  10  -5    1.98    0.69
  -4  10  -5    0.40    0.67
  -5  10  -5    8.00    0.78
  -6  10  -5    0.97    0.65
   4   9  -5    3.54    1.05
   3   9  -5   -2.06    0.95
   2   9  -5   -0.40    0.86
   1   9  -5   -0.49    0.68
   0   9  -5    0.16    0.73
  -1   9  -5   -0.02    0.64
  -2   9  -5    3.59    0.68
  -3   9  -5   -0.96    0.57
  -4   9  -5    3.17    0.62
  -5   9  -5    0.82    0.56
  -6   9  -5    5.42    0.62
   5   8  -5    1.16    0.94
   4   8  -5    1.99    0.90
   3   8  -5    1.59    0.87
   2   8  -5   -0.79    0.73
   1   8  -5    3.81    0.66
   0   8  -5    0.02    0.56
  -1   8  -5    4.43    0.57
  -2   8  -5    1.39    0.52
  -3   8  -5   -0.03    0.49
  -4   8  -5    0.12    0.47
  -5   8  -5   -0.07    0.46
  -6   8  -5    4.89    0.51
   6   7  -5   -0.93    0.94
   5   7  -5    0.89    0.57
   5   7  -5    0.86    0.92
   4   7  -5    4.55    0.83
   3   7  -5    1.83    0.67
   2   7  -5    8.64    0.86
   1   7  -5   10.76    0.91
   0   7  -5    9.33    0.81
  -1   7  -5   10.67    0.77
  -2   7  -5    0.29    0.43
  -3   7  -5    8.09    0.63
  -4   7  -5    1.34    0.40
  -5   7  -5   17.11    0.81
  -6   7  -5    0.76    0.34
  -7  -6   5    0.63    0.96
   6   6  -5   -0.78    0.77
   6   6  -5    0.62    0.62
   5   6  -5   -0.13    0.49
   5   6  -5    0.04    0.70
   4   6  -5    4.79    0.80
   2   6  -5   14.02    0.86
   1   6  -5    0.88    0.49
   0   6  -5   15.41    0.81
  -1   6  -5    4.08    0.45
  -2   6  -5   23.44    0.94
  -3   6  -5   17.22    0.77
  -4   6  -5   61.00    1.99
  -5   6  -5   21.64    0.83
  -6   6  -5   11.80    0.54
  -7  -5   5    1.77    1.00
   6   5  -5    0.67    0.51
   6   5  -5    2.54    0.70
  -6  -5   5    0.36    0.82
   5   5  -5    6.88    0.78
   5   5  -5    5.03    0.54
  -5  -5   5    4.92    0.76
   4   5  -5    1.59    0.56
  -4  -5   5    0.19    0.59
   3   5  -5    1.13    0.51
   2   5  -5    9.92    0.68
   1   5  -5    0.65    0.37
   0   5  -5    1.27    0.36
  -1   5  -5    3.45    0.32
  -2   5  -5   34.63    1.19
  -3   5  -5   15.88    0.65
  -4   5  -5   73.87    2.33
  -5   5  -5   15.47    0.59
  -6   5  -5   14.99    0.52
  -8   5  -5    7.39    0.82
  -9   5  -5    2.34    0.86
  -8  -4   5    2.19    0.90
   7   4  -5    1.30    0.54
  -7  -4   5    0.60    0.79
   6   4  -5    9.17    0.81
   6   4  -5    9.32    0.93
  -6  -4   5    8.12    0.86
   5   4  -5    8.06    0.70
   5   4  -5    8.25    0.70
  -5  -4   5    6.01    0.69
   4   4  -5  113.09    3.67
   4   4  -5  116.54    3.85
  -4  -4   5  112.43    4.00
   3   4  -5   52.08    1.80
  -3  -4   5   52.11    1.94
   2   4  -5   62.82    2.08
   1   4  -5   58.85    2.04
   1   4  -5   56.97    1.90
   0   4  -5   18.52    0.74
   0   4  -5   19.51    0.75
  -1   4  -5   65.08    2.08
  -2   4  -5   12.83    0.52
  -3   4  -5    0.05    0.28
  -3   4  -5   -0.07    0.19
  -4   4  -5    2.29    0.40
  -4   4  -5    3.31    0.28
  -5   4  -5    1.22    0.16
  -6   4  -5    4.39    0.55
  -7   4  -5   -0.25    0.55
  -8   4  -5    0.08    0.69
  -9   4  -5   -0.18    0.80
  -8  -3   5    1.86    0.90
   7   3  -5   -0.08    0.45
  -7  -3   5    0.27    0.70
   6   3  -5   14.87    0.86
   6   3  -5   16.01    0.95
  -6  -3   5   14.84    1.15
   5   3  -5    0.49    0.33
   5   3  -5   -0.34    0.47
  -5  -3   5    0.09    0.53
   4   3  -5   33.56    1.25
   4   3  -5   33.83    1.26
  -4  -3   5   34.66    1.42
   3   3  -5   39.18    1.37
   3   3  -5   37.76    1.36
  -3  -3   5   39.86    1.50
   2   3  -5   38.34    1.42
   2   3  -5   39.11    1.36
  -2  -3   5   39.78    1.45
   1   3  -5   12.63    0.51
   1   3  -5   11.46    0.54
   0   3  -5   64.75    2.05
   0   3  -5   63.68    2.18
  -1   3  -5  112.07    3.48
  -2   3  -5  168.88    5.29
  -2   3  -5  174.75    5.69
  -3   3  -5  168.36    5.48
  -3   3  -5  160.40    5.05
  -4   3  -5   16.37    0.78
  -4   3  -5   16.70    0.58
  -5   3  -5   89.71    2.76
  -5   3  -5   88.63    3.11
  -6   3  -5    0.90    0.45
  -7   3  -5   14.22    1.03
  -8   3  -5    1.70    0.70
  -9   3  -5    0.85    0.79
  -9  -2   5   -0.37    0.97
  -8  -2   5    0.10    0.82
  -7  -2   5    0.28    0.70
   6   2  -5    2.39    0.51
   6   2  -5    1.78    0.39
  -6  -2   5    1.25    0.56
   5   2  -5   13.89    0.75
   5   2  -5   12.78    0.68
  -5  -2   5   11.97    0.87
   4   2  -5   51.05    1.77
   4   2  -5   51.58    1.73
  -4  -2   5   51.11    1.88
   3   2  -5    0.05    0.30
   3   2  -5    0.46    0.15
  -3  -2   5    0.31    0.28
   2   2  -5   62.19    2.27
   2   2  -5   67.22    2.13
   2   2  -5   67.68    2.19
  -2  -2   5   68.61    2.30
   1   2  -5  153.87    4.74
   1   2  -5  151.11    5.11
  -1  -2   5  153.71    5.13
   0   2  -5   91.68    2.99
   0   2  -5   90.79    2.83
   0   2  -5   89.12    3.03
  -1   2  -5   19.57    0.73
  -1   2  -5   19.25    0.68
  -2   2  -5  110.29    3.54
  -2   2  -5  107.38    3.28
   2  -2   5  110.39    3.27
   2  -2   5   95.57    3.26
  -3   2  -5    7.89    0.43
  -3   2  -5    8.32    0.35
  -3   2  -5    7.64    0.50
  -4   2  -5   59.26    2.10
  -4   2  -5   60.43    1.87
  -4   2  -5   56.95    2.07
  -5   2  -5   21.51    0.97
  -5   2  -5   21.82    0.81
  -5   2  -5   23.11    0.76
  -6   2  -5   57.61    2.13
  -6   2  -5   56.40    1.80
  -7   2  -5   21.01    1.16
  -8   2  -5    3.75    0.75
  -9   2  -5    6.26    0.92
  -9  -1   5    1.53    0.94
  -8  -1   5    4.86    0.89
  -7  -1   5    5.11    0.78
   6   1  -5   26.37    1.13
  -6  -1   5   28.17    1.33
   5   1  -5   27.69    1.08
  -5  -1   5   27.38    1.18
   4   1  -5   20.03    0.83
  -4  -1   5   20.49    0.92
   3   1  -5  157.78    4.91
  -3  -1   5  157.85    5.34
   2   1  -5    4.28    0.37
  -2  -1   5    4.28    0.31
   1   1  -5   63.57    2.02
  -1  -1   5   63.22    2.14
   0   1  -5   38.54    1.26
   0  -1   5   38.79    1.31
  -1   1  -5    0.74    0.16
  -1   1  -5    0.64    0.15
  -1   1  -5    0.80    0.09
   1  -1   5    0.64    0.18
   1  -1   5    0.79    0.16
  -2   1  -5   24.98    0.88
  -2   1  -5   26.47    0.93
  -2   1  -5   26.67    0.98
   2  -1   5   26.73    1.02
   2  -1   5   25.93    0.85
  -3   1  -5    0.55    0.16
  -3   1  -5    0.75    0.21
  -3   1  -5    0.21    0.24
  -3   1  -5    0.29    0.21
   3  -1   5    0.38    0.12
   3  -1   5    0.58    0.34
  -4   1  -5   16.54    0.60
  -4   1  -5   16.38    0.68
  -4   1  -5   15.79    0.74
  -4   1  -5   16.09    0.80
   4  -1   5   16.47    0.90
  -5   1  -5   13.53    0.68
  -5   1  -5   14.59    0.56
  -5   1  -5   14.13    0.78
   5  -1   5   13.95    0.97
  -6   1  -5    0.82    0.49
   6  -1   5    0.87    0.60
  -7   1  -5    0.69    0.55
   7  -1   5    1.12    0.72
  -8   1  -5    4.65    0.77
  -9   1  -5    3.19    0.85
  -9   0   5    1.18    0.86
  -8   0   5   14.52    1.33
  -7   0   5    1.11    0.67
   6   0  -5   52.42    1.81
  -6   0   5   50.96    1.88
  -6   0   5   53.63    2.01
   5   0  -5    3.83    0.38
  -5   0   5    3.63    0.46
  -5   0   5    3.82    0.34
   4   0  -5   86.98    2.75
  -4   0   5   85.57    2.88
  -4   0   5   85.18    2.98
   3   0  -5   90.36    2.86
  -3   0   5   89.70    2.98
   2   0  -5   95.22    3.00
   1   0  -5  258.01    7.94
   0   0  -5   15.33    0.58
   0   0   5   15.03    0.57
  -1   0  -5  229.13    7.14
  -1   0  -5  238.78    7.13
   1   0   5  230.55    7.12
   1   0   5  231.41    7.73
   1   0   5  228.83    7.63
  -2   0  -5    7.39    0.34
  -2   0  -5    6.73    0.38
  -2   0  -5    6.91    0.41
   2   0   5    6.94    0.34
   2   0   5    7.25    0.49
   2   0   5    6.90    0.38
  -3   0  -5  190.07    5.91
  -3   0  -5  192.18    5.97
  -3   0  -5  191.99    6.46
   3   0   5  195.25    5.90
   3   0   5  189.97    6.42
  -4   0  -5    1.39    0.22
  -4   0  -5    0.96    0.32
  -4   0  -5    0.88    0.33
   4   0   5    1.66    0.47
  -5   0  -5   13.55    0.58
  -5   0  -5   12.67    0.78
   5   0   5   12.08    0.99
  -6   0  -5   17.31    0.99
   6   0   5   16.83    1.21
  -7   0  -5    2.73    0.62
   7   0   5    2.39    0.75
  -8   0  -5    8.56    0.88
  -9   1   5    0.34    0.84
  -8   1   5    0.92    0.74
  -7   1   5    0.12    0.66
   6  -1  -5   29.35    1.13
  -6   1   5   28.05    1.18
  -6   1   5   29.77    1.35
   5  -1  -5    2.96    0.37
  -5   1   5    3.21    0.33
   4  -1  -5  121.47    3.83
   3  -1  -5   13.63    0.62
   2  -1  -5  230.91    7.14
   1  -1  -5   53.67    1.75
  -1   1   5   53.00    1.73
   0  -1  -5  352.83   10.74
   0   1   5  345.26   10.70
  -1  -1  -5  238.86    7.11
  -1  -1  -5  235.31    7.16
   1   1   5  227.20    7.11
   1   1   5  222.60    7.73
  -2  -1  -5  102.93    3.22
  -2  -1  -5  103.85    3.51
  -2  -1  -5  103.64    3.29
   2   1   5  101.07    3.52
   2   1   5  103.76    3.22
  -3  -1  -5  107.36    3.64
  -3  -1  -5  108.18    3.33
  -3  -1  -5  103.05    3.42
   3   1   5  105.54    3.66
   3   1   5  106.31    3.32
  -4  -1  -5   53.15    2.00
  -4  -1  -5   58.58    2.07
  -4  -1  -5   58.36    1.86
   4   1   5   58.33    1.84
   4   1   5   55.71    2.17
  -5  -1  -5   74.54    2.71
   5   1   5   74.44    2.82
   5   1   5   77.09    2.40
  -6  -1  -5   11.67    0.91
   6   1   5   10.46    1.15
  -7  -1  -5   21.67    1.24
   7   1   5   19.31    1.37
  -8  -1  -5    1.91    0.73
 -10   2   5    0.18    1.11
  -9   2   5   -0.58    0.87
  -8   2   5    4.94    0.88
   6  -2  -5    5.04    0.46
  -6   2   5    4.92    0.46
   5  -2  -5   25.10    0.99
   4  -2  -5    7.74    0.53
   3  -2  -5   66.29    2.17
  -3   2   5   66.60    2.16
   2  -2  -5    6.72    0.45
  -2   2   5    6.17    0.45
   1  -2  -5  211.53    6.40
  -1   2   5  199.38    6.35
   0  -2  -5   81.95    2.65
   0   2   5   81.11    2.59
  -1  -2  -5   47.00    1.59
   1   2   5   45.10    1.64
   1   2   5   44.32    1.50
  -2  -2  -5  106.49    3.47
   2   2   5  107.39    3.37
  -3  -2  -5    1.24    0.47
  -3  -2  -5    1.09    0.34
   3   2   5    1.67    0.30
  -4  -2  -5   95.19    3.33
   4   2   5   92.13    3.38
   4   2   5   96.56    3.02
   5   2   5    2.54    0.66
   5   2   5    3.23    0.41
  -6  -2  -5   36.96    1.75
   6   2   5   44.14    1.94
  -7  -2  -5   -1.70    0.72
   7   2   5    0.80    0.75
  -8  -2  -5    2.63    0.94
 -10   3   5    3.21    0.71
  -9   3   5    2.68    0.65
  -9   3   5    1.85    0.92
  -8   3   5   10.64    0.91
  -7   3   5   13.30    0.90
   6  -3  -5   70.33    2.31
  -6   3   5   68.42    2.34
   5  -3  -5   49.09    1.72
  -5   3   5   49.51    1.73
   4  -3  -5   63.36    2.08
  -4   3   5   59.38    2.03
   3  -3  -5   78.36    2.57
  -3   3   5   77.96    2.53
   2  -3  -5  113.31    3.64
  -2   3   5  113.72    3.58
   1  -3  -5  172.85    5.45
  -1   3   5  172.87    5.38
   0  -3  -5   45.69    1.66
   0   3   5   46.53    1.55
  -1  -3  -5    5.41    0.56
   1   3   5    4.76    0.44
  -2  -3  -5   17.47    0.94
   2   3   5   18.71    0.77
   3   3   5    0.85    0.36
   4   3   5   29.95    1.14
   4   3   5   27.32    1.45
  -5  -3  -5    0.19    0.57
   5   3   5   -0.28    0.65
  -6  -3  -5   15.13    1.15
   6   3   5   13.08    1.35
  -7  -3  -5    0.90    0.74
  -9   4   5    0.15    0.60
  -8   4   5   23.18    1.16
  -7   4   5    0.21    0.49
   6  -4  -5   63.21    2.11
  -6   4   5   59.20    2.10
   5  -4  -5    0.06    0.40
  -5   4   5    0.16    0.43
   4  -4  -5  141.13    4.52
  -4   4   5  141.48    4.47
   3  -4  -5   59.76    2.05
  -3   4   5   59.20    1.99
   2  -4  -5  198.28    6.25
  -2   4   5  197.51    6.17
   1  -4  -5   67.80    2.35
  -1   4   5   68.70    2.25
   0  -4  -5   84.14    2.91
   0   4   5   88.70    2.80
  -1  -4  -5   11.66    0.86
   1   4   5   12.80    0.67
   2   4   5   31.70    1.24
   3   4   5   24.69    1.09
   4   4   5   14.32    0.87
   5   4   5    8.78    0.88
  -9   5   5    1.87    0.63
  -8   5   5    1.46    0.59
  -7   5   5    0.63    0.52
  -6   5   5    2.56    0.54
   5  -5  -5    2.12    0.50
  -5   5   5    1.66    0.48
   4  -5  -5   13.91    0.87
  -4   5   5   13.56    0.82
   3  -5  -5   30.41    1.31
  -3   5   5   30.57    1.22
   2  -5  -5   52.96    1.97
  -2   5   5   52.06    1.81
   1  -5  -5   -0.42    0.50
  -1   5   5    0.35    0.45
   0  -5  -5   90.23    3.17
   0   5   5   93.93    3.02
   1   5   5    1.02    0.45
   2   5   5   78.10    2.64
   3   5   5    4.50    0.55
   4   5   5   33.66    1.44
   5   5   5    2.75    0.81
  -9   6   5    3.54    0.67
  -8   6   5    8.21    0.74
  -7   6   5    8.92    0.73
  -6   6   5    3.68    0.61
  -5   6   5   13.26    0.89
  -4   6   5   11.31    0.84
  -3   6   5    3.88    0.53
  -2   6   5   44.66    1.67
  -1   6   5   16.96    0.98
   0   6   5    7.48    0.73
   1   6   5    8.15    0.79
   2   6   5    9.97    0.82
   3   6   5   -0.14    0.62
   4   6   5    0.65    0.65
  -8   7   5    8.34    0.79
  -7   7   5    0.98    0.64
  -6   7   5   14.28    1.01
  -5   7   5    4.03    0.60
  -4   7   5   63.02    2.26
  -3   7   5   18.64    1.00
  -2   7   5   10.72    0.84
  -1   7   5    9.07    0.83
   0   7   5    0.83    0.59
   1   7   5   10.36    0.95
   2   7   5   -0.05    0.63
   3   7   5    1.47    0.76
   4   7   5    0.17    0.75
  -7   8   5    1.16    0.69
  -6   8   5    4.69    0.74
  -5   8   5    0.45    0.61
  -4   8   5   11.17    0.94
  -3   8   5    1.68    0.69
  -2   8   5    8.21    0.79
  -1   8   5    1.53    0.68
   0   8   5    9.27    0.88
   1   8   5    8.51    0.89
   2   8   5    6.27    0.85
   3   8   5    6.19    0.89
  -6   9   5    2.35    0.78
  -5   9   5    0.71    0.68
  -4   9   5    5.83    0.86
  -3   9   5    0.04    0.78
  -2   9   5    0.94    0.74
  -1   9   5    0.06    0.76
   0   9   5    3.18    0.86
   1   9   5    0.23    0.91
   2   9   5    2.66    1.02
  -5  10   5    3.59    0.89
  -4  10   5    0.24    0.86
  -3  10   5    2.03    0.94
  -2  10   5    0.43    0.86
  -1  10   5    0.10    0.90
   0  11  -6   -0.39    0.98
  -1  11  -6    1.65    0.85
  -2  11  -6    1.41    0.87
  -3  11  -6    1.65    0.80
   2  10  -6   -1.75    0.87
   1  10  -6   -2.18    0.81
   0  10  -6    3.27    0.84
  -1  10  -6    3.21    0.83
  -2  10  -6    1.85    0.67
  -3  10  -6    2.18    0.72
  -4  10  -6    1.29    0.67
  -5  10  -6    2.24    0.72
   4   9  -6    4.00    1.08
   3   9  -6    0.45    0.86
   2   9  -6   -0.07    0.80
   1   9  -6   -1.53    0.78
   0   9  -6    0.03    0.66
  -1   9  -6    0.26    0.59
  -2   9  -6   -0.07    0.61
  -3   9  -6    1.78    0.59
  -4   9  -6   10.41    0.87
  -5   9  -6    4.46    0.64
  -6   9  -6    2.43    0.57
   5   8  -6    2.27    0.97
   4   8  -6    4.63    1.05
   3   8  -6    3.80    0.83
   2   8  -6    1.87    0.79
   1   8  -6    5.91    0.79
   0   8  -6    1.02    0.65
  -1   8  -6   10.10    0.79
  -2   8  -6    0.26    0.52
  -3   8  -6   25.90    1.14
  -4   8  -6    5.56    0.59
  -5   8  -6    0.30    0.46
  -6   8  -6    5.86    0.54
   6   7  -6   -1.72    0.80
   5   7  -6    0.97    0.93
   4   7  -6    2.31    0.78
   3   7  -6    3.09    0.80
   2   7  -6   18.16    1.08
   1   7  -6    0.06    0.52
   0   7  -6    9.12    0.74
  -1   7  -6    9.42    0.77
  -2   7  -6   16.77    0.87
  -3   7  -6    9.88    0.73
  -4   7  -6   32.95    1.24
  -5   7  -6   12.92    0.72
  -6   7  -6    0.49    0.35
  -7  -6   6    1.55    1.02
  -6  -6   6   -0.44    0.89
   5   6  -6    0.19    0.46
   5   6  -6    0.12    0.77
   4   6  -6    5.80    0.82
   3   6  -6   11.59    0.93
   2   6  -6   -0.17    0.55
   1   6  -6    3.11    0.49
   0   6  -6    3.11    0.47
  -1   6  -6   12.68    0.72
  -2   6  -6   45.96    1.59
  -3   6  -6   26.14    1.01
  -4   6  -6    5.12    0.51
  -5   6  -6    7.49    0.51
  -6   6  -6    0.84    0.24
  -8   6  -6    5.05    0.81
  -7  -5   6    4.48    1.06
   6   5  -6    0.51    0.64
   6   5  -6    0.29    0.46
  -6  -5   6    1.50    0.79
   5   5  -6   32.30    1.33
   5   5  -6   31.10    1.47
  -5  -5   6   31.72    1.51
   4   5  -6    1.98    0.63
  -4  -5   6    1.27    0.55
   3   5  -6   20.08    1.07
   2   5  -6    4.77    0.53
   1   5  -6   28.45    1.14
   0   5  -6    8.05    0.55
  -1   5  -6    5.92    0.50
  -2   5  -6    9.31    0.53
  -3   5  -6   19.77    0.90
  -3   5  -6   17.27    0.74
  -4   5  -6    1.46    0.28
  -5   5  -6   17.07    0.65
  -6   5  -6    0.77    0.18
  -7   5  -6   -0.26    0.58
  -8   5  -6    2.28    0.72
  -8  -4   6    0.40    0.87
  -7  -4   6   -1.28    0.77
   6   4  -6   19.12    1.00
   6   4  -6   18.85    1.05
  -6  -4   6   19.48    1.33
   5   4  -6    0.29    0.34
  -5  -4   6   -0.53    0.53
   4   4  -6  114.13    3.80
   4   4  -6  121.89    3.97
  -4  -4   6  118.46    4.16
   3   4  -6   20.24    0.94
  -3  -4   6   21.51    1.04
   2   4  -6   39.91    1.42
   1   4  -6   82.58    2.82
   1   4  -6   81.79    2.64
   0   4  -6   23.97    0.90
   0   4  -6   23.98    0.92
  -1   4  -6   58.12    1.89
  -2   4  -6   15.42    0.62
  -2   4  -6   15.62    0.72
  -3   4  -6   88.12    2.76
  -3   4  -6   84.26    2.51
   3  -4   6   67.41    2.45
  -4   4  -6    1.49    0.22
  -5   4  -6   80.65    2.51
  -6   4  -6    0.04    0.47
  -7   4  -6   14.61    1.04
  -8   4  -6    0.44    0.65
  -9   4  -6    2.54    0.81
  -8  -3   6    0.02    0.89
  -7  -3   6   -0.22    0.77
   6   3  -6   15.87    0.98
   6   3  -6   15.51    0.85
  -6  -3   6   16.20    1.19
   5   3  -6    5.93    0.55
   5   3  -6    7.76    0.75
  -5  -3   6    6.81    0.70
   4   3  -6    6.09    0.56
   4   3  -6    6.71    0.45
  -4  -3   6    6.00    0.58
   3   3  -6    8.33    0.41
   3   3  -6    8.59    0.57
  -3  -3   6    8.27    0.61
   2   3  -6    5.65    0.39
   2   3  -6    5.35    0.46
  -2  -3   6    6.80    0.49
   1   3  -6    0.24    0.16
   1   3  -6    0.02    0.26
   0   3  -6  196.71    6.63
   0   3  -6  200.79    6.14
  -1   3  -6   10.43    0.49
  -1   3  -6   11.65    0.51
  -2   3  -6   62.54    2.04
  -2   3  -6   66.14    2.21
  -3   3  -6   58.40    1.87
  -3   3  -6   59.76    2.08
  -4   3  -6   16.04    0.60
  -4   3  -6   17.60    0.83
  -4   3  -6   15.66    0.72
  -5   3  -6   58.96    1.89
  -5   3  -6   59.78    2.13
  -6   3  -6   12.16    0.81
  -7   3  -6   16.90    1.05
  -8   3  -6    0.27    0.65
  -9   3  -6    3.34    0.82
  -9  -2   6    1.11    1.00
  -8  -2   6    3.39    0.83
  -7  -2   6   12.13    1.05
   6   2  -6   13.07    0.86
  -6  -2   6   14.51    1.04
   5   2  -6   18.80    0.91
  -5  -2   6   16.82    0.93
   4   2  -6    5.90    0.52
  -4  -2   6    5.63    0.51
   3   2  -6   13.81    0.65
  -3  -2   6   13.86    0.69
   2   2  -6   45.20    1.51
  -2  -2   6   44.73    1.60
   1   2  -6    8.63    0.45
  -1  -2   6    8.87    0.40
   0   2  -6   85.20    2.74
   0   2  -6   80.31    2.61
  -1   2  -6   14.40    0.51
  -1   2  -6   15.16    0.59
  -1   2  -6   15.14    0.58
  -2   2  -6  139.78    4.37
  -2   2  -6  146.09    4.69
  -2   2  -6  140.29    4.72
   2  -2   6  139.38    4.35
   2  -2   6  139.85    4.71
  -3   2  -6    9.55    0.43
  -3   2  -6    9.27    0.56
  -3   2  -6    8.78    0.46
   3  -2   6    9.46    0.65
   3  -2   6    9.20    0.33
   3  -2   6    9.26    0.33
  -4   2  -6   71.37    2.25
  -4   2  -6   68.97    2.46
  -4   2  -6   70.85    2.47
   4  -2   6   70.84    2.55
  -5   2  -6    5.68    0.45
  -5   2  -6    5.36    0.57
  -6   2  -6   34.14    1.42
  -7   2  -6    9.24    0.89
  -8   2  -6    7.74    0.82
  -9   2  -6   12.66    1.25
  -9  -1   6    0.61    0.96
  -8  -1   6   19.31    1.44
  -7  -1   6    3.99    0.73
   6   1  -6   43.37    1.63
  -6  -1   6   47.47    1.87
   5   1  -6   19.60    0.89
  -5  -1   6   19.90    1.01
   4   1  -6   33.52    1.22
  -4  -1   6   33.09    1.29
   3   1  -6   44.96    1.54
  -3  -1   6   46.93    1.65
   2   1  -6    4.01    0.36
  -2  -1   6    3.52    0.31
   1   1  -6   17.83    0.69
  -1  -1   6   18.68    0.66
  -1  -1   6   18.30    0.63
   0   1  -6   19.29    0.72
   0  -1   6   18.94    0.71
  -1   1  -6  215.46    6.67
   1  -1   6  217.34    7.13
   1  -1   6  216.49    6.66
  -2   1  -6   33.02    1.15
  -2   1  -6   34.63    1.20
   2  -1   6   33.80    1.11
   2  -1   6   35.17    1.29
  -3   1  -6   53.12    1.74
  -3   1  -6   55.53    1.72
  -3   1  -6   51.58    1.86
   3  -1   6   52.26    1.93
  -4   1  -6    3.50    0.36
  -4   1  -6    3.49    0.32
  -4   1  -6    3.35    0.36
   4  -1   6    3.07    0.49
  -5   1  -6   11.67    0.51
  -5   1  -6    9.73    0.69
  -5   1  -6    9.71    0.66
   5  -1   6   10.68    0.87
  -6   1  -6    9.74    0.80
   6  -1   6    9.53    0.85
  -7   1  -6    3.06    0.62
   7  -1   6    3.44    0.81
  -8   1  -6    4.23    0.74
  -9   0   6    0.70    0.92
  -8   0   6   12.97    1.10
  -7   0   6   -0.18    0.36
  -7   0   6    0.35    0.60
   6   0  -6   36.90    1.36
  -6   0   6   34.00    1.35
  -6   0   6   36.41    1.55
   5   0  -6    3.02    0.41
  -5   0   6    3.23    0.31
  -5   0   6    3.00    0.50
   4   0  -6   78.91    2.51
  -4   0   6   75.30    2.59
   3   0  -6    8.17    0.51
   2   0  -6  237.41    7.34
   1   0  -6  151.00    4.70
   0   0  -6  139.82    4.47
   0   0   6  147.41    4.47
  -1   0  -6   21.12    0.80
  -1   0  -6   22.62    0.77
   1   0   6   21.41    0.77
   1   0   6   20.74    0.87
   1   0   6   21.49    0.79
  -2   0  -6  194.52    6.47
  -2   0  -6  191.15    6.00
  -2   0  -6  202.15    5.97
   2   0   6  189.44    6.43
   2   0   6  191.48    5.95
   2   0   6  189.76    6.48
  -3   0  -6   66.32    2.33
  -3   0  -6   68.15    2.22
  -3   0  -6   68.99    2.14
   3   0   6   65.90    2.12
   3   0   6   66.24    2.42
  -4   0  -6   51.19    1.86
  -4   0  -6   53.03    1.68
  -4   0  -6   50.80    1.79
   4   0   6   49.82    1.96
  -5   0  -6   70.45    2.47
  -5   0  -6   74.09    2.59
   5   0   6   72.09    2.69
  -6   0  -6    0.53    0.51
   6   0   6    0.13    0.65
  -7   0  -6   13.46    1.01
   7   0   6   10.95    1.02
  -8   0  -6    1.61    0.70
  -9   1   6    0.57    0.87
  -8   1   6    1.80    0.77
  -7   1   6    2.24    0.71
  -7   1   6    2.18    0.47
   6  -1  -6    3.18    0.45
  -6   1   6    1.46    0.53
  -6   1   6    2.15    0.37
   5  -1  -6    2.58    0.41
  -5   1   6    2.58    0.31
   4  -1  -6    1.01    0.31
   3  -1  -6    9.20    0.52
   2  -1  -6   13.16    0.63
  -2   1   6   11.95    0.58
   1  -1  -6   53.89    1.78
  -1   1   6   52.40    1.74
   0  -1  -6  176.92    5.48
   0   1   6  173.98    5.44
  -1  -1  -6   34.38    1.21
   1   1   6   33.53    1.16
   1   1   6   33.35    1.22
  -2  -1  -6  147.02    4.67
   2   1   6  151.96    5.03
   2   1   6  144.72    4.60
  -3  -1  -6   58.37    2.04
  -3  -1  -6   58.31    2.10
   3   1   6   60.29    1.91
   3   1   6   59.08    2.21
  -4  -1  -6   33.83    1.35
  -4  -1  -6   31.19    1.34
   4   1   6   34.32    1.14
   4   1   6   32.05    1.44
  -5  -1  -6   18.16    0.98
   5   1   6   19.35    1.24
  -6  -1  -6   18.80    1.05
   6   1   6   16.77    1.33
  -7  -1  -6    7.15    0.73
   7   1   6    7.92    1.01
  -9   2   6    4.30    1.00
  -8   2   6    7.59    0.96
   6  -2  -6    9.85    0.73
  -6   2   6    8.82    0.70
   5  -2  -6   28.26    1.13
   4  -2  -6   30.96    1.17
  -4   2   6   29.20    1.16
   3  -2  -6   74.09    2.45
  -3   2   6   75.27    2.43
   2  -2  -6   58.69    1.94
  -2   2   6   56.42    1.89
   1  -2  -6    2.12    0.37
  -1   2   6    1.12    0.29
   0  -2  -6   63.02    2.10
   0   2   6   62.06    2.03
  -1  -2  -6   20.29    0.93
   1   2   6   20.12    0.79
  -2  -2  -6   40.51    1.52
   2   2   6   41.29    1.40
  -3  -2  -6    3.48    0.56
   3   2   6    3.10    0.37
   3   2   6    2.82    0.54
  -4  -2  -6   67.84    2.44
   4   2   6   65.56    2.57
   4   2   6   67.92    2.21
  -5  -2  -6   28.70    1.29
   5   2   6   26.63    1.51
  -6  -2  -6    9.40    0.95
   6   2   6    7.28    0.91
  -7  -2  -6    3.01    0.77
  -9   3   6    2.14    0.94
  -9   3   6    1.72    0.68
  -8   3   6   26.40    1.33
  -7   3   6    2.85    0.60
   6  -3  -6   94.69    3.08
  -6   3   6   91.59    3.08
   5  -3  -6   42.28    1.54
  -5   3   6   41.42    1.55
   4  -3  -6  106.60    3.49
  -4   3   6  109.24    3.46
   3  -3  -6  152.51    4.81
  -3   3   6  149.71    4.76
   2  -3  -6  109.00    3.51
  -2   3   6  107.64    3.45
   1  -3  -6   59.94    2.06
  -1   3   6   59.79    1.99
   0  -3  -6   51.52    1.84
   0   3   6   51.60    1.74
  -1  -3  -6   93.74    3.15
   1   3   6   95.49    3.03
  -2  -3  -6    2.33    0.59
   2   3   6    3.19    0.41
  -3  -3  -6  127.62    4.37
   3   3   6  136.61    4.20
   4   3   6   10.12    0.87
   4   3   6   10.01    0.73
   5   3   6    3.65    0.79
   6   3   6    1.16    0.83
  -7  -3  -6    0.30    0.73
  -9   4   6   -0.04    0.66
  -8   4   6    3.99    0.69
  -7   4   6    0.30    0.55
   6  -4  -6    3.55    0.55
  -6   4   6    3.49    0.58
   5  -4  -6    0.55    0.47
  -5   4   6    0.38    0.48
   4  -4  -6   22.91    1.06
  -4   4   6   21.84    1.01
   3  -4  -6    1.72    0.50
  -3   4   6    1.31    0.45
   2  -4  -6  137.53    4.41
  -2   4   6  135.02    4.32
   1  -4  -6    9.36    0.76
  -1   4   6    9.69    0.63
   0  -4  -6   84.94    2.91
   0   4   6   85.36    2.79
  -1  -4  -6   73.74    2.68
   1   4   6   78.49    2.53
  -2  -4  -6   56.89    2.22
   2   4   6   60.20    2.01
   3   4   6   39.03    1.49
   4   4   6   44.80    1.66
   5   4   6    5.93    0.85
  -9   5   6    1.87    0.69
  -8   5   6    4.40    0.71
  -7   5   6    0.97    0.59
  -6   5   6   18.38    1.02
   5  -5  -6    8.33    0.82
  -5   5   6    8.06    0.67
   4  -5  -6  122.03    4.06
  -4   5   6  124.04    3.97
   3  -5  -6   15.61    0.94
  -3   5   6   15.34    0.90
   2  -5  -6   45.25    1.78
  -2   5   6   47.02    1.66
   1  -5  -6    0.27    0.60
  -1   5   6   -0.37    0.43
   0  -5  -6   27.56    1.38
   0   5   6   29.11    1.22
   1   5   6    3.70    0.52
   2   5   6   37.34    1.51
   3   5   6    5.56    0.66
   4   5   6    4.46    0.68
  -9   6   6   -0.60    0.66
  -8   6   6   13.42    1.09
  -7   6   6    2.11    0.65
  -6   6   6   25.54    1.26
   5  -6  -6   33.63    1.52
  -5   6   6   28.30    1.35
   4  -6  -6    7.11    0.81
  -4   6   6    7.05    0.70
   3  -6  -6    4.48    0.70
  -3   6   6    4.46    0.58
   2  -6  -6   -0.43    0.68
  -2   6   6    0.59    0.51
  -1   6   6    8.69    0.77
   0   6   6    1.67    0.55
   1   6   6    9.72    0.85
   2   6   6    0.60    0.57
   3   6   6    0.32    0.64
   4   6   6    0.70    0.69
  -8   7   6    7.49    0.81
  -7   7   6    2.46    0.71
  -6   7   6   26.77    1.33
  -5   7   6    0.77    0.66
  -4   7   6   43.24    1.69
  -3   7   6    6.09    0.75
  -2   7   6   12.92    0.93
  -1   7   6   20.58    1.12
   0   7   6    8.65    0.79
   1   7   6   12.93    1.04
   2   7   6    3.83    0.75
   3   7   6    5.63    0.79
  -7   8   6    0.26    0.73
  -6   8   6    4.03    0.81
  -5   8   6    0.34    0.74
  -4   8   6    1.60    0.76
  -3   8   6    1.26    0.67
  -2   8   6    6.70    0.79
  -1   8   6    0.05    0.70
   0   8   6   17.49    1.36
   1   8   6    1.80    0.79
   2   8   6    1.98    0.87
   3   8   6    2.31    0.85
  -6   9   6    0.48    0.79
  -5   9   6    1.33    0.83
  -4   9   6    0.42    0.74
  -3   9   6    1.07    0.75
  -2   9   6    0.67    0.78
  -1   9   6    2.37    0.93
   0   9   6   -0.56    0.91
   1   9   6    1.21    0.98
  -3  10   6    2.47    1.00
  -2  10   6    0.53    0.91
  -1  11  -7    0.50    0.81
  -2  11  -7    0.21    0.76
  -3  11  -7    1.38    0.81
   2  10  -7    0.38    0.93
   0  10  -7   -0.41    0.80
  -1  10  -7    0.76    0.71
  -2  10  -7    0.48    0.74
  -3  10  -7    0.73    0.72
  -4  10  -7    0.94    0.71
  -5  10  -7   -0.03    0.68
   4   9  -7    1.65    1.01
   3   9  -7    6.40    1.04
   2   9  -7    0.44    0.82
   1   9  -7    2.13    0.84
   0   9  -7   -0.31    0.69
  -1   9  -7    1.10    0.63
  -2   9  -7    1.57    0.67
  -3   9  -7   -0.20    0.59
  -4   9  -7    0.50    0.62
  -5   9  -7   -0.05    0.59
  -6   9  -7   -0.07    0.58
   5   8  -7    0.97    0.95
   4   8  -7    2.42    0.97
   3   8  -7    1.99    0.85
   2   8  -7    6.28    0.83
   1   8  -7    4.97    0.80
   0   8  -7    1.72    0.62
  -1   8  -7    9.39    0.80
  -2   8  -7    4.00    0.61
  -3   8  -7   20.49    1.04
  -4   8  -7    1.55    0.52
  -5   8  -7    2.66    0.55
  -6   8  -7    0.63    0.46
   5   7  -7   -1.56    0.77
   4   7  -7    2.57    0.87
   3   7  -7    0.56    0.69
   2   7  -7    1.24    0.64
   1   7  -7    0.07    0.60
   0   7  -7    5.55    0.59
  -1   7  -7    5.96    0.60
  -2   7  -7   12.03    0.79
  -3   7  -7    4.64    0.52
  -4   7  -7    2.44    0.47
  -5   7  -7    6.21    0.63
  -6   7  -7    2.07    0.38
  -8   7  -7    0.25    0.75
  -7  -6   7    2.32    0.92
   6   6  -7   -1.91    0.71
  -6  -6   7    0.05    0.85
   5   6  -7    6.67    0.81
   4   6  -7    1.43    0.74
   3   6  -7    2.44    0.63
   2   6  -7    3.02    0.59
   1   6  -7    2.06    0.51
   0   6  -7    2.29    0.46
  -1   6  -7    0.28    0.38
  -2   6  -7    7.20    0.60
  -3   6  -7   12.07    0.71
  -4   6  -7   11.78    0.64
  -6   6  -7    8.75    0.48
  -7   6  -7   -0.52    0.59
  -8   6  -7    5.29    0.80
  -7  -5   7    0.64    0.96
   6   5  -7   16.82    1.26
  -6  -5   7   19.93    1.51
   5   5  -7    1.38    0.39
  -5  -5   7    2.96    0.75
   4   5  -7   11.55    0.68
   4   5  -7   11.10    0.87
  -4  -5   7   12.04    0.99
   3   5  -7    1.19    0.52
   2   5  -7    3.64    0.52
   1   5  -7   12.60    0.79
   0   5  -7   10.00    0.53
   0   5  -7    9.85    0.60
  -1   5  -7   27.53    1.05
  -2   5  -7    0.73    0.33
  -2   5  -7    0.62    0.32
  -3   5  -7   61.93    2.18
  -3   5  -7   59.08    1.97
  -4   5  -7   19.96    0.78
  -5   5  -7   28.73    1.00
  -6   5  -7    0.14    0.21
  -6   5  -7   -0.51    0.46
  -7   5  -7    3.43    0.63
  -8   5  -7    0.23    0.68
  -8  -4   7    2.59    0.98
  -7  -4   7   -0.78    0.80
   6   4  -7    3.80    0.71
   6   4  -7    3.05    0.42
  -6  -4   7    2.49    0.74
   5   4  -7   -0.01    0.30
   5   4  -7   -0.25    0.58
  -5  -4   7   -0.39    0.61
   4   4  -7    1.50    0.27
  -4  -4   7    1.63    0.54
   3   4  -7    0.75    0.47
  -3  -4   7    0.78    0.44
   2   4  -7   16.01    0.83
   1   4  -7   45.83    1.65
   1   4  -7   47.68    1.62
   0   4  -7   56.13    1.82
   0   4  -7   53.04    1.88
  -1   4  -7   96.25    3.17
  -1   4  -7  104.26    3.37
  -2   4  -7    1.74    0.29
  -2   4  -7    1.13    0.28
  -3   4  -7   70.30    2.43
  -3   4  -7   68.35    2.21
  -4   4  -7    1.69    0.25
  -5   4  -7   30.83    1.08
  -5   4  -7   33.40    1.29
  -6   4  -7    0.48    0.45
  -6   4  -7    0.57    0.23
  -7   4  -7    5.16    0.63
  -8   4  -7    1.01    0.68
  -8  -3   7   -0.13    0.87
   7   3  -7    0.43    0.65
  -7  -3   7    0.43    0.72
   6   3  -7    2.19    0.60
  -6  -3   7    2.05    0.68
   5   3  -7    2.04    0.54
  -5  -3   7    1.59    0.56
   4   3  -7    0.94    0.20
   4   3  -7    1.76    0.43
  -4  -3   7    0.71    0.46
   3   3  -7    3.46    0.44
   3   3  -7    3.55    0.23
  -3  -3   7    3.91    0.42
   2   3  -7   36.63    1.31
   2   3  -7   34.57    1.33
  -2  -3   7   40.19    1.39
   1   3  -7    7.82    0.32
   1   3  -7    7.38    0.49
   1   3  -7    6.99    0.36
   0   3  -7  106.87    3.41
   0   3  -7  102.15    3.25
   0   3  -7   99.62    3.44
  -1   3  -7   28.30    1.02
  -1   3  -7   27.41    0.99
  -2   3  -7   45.21    1.49
  -2   3  -7   47.18    1.62
   2  -3   7   44.13    1.47
  -3   3  -7   25.66    0.92
  -3   3  -7   27.73    1.08
  -3   3  -7   26.34    0.98
  -4   3  -7   57.25    1.87
  -4   3  -7   59.02    2.05
  -5   3  -7   25.26    0.93
  -5   3  -7   25.17    1.07
  -6   3  -7   11.26    0.83
  -6   3  -7   10.71    0.57
  -7   3  -7   21.65    1.19
  -8   3  -7    0.07    0.65
  -9  -2   7    1.32    1.00
  -8  -2   7    8.87    0.99
   7   2  -7    3.46    0.62
  -7  -2   7    4.14    0.78
   6   2  -7   13.99    0.89
  -6  -2   7   13.32    1.04
   5   2  -7   45.04    1.67
  -5  -2   7   46.38    1.80
   4   2  -7    0.68    0.43
  -4  -2   7    0.86    0.40
   3   2  -7   48.31    1.69
  -3  -2   7   50.64    1.79
   2   2  -7    9.55    0.55
  -2  -2   7   11.04    0.52
   1   2  -7   97.62    3.12
  -1  -2   7   99.17    3.31
   0   2  -7   10.44    0.53
  -1   2  -7   47.33    1.60
  -1   2  -7   44.70    1.51
  -2   2  -7    1.35    0.25
  -2   2  -7    1.46    0.24
  -2   2  -7    1.33    0.15
   2  -2   7    1.21    0.20
   2  -2   7    0.99    0.29
  -3   2  -7   79.39    2.66
  -3   2  -7   74.30    2.44
  -3   2  -7   77.04    2.63
   3  -2   7   76.92    2.71
  -4   2  -7    1.35    0.29
  -4   2  -7    0.85    0.28
   4  -2   7    1.38    0.47
  -5   2  -7   32.77    1.32
  -5   2  -7   33.31    1.21
   5  -2   7   33.02    1.47
  -6   2  -7    4.14    0.52
  -6   2  -7    5.74    0.48
  -7   2  -7   10.36    0.91
  -8   2  -7   11.52    1.08
  -9  -1   7   -0.17    0.95
  -8  -1   7    4.22    0.90
   7   1  -7    0.68    0.55
  -7  -1   7    1.28    0.70
   6   1  -7    3.36    0.53
  -6  -1   7    3.30    0.63
   5   1  -7    1.93    0.41
  -5  -1   7    1.35    0.49
   4   1  -7   80.79    2.67
  -4  -1   7   82.27    2.87
   3   1  -7   74.75    2.45
  -3  -1   7   76.22    2.62
   2   1  -7  162.88    5.07
  -2  -1   7  161.86    5.45
   1   1  -7  268.37    8.34
  -1  -1   7  272.76    9.00
  -1  -1   7  269.66    8.83
   0   1  -7   97.73    3.11
   0  -1   7   98.79    3.27
  -1   1  -7  280.19    8.63
   1  -1   7  281.57    9.22
   1  -1   7  278.92    8.62
  -2   1  -7   18.49    0.76
  -2   1  -7   20.48    0.72
   2  -1   7   18.66    0.86
   2  -1   7   18.06    0.70
  -3   1  -7  130.15    4.05
  -3   1  -7  129.20    4.35
   3  -1   7  129.18    3.98
   3  -1   7  125.93    4.39
  -4   1  -7    1.13    0.26
  -4   1  -7    0.70    0.35
  -4   1  -7    1.46    0.33
   4  -1   7    0.82    0.16
   4  -1   7    0.46    0.44
  -5   1  -7   16.86    0.85
  -5   1  -7   17.65    0.87
   5  -1   7   16.37    1.15
  -6   1  -7    0.66    0.48
   6  -1   7    0.99    0.70
  -7   1  -7    0.62    0.58
   7  -1   7    1.17    0.72
  -8   1  -7    0.17    0.64
  -9   0   7   -0.81    0.89
  -8   0   7    0.63    0.83
   7   0  -7   -0.04    0.54
  -7   0   7   -0.65    0.66
   6   0  -7   12.72    0.81
  -6   0   7   12.95    0.70
  -6   0   7   12.69    0.97
   5   0  -7    3.74    0.47
  -5   0   7    3.81    0.53
  -5   0   7    3.82    0.32
   4   0  -7   27.51    1.09
  -4   0   7   27.17    0.99
   3   0  -7   44.99    1.54
   2   0  -7   39.57    1.37
   1   0  -7   62.04    2.03
   0   0  -7  193.16    5.96
   0   0   7  190.05    5.93
  -1   0  -7  147.26    4.67
   1   0   7  147.69    4.64
   1   0   7  146.99    4.99
   1   0   7  154.61    5.01
  -2   0  -7  190.78    5.63
  -2   0  -7  180.09    5.67
   2   0   7  180.37    6.10
   2   0   7  177.18    6.07
   2   0   7  177.73    5.60
  -3   0  -7  169.29    5.44
  -3   0  -7  179.47    5.84
  -3   0  -7  178.47    5.38
   3   0   7  167.54    5.85
   3   0   7  169.86    5.34
  -4   0  -7   82.71    2.85
  -4   0  -7   82.69    2.61
  -4   0  -7   81.71    2.72
   4   0   7   78.36    2.96
   4   0   7   81.60    2.56
  -5   0  -7   77.65    2.73
  -5   0  -7   75.23    2.62
   5   0   7   76.26    2.90
  -6   0  -7   10.97    0.82
   6   0   7   10.11    0.95
  -7   0  -7    9.36    0.97
   7   0   7    7.52    0.96
  -8   0  -7    2.89    0.70
  -9   1   7    2.86    0.99
  -8   1   7    0.63    0.75
  -7   1   7   18.41    1.23
  -7   1   7   15.40    0.89
   6  -1  -7    2.10    0.48
  -6   1   7    1.59    0.35
   5  -1  -7   28.73    1.17
  -5   1   7   28.47    1.11
   4  -1  -7    9.18    0.60
   3  -1  -7   37.28    1.34
   2  -1  -7  163.46    5.25
  -2   1   7  171.76    5.25
   1  -1  -7   40.31    1.42
  -1   1   7   41.23    1.41
   0  -1  -7  148.39    4.58
   0   1   7  141.07    4.52
  -1  -1  -7   35.97    1.29
   1   1   7   33.20    1.24
   1   1   7   33.49    1.19
  -2  -1  -7   51.69    1.78
   2   1   7   49.86    1.66
   2   1   7   49.33    1.89
  -3  -1  -7   37.00    1.43
   3   1   7   35.93    1.26
   3   1   7   36.87    1.56
  -4  -1  -7   13.44    0.75
  -4  -1  -7   12.08    0.94
   4   1   7   13.04    0.63
   4   1   7   12.64    1.04
  -5  -1  -7   -1.05    0.50
   5   1   7    1.13    0.66
  -6  -1  -7   10.94    1.03
   6   1   7   15.91    1.34
  -8  -1  -7   -2.72    0.80
  -9   2   7    4.22    0.96
  -8   2   7   18.99    1.33
   6  -2  -7   42.65    1.61
  -6   2   7   40.64    1.60
   5  -2  -7   68.22    2.33
   4  -2  -7   60.64    2.06
  -4   2   7   58.38    2.03
   3  -2  -7  191.00    5.99
  -3   2   7  190.23    5.96
   2  -2  -7   48.51    1.68
  -2   2   7   47.35    1.65
   1  -2  -7   75.63    2.49
  -1   2   7   74.51    2.43
   0  -2  -7   21.53    0.94
   0   2   7   21.25    0.85
  -1  -2  -7   75.66    2.54
   1   2   7   73.97    2.43
  -2  -2  -7    1.00    0.49
   2   2   7    0.97    0.33
  -3  -2  -7    0.44    0.55
   3   2   7    0.70    0.47
   3   2   7    0.61    0.34
  -4  -2  -7   14.20    1.08
   4   2   7   13.66    1.12
   4   2   7   13.95    0.70
  -5  -2  -7    1.24    0.53
   5   2   7    0.64    0.69
  -6  -2  -7    3.31    0.63
   6   2   7    2.58    0.83
  -7  -2  -7    1.11    0.71
  -9   3   7    0.91    0.72
  -9   3   7    0.19    1.02
  -8   3   7    9.25    0.83
  -7   3   7    0.68    0.60
   6  -3  -7   18.16    1.00
  -6   3   7   17.29    1.02
   5  -3  -7   10.08    0.79
  -5   3   7   11.03    0.82
   4  -3  -7   72.34    2.44
  -4   3   7   69.62    2.37
   3  -3  -7   30.88    1.20
  -3   3   7   28.00    1.14
   2  -3  -7  115.52    3.80
  -2   3   7  118.70    3.75
   1  -3  -7   82.18    2.76
  -1   3   7   81.82    2.67
   0  -3  -7   39.19    1.51
   0   3   7   38.61    1.39
  -1  -3  -7  115.69    3.89
   1   3   7  120.65    3.77
  -2  -3  -7   36.35    1.55
   2   3   7   37.45    1.37
  -3  -3  -7   46.89    1.92
   3   3   7   48.28    1.68
   4   3   7    5.68    0.52
   4   3   7    5.39    0.71
   5   3   7    6.94    0.91
  -9   4   7    1.46    0.74
  -8   4   7    0.55    0.66
  -7   4   7    8.99    0.92
   6  -4  -7   10.14    0.85
  -6   4   7    8.92    0.78
   5  -4  -7   51.03    1.89
  -5   4   7   49.74    1.85
   4  -4  -7   52.54    1.93
  -4   4   7   50.86    1.86
   3  -4  -7    4.67    0.57
  -3   4   7    4.81    0.52
   2  -4  -7   84.71    2.89
  -2   4   7   85.16    2.81
   1  -4  -7    0.63    0.52
  -1   4   7    0.15    0.46
   0  -4  -7   98.40    3.37
   0   4   7  100.52    3.23
  -1  -4  -7    4.79    0.76
   1   4   7    4.72    0.51
  -2  -4  -7   47.04    1.98
   2   4   7   49.95    1.73
   3   4   7    2.95    0.55
   4   4   7    4.77    0.79
   4   4   7    4.48    0.58
   5   4   7    6.04    0.91
  -9   5   7    3.44    0.78
  -8   5   7    8.91    0.84
  -7   5   7   30.50    1.42
  -6   5   7    5.28    0.71
   5  -5  -7   27.94    1.38
  -5   5   7   26.84    1.20
   4  -5  -7    4.05    0.68
  -4   5   7    3.41    0.61
   3  -5  -7    2.77    0.66
  -3   5   7    1.53    0.51
   2  -5  -7    1.06    0.63
  -2   5   7    0.13    0.48
   1  -5  -7    7.51    0.79
  -1   5   7    7.08    0.70
   0  -5  -7    0.60    0.65
   0   5   7    1.44    0.50
  -1  -5  -7    3.29    0.78
   1   5   7    4.06    0.56
   2   5   7    1.34    0.53
   3   5   7    0.55    0.54
   4   5   7    2.89    0.65
  -8   6   7   10.08    0.92
  -7   6   7    5.92    0.80
  -6   6   7   31.47    1.39
   5  -6  -7    7.39    0.86
  -5   6   7    5.19    0.68
   4  -6  -7   32.61    1.61
  -4   6   7   33.32    1.39
   3  -6  -7    8.33    0.85
  -3   6   7    7.89    0.71
   2  -6  -7   16.03    1.21
  -2   6   7   18.84    1.01
   1  -6  -7   25.47    1.49
  -1   6   7   29.25    1.33
   0   6   7    8.51    0.84
   1   6   7   21.58    1.15
   2   6   7    1.74    0.70
   3   6   7   10.15    0.89
  -8   7   7    3.33    0.79
  -7   7   7    2.10    0.74
  -6   7   7    8.27    0.88
  -5   7   7   -0.10    0.69
  -4   7   7   11.81    1.07
  -3   7   7    2.04    0.73
  -2   7   7   33.42    1.47
  -1   7   7   13.00    1.13
   0   7   7   17.98    1.14
   1   7   7   10.15    1.04
   2   7   7    6.05    0.89
   3   7   7    9.81    0.90
  -7   8   7    0.03    0.80
  -6   8   7   -0.28    0.79
  -5   8   7    2.03    0.81
  -4   8   7    2.29    0.81
  -3   8   7    0.46    0.78
  -2   8   7    1.40    0.73
  -1   8   7    0.06    0.74
   0   8   7    6.36    0.95
   1   8   7    0.79    0.80
   2   8   7    5.44    0.90
  -5   9   7    4.98    0.96
  -4   9   7    1.44    0.80
  -3   9   7    0.64    0.87
  -2   9   7    0.22    0.82
  -1   9   7    0.48    0.93
   0   9   7    1.16    0.90
   2  10  -8    3.44    1.12
   1  10  -8    3.67    1.03
   0  10  -8    1.12    0.90
  -1  10  -8    1.45    0.80
  -2  10  -8    1.25    0.84
  -3  10  -8    1.74    0.79
  -4  10  -8    1.15    0.74
  -5  10  -8    1.73    0.78
   4   9  -8    1.58    1.01
   3   9  -8    1.42    1.02
   2   9  -8    2.97    0.90
   1   9  -8    2.19    0.81
   0   9  -8    1.67    0.71
  -1   9  -8   15.62    1.19
  -2   9  -8    1.79    0.71
  -3   9  -8    7.79    0.78
  -4   9  -8    1.84    0.66
  -5   9  -8    1.95    0.63
  -6   9  -8    1.99    0.56
   5   8  -8   -1.79    0.87
   4   8  -8    1.69    0.89
   3   8  -8    1.82    0.82
   2   8  -8    3.58    0.79
   1   8  -8    6.41    0.86
   0   8  -8    1.67    0.69
  -1   8  -8    7.25    0.74
  -2   8  -8    1.06    0.60
  -3   8  -8    1.11    0.58
  -4   8  -8    1.85    0.54
  -5   8  -8    6.29    0.61
  -6   8  -8   -0.88    0.44
   6   7  -8   -1.58    0.91
   5   7  -8    0.45    0.78
   4   7  -8   -1.84    0.79
   3   7  -8    0.86    0.71
   2   7  -8    1.93    0.73
   1   7  -8    2.11    0.61
   0   7  -8   23.69    1.11
  -1   7  -8    0.59    0.55
  -2   7  -8   45.17    1.67
  -3   7  -8    6.88    0.69
  -4   7  -8    2.83    0.48
  -5   7  -8    3.21    0.46
  -6   7  -8    4.50    0.42
  -7  -6   8    5.03    1.03
   6   6  -8    0.85    0.78
  -6  -6   8    1.75    0.86
   4   6  -8    3.64    0.41
   4   6  -8    3.98    0.71
   3   6  -8    6.53    0.77
   2   6  -8    9.15    0.81
   1   6  -8   25.54    1.13
   0   6  -8    0.20    0.48
  -1   6  -8   10.09    0.73
  -2   6  -8   76.10    2.59
  -2   6  -8   82.30    2.79
  -3   6  -8    7.99    0.61
  -4   6  -8    8.04    0.62
  -5   6  -8    0.50    0.33
  -6   6  -8    0.01    0.28
  -7   6  -8    0.01    0.59
  -8   6  -8    0.08    0.72
  -7  -5   8    0.87    1.03
   6   5  -8    3.72    0.82
  -6  -5   8    4.10    0.93
   5   5  -8    1.59    0.65
  -5  -5   8    2.72    0.75
   4   5  -8   15.39    0.73
  -4  -5   8   16.96    1.13
   3   5  -8    8.24    0.76
   2   5  -8   23.98    1.06
   1   5  -8   31.19    1.21
   0   5  -8    5.96    0.52
   0   5  -8    4.96    0.39
  -1   5  -8    7.64    0.44
  -1   5  -8    8.45    0.57
  -1   5  -8    9.17    0.61
  -2   5  -8    8.33    0.62
  -2   5  -8    8.55    0.57
  -3   5  -8   54.14    1.90
  -3   5  -8   62.30    2.14
  -4   5  -8    2.37    0.34
  -5   5  -8   22.45    0.86
  -6   5  -8    0.27    0.26
  -6   5  -8    0.16    0.47
  -7   5  -8    0.11    0.57
  -8   5  -8    0.39    0.68
  -8  -4   8    0.02    0.92
  -7  -4   8   -0.19    0.82
   6   4  -8    2.25    0.71
  -6  -4   8    1.20    0.73
   5   4  -8    2.59    0.66
   5   4  -8    2.76    0.29
  -5  -4   8    2.01    0.63
   4   4  -8    3.53    0.34
   4   4  -8    3.43    0.55
  -4  -4   8    4.03    0.59
   3   4  -8    4.26    0.54
   3   4  -8    5.24    0.30
  -3  -4   8    5.35    0.55
   2   4  -8   40.04    1.49
   1   4  -8   12.32    0.70
   1   4  -8    9.25    0.48
   0   4  -8   18.17    0.70
   0   4  -8   17.51    0.66
   0   4  -8   16.32    0.79
  -1   4  -8   25.85    0.97
  -1   4  -8   24.15    0.90
  -1   4  -8   25.84    0.97
  -2   4  -8    9.20    0.59
  -2   4  -8    9.74    0.54
  -3   4  -8   35.51    1.24
  -3   4  -8   35.50    1.37
  -4   4  -8   18.25    0.79
  -4   4  -8   17.58    0.72
  -5   4  -8   14.76    0.79
  -5   4  -8   14.17    0.65
  -6   4  -8    3.42    0.34
  -6   4  -8    3.47    0.50
  -7   4  -8   16.83    1.02
  -8   4  -8    0.81    0.67
  -8  -3   8    1.54    0.95
   7   3  -8    4.34    0.70
  -7  -3   8    4.24    0.88
   6   3  -8    0.55    0.62
  -6  -3   8   -0.46    0.66
   5   3  -8    1.09    0.56
  -5  -3   8    0.72    0.56
   4   3  -8   13.21    0.80
  -4  -3   8   13.91    0.86
   3   3  -8   13.65    0.75
  -3  -3   8   14.10    0.77
   2   3  -8    0.47    0.36
  -2  -3   8    0.65    0.29
   1   3  -8    1.95    0.35
   1   3  -8    2.30    0.20
   0   3  -8   17.89    0.75
   0   3  -8   16.07    0.65
  -1   3  -8    1.01    0.30
  -1   3  -8    1.04    0.23
  -2   3  -8    0.59    0.27
  -2   3  -8    0.20    0.13
  -2   3  -8    0.16    0.25
   2  -3   8    0.14    0.22
  -3   3  -8    3.29    0.37
  -3   3  -8    3.11    0.26
  -3   3  -8    2.95    0.31
  -4   3  -8    5.46    0.45
  -4   3  -8    4.95    0.47
  -5   3  -8   13.92    0.75
  -5   3  -8   14.28    0.70
  -6   3  -8    2.64    0.39
  -6   3  -8    2.84    0.49
  -7   3  -8    6.90    0.67
  -8   3  -8   11.76    1.11
  -9  -2   8    0.11    0.90
  -8  -2   8    4.44    0.92
   7   2  -8    0.04    0.59
  -7  -2   8    0.73    0.73
   6   2  -8   24.77    1.20
  -6  -2   8   26.22    1.33
   5   2  -8   34.50    1.43
  -5  -2   8   37.42    1.53
   4   2  -8   10.55    0.76
  -4  -2   8   10.11    0.74
   3   2  -8  100.89    3.27
  -3  -2   8  102.72    3.51
   2   2  -8    1.90    0.36
  -2  -2   8    1.76    0.25
   1   2  -8  115.24    3.71
  -1  -2   8  119.75    3.94
   0   2  -8    0.42    0.26
  -1   2  -8  137.13    4.32
   1  -2   8  135.81    4.31
   1  -2   8  141.08    4.60
  -2   2  -8    0.64    0.26
  -2   2  -8    0.39    0.13
   2  -2   8    0.60    0.23
   2  -2   8    0.82    0.33
  -3   2  -8   38.84    1.32
  -3   2  -8   40.92    1.36
   3  -2   8   33.89    1.23
   3  -2   8   38.82    1.52
  -4   2  -8    0.37    0.32
  -4   2  -8    0.39    0.28
   4  -2   8    1.19    0.49
  -5   2  -8    0.43    0.37
  -5   2  -8    0.54    0.38
   5  -2   8    0.95    0.56
  -6   2  -8    3.22    0.50
  -6   2  -8    4.12    0.51
  -7   2  -8   -0.31    0.53
  -8   2  -8    1.10    0.67
  -9  -1   8   -0.36    0.87
  -8  -1   8    2.23    0.84
   7   1  -8    0.02    0.56
  -7  -1   8   -0.36    0.70
   6   1  -8    6.66    0.65
  -6  -1   8    7.23    0.73
   5   1  -8   -0.22    0.40
  -5  -1   8    0.15    0.45
   4   1  -8   24.99    1.07
  -4  -1   8   25.51    1.08
   3   1  -8   14.38    0.72
  -3  -1   8   14.90    0.70
   2   1  -8   95.03    3.10
  -2  -1   8   98.34    3.28
   1   1  -8  120.76    3.83
  -1  -1   8  122.71    4.06
  -1  -1   8  120.16    3.99
   0   1  -8   47.86    1.62
   0  -1   8   48.32    1.66
   0  -1   8   47.63    1.61
  -1   1  -8  140.83    4.50
   1  -1   8  144.35    4.48
   1  -1   8  145.82    4.80
  -2   1  -8   14.10    0.67
   2  -1   8   13.53    0.60
   2  -1   8   14.68    0.80
  -3   1  -8  106.48    3.58
  -3   1  -8  104.58    3.37
   3  -1   8  106.12    3.29
   3  -1   8  103.61    3.66
  -4   1  -8    8.24    0.57
  -4   1  -8    8.44    0.66
   4  -1   8    9.75    0.90
  -5   1  -8   50.71    1.84
  -5   1  -8   53.02    1.88
   5  -1   8   47.32    2.04
  -6   1  -8    1.73    0.55
  -6   1  -8    2.12    0.48
   6  -1   8    1.53    0.73
  -7   1  -8   14.62    1.00
   7  -1   8   14.68    1.51
  -8   1  -8    1.64    0.67
  -9   0   8    1.50    0.98
  -8   0   8    0.23    0.76
   7   0  -8    6.62    0.70
  -7   0   8    8.12    0.85
   6   0  -8    1.15    0.51
  -6   0   8    0.62    0.52
  -6   0   8    0.89    0.30
   5   0  -8   28.35    1.19
  -5   0   8   28.88    1.24
  -5   0   8   27.04    1.05
   4   0  -8    9.82    0.71
  -4   0   8    9.29    0.46
   3   0  -8  108.13    3.47
   2   0  -8   39.49    1.40
   1   0  -8   18.70    0.80
  -1   0   8   18.61    0.81
   0   0  -8   95.39    3.05
   0   0   8   94.08    3.20
   0   0   8   96.03    3.03
  -1   0  -8   46.62    1.66
   1   0   8   51.13    1.68
   1   0   8   47.28    1.61
   1   0   8   47.63    1.76
  -2   0  -8   24.84    1.03
   2   0   8   25.00    1.13
   2   0   8   25.48    0.97
   2   0   8   25.56    0.92
  -3   0  -8   25.39    1.09
  -3   0  -8   24.37    0.98
   3   0   8   23.99    1.20
   3   0   8   25.18    0.91
  -4   0  -8   34.13    1.40
  -4   0  -8   37.12    1.43
   4   0   8   37.57    1.23
   4   0   8   35.27    1.62
  -5   0  -8   20.27    1.04
  -5   0  -8   23.64    1.18
   5   0   8   23.11    1.29
  -6   0  -8    4.66    0.60
   6   0   8    6.33    0.90
  -7   0  -8   18.86    1.15
  -9   1   8    7.73    1.12
  -8   1   8   10.22    1.04
  -7   1   8   21.30    1.33
   6  -1  -8   10.41    0.88
  -6   1   8   10.16    0.66
   5  -1  -8   73.32    2.51
  -5   1   8   74.56    2.54
   4  -1  -8    9.14    0.65
   3  -1  -8   43.70    1.58
   2  -1  -8   30.43    1.20
  -2   1   8   31.30    1.15
   1  -1  -8   38.17    1.41
  -1   1   8   38.21    1.36
   0  -1  -8   10.70    0.63
   0   1   8    9.59    0.55
  -1  -1  -8    3.91    0.49
   1   1   8    3.29    0.36
   1   1   8    3.89    0.36
  -2  -1  -8   20.83    0.99
   2   1   8   19.88    0.82
   2   1   8   20.00    1.04
  -3  -1  -8    2.91    0.55
   3   1   8    1.97    0.34
   3   1   8    1.16    0.52
  -4  -1  -8   43.90    1.75
   4   1   8   45.63    1.51
   4   1   8   41.52    1.89
  -5  -1  -8    3.89    0.73
  -5  -1  -8    4.67    0.55
   5   1   8    3.35    0.74
  -6  -1  -8   10.77    0.89
   6   1   8    7.45    0.99
  -7  -1  -8    6.04    0.75
  -9   2   8   -0.15    1.01
  -8   2   8   18.32    1.49
   6  -2  -8   31.91    1.36
  -6   2   8   30.72    1.28
   5  -2  -8   22.67    1.06
  -5   2   8   24.43    1.15
   4  -2  -8  103.25    3.39
  -4   2   8  103.62    3.36
   3  -2  -8   43.34    1.65
  -3   2   8   45.02    1.62
   2  -2  -8   63.00    2.14
  -2   2   8   61.10    2.08
   1  -2  -8   76.59    2.59
  -1   2   8   77.59    2.52
   0  -2  -8   44.54    1.65
   0   2   8   42.86    1.52
  -1  -2  -8  257.66    8.11
   1   2   8  258.68    8.00
  -2  -2  -8   17.90    0.97
   2   2   8   16.74    0.80
  -3  -2  -8  123.57    4.14
   3   2   8  126.18    3.94
   3   2   8  122.33    4.36
  -4  -2  -8   -0.53    0.67
   4   2   8    0.27    0.38
   4   2   8    0.40    0.61
   5   2   8   18.91    1.41
  -9   3   8    0.33    1.03
  -9   3   8    1.20    0.79
  -8   3   8   -0.25    0.70
  -7   3   8    8.45    0.82
   6  -3  -8    5.76    0.68
  -6   3   8    6.32    0.74
   5  -3  -8    8.62    0.84
  -5   3   8    9.20    0.74
   4  -3  -8   70.25    2.44
  -4   3   8   68.72    2.38
   3  -3  -8    3.84    0.58
  -3   3   8    4.42    0.50
   2  -3  -8  119.39    3.89
  -2   3   8  117.32    3.79
   1  -3  -8   66.50    2.32
  -1   3   8   65.78    2.22
   0  -3  -8   71.09    2.51
   0   3   8   72.68    2.41
  -1  -3  -8   36.60    1.53
   1   3   8   37.21    1.40
  -2  -3  -8   34.96    1.56
   2   3   8   36.24    1.36
  -3  -3  -8    0.98    0.66
   3   3   8    0.60    0.44
   4   3   8   13.60    0.87
   4   3   8   12.08    1.22
   5   3   8   12.65    1.11
  -9   4   8    5.10    0.83
  -8   4   8    1.11    0.74
  -7   4   8    4.91    0.77
   6  -4  -8    9.44    0.82
  -6   4   8    8.25    0.78
   5  -4  -8    0.60    0.59
  -5   4   8    0.06    0.52
   4  -4  -8   16.47    1.06
  -4   4   8   15.83    0.97
   3  -4  -8    1.16    0.58
  -3   4   8    0.93    0.49
   2  -4  -8    8.44    0.78
  -2   4   8    7.46    0.69
   1  -4  -8    8.67    0.79
  -1   4   8    7.22    0.67
   0  -4  -8   21.33    1.18
   0   4   8   21.05    1.04
  -1  -4  -8    4.17    0.74
   1   4   8    4.77    0.54
  -2  -4  -8   35.64    1.72
   2   4   8   39.32    1.49
   3   4   8   28.37    1.25
   4   4   8    3.48    0.79
  -9   5   8    0.83    0.80
  -8   5   8    9.02    0.90
  -7   5   8    6.67    0.82
  -6   5   8   19.41    1.20
   5  -5  -8    8.70    0.87
  -5   5   8    8.03    0.79
   4  -5  -8   14.83    1.12
  -4   5   8   13.37    0.91
   3  -5  -8   41.55    1.80
  -3   5   8   42.18    1.66
   2  -5  -8    4.25    0.72
  -2   5   8    3.26    0.58
   1  -5  -8   55.83    2.31
  -1   5   8   59.61    2.06
   0  -5  -8    2.69    0.76
   0   5   8    0.13    0.57
  -1  -5  -8   15.11    1.44
   1   5   8   18.35    0.98
   2   5   8    5.31    0.70
   3   5   8    0.71    0.61
  -8   6   8    0.95    0.80
  -7   6   8    1.00    0.76
  -6   6   8   11.54    0.95
   5  -6  -8    0.47    0.75
  -5   6   8    0.05    0.62
   4  -6  -8   35.01    1.69
  -4   6   8   30.63    1.41
   3  -6  -8   33.78    1.66
  -3   6   8   35.26    1.47
   2  -6  -8   21.18    1.38
  -2   6   8   23.89    1.27
   1  -6  -8   33.66    1.76
  -1   6   8   36.31    1.49
   0  -6  -8   11.06    1.15
   0   6   8   13.77    0.97
   1   6   8   16.82    1.08
   2   6   8    6.79    0.84
   3   6   8   22.75    1.37
  -7   7   8   -0.23    0.79
  -6   7   8    2.38    0.74
  -5   7   8    1.76    0.79
   4  -7  -8    0.69    0.78
  -4   7   8    0.64    0.67
   3  -7  -8    0.37    0.90
  -3   7   8    0.02    0.67
  -2   7   8    5.37    0.76
  -1   7   8    2.20    0.72
   0   7   8   12.35    1.01
   1   7   8   13.33    1.07
   2   7   8    2.55    0.79
   3   7   8    6.22    0.91
  -6   8   8    1.79    0.78
  -5   8   8    2.91    0.80
  -4   8   8    5.40    0.85
  -3   8   8    4.08    0.82
  -2   8   8    4.01    0.81
  -1   8   8    4.75    0.94
   0   8   8    1.10    0.82
   1   8   8    0.81    0.95
   2   8   8    2.32    0.98
  -5   9   8    5.72    0.95
  -4   9   8    1.09    0.95
  -3   9   8   15.17    1.47
  -2   9   8    1.40    0.98
  -1   9   8   12.58    1.15
   2  10  -9    2.12    1.08
   1  10  -9    3.78    1.04
   0  10  -9    2.58    0.90
  -1  10  -9    2.01    0.88
  -2  10  -9    0.86    0.82
  -3  10  -9    0.01    0.81
  -4  10  -9    1.90    0.80
   3   9  -9    1.29    0.91
   2   9  -9    2.30    0.88
   1   9  -9    2.38    0.89
   0   9  -9    0.41    0.79
  -1   9  -9    1.64    0.71
  -2   9  -9    0.59    0.74
  -3   9  -9    2.44    0.71
  -4   9  -9    2.17    0.69
  -5   9  -9    2.18    0.62
   4   8  -9    0.32    0.93
   3   8  -9    2.32    0.85
   2   8  -9    0.37    0.82
   1   8  -9    1.52    0.70
   0   8  -9    1.16    0.67
  -1   8  -9    0.43    0.64
  -2   8  -9    1.26    0.63
  -3   8  -9    0.31    0.59
  -4   8  -9    6.69    0.66
  -5   8  -9    4.97    0.62
  -6   8  -9    3.71    0.50
   6   7  -9    0.59    0.97
   5   7  -9    5.34    1.00
   4   7  -9   -0.39    0.73
   3   7  -9    1.77    0.78
   2   7  -9    1.53    0.73
   1   7  -9    1.43    0.61
   0   7  -9    7.91    0.79
  -1   7  -9   12.72    0.93
  -2   7  -9    1.94    0.53
  -3   7  -9    0.58    0.49
  -4   7  -9   -0.85    0.45
  -5   7  -9   -0.01    0.42
  -6   7  -9   -0.28    0.36
   6   6  -9    1.89    0.81
  -6  -6   9    2.18    0.90
   5   6  -9   -0.22    0.72
   3   6  -9    9.68    0.90
   2   6  -9    0.69    0.61
   1   6  -9    5.17    0.60
   0   6  -9    1.19    0.51
  -1   6  -9   15.62    0.80
  -1   6  -9   14.58    0.86
  -2   6  -9    1.12    0.43
  -2   6  -9    0.75    0.37
  -3   6  -9   25.87    1.09
  -4   6  -9    0.92    0.40
  -5   6  -9    4.43    0.43
  -6   6  -9   -0.54    0.48
  -6   6  -9   -0.12    0.32
  -7  -5   9    0.23    1.02
   6   5  -9   -0.48    0.76
  -6  -5   9    1.58    0.88
   5   5  -9    0.60    0.64
  -5  -5   9    1.23    0.70
   4   5  -9    0.66    0.60
  -4  -5   9    0.62    0.58
   3   5  -9   13.41    0.97
   3   5  -9   11.68    0.51
   2   5  -9   12.96    0.91
   1   5  -9   13.72    0.78
   0   5  -9   10.16    0.76
   0   5  -9   13.26    0.60
   0   5  -9   11.62    0.54
  -1   5  -9   54.40    1.92
  -1   5  -9   58.63    1.98
  -1   5  -9   55.54    1.94
  -2   5  -9   11.09    0.70
  -2   5  -9   12.06    0.68
  -3   5  -9   67.21    2.21
  -4   5  -9    1.92    0.36
  -5   5  -9   28.51    1.09
  -5   5  -9   30.58    1.22
  -6   5  -9    4.37    0.54
  -6   5  -9    3.88    0.38
  -7   5  -9    7.91    0.73
  -8  -4   9    0.04    0.96
   7   4  -9   -0.31    0.75
  -7  -4   9   -0.85    0.83
   6   4  -9    0.34    0.70
  -6  -4   9   -0.07    0.70
   5   4  -9    2.81    0.62
  -5  -4   9    3.62    0.67
   4   4  -9    0.50    0.57
  -4  -4   9    0.81    0.55
   3   4  -9    0.81    0.49
  -3  -4   9    0.82    0.44
   2   4  -9    0.52    0.43
   1   4  -9    4.15    0.29
   1   4  -9    3.48    0.46
   1   4  -9    3.79    0.31
   0   4  -9    1.38    0.15
   0   4  -9    1.84    0.42
   0   4  -9    1.46    0.23
  -1   4  -9    1.77    0.14
  -1   4  -9    1.58    0.28
  -1   4  -9    1.89    0.38
  -2   4  -9   26.88    1.07
  -2   4  -9   25.61    1.00
  -3   4  -9    8.67    0.44
  -3   4  -9    9.45    0.64
  -3   4  -9    8.92    0.56
   3  -4   9    6.96    0.39
  -4   4  -9    4.41    0.46
  -4   4  -9    5.44    0.49
  -5   4  -9   14.04    0.75
  -5   4  -9   12.82    0.68
  -6   4  -9    6.45    0.57
  -6   4  -9    7.59    0.74
  -7   4  -9   32.97    1.49
  -8  -3   9    1.95    0.91
   7   3  -9    1.85    0.73
  -7  -3   9    2.74    0.83
   6   3  -9    3.20    0.68
  -6  -3   9    3.35    0.72
   5   3  -9   20.81    1.07
  -5  -3   9   21.38    1.16
   4   3  -9    0.68    0.48
  -4  -3   9    0.68    0.46
   3   3  -9   34.95    1.39
  -3  -3   9   38.78    1.45
   2   3  -9    0.47    0.38
  -2  -3   9    0.55    0.29
   1   3  -9   59.74    2.00
   0   3  -9    3.17    0.38
   0   3  -9    3.56    0.33
  -1   3  -9  120.57    3.97
  -1   3  -9  131.20    4.20
  -2   3  -9    0.30    0.30
  -2   3  -9    0.07    0.27
   2  -3   9   -0.15    0.25
  -3   3  -9   18.21    0.71
  -3   3  -9   20.30    0.87
  -3   3  -9   18.48    0.78
   3  -3   9   16.21    0.67
  -4   3  -9   12.00    0.62
  -4   3  -9   13.00    0.67
  -5   3  -9    7.16    0.62
  -5   3  -9    7.22    0.62
  -6   3  -9   10.86    0.79
  -6   3  -9   10.31    0.73
  -7   3  -9    0.10    0.53
  -8   3  -9    6.09    0.83
  -8  -2   9    0.40    0.86
   7   2  -9   -0.15    0.64
  -7  -2   9    0.28    0.74
   6   2  -9    2.60    0.62
  -6  -2   9    2.11    0.60
   5   2  -9    4.28    0.57
  -5  -2   9    4.99    0.60
   4   2  -9   17.12    0.94
  -4  -2   9   16.83    0.91
   3   2  -9   46.98    1.69
  -3  -2   9   49.49    1.76
   2   2  -9   20.59    0.91
  -2  -2   9   22.75    0.86
   1   2  -9   91.53    2.87
  -1  -2   9   86.47    2.98
   0   2  -9    3.49    0.39
  -1   2  -9   88.62    2.81
   1  -2   9   88.18    2.98
   1  -2   9   85.16    2.79
  -2   2  -9    3.20    0.36
   2  -2   9    3.36    0.41
   2  -2   9    3.19    0.32
  -3   2  -9   88.79    2.91
  -3   2  -9   82.05    2.76
   3  -2   9   84.62    3.03
   3  -2   9   86.23    2.69
  -4   2  -9    1.68    0.40
  -4   2  -9    1.39    0.31
   4  -2   9    0.93    0.53
  -5   2  -9   42.81    1.59
  -5   2  -9   41.83    1.55
   5  -2   9   40.04    1.85
  -6   2  -9    2.33    0.48
  -6   2  -9    2.72    0.53
  -7   2  -9    6.52    0.66
  -8   2  -9    6.86    0.75
  -9  -1   9   -0.22    0.95
  -8  -1   9   -1.25    0.83
   7   1  -9   -0.51    0.59
  -7  -1   9    0.39    0.72
   6   1  -9    1.82    0.59
  -6  -1   9    2.48    0.64
   5   1  -9   18.70    1.02
  -5  -1   9   19.78    1.03
   4   1  -9    4.06    0.53
  -4  -1   9    4.49    0.46
   3   1  -9   27.15    1.14
  -3  -1   9   28.49    1.10
   2   1  -9   62.67    2.14
  -2  -1   9   65.66    2.22
   1   1  -9   36.02    1.33
  -1  -1   9   37.34    1.26
  -1  -1   9   36.20    1.27
   0   1  -9   78.49    2.56
   0  -1   9   79.61    2.68
   0  -1   9   78.57    2.55
  -1   1  -9   51.22    1.76
   1  -1   9   52.44    1.86
   1  -1   9   51.11    1.72
  -2   1  -9   91.59    3.04
   2  -1   9   94.22    3.27
   2  -1   9   97.34    3.00
  -3   1  -9   61.67    2.12
  -3   1  -9   61.10    2.09
   3  -1   9   59.59    2.27
   3  -1   9   61.62    1.97
  -4   1  -9   25.70    1.05
  -4   1  -9   24.67    1.11
   4  -1   9   24.01    1.31
  -5   1  -9   20.94    1.11
  -5   1  -9   21.98    0.97
   5  -1   9   19.27    1.24
  -6   1  -9   -0.45    0.57
   6  -1   9    0.47    0.76
  -7   1  -9    5.59    0.63
  -9   0   9    5.92    1.00
  -8   0   9    0.21    0.84
   7   0  -9   27.44    1.34
  -7   0   9   30.33    1.55
   6   0  -9    2.64    0.59
  -6   0   9    3.13    0.61
   5   0  -9   23.86    1.13
  -5   0   9   24.85    1.13
  -5   0   9   22.31    0.91
   4   0  -9    5.68    0.54
  -4   0   9    5.99    0.37
   3   0  -9   18.32    0.87
   2   0  -9    9.66    0.63
   1   0  -9   16.81    0.78
  -1   0   9   15.98    0.74
   0   0  -9   12.75    0.67
   0   0   9   13.10    0.52
   0   0   9   11.85    0.62
   0   0   9   11.60    0.65
  -1   0  -9   51.65    1.86
   1   0   9   51.86    1.80
   1   0   9   54.15    1.97
   1   0   9   57.63    1.87
  -2   0  -9   38.06    1.44
   2   0   9   37.14    1.53
   2   0   9   38.15    1.32
   2   0   9   39.33    1.40
  -3   0  -9   16.32    0.91
   3   0   9   16.53    0.72
   3   0   9   16.21    1.02
  -4   0  -9   19.39    1.05
  -4   0  -9   20.57    0.92
   4   0   9   18.57    1.22
  -5   0  -9    9.11    0.73
  -5   0  -9    7.79    0.79
   5   0   9    6.56    0.87
  -6   0  -9    0.30    0.57
   6   0   9    1.47    0.83
  -7   0  -9    4.92    0.78
  -9   1   9    0.44    1.01
  -8   1   9    4.80    0.91
  -7   1   9    1.34    0.74
   6  -1  -9   32.62    1.41
  -6   1   9   33.17    1.29
   5  -1  -9   54.17    2.00
  -5   1   9   58.39    1.99
   4  -1  -9   65.55    2.28
   3  -1  -9  130.37    4.22
  -3   1   9  133.24    4.22
   2  -1  -9    6.47    0.60
  -2   1   9    6.00    0.58
   1  -1  -9  190.99    6.01
  -1   1   9  190.97    5.97
   0  -1  -9    6.69    0.61
   0   1   9    6.16    0.58
  -1  -1  -9   85.72    2.89
   1   1   9   87.97    2.98
   1   1   9   85.64    2.80
  -2  -1  -9    0.43    0.50
   2   1   9    0.80    0.47
   2   1   9    1.02    0.36
  -3  -1  -9   11.24    0.92
   3   1   9   11.03    0.65
   3   1   9    9.35    0.97
  -4  -1  -9    3.60    0.71
   4   1   9    2.63    0.70
  -5  -1  -9    4.14    0.82
   5   1   9    3.63    0.75
  -6  -1  -9    0.58    0.58
   6   1   9   -0.31    0.86
  -7  -1  -9    1.08    0.66
  -9   2   9   -0.30    1.00
  -8   2   9   -0.73    0.87
   6  -2  -9    9.19    0.92
  -6   2   9    9.21    0.73
   5  -2  -9   30.75    1.32
  -5   2   9   32.07    1.40
   4  -2  -9   48.39    1.79
  -4   2   9   48.68    1.77
   3  -2  -9   62.67    2.22
  -3   2   9   62.22    2.14
   2  -2  -9   69.51    2.38
  -2   2   9   68.51    2.33
   1  -2  -9  145.34    4.62
  -1   2   9  140.67    4.53
   0  -2  -9   84.33    2.89
   0   2   9   87.41    2.80
  -1  -2  -9   65.28    2.36
   1   2   9   65.96    2.21
  -2  -2  -9   47.88    1.87
   2   2   9   49.11    1.71
  -3  -2  -9   32.53    1.50
   3   2   9   33.16    1.26
   3   2   9   33.10    1.58
  -4  -2  -9    0.46    0.75
   4   2   9    1.49    0.71
   5   2   9   13.38    1.24
  -9   3   9    3.75    0.90
  -9   3   9    3.24    1.14
  -8   3   9    0.08    0.77
  -7   3   9    6.40    0.83
   6  -3  -9   30.48    1.43
  -6   3   9   30.69    1.46
   5  -3  -9    2.85    0.64
  -5   3   9    3.61    0.66
   4  -3  -9   55.87    2.09
  -4   3   9   56.37    2.00
   3  -3  -9   24.67    1.22
  -3   3   9   24.61    1.09
   2  -3  -9    8.57    0.87
  -2   3   9    7.98    0.67
   1  -3  -9    8.87    0.82
  -1   3   9    9.32    0.69
   0  -3  -9   29.01    1.39
   0   3   9   28.82    1.16
  -1  -3  -9   11.75    1.05
   1   3   9   10.07    0.71
  -2  -3  -9    8.06    0.84
   2   3   9    7.91    0.66
  -3  -3  -9   18.34    1.30
   3   3   9   21.55    1.21
   3   3   9   21.17    1.02
  -4  -3  -9    5.76    1.04
   4   3   9    6.16    0.84
  -9   4   9    5.79    0.92
  -8   4   9   10.35    0.99
  -7   4   9   21.32    1.32
   6  -4  -9   24.89    1.37
  -6   4   9   23.79    1.23
   5  -4  -9   49.52    1.99
  -5   4   9   49.11    1.86
   4  -4  -9    2.06    0.68
  -4   4   9    1.08    0.54
   3  -4  -9   48.71    1.93
  -3   4   9   50.68    1.83
   2  -4  -9    1.51    0.61
  -2   4   9    1.44    0.52
   1  -4  -9   24.44    1.29
  -1   4   9   25.63    1.18
   0  -4  -9    1.68    0.67
   0   4   9    1.14    0.55
  -1  -4  -9    4.10    0.79
   1   4   9    4.38    0.60
  -2  -4  -9    2.21    0.80
   2   4   9    2.83    0.58
  -3  -4  -9   14.45    1.32
   3   4   9   13.82    0.96
   4   4   9    2.30    0.80
  -8   5   9   11.45    1.03
  -7   5   9    2.61    0.72
  -6   5   9   27.43    1.44
   5  -5  -9   18.12    1.28
  -5   5   9   16.92    1.18
   4  -5  -9   16.44    1.13
  -4   5   9   14.49    1.00
   3  -5  -9   49.67    2.07
  -3   5   9   47.80    1.83
   2  -5  -9    9.09    0.91
  -2   5   9    8.73    0.84
   1  -5  -9   30.10    1.66
  -1   5   9   31.42    1.34
   0  -5  -9    8.22    0.98
   0   5   9    9.32    0.85
  -1  -5  -9   26.91    1.60
   1   5   9   27.93    1.27
  -2  -5  -9   -1.26    0.99
   2   5   9    0.68    0.59
   3   5   9    7.68    0.78
  -8   6   9    5.30    0.92
  -7   6   9   -0.82    0.79
  -6   6   9    8.19    0.91
   5  -6  -9    0.67    0.80
  -5   6   9    1.09    0.76
   4  -6  -9   13.64    1.15
  -4   6   9   12.12    1.12
   3  -6  -9    1.08    0.78
  -3   6   9    1.59    0.67
   2  -6  -9   23.44    1.50
  -2   6   9   26.57    1.38
   1  -6  -9   11.99    1.14
  -1   6   9   11.95    0.99
   0  -6  -9    9.25    1.16
   0   6   9   12.26    0.99
   1   6   9   23.46    1.37
   2   6   9    4.16    0.75
   3   6   9   13.51    1.12
  -7   7   9    3.53    0.90
  -6   7   9    1.03    0.85
  -5   7   9    3.66    0.87
   4  -7  -9    1.12    0.97
  -4   7   9   -0.05    0.71
   3  -7  -9    4.02    0.98
  -3   7   9    4.27    0.80
   2  -7  -9    0.31    0.91
  -2   7   9    0.87    0.73
  -1   7   9    0.71    0.72
   0   7   9    2.26    0.76
   1   7   9    1.09    0.78
   2   7   9    5.21    0.95
  -6   8   9    2.65    0.93
  -5   8   9    6.77    0.94
  -4   8   9    1.57    0.83
  -3   8   9    9.09    1.05
  -2   8   9    0.72    0.81
  -1   8   9    5.22    0.90
   0   8   9    0.78    0.85
   1   8   9    1.26    0.88
   1  10 -10    1.69    1.01
   0  10 -10    0.58    0.92
  -1  10 -10    0.72    0.87
  -2  10 -10    1.40    0.86
  -3  10 -10    2.59    0.83
   3   9 -10   -2.23    0.86
   2   9 -10    1.02    0.88
   1   9 -10    1.17    0.82
   0   9 -10    2.83    0.85
  -1   9 -10   -0.45    0.76
  -2   9 -10    3.02    0.78
  -3   9 -10    7.08    0.82
  -4   9 -10    0.91    0.62
  -5   9 -10    6.84    0.73
   3   8 -10   -0.50    0.86
   2   8 -10   -1.03    0.72
   1   8 -10    8.42    0.86
   0   8 -10    6.01    0.74
  -1   8 -10    6.16    0.77
  -2   8 -10    1.67    0.62
  -3   8 -10    0.21    0.57
  -4   8 -10   -1.37    0.57
  -5   8 -10    0.00    0.54
  -6   8 -10   -0.12    0.46
   5   7 -10    0.61    0.84
   3   7 -10    2.70    0.82
   2   7 -10    1.58    0.66
   1   7 -10    3.92    0.72
   0   7 -10    1.19    0.55
  -1   7 -10   16.02    0.89
  -1   7 -10   15.81    0.99
  -2   7 -10   12.61    0.89
  -3   7 -10    7.45    0.67
  -4   7 -10    3.27    0.54
  -5   7 -10   -0.44    0.44
  -6   7 -10    0.78    0.41
   6   6 -10   -0.09    0.79
   5   6 -10    1.19    0.84
   4   6 -10    0.56    0.69
   3   6 -10    3.22    0.67
   2   6 -10    5.79    0.73
   1   6 -10    4.02    0.64
   0   6 -10    1.14    0.30
   0   6 -10   -0.35    0.53
  -1   6 -10   15.47    0.77
  -1   6 -10   12.59    0.89
  -2   6 -10    2.28    0.40
  -2   6 -10    3.36    0.51
  -3   6 -10   25.71    1.12
  -4   6 -10    3.69    0.47
  -5   6 -10    2.47    0.42
  -6   6 -10    3.42    0.42
  -7  -5  10    0.58    0.96
   6   5 -10    0.02    0.73
  -6  -5  10    0.85    0.86
   5   5 -10    0.56    0.75
  -5  -5  10   -0.62    0.65
   4   5 -10    1.88    0.64
  -4  -5  10    1.23    0.58
   3   5 -10    2.41    0.59
   2   5 -10    9.85    0.79
   1   5 -10    0.24    0.22
   1   5 -10    0.27    0.19
   1   5 -10    0.36    0.46
   0   5 -10   15.78    0.69
   0   5 -10   16.23    0.82
   0   5 -10   14.82    0.62
  -1   5 -10   38.44    1.41
  -1   5 -10   37.81    1.34
  -1   5 -10   39.91    1.43
  -2   5 -10    1.65    0.37
  -2   5 -10    1.91    0.43
  -3   5 -10    2.75    0.44
  -4   5 -10   -0.19    0.28
  -4   5 -10    0.42    0.36
  -5   5 -10   15.41    0.79
  -5   5 -10   14.32    0.76
  -6   5 -10    0.35    0.37
   7   4 -10    1.40    0.80
  -7  -4  10    1.27    0.84
   6   4 -10    0.06    0.65
  -6  -4  10    0.27    0.70
   5   4 -10    4.46    0.69
  -5  -4  10    4.53    0.67
   4   4 -10    0.59    0.61
  -4  -4  10    0.82    0.55
   3   4 -10    7.51    0.70
  -3  -4  10    7.65    0.74
   2   4 -10    6.62    0.62
   1   4 -10   23.68    1.02
   0   4 -10   25.12    1.03
   0   4 -10   25.96    0.96
  -1   4 -10    0.90    0.27
  -1   4 -10    0.73    0.36
  -2   4 -10    7.55    0.58
  -2   4 -10    7.29    0.58
   2  -4  10    6.79    0.51
  -3   4 -10   16.36    0.79
  -3   4 -10   16.63    0.65
  -4   4 -10    7.77    0.61
  -4   4 -10    7.78    0.50
  -5   4 -10   12.76    0.72
  -5   4 -10   12.86    0.73
  -6   4 -10    4.33    0.49
  -8  -3  10    3.50    0.95
   7   3 -10    1.25    0.71
  -7  -3  10    1.58    0.82
   6   3 -10    6.28    0.78
  -6  -3  10    6.28    0.79
   5   3 -10   15.44    1.07
  -5  -3  10   15.54    1.09
   4   3 -10    3.54    0.57
  -4  -3  10    4.51    0.54
   3   3 -10   41.29    1.60
  -3  -3  10   42.02    1.59
   2   3 -10    4.09    0.49
  -2  -3  10    4.08    0.45
   1   3 -10   70.29    2.34
   0   3 -10    2.76    0.40
  -1   3 -10  121.54    3.86
  -2   3 -10   16.70    0.77
   2  -3  10   16.52    0.72
  -3   3 -10   38.67    1.42
  -3   3 -10   40.20    1.38
   3  -3  10   40.07    1.33
  -4   3 -10   24.61    1.02
  -4   3 -10   24.14    0.97
  -5   3 -10    1.73    0.44
  -5   3 -10    0.96    0.36
  -6   3 -10    4.63    0.57
  -6   3 -10    4.69    0.51
  -8  -2  10   -0.53    0.85
   7   2 -10    0.89    0.70
  -7  -2  10    0.93    0.75
   6   2 -10    0.43    0.56
  -6  -2  10   -0.13    0.60
   5   2 -10    1.56    0.54
  -5  -2  10    2.02    0.54
   4   2 -10   12.55    0.83
  -4  -2  10   12.97    0.81
   3   2 -10   21.94    1.01
  -3  -2  10   23.03    0.97
   2   2 -10   33.57    1.32
  -2  -2  10   36.68    1.28
   1   2 -10   60.17    2.05
   0   2 -10   20.75    0.88
  -1   2 -10   56.97    1.96
   1  -2  10   59.50    2.08
   1  -2  10   59.54    1.95
  -2   2 -10   26.04    1.05
   2  -2  10   26.33    1.17
   2  -2  10   26.78    0.98
  -3   2 -10   41.36    1.54
   3  -2  10   43.66    1.43
   3  -2  10   43.77    1.73
  -4   2 -10    9.51    0.57
  -4   2 -10    7.31    0.70
   4  -2  10    7.66    0.73
  -5   2 -10   23.35    1.16
  -5   2 -10   25.94    1.05
   5  -2  10   24.41    1.45
  -6   2 -10    1.89    0.44
  -6   2 -10    0.29    0.56
  -8  -1  10    0.03    0.85
   7   1 -10    2.32    0.70
  -7  -1  10    4.10    0.80
   6   1 -10    4.81    0.69
  -6  -1  10    5.26    0.71
   5   1 -10   25.43    1.19
  -5  -1  10   28.43    1.28
   4   1 -10   15.13    0.93
  -4  -1  10   15.55    0.84
   3   1 -10   16.78    0.91
  -3  -1  10   16.16    0.76
   2   1 -10    6.98    0.60
  -2  -1  10    7.11    0.43
   1   1 -10   13.38    0.71
  -1  -1  10   13.76    0.51
  -1  -1  10   12.94    0.58
   0   1 -10   13.02    0.69
   0  -1  10   12.08    0.65
   0  -1  10   12.24    0.63
  -1   1 -10   37.31    1.38
   1  -1  10   39.16    1.36
   1  -1  10   38.06    1.46
  -2   1 -10   31.70    1.23
   2  -1  10   33.22    1.17
   2  -1  10   32.83    1.38
  -3   1 -10   43.87    1.61
   3  -1  10   43.07    1.78
   3  -1  10   44.08    1.49
  -4   1 -10    4.96    0.41
  -4   1 -10    4.80    0.60
   4  -1  10    3.54    0.67
  -5   1 -10   20.49    1.15
  -5   1 -10   19.81    0.97
   5  -1  10   19.95    1.39
  -6   1 -10    7.72    0.81
  -6   1 -10    4.14    0.63
   6  -1  10    6.74    0.98
  -7   1 -10   15.81    1.16
  -9   0  10    1.42    0.96
  -8   0  10    7.35    0.97
   7   0 -10   20.59    1.25
  -7   0  10   25.12    1.42
   6   0 -10    5.34    0.69
  -6   0  10    4.96    0.67
   5   0 -10   41.85    1.64
  -5   0  10   43.72    1.68
  -5   0  10   38.47    1.44
   4   0 -10    1.24    0.48
  -4   0  10    1.40    0.20
   3   0 -10   25.40    1.10
   2   0 -10   10.52    0.70
  -2   0  10    9.28    0.68
   1   0 -10   33.76    1.29
  -1   0  10   30.68    1.22
   0   0 -10    6.06    0.55
   0   0  10    5.18    0.56
   0   0  10    5.70    0.50
   0   0  10    5.87    0.35
  -1   0 -10   12.79    0.79
   1   0  10   12.07    0.55
   1   0  10   11.45    0.67
   1   0  10   10.61    0.74
  -2   0 -10    1.04    0.48
   2   0  10    0.63    0.34
   2   0  10    0.38    0.46
   2   0  10    0.38    0.26
  -3   0 -10    0.14    0.49
   3   0  10    0.22    0.52
   3   0  10    0.63    0.33
  -4   0 -10    0.73    0.59
   4   0  10   -0.85    0.59
  -5   0 -10    5.70    0.79
   5   0  10    4.46    0.81
  -6   0 -10    2.32    0.81
  -6   0 -10    2.85    0.56
  -7   0 -10    2.09    0.64
  -9   1  10    0.51    1.03
  -8   1  10    1.08    0.88
  -7   1  10    4.87    0.78
   6  -1 -10   20.30    1.08
   5  -1 -10   21.81    1.15
  -5   1  10   21.00    0.91
   4  -1 -10   27.19    1.19
   3  -1 -10   75.16    2.59
  -3   1  10   76.10    2.58
   2  -1 -10    7.61    0.76
  -2   1  10    6.90    0.65
   1  -1 -10   99.60    3.30
  -1   1  10  100.88    3.25
   0  -1 -10   66.46    2.28
   0   1  10   63.33    2.27
   0   1  10   67.44    2.20
  -1  -1 -10   93.31    3.18
   1   1  10   95.82    3.10
   1   1  10   97.95    3.30
  -2  -1 -10   19.47    1.04
   2   1  10   21.91    1.16
   2   1  10   19.78    0.91
  -3  -1 -10   50.85    1.96
   3   1  10   49.91    1.73
   3   1  10   47.66    2.04
  -4  -1 -10    0.40    0.68
   4   1  10    1.27    0.69
  -5  -1 -10   11.13    1.05
   5   1  10    9.38    0.97
  -9   2  10    1.88    1.07
  -9   2  10    2.81    0.90
  -8   2  10    2.02    0.96
  -7   2  10    6.75    0.90
   6  -2 -10   15.78    1.13
  -6   2  10   16.30    1.18
   5  -2 -10    6.27    0.74
  -5   2  10    6.92    0.76
   4  -2 -10    2.02    0.61
  -4   2  10    1.68    0.60
   3  -2 -10    1.25    0.52
  -3   2  10    0.90    0.49
   2  -2 -10   27.57    1.23
  -2   2  10   27.79    1.15
   1  -2 -10   23.57    1.11
  -1   2  10   22.16    1.00
   0  -2 -10   25.12    1.24
   0   2  10   24.22    1.09
  -1  -2 -10   32.36    1.42
   1   2  10   32.79    1.25
  -2  -2 -10    0.54    0.59
   2   2  10    0.10    0.39
  -3  -2 -10   60.73    2.36
   3   2  10   59.97    2.05
   3   2  10   57.80    2.38
  -4  -2 -10    0.07    0.81
   4   2  10   -0.16    0.72
  -5  -2 -10   34.83    1.93
   5   2  10   36.86    1.95
  -9   3  10    5.96    1.00
  -9   3  10    5.36    1.16
  -8   3  10    4.53    0.90
  -7   3  10   12.94    1.10
   6  -3 -10   -0.18    0.64
  -6   3  10   -0.85    0.71
   5  -3 -10    7.37    0.76
  -5   3  10    9.14    0.83
   4  -3 -10    6.81    0.77
  -4   3  10    7.48    0.76
   3  -3 -10   16.37    1.03
  -3   3  10   17.21    0.95
   2  -3 -10    0.19    0.55
  -2   3  10   -0.20    0.49
   1  -3 -10    4.39    0.66
  -1   3  10    4.06    0.55
   0  -3 -10   17.13    1.08
   0   3  10   16.72    0.96
  -1  -3 -10   13.71    1.06
   1   3  10   13.86    0.83
  -2  -3 -10    8.90    0.98
   2   3  10   10.07    0.83
  -3  -3 -10   20.08    1.39
   3   3  10   21.97    1.37
   3   3  10   21.22    1.07
  -4  -3 -10   10.65    1.22
   4   3  10   10.44    0.99
  -8   4  10    7.30    0.95
  -7   4  10    7.10    0.94
   6  -4 -10    3.71    0.81
  -6   4  10    4.35    0.74
   5  -4 -10   29.13    1.45
  -5   4  10   29.02    1.36
   4  -4 -10    1.82    0.74
  -4   4  10    0.70    0.60
   3  -4 -10   52.50    2.11
  -3   4  10   55.58    2.04
   2  -4 -10   10.97    1.01
  -2   4  10   11.52    0.87
   1  -4 -10  100.60    3.59
  -1   4  10  104.38    3.42
   0  -4 -10    1.14    0.78
   0   4  10    0.41    0.54
  -1  -4 -10   56.92    2.39
   1   4  10   56.63    2.08
  -2  -4 -10    3.41    0.90
   2   4  10    2.96    0.63
  -3  -4 -10    4.54    1.13
   3   4  10    7.11    0.73
  -8   5  10    2.88    0.88
  -7   5  10    1.16    0.84
  -6   5  10    6.32    0.90
   5  -5 -10    9.09    1.01
  -5   5  10    7.65    0.82
   4  -5 -10   22.02    1.47
  -4   5  10   21.73    1.20
   3  -5 -10   26.27    1.45
  -3   5  10   25.44    1.27
   2  -5 -10   18.10    1.43
  -2   5  10   18.88    1.09
   1  -5 -10   25.34    1.51
  -1   5  10   26.28    1.25
   0  -5 -10    6.47    1.06
   0   5  10    7.11    0.79
  -1  -5 -10   22.00    1.73
   1   5  10   24.88    1.22
  -2  -5 -10    7.33    1.26
   2   5  10    9.08    0.80
  -7   6  10    4.14    0.95
  -6   6  10    0.37    0.75
   5  -6 -10    6.04    1.01
  -5   6  10    6.17    0.92
   4  -6 -10    3.71    0.94
  -4   6  10    3.58    0.76
   3  -6 -10    6.67    0.99
  -3   6  10    7.08    0.89
   2  -6 -10   14.57    1.35
  -2   6  10   15.27    1.10
   1  -6 -10    8.64    1.12
  -1   6  10    9.56    0.87
   0  -6 -10   19.03    1.61
   0   6  10   20.96    1.23
  -1  -6 -10   17.91    1.68
   1   6  10   20.64    1.35
   2   6  10    3.33    0.76
  -6   7  10    0.95    0.90
  -5   7  10    3.01    0.84
   4  -7 -10    0.30    1.04
  -4   7  10   -0.24    0.86
   3  -7 -10    4.59    1.15
  -3   7  10    5.30    0.94
   2  -7 -10   -0.36    0.97
  -2   7  10    0.66    0.85
   1  -7 -10    2.13    1.08
  -1   7  10    4.03    0.82
   0   7  10    0.66    0.76
   1   7  10    0.20    0.80
   2   7  10    5.76    1.01
  -5   8  10   14.09    1.25
  -4   8  10    7.94    1.02
  -3   8  10   20.25    1.43
  -2   8  10    8.62    1.10
  -1   8  10   13.72    1.20
   0   8  10    2.37    0.93
   0  10 -11    1.54    0.93
  -1  10 -11    3.12    0.93
  -2  10 -11    2.67    0.86
   3   9 -11    4.16    1.09
   2   9 -11   -0.31    0.84
   1   9 -11   -0.34    0.85
   0   9 -11    0.35    0.81
  -1   9 -11    0.86    0.76
  -2   9 -11    0.37    0.71
  -3   9 -11   -2.21    0.68
  -4   9 -11    1.66    0.70
   4   8 -11   -0.45    0.95
   2   8 -11    2.53    0.79
   1   8 -11    0.66    0.69
   0   8 -11    6.12    0.80
  -1   8 -11    4.11    0.66
  -2   8 -11    4.41    0.74
  -3   8 -11    0.60    0.62
  -4   8 -11   -0.06    0.60
  -5   8 -11   -0.31    0.54
   5   7 -11    0.02    0.84
   4   7 -11   -0.22    0.86
   3   7 -11    1.41    0.74
   2   7 -11    3.48    0.71
   1   7 -11   19.01    1.23
   0   7 -11    1.58    0.67
  -1   7 -11   12.27    0.88
  -2   7 -11    2.87    0.60
  -3   7 -11    0.46    0.54
  -4   7 -11    0.91    0.51
  -5   7 -11   -0.52    0.46
  -6   7 -11    0.25    0.48
   6   6 -11    0.09    0.83
   5   6 -11    0.40    0.77
   4   6 -11    1.79    0.80
   3   6 -11   -1.04    0.63
   2   6 -11    5.12    0.75
   1   6 -11    3.92    0.63
   0   6 -11    3.54    0.63
  -1   6 -11    2.23    0.56
  -1   6 -11    2.23    0.37
  -2   6 -11   13.64    0.85
  -2   6 -11   14.05    0.88
  -3   6 -11   11.04    0.78
  -4   6 -11    0.42    0.45
  -5   6 -11   14.13    0.84
  -6   6 -11    1.32    0.44
  -7  -5  11    1.92    1.00
   6   5 -11    2.03    0.80
  -6  -5  11    1.92    0.86
   5   5 -11    0.60    0.71
  -5  -5  11    0.15    0.65
   4   5 -11    1.02    0.65
   3   5 -11    2.16    0.61
   2   5 -11    7.63    0.73
   1   5 -11    1.35    0.56
   1   5 -11    1.66    0.20
   0   5 -11    0.99    0.46
   0   5 -11    0.64    0.26
  -1   5 -11    7.49    0.59
  -1   5 -11    7.72    0.74
  -2   5 -11    0.74    0.44
  -2   5 -11    0.61    0.35
  -3   5 -11    6.09    0.54
  -4   5 -11    2.19    0.44
  -5   5 -11    5.77    0.51
  -6   5 -11    8.18    0.72
   7   4 -11   -0.02    0.83
  -7  -4  11    0.42    0.85
   6   4 -11    0.80    0.69
  -6  -4  11    0.47    0.70
   5   4 -11    9.92    0.96
  -5  -4  11    9.23    0.80
   4   4 -11    1.04    0.66
  -4  -4  11    0.94    0.56
   3   4 -11   17.90    1.02
  -3  -4  11   19.12    0.96
   2   4 -11    1.55    0.57
   1   4 -11   27.28    1.15
   0   4 -11    2.79    0.47
  -1   4 -11    8.67    0.57
  -1   4 -11    8.67    0.70
  -2   4 -11    1.62    0.42
  -2   4 -11    1.67    0.35
   2  -4  11    1.47    0.35
  -3   4 -11    0.88    0.41
  -4   4 -11    0.58    0.41
  -5   4 -11    0.63    0.43
  -6   4 -11   -0.38    0.45
  -8  -3  11   -0.35    0.91
   7   3 -11    0.06    0.76
  -7  -3  11    0.34    0.78
   6   3 -11    0.78    0.64
  -6  -3  11    0.30    0.66
   5   3 -11    5.98    0.71
  -5  -3  11    7.11    0.69
   4   3 -11    5.45    0.63
  -4  -3  11    5.10    0.55
   3   3 -11   30.61    1.33
  -3  -3  11   34.19    1.31
   2   3 -11    4.16    0.53
  -2  -3  11    4.49    0.41
   1   3 -11   63.54    2.16
   0   3 -11    0.71    0.39
  -1   3 -11   62.81    2.11
   1  -3  11   62.45    2.09
  -2   3 -11    3.72    0.45
   2  -3  11    4.36    0.41
  -3   3 -11   41.52    1.52
  -4   3 -11    0.97    0.42
  -5   3 -11    9.07    0.80
  -6   3 -11    1.26    0.56
  -8  -2  11    0.71    0.84
   7   2 -11    3.05    0.78
  -7  -2  11    2.31    0.75
   6   2 -11    0.24    0.67
  -6  -2  11   -0.14    0.59
   5   2 -11    8.61    0.86
  -5  -2  11    9.69    0.88
   4   2 -11    2.23    0.54
  -4  -2  11    2.39    0.44
   3   2 -11    2.75    0.53
  -3  -2  11    4.49    0.40
   2   2 -11    5.18    0.54
  -2  -2  11    5.92    0.42
   1   2 -11    7.69    0.63
   0   2 -11   45.29    1.61
   0  -2  11   45.58    1.62
  -1   2 -11   70.56    2.38
   1  -2  11   70.23    2.49
   1  -2  11   72.05    2.34
  -2   2 -11   11.39    0.73
   2  -2  11   11.84    0.65
   2  -2  11   10.74    0.81
  -3   2 -11   33.74    1.30
   3  -2  11   32.00    1.45
  -4   2 -11    1.15    0.49
   4  -2  11   -0.19    0.59
  -5   2 -11   39.05    1.59
   5  -2  11   37.59    1.89
  -6   2 -11    1.89    0.67
  -8  -1  11    0.70    0.81
   7   1 -11   15.43    1.23
  -7  -1  11   19.93    1.37
   6   1 -11    0.81    0.65
  -6  -1  11    0.34    0.61
   5   1 -11   16.19    1.00
  -5  -1  11   17.71    1.03
   4   1 -11    0.93    0.50
  -4  -1  11    0.82    0.40
   3   1 -11   13.12    0.89
  -3  -1  11   12.71    0.69
   2   1 -11    1.18    0.45
  -2  -1  11    0.96    0.24
  -2  -1  11    0.88    0.15
   1   1 -11   43.40    1.54
  -1  -1  11   43.73    1.47
  -1  -1  11   37.97    1.42
  -1  -1  11   43.25    1.53
   0   1 -11    0.22    0.40
   0  -1  11   -0.14    0.28
   0  -1  11    0.17    0.41
  -1   1 -11    4.10    0.50
   1  -1  11    3.92    0.44
   1  -1  11    3.27    0.42
  -2   1 -11    3.54    0.52
   2  -1  11    2.89    0.49
   2  -1  11    3.80    0.41
  -3   1 -11    1.35    0.52
   3  -1  11    1.59    0.36
   3  -1  11    0.40    0.54
  -4   1 -11    0.72    0.54
   4  -1  11    0.25    0.59
  -5   1 -11    5.26    0.74
   5  -1  11    2.95    0.76
  -6   1 -11    8.67    0.92
  -8   0  11    0.30    0.83
   7   0 -11    4.76    0.75
  -7   0  11    5.53    0.81
   6   0 -11    9.08    0.89
  -6   0  11   11.04    0.97
   5   0 -11   28.33    1.36
  -5   0  11   29.73    1.34
   4   0 -11    3.99    0.58
  -4   0  11    3.87    0.32
   3   0 -11   71.07    2.45
   2   0 -11   13.87    0.84
  -2   0  11   14.70    0.83
   1   0 -11  144.91    4.67
  -1   0  11  147.71    4.65
  -1   0  11  146.04    4.88
   0   0 -11   29.24    1.20
   0   0  11   29.29    1.14
   0   0  11   28.42    1.19
   0   0  11   29.28    1.05
  -1   0 -11  118.22    3.87
   1   0  11  125.18    4.01
   1   0  11  116.22    3.79
   1   0  11  114.40    4.07
  -2   0 -11    1.63    0.55
   2   0  11    0.61    0.39
   2   0  11    0.91    0.50
  -3   0 -11   39.19    1.64
   3   0  11   38.68    1.75
   3   0  11   42.17    1.44
  -4   0 -11    4.15    0.72
   4   0  11    2.95    0.69
  -5   0 -11    6.97    0.90
   5   0  11    5.91    0.91
  -6   0 -11    1.06    0.85
  -8   1  11    3.74    0.93
  -7   1  11   17.26    1.32
   6  -1 -11    6.27    0.78
   5  -1 -11    5.90    0.67
   4  -1 -11   30.00    1.31
  -4   1  11   29.79    1.39
   3  -1 -11   31.66    1.39
  -3   1  11   30.49    1.30
   2  -1 -11   79.40    2.77
  -2   1  11   83.85    2.76
   1  -1 -11   69.88    2.45
  -1   1  11   69.44    2.35
   0  -1 -11   14.00    0.89
   0   1  11   14.27    0.68
   0   1  11   14.53    0.84
  -1  -1 -11   40.70    1.70
   1   1  11   43.28    1.56
   1   1  11   42.91    1.71
  -2  -1 -11   11.96    0.91
   2   1  11   12.43    0.76
   2   1  11   12.26    0.98
  -3  -1 -11   35.93    1.62
   3   1  11   33.87    1.65
   3   1  11   34.34    1.31
  -4  -1 -11    3.53    0.82
   4   1  11    3.07    0.79
  -5  -1 -11   18.99    1.55
   5   1  11   19.43    1.56
  -8   2  11   -0.13    0.88
  -8   2  11   -0.55    0.86
  -7   2  11    0.82    0.84
   6  -2 -11   -0.16    0.67
  -6   2  11    0.21    0.75
   5  -2 -11    1.00    0.60
  -5   2  11   -0.70    0.62
   4  -2 -11    6.22    0.75
  -4   2  11    4.91    0.68
   3  -2 -11   12.30    0.93
  -3   2  11   12.61    0.96
   2  -2 -11   21.92    1.14
  -2   2  11   21.87    1.05
   1  -2 -11   21.86    1.15
  -1   2  11   23.21    1.10
   0  -2 -11    4.90    0.66
   0   2  11    4.68    0.54
  -1  -2 -11   15.94    1.17
   1   2  11   18.08    0.89
  -2  -2 -11    9.70    0.94
   2   2  11    9.68    0.79
   2   2  11   10.09    0.99
  -3  -2 -11   31.14    1.70
   3   2  11   34.03    1.35
   3   2  11   31.23    1.64
  -4  -2 -11   14.07    1.43
   4   2  11   15.00    1.37
  -5  -2 -11   16.05    1.60
  -8   3  11    8.74    0.98
  -7   3  11   16.62    1.37
   6  -3 -11    1.69    0.75
  -6   3  11    2.37    0.80
   5  -3 -11   37.44    1.66
  -5   3  11   38.60    1.70
   4  -3 -11    1.05    0.71
  -4   3  11    1.25    0.68
   3  -3 -11   53.11    2.09
  -3   3  11   56.18    2.05
   2  -3 -11    0.18    0.61
  -2   3  11    0.04    0.54
   1  -3 -11   36.45    1.59
  -1   3  11   35.09    1.43
   0  -3 -11    2.66    0.70
   0   3  11    3.21    0.55
  -1  -3 -11   22.14    1.41
   1   3  11   20.54    1.11
  -2  -3 -11    0.51    0.75
   2   3  11    0.66    0.54
  -3  -3 -11    8.28    1.04
   3   3  11    8.17    0.86
  -4  -3 -11    0.72    1.05
  -8   4  11    3.00    0.96
  -7   4  11    3.07    0.81
   6  -4 -11    8.14    0.98
  -6   4  11    8.15    0.96
   5  -4 -11   12.40    1.09
  -5   4  11   13.77    1.18
   4  -4 -11   24.98    1.51
  -4   4  11   26.20    1.29
   3  -4 -11   45.43    1.99
  -3   4  11   44.15    1.76
   2  -4 -11    6.66    0.86
  -2   4  11    7.75    0.80
   1  -4 -11   46.58    1.99
  -1   4  11   46.74    1.84
   0  -4 -11    0.03    0.75
   0   4  11   -0.09    0.62
  -1  -4 -11   45.32    2.16
   1   4  11   45.81    1.80
  -2  -4 -11    5.08    1.01
   2   4  11    6.01    0.73
  -3  -4 -11   11.18    1.39
   3   4  11   12.25    1.23
  -7   5  11    1.07    0.91
  -6   5  11    3.11    0.82
   5  -5 -11    6.55    0.94
  -5   5  11    6.81    0.84
   4  -5 -11    3.02    0.92
  -4   5  11    1.63    0.79
   3  -5 -11    9.95    1.03
  -3   5  11   10.33    0.88
   2  -5 -11   14.01    1.22
  -2   5  11   12.97    1.03
   1  -5 -11   27.42    1.65
  -1   5  11   29.99    1.48
   0  -5 -11    9.95    1.14
   0   5  11    9.74    0.85
  -1  -5 -11   19.49    1.77
   1   5  11   21.36    1.19
  -2  -5 -11    7.48    1.36
   2   5  11    7.73    0.80
  -7   6  11    4.45    1.03
  -6   6  11    0.24    0.81
   5  -6 -11    4.40    1.05
  -5   6  11    3.89    0.92
   4  -6 -11    1.08    0.99
  -4   6  11   -0.20    0.73
   3  -6 -11   12.04    1.27
  -3   6  11   12.60    1.25
   2  -6 -11    0.49    0.91
  -2   6  11   -0.31    0.71
   1  -6 -11    4.98    1.08
  -1   6  11    5.18    0.81
   0  -6 -11   -0.22    1.02
   0   6  11    0.35    0.80
  -1  -6 -11    5.12    1.23
   1   6  11    5.78    0.82
   2   6  11    0.86    0.76
  -6   7  11    2.44    1.01
  -5   7  11   30.90    1.65
   4  -7 -11    1.22    1.12
  -4   7  11    0.97    0.83
   3  -7 -11   22.62    1.75
  -3   7  11   23.47    1.44
   2  -7 -11    0.12    1.05
  -2   7  11    1.14    0.83
   1  -7 -11   11.04    1.49
  -1   7  11   11.74    1.11
   0   7  11    1.01    0.89
   1   7  11    3.53    1.00
  -3   8  11    3.76    1.07
   1   9 -12    4.46    0.97
   0   9 -12    1.29    0.88
  -1   9 -12    0.50    0.74
  -2   9 -12   -0.92    0.75
  -3   9 -12    0.50    0.72
  -4   9 -12   -0.41    0.70
   4   8 -12    0.21    0.88
   3   8 -12   -1.10    0.91
   2   8 -12    0.39    0.86
   0   8 -12    1.46    0.77
  -1   8 -12    3.17    0.75
  -2   8 -12    0.80    0.69
  -3   8 -12    0.80    0.68
  -4   8 -12    0.48    0.63
  -5   8 -12    0.35    0.58
   5   7 -12   -0.49    0.95
   4   7 -12    2.96    0.85
   3   7 -12    1.12    0.76
   2   7 -12    0.58    0.70
   1   7 -12    1.56    0.74
   0   7 -12    2.00    0.63
  -1   7 -12    4.75    0.66
  -2   7 -12    0.96    0.62
  -3   7 -12    6.47    0.69
  -4   7 -12    6.58    0.66
  -5   7 -12    2.00    0.54
   6   6 -12   -0.65    0.86
   5   6 -12    0.57    0.88
   4   6 -12    0.13    0.80
   3   6 -12    1.58    0.69
   2   6 -12    0.30    0.62
   1   6 -12    1.20    0.60
   0   6 -12    0.80    0.55
  -1   6 -12    3.39    0.61
  -2   6 -12    1.29    0.56
  -3   6 -12   13.75    0.93
  -4   6 -12    2.07    0.51
  -5   6 -12   17.73    0.96
  -6   6 -12    1.38    0.53
   6   5 -12   -0.54    0.77
  -6  -5  12    0.28    0.78
   5   5 -12    2.45    0.86
  -5  -5  12    2.91    0.70
   4   5 -12    0.89    0.74
   3   5 -12   10.99    0.96
   2   5 -12    6.31    0.69
   1   5 -12    3.20    0.58
   0   5 -12    2.89    0.59
  -1   5 -12    0.69    0.31
  -1   5 -12    0.23    0.52
  -2   5 -12    0.92    0.47
  -2   5 -12    0.67    0.36
  -3   5 -12    0.30    0.45
  -4   5 -12    0.57    0.46
  -5   5 -12    0.36    0.47
  -6   5 -12    0.13    0.49
   7   4 -12   -0.04    0.84
  -7  -4  12    0.84    0.83
   6   4 -12    1.02    0.81
  -6  -4  12    0.81    0.72
   5   4 -12    4.81    0.83
  -5  -4  12    5.32    0.72
   4   4 -12    1.49    0.63
  -4  -4  12    1.83    0.58
   3   4 -12    7.42    0.72
   2   4 -12    2.42    0.57
   1   4 -12   24.76    1.12
   0   4 -12    6.94    0.68
  -1   4 -12   77.91    2.62
  -2   4 -12    4.91    0.55
   2  -4  12    5.53    0.48
  -3   4 -12   17.89    0.94
  -4   4 -12    5.52    0.56
  -5   4 -12    4.82    0.57
  -6   4 -12    1.89    0.58
   7   3 -12   -0.80    0.80
  -7  -3  12   -0.26    0.77
   6   3 -12    1.63    0.75
  -6  -3  12    1.07    0.68
   5   3 -12    1.58    0.66
  -5  -3  12    2.30    0.59
   4   3 -12    7.08    0.72
  -4  -3  12    7.07    0.78
   3   3 -12    7.60    0.74
  -3  -3  12    7.58    0.65
   2   3 -12    7.79    0.75
   1   3 -12   42.85    1.59
   0   3 -12    2.36    0.47
  -1   3 -12    5.80    0.57
   1  -3  12    5.26    0.48
  -2   3 -12    0.66    0.45
   2  -3  12    0.27    0.36
  -3   3 -12   10.83    0.77
  -4   3 -12    3.94    0.55
  -5   3 -12   14.55    1.00
  -6   3 -12    1.60    0.64
  -8  -2  12    0.01    0.85
   7   2 -12    3.50    0.85
  -7  -2  12    3.90    0.79
   6   2 -12    0.20    0.63
  -6  -2  12    0.52    0.61
   5   2 -12    0.74    0.68
  -5  -2  12    0.92    0.51
   4   2 -12    0.57    0.60
  -4  -2  12   -0.31    0.40
   3   2 -12    0.80    0.52
  -3  -2  12    0.75    0.33
   2   2 -12    0.65    0.52
  -2  -2  12   -0.07    0.22
   1   2 -12    0.82    0.50
   0   2 -12   21.37    0.97
   0  -2  12   20.98    0.94
  -1   2 -12    9.72    0.77
   1  -2  12    9.16    0.67
   1  -2  12    9.06    0.68
  -2   2 -12    2.76    0.50
   2  -2  12    2.74    0.41
   2  -2  12    2.02    0.47
  -3   2 -12    8.84    0.77
   3  -2  12    7.83    0.72
  -4   2 -12    2.94    0.57
   4  -2  12    2.31    0.64
  -5   2 -12   13.21    1.03
   5  -2  12   12.35    1.29
  -6   2 -12    6.94    0.84
  -8  -1  12    1.90    0.89
   7   1 -12    7.52    0.90
  -7  -1  12    7.68    0.85
   6   1 -12    1.74    0.71
  -6  -1  12    2.03    0.64
   5   1 -12   15.27    1.13
  -5  -1  12   15.76    1.00
   4   1 -12    0.70    0.61
  -4  -1  12    0.66    0.40
   3   1 -12   72.38    2.57
  -3  -1  12   76.44    2.61
   2   1 -12    5.58    0.59
  -2  -1  12    5.04    0.41
  -2  -1  12    4.64    0.32
   1   1 -12  128.44    4.06
  -1  -1  12  123.60    4.01
  -1  -1  12  122.24    4.15
   0   1 -12   53.04    1.88
   0  -1  12   51.93    1.82
   0  -1  12   49.25    1.85
  -1   1 -12   11.85    0.85
   1  -1  12   12.15    0.79
   1  -1  12   11.52    0.74
  -2   1 -12   27.63    1.25
   2  -1  12   30.05    1.14
   2  -1  12   26.55    1.31
  -3   1 -12    3.88    0.62
   3  -1  12    2.98    0.62
  -4   1 -12    1.00    0.62
   4  -1  12    0.03    0.64
  -5   1 -12    2.92    0.75
   5  -1  12    2.37    0.80
  -6   1 -12    0.36    0.79
  -8   0  12    1.00    0.86
   7   0 -12    0.25    0.66
  -7   0  12    0.65    0.71
   6   0 -12    9.49    0.88
  -6   0  12   10.13    0.96
   5   0 -12   10.02    0.92
  -5   0  12   10.29    0.88
   4   0 -12   12.06    1.02
  -4   0  12   12.95    0.82
   3   0 -12   64.32    2.29
  -3   0  12   62.35    2.25
   2   0 -12    5.26    0.61
  -2   0  12    5.46    0.64
   1   0 -12   27.50    1.20
  -1   0  12   26.02    1.10
  -1   0  12   28.49    1.21
   0   0 -12    0.82    0.52
   0   0  12   -0.10    0.36
   0   0  12    0.04    0.47
  -1   0 -12   12.68    0.93
   1   0  12   10.56    0.85
   1   0  12   11.62    0.76
  -2   0 -12    3.09    0.62
   2   0  12    1.29    0.53
   2   0  12    1.85    0.45
  -3   0 -12   38.53    1.67
   3   0  12   39.64    1.78
  -4   0 -12    7.06    0.87
   4   0  12    6.44    0.87
  -5   0 -12    7.18    0.99
   5   0  12    7.23    1.01
  -6   0 -12    3.62    0.99
  -8   1  12    2.67    0.93
  -7   1  12    0.82    0.77
   6  -1 -12    0.26    0.63
  -6   1  12   -0.44    0.61
   5  -1 -12    4.65    0.70
  -5   1  12    2.80    0.80
   4  -1 -12   -0.14    0.57
  -4   1  12   -0.11    0.60
   3  -1 -12   24.92    1.28
  -3   1  12   24.10    1.18
   2  -1 -12    1.54    0.56
  -2   1  12    0.82    0.57
   1  -1 -12   27.03    1.26
  -1   1  12   27.61    1.23
   0  -1 -12    1.76    0.62
   0   1  12    1.06    0.46
  -1  -1 -12   68.10    2.52
   1   1  12   72.66    2.38
   1   1  12   67.66    2.55
  -2  -1 -12    5.11    0.76
   2   1  12    5.47    0.57
   2   1  12    3.66    0.63
  -3  -1 -12   63.81    2.42
   3   1  12   64.60    2.56
  -4  -1 -12    8.08    1.01
   4   1  12    4.86    0.85
  -5  -1 -12   38.38    2.07
  -8   2  12    0.40    0.95
  -8   2  12    0.06    0.92
  -7   2  12    6.02    0.99
   6  -2 -12    0.91    0.69
  -6   2  12    1.43    0.84
   5  -2 -12   24.41    1.32
  -5   2  12   25.11    1.32
   4  -2 -12    1.18    0.71
  -4   2  12    0.48    0.62
   3  -2 -12   38.04    1.63
  -3   2  12   38.58    1.56
   2  -2 -12    4.95    0.71
  -2   2  12    5.01    0.64
   1  -2 -12   16.56    1.07
  -1   2  12   15.99    0.92
   0  -2 -12    1.23    0.68
   0   2  12    1.23    0.51
  -1  -2 -12   18.67    1.18
   1   2  12   18.88    1.04
  -2  -2 -12    5.63    0.91
   2   2  12    6.43    0.73
   2   2  12    6.08    0.63
  -3  -2 -12   11.38    1.06
   3   2  12   12.59    1.22
  -4  -2 -12    2.80    1.02
   4   2  12    1.94    0.84
  -5  -2 -12    0.77    1.12
  -8   3  12    1.62    0.97
  -7   3  12    7.33    1.03
   6  -3 -12    3.88    0.84
  -6   3  12    3.75    0.81
   5  -3 -12   44.88    1.96
  -5   3  12   49.70    2.01
   4  -3 -12    1.96    0.78
  -4   3  12    2.80    0.69
   3  -3 -12   57.05    2.24
  -3   3  12   54.25    2.06
   2  -3 -12    1.14    0.68
  -2   3  12    1.47    0.66
   1  -3 -12   55.44    2.17
  -1   3  12   53.95    2.00
   0  -3 -12    0.29    0.71
   0   3  12    0.09    0.53
  -1  -3 -12   27.17    1.48
   1   3  12   25.00    1.19
  -2  -3 -12    2.99    0.95
   2   3  12    2.27    0.63
   2   3  12    2.64    0.63
  -3  -3 -12    4.17    1.00
   3   3  12    4.68    0.83
  -4  -3 -12   -0.69    1.09
  -7   4  12    3.33    0.97
   6  -4 -12    1.50    0.92
  -6   4  12    2.65    0.82
   5  -4 -12    6.77    0.92
  -5   4  12    8.01    0.87
   4  -4 -12   12.48    1.13
  -4   4  12   11.78    1.18
   3  -4 -12   31.39    1.62
  -3   4  12   32.91    1.47
   2  -4 -12    5.72    0.88
  -2   4  12    5.24    0.73
   1  -4 -12   38.11    1.92
  -1   4  12   37.95    1.58
   0  -4 -12    6.27    0.96
   0   4  12    6.01    0.73
  -1  -4 -12   35.55    1.90
   1   4  12   38.69    1.64
  -2  -4 -12    4.01    1.05
   2   4  12    4.42    0.74
  -3  -4 -12   23.16    2.00
  -7   5  12    2.74    1.01
  -6   5  12    0.66    0.82
   5  -5 -12    5.99    1.08
  -5   5  12    6.96    0.90
   4  -5 -12    0.83    0.93
  -4   5  12   -0.26    0.73
   3  -5 -12    3.50    0.91
  -3   5  12    2.30    0.74
   2  -5 -12    7.09    1.02
  -2   5  12    6.40    0.81
   1  -5 -12    6.55    1.05
  -1   5  12    6.21    0.87
   0  -5 -12    5.63    1.18
   0   5  12    5.21    0.78
  -1  -5 -12   12.86    1.44
   1   5  12   13.83    1.08
  -2  -5 -12   -0.08    1.25
   2   5  12    2.68    0.82
  -6   6  12    0.60    0.99
   5  -6 -12   17.36    1.53
  -5   6  12   19.20    1.36
   4  -6 -12    0.07    1.03
  -4   6  12    1.32    0.90
   3  -6 -12   16.56    1.52
  -3   6  12   17.98    1.27
   2  -6 -12    0.13    0.98
  -2   6  12    0.67    0.77
   1  -6 -12    5.63    1.16
  -1   6  12    7.15    0.96
   0  -6 -12   -0.40    1.06
   0   6  12    0.55    0.83
  -1  -6 -12   -0.61    1.16
   1   6  12    1.36    0.86
  -5   7  12    9.66    1.11
   4  -7 -12   11.83    1.48
  -4   7  12   10.95    1.20
   3  -7 -12    6.46    1.36
  -3   7  12    8.38    1.02
   2  -7 -12    4.75    1.25
  -2   7  12    5.52    0.96
   1  -7 -12   13.93    1.67
  -1   7  12   14.60    1.46
   1   9 -13    1.85    0.87
   0   9 -13    1.57    0.80
  -1   9 -13    1.96    0.86
  -2   9 -13    1.10    0.82
   3   8 -13    2.62    0.89
   2   8 -13   -0.08    0.86
   1   8 -13    1.83    0.78
   0   8 -13    0.72    0.80
  -1   8 -13    0.80    0.75
  -2   8 -13    1.01    0.73
  -3   8 -13    1.03    0.69
  -4   8 -13    3.04    0.70
   4   7 -13    0.03    0.82
   3   7 -13    0.27    0.84
   2   7 -13    0.31    0.80
   1   7 -13   -0.13    0.74
   0   7 -13    2.49    0.73
  -1   7 -13    5.50    0.77
  -2   7 -13    0.37    0.65
  -3   7 -13    6.39    0.72
  -4   7 -13    0.37    0.59
  -5   7 -13    7.57    0.70
   5   6 -13    0.12    0.92
   4   6 -13    2.32    0.80
   3   6 -13    1.50    0.72
   2   6 -13    0.53    0.72
   1   6 -13    2.91    0.65
   0   6 -13    0.18    0.63
  -1   6 -13    1.06    0.63
  -2   6 -13    0.72    0.58
  -3   6 -13    1.45    0.56
  -4   6 -13    2.33    0.57
  -5   6 -13   -0.24    0.51
   6   5 -13   -0.19    0.87
   5   5 -13    5.80    0.94
   4   5 -13    0.72    0.78
   3   5 -13   11.64    1.02
   2   5 -13    1.89    0.63
   1   5 -13   17.75    1.13
   0   5 -13    7.05    0.67
  -1   5 -13    5.38    0.64
  -2   5 -13    4.11    0.60
  -3   5 -13    0.23    0.50
  -4   5 -13    2.01    0.54
  -5   5 -13   -0.02    0.51
  -6   5 -13   -0.23    0.54
   7   4 -13    0.31    0.92
  -7  -4  13    1.03    0.83
   6   4 -13    0.69    0.86
  -6  -4  13    0.78    0.71
   5   4 -13    1.49    0.73
  -5  -4  13    2.54    0.68
   4   4 -13    1.97    0.68
  -4  -4  13    2.10    0.53
   3   4 -13   11.79    0.96
   2   4 -13    0.88    0.56
   1   4 -13   17.49    0.99
   0   4 -13    3.24    0.55
  -1   4 -13   19.57    1.04
   1  -4  13   18.83    0.95
  -2   4 -13    0.90    0.51
  -3   4 -13   10.67    0.81
  -4   4 -13    4.90    0.59
  -5   4 -13    9.62    0.92
  -6   4 -13    2.65    0.66
   7   3 -13    0.30    0.83
  -7  -3  13   -0.26    0.78
   6   3 -13    0.24    0.80
  -6  -3  13   -0.11    0.65
   5   3 -13    1.29    0.69
  -5  -3  13    0.52    0.55
   4   3 -13   -0.32    0.67
  -4  -3  13    0.07    0.44
   3   3 -13    1.80    0.60
  -3  -3  13    2.02    0.41
   2   3 -13    1.55    0.55
   1   3 -13    5.76    0.61
   0   3 -13    5.77    0.59
   0  -3  13    6.68    0.61
  -1   3 -13    0.88    0.51
   1  -3  13    0.96    0.45
  -2   3 -13   12.53    0.87
  -3   3 -13   16.69    1.00
  -4   3 -13    4.97    0.64
  -5   3 -13   21.95    1.24
  -6   3 -13   -0.42    0.66
   7   2 -13    4.88    0.93
  -7  -2  13    4.97    0.81
   6   2 -13    0.27    0.76
  -6  -2  13    0.87    0.62
   5   2 -13    7.71    0.81
  -5  -2  13    9.21    0.87
   4   2 -13    5.76    0.70
  -4  -2  13    4.04    0.49
   3   2 -13   32.88    1.52
  -3  -2  13   35.61    1.33
   2   2 -13    8.74    0.80
   1   2 -13    7.74    0.74
  -1  -2  13    6.12    0.62
   0   2 -13    1.90    0.50
   0  -2  13    2.60    0.52
  -1   2 -13    1.58    0.55
   1  -2  13    0.99    0.39
   1  -2  13    1.23    0.44
  -2   2 -13    0.16    0.51
   2  -2  13    0.05    0.46
   2  -2  13    0.37    0.42
  -3   2 -13   13.53    0.95
   3  -2  13   12.72    1.03
  -4   2 -13    0.16    0.58
   4  -2  13   -0.10    0.64
  -5   2 -13    1.81    0.70
   5  -2  13    2.11    0.82
  -6   2 -13    0.28    0.76
  -8  -1  13    1.08    0.86
   7   1 -13    3.83    0.84
  -7  -1  13    2.88    0.77
   6   1 -13    1.86    0.71
  -6  -1  13    2.60    0.65
   5   1 -13   23.95    1.40
  -5  -1  13   25.37    1.23
   4   1 -13    1.19    0.61
  -4  -1  13    0.42    0.42
   3   1 -13   33.78    1.51
  -3  -1  13   32.76    1.29
   2   1 -13    4.04    0.65
  -2  -1  13    3.00    0.24
  -2  -1  13    3.32    0.29
  -2  -1  13    3.13    0.59
   1   1 -13    2.76    0.56
  -1  -1  13    1.81    0.56
  -1  -1  13    1.71    0.30
   0   1 -13    5.46    0.60
   0  -1  13    5.34    0.46
   0  -1  13    6.39    0.61
  -1   1 -13   14.20    0.98
   1  -1  13   13.78    0.90
   1  -1  13   14.51    0.85
  -2   1 -13    3.59    0.65
   2  -1  13    4.13    0.51
   2  -1  13    3.58    0.59
  -3   1 -13   10.03    0.98
   3  -1  13    8.97    0.82
  -4   1 -13    6.46    0.81
   4  -1  13    5.02    0.82
  -5   1 -13    1.45    0.75
   5  -1  13    0.82    0.84
  -6   1 -13    8.02    1.06
  -8   0  13    1.00    0.89
   7   0 -13    0.69    0.73
  -7   0  13    0.83    0.74
   6   0 -13    0.97    0.76
  -6   0  13    1.14    0.62
   5   0 -13    3.85    0.77
  -5   0  13    4.20    0.58
   4   0 -13    6.26    0.73
  -4   0  13    6.31    0.67
   3   0 -13    7.49    0.77
  -3   0  13    5.56    0.41
  -3   0  13    5.48    0.70
   2   0 -13   15.80    0.98
  -2   0  13   15.00    0.72
  -2   0  13   16.45    0.96
   1   0 -13   40.74    1.64
  -1   0  13   41.00    1.57
  -1   0  13   36.74    1.48
   0   0 -13    1.03    0.55
   0   0  13    0.69    0.47
   0   0  13    0.08    0.39
  -1   0 -13   90.10    3.11
   1   0  13   92.69    2.99
   1   0  13   87.86    3.20
  -2   0 -13    1.10    0.67
   2   0  13    0.92    0.55
   2   0  13    1.78    0.49
  -3   0 -13   67.80    2.53
   3   0  13   67.94    2.66
  -4   0 -13    3.25    0.83
   4   0  13    3.56    0.82
  -5   0 -13   14.66    1.49
  -8   1  13    1.55    0.91
  -7   1  13    2.12    0.86
  -7   1  13    3.08    0.80
   6  -1 -13    1.49    0.80
  -6   1  13    1.66    0.66
  -6   1  13    0.36    0.78
   5  -1 -13   12.17    1.18
  -5   1  13   12.38    1.09
   4  -1 -13    2.14    0.67
  -4   1  13    1.80    0.75
   3  -1 -13    6.56    0.80
  -3   1  13    5.78    0.72
   2  -1 -13    6.20    0.74
  -2   1  13    6.55    0.69
   1  -1 -13    0.84    0.61
  -1   1  13    1.23    0.53
   0  -1 -13    1.45    0.61
   0   1  13    1.10    0.50
   0   1  13    0.26    0.44
  -1  -1 -13   20.61    1.26
   1   1  13   19.05    1.03
   1   1  13   17.88    1.14
  -2  -1 -13    4.54    0.82
   2   1  13    3.27    0.67
   2   1  13    4.27    0.58
  -3  -1 -13   11.30    1.07
   3   1  13   10.15    0.94
  -4  -1 -13    2.96    0.96
   4   1  13    2.42    0.83
  -5  -1 -13   13.17    1.31
  -8   2  13    1.43    0.91
  -8   2  13    2.26    1.03
  -7   2  13   16.02    1.48
   6  -2 -13    0.48    0.72
  -6   2  13    0.98    0.90
   5  -2 -13   29.11    1.51
  -5   2  13   31.38    1.51
   4  -2 -13    0.11    0.74
  -4   2  13   -0.06    0.74
   3  -2 -13   27.54    1.41
  -3   2  13   27.85    1.32
   2  -2 -13    0.27    0.66
  -2   2  13    0.03    0.58
   1  -2 -13   44.67    1.90
  -1   2  13   47.79    1.81
   0  -2 -13    2.09    0.70
   0   2  13    1.61    0.61
  -1  -2 -13   19.70    1.37
   1   2  13   17.53    1.18
   1   2  13   18.73    1.08
  -2  -2 -13    2.16    0.87
   2   2  13    2.33    0.60
   2   2  13    2.26    0.66
  -3  -2 -13    3.10    0.89
   3   2  13    1.71    0.76
  -4  -2 -13    1.81    1.04
  -7   3  13    3.95    1.00
   6  -3 -13    4.57    0.96
  -6   3  13    3.52    0.87
   5  -3 -13   18.07    1.44
  -5   3  13   19.51    1.39
   4  -3 -13    1.99    0.84
  -4   3  13    2.30    0.73
   3  -3 -13   42.09    1.89
  -3   3  13   44.85    1.77
   2  -3 -13   -0.06    0.71
  -2   3  13   -0.19    0.61
   1  -3 -13   61.80    2.53
  -1   3  13   64.46    2.29
   0  -3 -13    1.30    0.87
   0   3  13    0.16    0.58
  -1  -3 -13   54.06    2.46
   1   3  13   60.93    2.17
  -2  -3 -13    0.82    0.89
   2   3  13    1.10    0.67
   2   3  13    0.51    0.64
  -3  -3 -13   34.59    2.11
  -4  -3 -13    2.37    1.23
  -7   4  13    4.21    1.07
   6  -4 -13    0.00    0.95
  -6   4  13    1.48    0.85
   5  -4 -13    9.28    1.05
  -5   4  13   11.26    1.08
   4  -4 -13    2.69    0.96
  -4   4  13    3.07    0.79
   3  -4 -13   12.11    1.24
  -3   4  13   13.34    1.22
   2  -4 -13    8.14    1.01
  -2   4  13    7.92    0.83
   1  -4 -13   17.31    1.54
  -1   4  13   16.33    1.11
   0  -4 -13    3.87    0.97
   0   4  13    4.89    0.80
  -1  -4 -13   21.83    1.78
   1   4  13   22.16    1.32
  -2  -4 -13    0.96    1.04
  -3  -4 -13    9.89    1.38
  -6   5  13   -0.17    0.98
   5  -5 -13   11.92    1.21
  -5   5  13   12.58    1.23
   4  -5 -13   -1.13    0.98
  -4   5  13    0.22    0.79
   3  -5 -13   11.58    1.20
  -3   5  13   12.91    1.29
   2  -5 -13   -0.11    1.01
  -2   5  13    0.61    0.73
   1  -5 -13    9.87    1.20
  -1   5  13    9.07    0.91
   0  -5 -13    1.34    1.04
   0   5  13    1.46    0.75
  -1  -5 -13    4.60    1.19
   1   5  13    6.73    0.83
  -2  -5 -13    2.81    1.25
   5  -6 -13   23.33    1.93
  -5   6  13   24.37    1.55
   4  -6 -13    4.07    1.11
  -4   6  13    4.78    0.94
   3  -6 -13   16.61    1.63
  -3   6  13   21.65    1.53
   2  -6 -13    1.07    1.18
  -2   6  13   -1.33    0.79
   1  -6 -13   17.59    1.62
  -1   6  13   15.09    1.28
   0  -6 -13    2.72    1.33
   0   6  13    3.44    0.94
   2   8 -14    0.39    0.82
   1   8 -14    0.72    0.87
   0   8 -14    0.07    0.81
  -1   8 -14    0.82    0.79
  -2   8 -14    0.64    0.74
  -3   8 -14    6.56    0.85
   4   7 -14    0.51    0.86
   3   7 -14   -0.37    0.89
   2   7 -14   -0.32    0.81
   1   7 -14    0.15    0.70
   0   7 -14    0.85    0.68
  -1   7 -14    2.01    0.74
  -2   7 -14    1.01    0.70
  -3   7 -14    0.15    0.63
  -4   7 -14    6.10    0.74
   5   6 -14    0.45    0.86
   4   6 -14    0.50    0.88
   3   6 -14    1.39    0.76
   2   6 -14    1.23    0.71
   1   6 -14    1.92    0.74
   0   6 -14    2.26    0.70
  -1   6 -14    0.61    0.65
  -2   6 -14   -0.28    0.61
  -3   6 -14   -0.05    0.60
  -4   6 -14    3.14    0.63
  -5   6 -14    0.44    0.58
   5   5 -14    1.21    0.81
   4   5 -14    0.92    0.74
   3   5 -14    2.36    0.72
   2   5 -14    0.80    0.64
   1   5 -14    6.09    0.71
   0   5 -14    0.42    0.63
  -1   5 -14    4.05    0.67
  -2   5 -14    2.90    0.63
  -3   5 -14    2.36    0.59
  -4   5 -14    3.63    0.63
  -5   5 -14    0.54    0.58
   6   4 -14    0.15    0.90
   5   4 -14    0.52    0.75
   4   4 -14    0.75    0.70
   3   4 -14    3.22    0.70
   2   4 -14    1.33    0.62
   1   4 -14    3.88    0.63
   0   4 -14    3.19    0.59
  -1   4 -14   15.23    0.93
   1  -4  14   16.46    0.91
  -2   4 -14    1.81    0.58
  -3   4 -14   33.96    1.43
  -4   4 -14    5.52    0.67
  -5   4 -14    9.53    0.96
   7   3 -14   -0.80    0.80
   6   3 -14    0.90    0.78
   5   3 -14    1.25    0.73
   4   3 -14   10.21    0.93
   3   3 -14    0.48    0.68
   2   3 -14    1.79    0.66
   1   3 -14    0.67    0.55
   0   3 -14    0.02    0.51
   0  -3  14   -0.24    0.50
  -1   3 -14    4.57    0.65
   1  -3  14    4.34    0.54
  -2   3 -14    2.84    0.61
  -3   3 -14    4.25    0.64
  -4   3 -14    1.70    0.61
  -5   3 -14   -0.09    0.66
   7   2 -14    0.66    0.89
  -7  -2  14    0.68    0.72
   6   2 -14   -0.32    0.81
  -6  -2  14   -0.36    0.59
   5   2 -14    8.53    0.88
  -5  -2  14    9.68    0.85
   4   2 -14    1.02    0.66
   3   2 -14   23.00    1.31
   2   2 -14    4.02    0.65
   1   2 -14   42.38    1.64
  -1  -2  14   40.22    1.66
   0   2 -14   15.26    1.03
   0  -2  14   14.50    0.95
  -1   2 -14   18.88    1.11
   1  -2  14   18.66    1.00
   1  -2  14   20.19    1.00
  -2   2 -14   11.46    0.86
   2  -2  14   11.32    0.96
  -3   2 -14    1.50    0.63
   3  -2  14    0.93    0.60
  -4   2 -14    3.63    0.74
   4  -2  14    2.57    0.74
  -5   2 -14    0.96    0.75
   7   1 -14    0.28    0.86
  -7  -1  14    0.72    0.74
   6   1 -14    0.12    0.72
  -6  -1  14    0.48    0.62
   5   1 -14    6.12    0.88
  -5  -1  14    6.52    0.64
   4   1 -14    1.72    0.67
  -4  -1  14    1.01    0.43
   3   1 -14   12.36    1.00
   2   1 -14    3.33    0.65
  -2  -1  14    2.06    0.61
   1   1 -14   13.53    1.04
  -1  -1  14   12.49    0.88
  -1  -1  14   12.38    0.68
   0   1 -14    5.06    0.65
   0  -1  14    5.47    0.58
   0  -1  14    5.15    0.49
  -1   1 -14   62.84    2.31
   1  -1  14   60.25    2.32
   1  -1  14   65.77    2.20
  -2   1 -14    8.64    0.83
   2  -1  14    9.41    0.96
  -3   1 -14   26.24    1.38
   3  -1  14   23.84    1.45
  -4   1 -14    6.92    0.87
   4  -1  14    5.79    0.84
  -5   1 -14    6.71    1.00
  -7   0  14    0.04    0.73
   6   0 -14    1.02    0.74
  -6   0  14    1.54    0.64
   5   0 -14    1.46    0.71
  -5   0  14    1.13    0.52
   4   0 -14    0.08    0.64
  -4   0  14   -0.34    0.76
  -4   0  14    0.42    0.41
   3   0 -14    1.19    0.65
  -3   0  14    1.43    0.37
  -3   0  14    1.01    0.64
   2   0 -14    3.94    0.74
  -2   0  14    3.48    0.71
   1   0 -14   44.00    1.73
  -1   0  14   43.40    1.65
  -1   0  14   41.61    1.62
   0   0 -14    0.50    0.59
   0   0  14    0.19    0.42
   0   0  14    0.63    0.56
  -1   0 -14   35.35    1.61
   1   0  14   35.74    1.42
   1   0  14   32.49    1.51
  -2   0 -14    2.63    0.74
   2   0  14    2.40    0.63
  -3   0 -14   14.61    1.23
   3   0  14   12.85    1.26
  -4   0 -14    1.13    0.86
   4   0  14    0.35    0.78
  -5   0 -14   15.59    1.34
  -7   1  14    9.72    0.94
  -7   1  14    8.31    1.15
   6  -1 -14    1.28    0.86
  -6   1  14    1.32    0.92
  -6   1  14    1.64    0.67
   5  -1 -14   16.26    1.35
  -5   1  14   16.71    1.38
   4  -1 -14    2.78    0.75
  -4   1  14    2.11    0.83
   3  -1 -14   24.43    1.43
  -3   1  14   22.35    1.24
   2  -1 -14    8.39    0.86
  -2   1  14    9.32    0.89
   1  -1 -14   12.18    1.05
  -1   1  14   11.74    0.81
  -1   1  14   12.58    0.91
   0  -1 -14    0.51    0.66
   0   1  14    0.14    0.45
   0   1  14    0.39    0.53
  -1  -1 -14    2.92    0.72
   1   1  14    2.27    0.58
   1   1  14    2.56    0.55
  -2  -1 -14    2.33    0.83
   2   1  14    0.61    0.65
  -3  -1 -14    2.62    0.82
   3   1  14    2.08    0.73
  -4  -1 -14   -0.30    0.94
  -7   2  14    7.77    1.07
  -7   2  14    8.58    0.96
   6  -2 -14    0.47    0.86
  -6   2  14   -0.40    0.92
   5  -2 -14   19.34    1.48
  -5   2  14   20.20    1.45
   4  -2 -14    0.78    0.74
  -4   2  14   -0.16    0.72
   3  -2 -14   33.61    1.66
  -3   2  14   36.60    1.66
   2  -2 -14    1.27    0.82
  -2   2  14    1.16    0.71
   1  -2 -14   53.14    2.24
  -1   2  14   54.56    2.07
   0  -2 -14    8.03    0.91
   0   2  14    8.81    0.80
  -1  -2 -14   37.92    1.83
   1   2  14   41.63    1.65
   1   2  14   38.97    1.74
  -2  -2 -14   16.05    1.48
   2   2  14   16.44    1.31
  -3  -2 -14    7.89    1.15
   3   2  14    6.63    0.99
  -4  -2 -14    1.34    1.09
  -7   3  14    3.25    0.98
   6  -3 -14   -0.52    0.81
  -6   3  14   -0.04    0.96
   5  -3 -14    6.81    1.05
  -5   3  14    7.23    0.94
   4  -3 -14    1.10    0.80
  -4   3  14    1.51    0.84
   3  -3 -14   16.71    1.31
  -3   3  14   18.10    1.18
   2  -3 -14    3.09    0.92
  -2   3  14    2.78    0.78
   1  -3 -14   25.71    1.67
  -1   3  14   27.94    1.43
   0  -3 -14    0.10    0.83
   0   3  14    0.08    0.63
  -1  -3 -14   15.89    1.36
   1   3  14   16.66    1.07
  -2  -3 -14    1.57    1.06
   2   3  14    1.94    0.73
  -3  -3 -14   13.71    1.49
  -6   4  14   -0.30    0.98
   5  -4 -14    7.87    1.16
  -5   4  14    8.20    0.99
   4  -4 -14   -0.68    0.85
  -4   4  14    1.29    0.88
   3  -4 -14    8.36    1.14
  -3   4  14    9.53    0.94
   2  -4 -14   -0.32    0.84
  -2   4  14   -0.38    0.77
   1  -4 -14   10.20    1.16
  -1   4  14   12.34    1.19
   0  -4 -14    4.09    1.11
   0   4  14    3.17    0.75
  -1  -4 -14   15.61    1.51
   1   4  14   15.97    1.25
  -2  -4 -14    3.76    1.26
   5  -5 -14   19.07    1.63
  -5   5  14   22.44    1.49
   4  -5 -14   -0.41    1.06
  -4   5  14    0.60    0.95
   3  -5 -14   14.46    1.35
  -3   5  14   16.22    1.41
   2  -5 -14    2.70    1.15
  -2   5  14    3.00    0.82
   1  -5 -14    7.41    1.21
  -1   5  14    8.95    0.93
   0  -5 -14    0.24    1.07
   0   5  14   -0.27    0.84
  -1  -5 -14    2.87    1.20
   1   5  14    0.67    0.82
   3  -6 -14    5.52    1.21
  -3   6  14    6.58    0.99
   2  -6 -14    1.96    1.25
  -2   6  14    1.84    0.89
   1   8 -15    0.14    0.81
   0   8 -15    0.14    0.78
  -1   8 -15    3.01    0.89
   3   7 -15    2.76    0.97
   2   7 -15    1.87    0.81
   1   7 -15    0.50    0.82
   0   7 -15    0.55    0.70
  -1   7 -15    0.68    0.75
  -2   7 -15   -0.66    0.70
  -3   7 -15    0.36    0.69
   4   6 -15    0.09    0.83
   3   6 -15    1.36    0.80
   2   6 -15    0.90    0.74
   1   6 -15    2.97    0.79
   0   6 -15    0.59    0.65
  -1   6 -15    4.65    0.79
  -2   6 -15    5.40    0.77
  -3   6 -15    0.11    0.65
  -4   6 -15    2.80    0.65
   5   5 -15    0.10    0.84
   4   5 -15    1.21    0.87
   3   5 -15    4.52    0.88
   2   5 -15    3.11    0.74
   1   5 -15   12.73    1.16
   0   5 -15    2.20    0.64
  -1   5 -15    4.08    0.71
  -2   5 -15    3.79    0.69
  -3   5 -15    3.34    0.67
  -4   5 -15    0.95    0.60
   6   4 -15   -0.16    0.84
   5   4 -15    0.72    0.80
   4   4 -15   -0.03    0.80
   3   4 -15    0.55    0.69
   2   4 -15    0.08    0.64
   1   4 -15    0.87    0.62
   0   4 -15   -0.43    0.63
   0  -4  15   -0.12    0.60
  -1   4 -15    1.02    0.62
  -2   4 -15   -0.39    0.60
  -3   4 -15    0.83    0.60
  -4   4 -15    4.21    0.71
   6   3 -15    0.92    0.92
   5   3 -15    7.80    1.00
   4   3 -15    0.62    0.71
   3   3 -15    8.33    0.84
   2   3 -15    1.20    0.64
   1   3 -15    2.72    0.70
  -1  -3  15    2.72    0.69
   0   3 -15    6.11    0.76
   0  -3  15    6.33    0.69
  -1   3 -15    0.67    0.62
  -2   3 -15    0.11    0.60
  -3   3 -15    0.36    0.61
  -4   3 -15    0.29    0.68
   6   2 -15   -0.42    0.85
   5   2 -15    5.20    0.84
   4   2 -15    0.51    0.69
   3   2 -15    4.20    0.74
   2   2 -15    1.99    0.66
  -2  -2  15    1.89    0.73
   1   2 -15   11.68    0.97
  -1  -2  15   11.29    0.91
   0   2 -15   25.33    1.27
   0  -2  15   27.85    1.27
  -1   2 -15    9.01    0.88
   1  -2  15    9.35    0.82
  -2   2 -15   15.84    1.11
   2  -2  15   14.99    1.06
  -3   2 -15    4.83    0.77
   3  -2  15    3.42    0.69
  -4   2 -15   14.46    1.27
   7   1 -15    0.92    0.92
   6   1 -15   -0.33    0.83
   5   1 -15   -0.03    0.81
   4   1 -15    1.74    0.80
   3   1 -15    5.69    0.84
  -3  -1  15    3.88    0.83
   2   1 -15   -0.43    0.69
  -2  -1  15   -0.26    0.62
   1   1 -15   19.20    1.14
  -1  -1  15   19.63    1.07
   0   1 -15    1.28    0.68
   0  -1  15    1.27    0.60
  -1   1 -15   29.56    1.47
   1  -1  15   26.69    1.34
   1  -1  15   29.83    1.27
  -2   1 -15    2.10    0.72
   2  -1  15    0.73    0.57
  -3   1 -15   25.98    1.45
   3  -1  15   23.42    1.48
  -4   1 -15    1.14    0.84
   4  -1  15    0.26    0.76
   6   0 -15   -0.05    0.86
  -6   0  15    0.18    0.95
   5   0 -15    7.31    0.98
  -5   0  15    7.41    0.96
   4   0 -15    3.05    0.84
  -4   0  15    2.04    0.79
   3   0 -15    8.50    0.88
  -3   0  15    8.80    0.92
   2   0 -15    5.30    0.78
  -2   0  15    4.86    0.72
   1   0 -15   10.12    1.02
  -1   0  15   10.16    0.89
   0   0 -15    0.31    0.72
   0   0  15   -0.17    0.58
   0   0  15   -0.17    0.43
  -1   0 -15    7.63    0.88
   1   0  15    5.49    0.65
   1   0  15    8.38    0.72
  -2   0 -15   -0.63    0.67
   2   0  15   -0.60    0.59
  -3   0 -15    4.58    0.91
   3   0  15    3.80    0.78
  -4   0 -15   -0.45    0.88
  -7   1  15    5.64    1.15
   6  -1 -15   -0.24    0.90
  -6   1  15   -0.49    0.97
   5  -1 -15    8.13    1.03
  -5   1  15    8.01    1.07
   4  -1 -15    1.22    0.77
  -4   1  15    1.31    0.77
   3  -1 -15   16.44    1.37
  -3   1  15   17.13    1.16
   2  -1 -15    3.14    0.79
  -2   1  15    2.48    0.69
   1  -1 -15   25.56    1.39
  -1   1  15   26.13    1.33
  -1   1  15   22.28    1.15
   0  -1 -15   12.65    1.27
   0   1  15   13.13    0.94
   0   1  15   12.01    0.95
  -1  -1 -15    7.77    0.97
   1   1  15    6.68    0.73
   1   1  15    7.97    0.76
  -2  -1 -15    5.21    0.95
   2   1  15    3.82    0.72
  -3  -1 -15    6.97    1.03
   3   1  15    4.13    0.83
   6  -2 -15    0.81    0.96
  -6   2  15    0.35    0.90
   5  -2 -15   10.93    1.09
  -5   2  15   12.79    1.17
   4  -2 -15    3.51    0.93
  -4   2  15    3.40    0.81
   3  -2 -15   43.56    2.05
  -3   2  15   43.20    1.82
   2  -2 -15    0.14    0.77
  -2   2  15    0.59    0.66
   1  -2 -15   27.27    1.56
  -1   2  15   30.62    1.48
   0  -2 -15    0.62    0.87
   0   2  15    0.57    0.53
   0   2  15    0.92    0.69
  -1  -2 -15   27.66    1.75
   1   2  15   31.38    1.44
   1   2  15   27.70    1.48
  -2  -2 -15    1.20    0.90
   2   2  15    0.78    0.72
  -3  -2 -15   11.42    1.34
   6  -3 -15   -1.23    0.86
  -6   3  15    0.06    0.92
   5  -3 -15    1.19    0.98
  -5   3  15    2.76    0.90
   4  -3 -15   -0.38    0.90
  -4   3  15   -0.36    0.87
   3  -3 -15    2.72    0.89
  -3   3  15    2.47    0.77
   2  -3 -15    3.31    0.98
  -2   3  15    4.50    0.84
   1  -3 -15   21.79    1.50
  -1   3  15   21.47    1.24
   0  -3 -15    1.86    0.92
   0   3  15    3.16    0.79
  -1  -3 -15   26.57    1.86
   1   3  15   25.09    1.50
   1   3  15   26.84    1.32
  -2  -3 -15   -0.30    1.10
   5  -4 -15    7.75    1.15
  -5   4  15    9.35    1.07
   4  -4 -15   -0.92    1.02
  -4   4  15    0.21    0.92
   3  -4 -15   10.56    1.28
  -3   4  15   13.13    1.13
   2  -4 -15    1.33    0.95
  -2   4  15    0.64    0.75
   1  -4 -15    5.09    1.17
  -1   4  15    5.15    0.83
   0  -4 -15    0.47    0.99
   0   4  15    0.85    0.74
  -1  -4 -15   -0.18    1.06
   4  -5 -15    0.68    1.14
  -4   5  15    0.92    0.90
   3  -5 -15   13.45    1.47
  -3   5  15   13.18    1.27
   2  -5 -15    0.39    1.06
  -2   5  15    0.38    0.83
   1  -5 -15   15.65    1.50
  -1   5  15   18.23    1.47
   2   7 -16    1.14    0.92
   1   7 -16    0.49    0.88
   0   7 -16    2.76    0.87
  -1   7 -16    2.00    0.84
  -2   7 -16    0.80    0.76
   3   6 -16    1.74    0.93
   2   6 -16    0.19    0.83
   1   6 -16   -0.12    0.73
   0   6 -16    0.01    0.77
  -1   6 -16    1.12    0.68
  -2   6 -16    4.14    0.80
  -3   6 -16    0.29    0.69
   4   5 -16   -0.38    0.90
   3   5 -16   -0.02    0.76
   2   5 -16    1.20    0.81
   1   5 -16    0.65    0.77
   0   5 -16   -0.29    0.71
  -1   5 -16    2.48    0.75
  -2   5 -16    5.03    0.79
  -3   5 -16   16.28    1.15
   5   4 -16    0.13    0.92
   4   4 -16   -0.24    0.85
   3   4 -16    1.88    0.85
   2   4 -16    2.04    0.81
   1   4 -16   -0.45    0.71
   0   4 -16    0.70    0.64
  -1   4 -16    1.66    0.64
  -2   4 -16    0.42    0.68
  -3   4 -16   -0.21    0.64
  -4   4 -16   -0.30    0.70
   5   3 -16    1.16    0.90
   4   3 -16    1.59    0.86
   3   3 -16    2.29    0.76
   2   3 -16    5.94    0.88
   1   3 -16    2.12    0.69
  -1  -3  16    2.11    0.70
   0   3 -16    6.46    0.81
   0  -3  16    7.34    0.74
  -1   3 -16    1.77    0.64
  -2   3 -16    2.81    0.70
  -3   3 -16    1.10    0.71
  -4   3 -16    5.41    0.85
   6   2 -16    0.52    0.84
   5   2 -16    1.09    0.90
   4   2 -16    0.61    0.75
   3   2 -16    5.28    0.82
  -3  -2  16    4.42    0.81
   2   2 -16    2.55    0.73
  -2  -2  16    2.79    0.78
   1   2 -16   21.25    1.25
  -1  -2  16   22.94    1.28
   0   2 -16    1.30    0.65
   0  -2  16    1.21    0.64
  -1   2 -16   24.35    1.38
  -2   2 -16    4.72    0.81
  -3   2 -16   10.05    0.96
  -4   2 -16   10.45    1.02
   6   1 -16   -0.01    0.92
   5   1 -16    0.71    0.88
   4   1 -16    1.07    0.85
  -4  -1  16    0.44    0.79
   3   1 -16    2.82    0.85
  -3  -1  16    3.18    0.86
   2   1 -16    0.09    0.68
  -2  -1  16    0.11    0.66
   1   1 -16    7.60    0.85
  -1  -1  16    9.40    0.86
   0   1 -16    0.66    0.74
   0  -1  16    1.08    0.64
  -1   1 -16    4.70    0.84
  -2   1 -16    1.04    0.78
  -3   1 -16    8.12    0.94
   3  -1  16    6.88    0.84
   6   0 -16   -0.51    0.91
  -6   0  16   -1.33    0.90
   5   0 -16    9.11    1.01
  -5   0  16    9.11    1.04
   4   0 -16    6.54    0.90
  -4   0  16    5.79    0.91
   3   0 -16   17.14    1.37
  -3   0  16   12.48    1.13
   2   0 -16   18.65    1.27
  -2   0  16   17.60    1.16
   1   0 -16    0.72    0.81
  -1   0  16    0.47    0.63
   0   0 -16    6.26    0.85
   0   0  16    7.19    0.71
  -1   0 -16    1.06    0.74
  -2   0 -16    4.79    0.84
   2   0  16    4.78    0.74
  -3   0 -16    1.54    0.91
   3   0  16    1.53    0.76
   6  -1 -16   -0.60    0.96
  -6   1  16    0.33    0.95
   5  -1 -16   15.47    1.35
  -5   1  16   14.68    1.34
   4  -1 -16    0.99    0.90
  -4   1  16    0.57    0.80
   3  -1 -16   16.80    1.32
  -3   1  16   17.36    1.22
   2  -1 -16    1.17    0.88
  -2   1  16    0.31    0.76
   1  -1 -16   40.95    1.91
  -1   1  16   44.28    1.82
   0  -1 -16    3.65    0.91
   0   1  16    3.17    0.71
  -1  -1 -16   27.01    1.66
   1   1  16   25.04    1.42
  -2  -1 -16    3.73    1.01
   2   1  16    3.17    0.73
  -6   2  16   -0.18    0.98
   5  -2 -16    4.88    0.99
  -5   2  16    5.51    0.99
   4  -2 -16   -0.74    0.93
  -4   2  16   -0.51    0.89
   3  -2 -16   21.28    1.50
  -3   2  16   24.33    1.49
   2  -2 -16    2.43    0.95
  -2   2  16    3.01    0.75
   1  -2 -16   24.63    1.66
  -1   2  16   23.38    1.41
   0  -2 -16    2.47    0.89
   0   2  16    2.13    0.68
  -1  -2 -16   14.92    1.32
   1   2  16   12.00    1.18
  -2  -2 -16   -0.04    0.94
   5  -3 -16    6.03    1.07
  -5   3  16    7.15    1.14
   4  -3 -16    2.80    1.05
  -4   3  16    1.93    0.87
   3  -3 -16    5.39    1.00
  -3   3  16    5.04    0.88
   2  -3 -16    0.99    0.90
  -2   3  16    0.28    0.74
   1  -3 -16    4.51    1.10
  -1   3  16    4.59    0.87
   0  -3 -16    2.75    1.01
   0   3  16    3.25    0.81
  -1  -3 -16    0.81    1.00
  -4   4  16    0.75    0.90
   3  -4 -16   21.25    1.66
  -3   4  16   22.97    1.45
   2  -4 -16    3.27    1.07
  -2   4  16    3.38    0.92
   1  -4 -16    7.14    1.20
  -1   4  16    8.88    1.02
   2   6 -17    1.33    0.94
   1   6 -17    1.21    0.80
   0   6 -17    0.84    0.84
  -1   6 -17    6.57    0.93
   3   5 -17   -0.04    0.90
   2   5 -17    0.80    0.87
   1   5 -17    0.98    0.75
   0   5 -17    0.42    0.71
  -1   5 -17    0.15    0.78
  -2   5 -17    1.19    0.77
   4   4 -17    0.10    0.83
   3   4 -17   -0.05    0.79
   2   4 -17    0.70    0.76
   1   4 -17    1.41    0.80
  -1  -4  17    1.92    0.78
   0   4 -17    4.16    0.84
  -1   4 -17    0.53    0.76
  -2   4 -17    4.95    0.80
   4   3 -17    1.82    0.93
   3   3 -17    3.67    0.85
   2   3 -17    6.99    0.95
  -2  -3  17    7.21    0.93
   1   3 -17    6.72    0.85
  -1  -3  17    6.37    0.85
   0   3 -17    2.62    0.73
  -1   3 -17   11.13    1.03
  -2   3 -17   10.45    0.95
  -3   3 -17    4.91    0.87
   5   2 -17    0.08    0.84
   4   2 -17    0.58    0.81
   3   2 -17    1.79    0.88
  -3  -2  17    0.36    0.78
   2   2 -17    0.72    0.84
  -2  -2  17    0.96    0.73
   1   2 -17    5.88    0.90
  -1  -2  17    6.07    0.81
   0   2 -17    2.11    0.79
  -1   2 -17    5.91    0.80
  -2   2 -17    1.45    0.77
  -3   2 -17    9.12    0.99
   5   1 -17    1.86    0.97
  -5  -1  17    1.41    0.93
   4   1 -17    2.89    0.95
  -4  -1  17    3.74    0.89
   3   1 -17    0.39    0.78
  -3  -1  17    0.79    0.88
   2   1 -17    0.93    0.77
  -2  -1  17    0.39    0.79
   1   1 -17    0.97    0.74
  -1  -1  17   -0.25    0.64
   0   1 -17    0.73    0.81
   0  -1  17    0.20    0.61
  -1   1 -17    0.94    0.82
  -2   1 -17    1.03    0.76
   5   0 -17    3.82    1.03
  -5   0  17    6.04    1.12
   4   0 -17    1.20    0.85
  -4   0  17    3.18    0.97
   3   0 -17   12.76    1.16
  -3   0  17   10.99    1.07
   2   0 -17    7.42    1.02
  -2   0  17    7.56    0.93
   1   0 -17   12.66    1.21
  -1   0  17   11.48    1.03
   0   0 -17    8.43    1.03
   0   0  17    8.94    0.83
  -1   0 -17    5.40    0.97
  -2   0 -17    1.67    0.83
   5  -1 -17    4.00    0.98
  -5   1  17    4.32    0.99
   4  -1 -17    0.17    0.97
  -4   1  17    0.36    0.85
   3  -1 -17    8.69    1.05
  -3   1  17    9.28    0.97
   2  -1 -17    0.73    0.94
  -2   1  17    1.24    0.83
   1  -1 -17   13.58    1.29
  -1   1  17   11.99    1.06
   0  -1 -17    0.55    0.93
   0   1  17    0.60    0.74
  -1  -1 -17   10.22    1.15
   4  -2 -17   -0.18    0.89
  -4   2  17    0.81    0.88
   3  -2 -17    1.21    0.93
  -3   2  17    1.80    0.90
   2  -2 -17    1.37    1.00
  -2   2  17    0.81    0.83
   1  -2 -17    3.29    0.95
  -1   2  17    5.86    0.89
   0  -2 -17    2.82    1.06
   0   2  17    3.56    0.74
   3  -3 -17    9.14    1.27
  -3   3  17    8.43    1.00
   2  -3 -17    4.46    1.05
  -2   3  17    3.70    0.95
   1   5 -18    0.38    0.86
   2   4 -18    3.04    0.94
  -2  -4  18    2.15    0.89
   1   4 -18    5.81    0.97
   0   4 -18    8.08    0.92
  -1   4 -18    1.02    0.75
   3   3 -18    3.54    0.90
  -3  -3  18    4.69    1.00
   2   3 -18    0.03    0.90
  -2  -3  18    0.63    0.76
   1   3 -18    5.76    0.89
   0   3 -18    1.00    0.75
  -1   3 -18   10.85    1.11
   4   2 -18   -0.03    0.85
  -4  -2  18   -0.08    0.87
   3   2 -18    0.59    0.83
  -3  -2  18    1.34    0.92
   2   2 -18    0.84    0.81
  -2  -2  18   -0.50    0.74
   1   2 -18    0.44    0.78
  -1  -2  18    0.74    0.75
   0   2 -18    1.33    0.77
  -1   2 -18    0.54    0.85
   4   1 -18    2.58    0.90
  -4  -1  18    3.80    1.06
   3   1 -18    4.65    0.94
  -3  -1  18    4.22    0.97
   2   1 -18    5.58    0.93
  -2  -1  18    6.67    0.94
   1   1 -18    5.11    0.99
  -1  -1  18    5.58    0.88
   0   1 -18    5.50    0.99
  -1   1 -18    4.14    0.88
   4   0 -18    0.29    0.99
  -4   0  18   -0.38    0.87
   3   0 -18    7.25    1.05
  -3   0  18    9.92    1.08
   2   0 -18    0.62    0.96
  -2   0  18    1.24    0.85
   1   0 -18   10.98    1.11
  -1   0  18   11.58    1.07
   0   0 -18    2.85    0.88
   3  -1 -18   11.13    1.25
  -3   1  18   10.00    1.10
   2  -1 -18    0.43    0.90
  -2   1  18    1.57    0.86
   1  -1 -18   13.84    1.31
  -1   1  18   15.45    1.29
   0   0   0    0.00    0.00
;
_shelx_hkl_checksum              68351
_shelx_res_file
;
    shelxl.res created by SHELXL-2014/7
TITL NC1 in P-1
CELL  0.71073   7.5879   8.5361  14.0970   99.510   97.673  101.956
ZERR     2.00   0.0004   0.0006   0.0008    0.003    0.003    0.003
LATT   1
SFAC  C    H    O    S    BR
UNIT  40   30   2    2    2
MERG   2
FMAP   2
PLAN   20
SIZE     0.35   0.50   0.60
ACTA
BOND   $H
HTAB
EQIV $1 -x+1, -y+1, -z+2
HTAB C3 O1_$1
CONF
L.S.  30
TEMP    23.00
WGHT    0.057100    0.340400
FVAR       0.28179
C1    1    0.298248    0.113231    0.610510    11.00000    0.03171    0.03866 =
         0.03403   -0.00362    0.00320    0.00781
C2    1    0.411409    0.081177    0.684128    11.00000    0.04208    0.04374 =
         0.04011    0.00224    0.00546    0.01920
AFIX  43
H2    2    0.473739   -0.001925    0.677169    11.00000   -1.20000
AFIX   0
C3    1    0.421943    0.189736    0.771951    11.00000    0.03864    0.04440 =
         0.03169    0.00595   -0.00061    0.01584
AFIX  43
H3    2    0.494337    0.186316    0.829913    11.00000   -1.20000
AFIX   0
C4    1    0.317004    0.301199    0.765463    11.00000    0.02973    0.03392 =
         0.02842    0.00433   -0.00076    0.00667
C5    1    0.302867    0.423873    0.845530    11.00000    0.03231    0.03561 =
         0.02826    0.00197   -0.00328    0.00587
AFIX  43
H5    2    0.378706    0.428843    0.904042    11.00000   -1.20000
AFIX   0
C6    1    0.197279    0.532347    0.849000    11.00000    0.03344    0.03050 =
         0.03056    0.00057   -0.00274    0.00511
C7    1    0.217557    0.646280    0.944081    11.00000    0.05138    0.04392 =
         0.03328   -0.00289   -0.00886    0.02330
C8    1    0.129425    0.788531    0.944210    11.00000    0.09010    0.06277 =
         0.04471   -0.01088   -0.01853    0.04987
AFIX  23
H8A   2    0.166005    0.843822    0.892656    11.00000   -1.20000
H8B   2   -0.002222    0.746868    0.928742    11.00000   -1.20000
AFIX   0
C9    1    0.174671    0.910862    1.037984    11.00000    0.04518    0.03611 =
         0.03617    0.00133   -0.00280    0.02268
C10   1    0.091006    0.883377    1.116122    11.00000    0.05319    0.04276 =
         0.05861    0.02027    0.00562    0.01404
AFIX  43
H10   2    0.004556    0.786079    1.110469    11.00000   -1.20000
AFIX   0
C11   1    0.130834    0.994081    1.201331    11.00000    0.08474    0.07713 =
         0.04392    0.01624    0.01423    0.04456
AFIX  43
H11   2    0.070386    0.972429    1.252620    11.00000   -1.20000
AFIX   0
C12   1    0.255008    1.132734    1.212182    11.00000    0.07258    0.06481 =
         0.05568   -0.01219   -0.00717    0.03759
AFIX  43
H12   2    0.283119    1.206171    1.271674    11.00000   -1.20000
AFIX   0
C13   1    0.341260    1.168977    1.138246    11.00000    0.03980    0.03906 =
         0.11345   -0.00170   -0.00887    0.00047
AFIX  43
H13   2    0.425979    1.268003    1.146115    11.00000   -1.20000
AFIX   0
C14   1    0.302328    1.056002    1.049005    11.00000    0.04593    0.07014 =
         0.07141    0.02232    0.02585    0.02375
AFIX  43
H14   2    0.362409    1.079226    0.997844    11.00000   -1.20000
AFIX   0
C15   1    0.066598    0.544151    0.762777    11.00000    0.03852    0.02784 =
         0.02770    0.00341   -0.00121    0.01024
C16   1    0.123636    0.639416    0.697014    11.00000    0.04536    0.04415 =
         0.04482    0.01540    0.00594    0.00568
AFIX  43
H16   2    0.243285    0.701582    0.708434    11.00000   -1.20000
AFIX   0
C17   1    0.005137    0.643025    0.614989    11.00000    0.07419    0.06147 =
         0.03996    0.02291    0.00947    0.02187
AFIX  43
H17   2    0.044559    0.708536    0.571790    11.00000   -1.20000
AFIX   0
C18   1   -0.170610    0.550496    0.596755    11.00000    0.06788    0.06171 =
         0.03155    0.00689   -0.00812    0.02548
AFIX  43
H18   2   -0.249315    0.550605    0.540235    11.00000   -1.20000
AFIX   0
C19   1   -0.230246    0.458162    0.661489    11.00000    0.04014    0.05012 =
         0.04699    0.00251   -0.00934    0.00745
AFIX  43
H19   2   -0.350423    0.397095    0.649739    11.00000   -1.20000
AFIX   0
C20   1   -0.111886    0.455118    0.744945    11.00000    0.04130    0.03782 =
         0.03776    0.01241   -0.00009    0.00819
AFIX  43
H20   2   -0.153510    0.392501    0.789076    11.00000   -1.20000
AFIX   0
O1    3    0.303702    0.626400    1.018103    11.00000    0.11597    0.08174 =
         0.03939   -0.01528   -0.02688    0.06949
S1    4    0.201650    0.271827    0.646543    11.00000    0.03827    0.04381 =
         0.02848    0.00015   -0.00403    0.01545
BR1   5    0.244966    0.003690    0.480590    11.00000    0.04926    0.07802 =
         0.03575   -0.01404    0.00201    0.01993
HKLF 4  1.0  1.00  0.00  0.00  0.00  1.00  0.00  0.00  0.00  1.00
REM  NC1 in P-1
REM R1 =  0.0428 for    3040 Fo > 4sig(Fo)  and  0.0676 for all    4165 data
REM    208 parameters refined using      0 restraints
END
WGHT      0.0571      0.3404
REM Instructions for potential hydrogen bonds
HTAB C3 O1_$1
REM Highest difference peak  0.556,  deepest hole -0.856,  1-sigma level  0.092
Q1    1   0.3107  0.1004  0.4802  11.00000  0.05    0.56
Q2    1  -0.4337  0.5089  0.4606  11.00000  0.05    0.27
Q3    1   0.4769  0.7440  0.7248  11.00000  0.05    0.27
Q4    1  -0.4781  0.4014  0.5727  11.00000  0.05    0.27
Q5    1   0.3626  0.6761  0.7663  11.00000  0.05    0.27
Q6    1   0.4208  1.2502  1.3989  11.00000  0.05    0.26
Q7    1  -0.4185  0.5032  0.5443  11.00000  0.05    0.26
Q8    1   0.4008  0.6444  0.6847  11.00000  0.05    0.25
Q9    1  -0.4440  0.6595  0.4785  11.00000  0.05    0.25
Q10   1  -0.3376  0.6020  0.5217  11.00000  0.05    0.25
Q11   1  -0.4724  0.4363  0.5060  11.00000  0.05    0.25
Q12   1  -0.4055  0.5911  0.5229  11.00000  0.05    0.25
Q13   1  -0.4262  0.6366  0.5502  11.00000  0.05    0.24
Q14   1  -0.5819  0.4169  0.5740  11.00000  0.05    0.24
Q15   1  -0.4423  0.5348  0.5883  11.00000  0.05    0.23
Q16   1   0.3765  1.1905  1.0767  11.00000  0.05    0.23
Q17   1   0.4920  1.3961  1.2203  11.00000  0.05    0.23
Q18   1  -0.3374  0.4801  0.5089  11.00000  0.05    0.23
Q19   1  -0.4750  0.3839  0.4563  11.00000  0.05    0.22
Q20   1   0.4245  1.2614  1.2240  11.00000  0.05    0.22
;
_shelx_res_checksum              42464
loop_
_space_group_symop_operation_xyz
'x, y, z'
'-x, -y, -z'
loop_
_atom_site_type_symbol
_atom_site_label
_atom_site_fract_x
_atom_site_fract_y
_atom_site_fract_z
_atom_site_U_iso_or_equiv
_atom_site_adp_type
_atom_site_calc_flag
_atom_site_occupancy
C C1 0.2982(4) 0.1132(4) 0.6105(2) 0.0364(6) Uani d 1
C C2 0.4114(4) 0.0812(4) 0.6841(2) 0.0415(7) Uani d 1
H H2 0.4737 -0.0019 0.6772 0.050 Uiso calc 1
C C3 0.4219(4) 0.1897(4) 0.7720(2) 0.0382(7) Uani d 1
H H3 0.4943 0.1863 0.8299 0.046 Uiso calc 1
C C4 0.3170(4) 0.3012(3) 0.76546(19) 0.0316(6) Uani d 1
C C5 0.3029(4) 0.4239(4) 0.84553(19) 0.0337(6) Uani d 1
H H5 0.3787 0.4288 0.9040 0.040 Uiso calc 1
C C6 0.1973(4) 0.5323(3) 0.84900(19) 0.0333(6) Uani d 1
C C7 0.2176(4) 0.6463(4) 0.9441(2) 0.0438(7) Uani d 1
C C8 0.1294(6) 0.7885(5) 0.9442(3) 0.0665(12) Uani d 1
H H8A 0.1660 0.8438 0.8927 0.080 Uiso calc 1
H H8B -0.0022 0.7469 0.9287 0.080 Uiso calc 1
C C9 0.1747(4) 0.9109(4) 1.0380(2) 0.0388(7) Uani d 1
C C10 0.0910(5) 0.8834(4) 1.1161(3) 0.0503(8) Uani d 1
H H10 0.0046 0.7861 1.1105 0.060 Uiso calc 1
C C11 0.1308(6) 0.9941(6) 1.2013(3) 0.0640(11) Uani d 1
H H11 0.0704 0.9724 1.2526 0.077 Uiso calc 1
C C12 0.2550(6) 1.1327(6) 1.2122(3) 0.0657(11) Uani d 1
H H12 0.2831 1.2062 1.2717 0.079 Uiso calc 1
C C13 0.3413(5) 1.1690(5) 1.1382(4) 0.0695(12) Uani d 1
H H13 0.4260 1.2680 1.1461 0.083 Uiso calc 1
C C14 0.3023(5) 1.0560(5) 1.0490(3) 0.0585(10) Uani d 1
H H14 0.3624 1.0792 0.9978 0.070 Uiso calc 1
C C15 0.0666(4) 0.5442(3) 0.76278(18) 0.0319(6) Uani d 1
C C16 0.1236(4) 0.6394(4) 0.6970(2) 0.0449(7) Uani d 1
H H16 0.2433 0.7016 0.7084 0.054 Uiso calc 1
C C17 0.0051(5) 0.6430(5) 0.6150(2) 0.0562(9) Uani d 1
H H17 0.0446 0.7085 0.5718 0.067 Uiso calc 1
C C18 -0.1706(5) 0.5505(5) 0.5968(2) 0.0541(9) Uani d 1
H H18 -0.2493 0.5506 0.5402 0.065 Uiso calc 1
C C19 -0.2302(4) 0.4582(4) 0.6615(2) 0.0487(8) Uani d 1
H H19 -0.3504 0.3971 0.6497 0.058 Uiso calc 1
C C20 -0.1119(4) 0.4551(4) 0.7449(2) 0.0392(7) Uani d 1
H H20 -0.1535 0.3925 0.7891 0.047 Uiso calc 1
O O1 0.3037(4) 0.6264(4) 1.01810(17) 0.0792(10) Uani d 1
S S1 0.20165(10) 0.27183(10) 0.64654(5) 0.03775(18) Uani d 1
Br Br1 0.24497(5) 0.00369(5) 0.48059(2) 0.05710(15) Uani d 1
loop_
_atom_site_aniso_label
_atom_site_aniso_U_11
_atom_site_aniso_U_22
_atom_site_aniso_U_33
_atom_site_aniso_U_12
_atom_site_aniso_U_13
_atom_site_aniso_U_23
C1 0.0317(14) 0.0387(17) 0.0340(14) 0.0078(12) 0.0032(11) -0.0036(12)
C2 0.0421(17) 0.0437(18) 0.0401(15) 0.0192(14) 0.0055(13) 0.0022(13)
C3 0.0386(15) 0.0444(18) 0.0317(13) 0.0158(13) -0.0006(11) 0.0060(12)
C4 0.0297(13) 0.0339(15) 0.0284(12) 0.0067(11) -0.0008(10) 0.0043(11)
C5 0.0323(14) 0.0356(16) 0.0283(12) 0.0059(12) -0.0033(10) 0.0020(11)
C6 0.0334(14) 0.0305(15) 0.0306(13) 0.0051(12) -0.0027(11) 0.0006(11)
C7 0.0514(18) 0.0439(18) 0.0333(14) 0.0233(15) -0.0089(13) -0.0029(13)
C8 0.090(3) 0.063(2) 0.0447(18) 0.050(2) -0.0185(18) -0.0109(17)
C9 0.0452(17) 0.0361(17) 0.0362(14) 0.0227(14) -0.0028(12) 0.0013(12)
C10 0.053(2) 0.0428(19) 0.059(2) 0.0140(16) 0.0056(16) 0.0203(16)
C11 0.085(3) 0.077(3) 0.0439(19) 0.045(3) 0.0142(19) 0.0162(19)
C12 0.073(3) 0.065(3) 0.056(2) 0.038(2) -0.007(2) -0.0122(19)
C13 0.0398(19) 0.039(2) 0.113(4) 0.0005(16) -0.009(2) -0.002(2)
C14 0.046(2) 0.070(3) 0.071(2) 0.0238(19) 0.0259(17) 0.022(2)
C15 0.0385(15) 0.0278(14) 0.0277(12) 0.0102(12) -0.0012(11) 0.0034(11)
C16 0.0454(18) 0.0441(19) 0.0448(17) 0.0057(15) 0.0059(13) 0.0154(14)
C17 0.074(3) 0.061(2) 0.0400(17) 0.022(2) 0.0095(16) 0.0229(16)
C18 0.068(2) 0.062(2) 0.0315(15) 0.0255(19) -0.0081(15) 0.0069(15)
C19 0.0401(17) 0.050(2) 0.0470(18) 0.0074(15) -0.0093(14) 0.0025(15)
C20 0.0413(16) 0.0378(17) 0.0378(15) 0.0082(13) -0.0001(12) 0.0124(13)
O1 0.116(2) 0.082(2) 0.0394(13) 0.0695(18) -0.0269(14) -0.0153(12)
S1 0.0383(4) 0.0438(4) 0.0285(3) 0.0154(3) -0.0040(3) 0.0001(3)
Br1 0.0493(2) 0.0780(3) 0.03575(18) 0.01993(18) 0.00201(13) -0.01404(15)
loop_
_atom_type_symbol
_atom_type_description
_atom_type_scat_dispersion_real
_atom_type_scat_dispersion_imag
_atom_type_scat_source
C C 0.0033 0.0016 'International Tables Vol C Tables 4.2.6.8 and 6.1.1.4'
H H 0.0000 0.0000 'International Tables Vol C Tables 4.2.6.8 and 6.1.1.4'
O O 0.0106 0.0060 'International Tables Vol C Tables 4.2.6.8 and 6.1.1.4'
S S 0.1246 0.1234 'International Tables Vol C Tables 4.2.6.8 and 6.1.1.4'
Br Br -0.2901 2.4595 'International Tables Vol C Tables 4.2.6.8 and 6.1.1.4'
loop_
_geom_angle_atom_site_label_1
_geom_angle_atom_site_label_2
_geom_angle_atom_site_label_3
_geom_angle
C2 C1 S1 113.4(2)
C2 C1 Br1 126.5(2)
S1 C1 Br1 120.05(16)
C1 C2 C3 111.1(3)
C1 C2 H2 124.5
C3 C2 H2 124.5
C4 C3 C2 114.5(2)
C4 C3 H3 122.8
C2 C3 H3 122.8
C3 C4 C5 125.0(2)
C3 C4 S1 110.0(2)
C5 C4 S1 124.9(2)
C6 C5 C4 130.1(2)
C6 C5 H5 114.9
C4 C5 H5 114.9
C5 C6 C7 116.9(2)
C5 C6 C15 123.1(2)
C7 C6 C15 120.0(2)
O1 C7 C6 121.4(3)
O1 C7 C8 121.3(3)
C6 C7 C8 117.3(2)
C9 C8 C7 115.1(3)
C9 C8 H8A 108.5
C7 C8 H8A 108.5
C9 C8 H8B 108.5
C7 C8 H8B 108.5
H8A C8 H8B 107.5
C10 C9 C14 117.5(3)
C10 C9 C8 121.5(3)
C14 C9 C8 121.0(3)
C11 C10 C9 121.8(4)
C11 C10 H10 119.1
C9 C10 H10 119.1
C12 C11 C10 120.6(4)
C12 C11 H11 119.7
C10 C11 H11 119.7
C11 C12 C13 120.9(4)
C11 C12 H12 119.5
C13 C12 H12 119.5
C12 C13 C14 119.6(4)
C12 C13 H13 120.2
C14 C13 H13 120.2
C9 C14 C13 119.5(3)
C9 C14 H14 120.2
C13 C14 H14 120.2
C20 C15 C16 118.5(3)
C20 C15 C6 120.5(2)
C16 C15 C6 120.9(3)
C17 C16 C15 120.7(3)
C17 C16 H16 119.7
C15 C16 H16 119.7
C18 C17 C16 120.2(3)
C18 C17 H17 119.9
C16 C17 H17 119.9
C19 C18 C17 120.0(3)
C19 C18 H18 120.0
C17 C18 H18 120.0
C18 C19 C20 120.1(3)
C18 C19 H19 119.9
C20 C19 H19 119.9
C15 C20 C19 120.4(3)
C15 C20 H20 119.8
C19 C20 H20 119.8
C1 S1 C4 90.98(13)
loop_
_geom_bond_atom_site_label_1
_geom_bond_atom_site_label_2
_geom_bond_distance
C1 C2 1.357(4)
C1 S1 1.706(3)
C1 Br1 1.863(3)
C2 C3 1.401(4)
C2 H2 0.9300
C3 C4 1.368(4)
C3 H3 0.9300
C4 C5 1.439(4)
C4 S1 1.737(3)
C5 C6 1.343(4)
C5 H5 0.9300
C6 C7 1.489(4)
C6 C15 1.494(4)
C7 O1 1.211(4)
C7 C8 1.503(4)
C8 C9 1.493(4)
C8 H8A 0.9700
C8 H8B 0.9700
C9 C10 1.372(5)
C9 C14 1.377(5)
C10 C11 1.355(5)
C10 H10 0.9300
C11 C12 1.323(6)
C11 H11 0.9300
C12 C13 1.347(6)
C12 H12 0.9300
C13 C14 1.408(6)
C13 H13 0.9300
C14 H14 0.9300
C15 C20 1.376(4)
C15 C16 1.385(4)
C16 C17 1.376(5)
C16 H16 0.9300
C17 C18 1.369(5)
C17 H17 0.9300
C18 C19 1.363(5)
C18 H18 0.9300
C19 C20 1.389(4)
C19 H19 0.9300
C20 H20 0.9300
loop_
_geom_hbond_atom_site_label_D
_geom_hbond_atom_site_label_H
_geom_hbond_atom_site_label_A
_geom_hbond_site_symmetry_A
_geom_hbond_distance_DH
_geom_hbond_distance_HA
_geom_hbond_distance_DA
_geom_hbond_angle_DHA
C3 H3 O1 2_667 0.93 2.54 3.320(4) 141.2
C19 H19 Cg 1_455 0.93 2.90 3.768(3) 156
loop_
_geom_torsion_atom_site_label_1
_geom_torsion_atom_site_label_2
_geom_torsion_atom_site_label_3
_geom_torsion_atom_site_label_4
_geom_torsion
S1 C1 C2 C3 -0.8(4)
Br1 C1 C2 C3 178.9(2)
C1 C2 C3 C4 0.7(4)
C2 C3 C4 C5 179.2(3)
C2 C3 C4 S1 -0.3(3)
C3 C4 C5 C6 -175.7(3)
S1 C4 C5 C6 3.7(5)
C4 C5 C6 C7 -179.0(3)
C4 C5 C6 C15 -0.1(5)
C5 C6 C7 O1 -10.8(5)
C15 C6 C7 O1 170.2(3)
C5 C6 C7 C8 168.2(3)
C15 C6 C7 C8 -10.7(5)
O1 C7 C8 C9 6.9(6)
C6 C7 C8 C9 -172.1(3)
C7 C8 C9 C10 -78.8(5)
C7 C8 C9 C14 101.3(4)
C14 C9 C10 C11 0.2(5)
C8 C9 C10 C11 -179.7(3)
C9 C10 C11 C12 -0.9(5)
C10 C11 C12 C13 1.7(6)
C11 C12 C13 C14 -1.7(6)
C10 C9 C14 C13 -0.2(5)
C8 C9 C14 C13 179.7(3)
C12 C13 C14 C9 0.9(5)
C5 C6 C15 C20 90.7(4)
C7 C6 C15 C20 -90.4(4)
C5 C6 C15 C16 -86.7(4)
C7 C6 C15 C16 92.2(4)
C20 C15 C16 C17 -0.9(5)
C6 C15 C16 C17 176.5(3)
C15 C16 C17 C18 -0.8(5)
C16 C17 C18 C19 2.0(6)
C17 C18 C19 C20 -1.3(5)
C16 C15 C20 C19 1.5(5)
C6 C15 C20 C19 -175.9(3)
C18 C19 C20 C15 -0.4(5)
C2 C1 S1 C4 0.6(3)
Br1 C1 S1 C4 -179.13(18)
C3 C4 S1 C1 -0.2(2)
C5 C4 S1 C1 -179.7(3)

_cod_database_fobs_code 2241478
