#------------------------------------------------------------------------------
#$Date: 2016-01-22 06:00:03 +0200 (Fri, 22 Jan 2016) $
#$Revision: 174744 $
#$URL: svn://www.crystallography.net/cod/cif/2/24/14/2241493.cif $
#------------------------------------------------------------------------------
#
# This file is available in the Crystallography Open Database (COD),
# http://www.crystallography.net/. The original data for this entry
# were provided by IUCr Journals, http://journals.iucr.org/.
#
# The file may be used within the scientific community so long as
# proper attribution is given to the journal article from which the
# data were obtained.
#
data_2241493
loop_
_publ_author_name
'Reuter, Hans'
'R\"owekamp-Krugley, Natalia'
'Imwalle, Marius'
'Keil, Simona'
'Reichelt, Martin'
_publ_section_title
;
 Crystal structure of a one-dimensional coordination polymer of tin(IV)
 bromide with 1,4-dithiane
;
_journal_issue                   12
_journal_name_full               'Acta Crystallographica Section E'
_journal_page_first              m267
_journal_page_last               m268
_journal_paper_doi               10.1107/S2056989015023932
_journal_volume                  71
_journal_year                    2015
_chemical_formula_iupac          '[Sn Br4 (C4 H8 S2)]'
_chemical_formula_moiety         'C4 H8 Br4 S2 Sn'
_chemical_formula_sum            'C4 H8 Br4 S2 Sn'
_chemical_formula_weight         558.55
_chemical_name_systematic
<i>catena</i>-Poly[[tetrabromidotin(IV)]-\m-1,4-dithiane-\k^2^<i>S</i>:<i>S</i>']
_space_group_crystal_system      monoclinic
_space_group_IT_number           14
_space_group_name_Hall           '-P 2yn'
_space_group_name_H-M_alt        'P 1 21/n 1'
_symmetry_space_group_name_Hall  '-P 2yn'
_symmetry_space_group_name_H-M   'P 1 21/n 1'
_atom_sites_solution_hydrogens   geom
_atom_sites_solution_primary     direct
_atom_sites_solution_secondary   difmap
_audit_creation_method           SHELXL-2014/7
_cell_angle_alpha                90
_cell_angle_beta                 112.144(2)
_cell_angle_gamma                90
_cell_formula_units_Z            2
_cell_length_a                   7.1033(4)
_cell_length_b                   12.0526(8)
_cell_length_c                   7.4032(5)
_cell_measurement_reflns_used    9935
_cell_measurement_temperature    100(2)
_cell_measurement_theta_max      28.69
_cell_measurement_theta_min      3.38
_cell_volume                     587.06(7)
_computing_cell_refinement
;
SAINT (Bruker, 2009)
;
_computing_data_collection
;
APEX2 (Bruker, 2009)
;
_computing_data_reduction
;
SAINT (Bruker, 2009)
;
_computing_molecular_graphics
;
DIAMOND (Brandenburg, 2006) and Mercury (Macrae <i>et al.</i>,
2008)
;
_computing_publication_material
;
SHELXTL (Sheldrick, 2008)
;
_computing_structure_refinement
;
SHELXL2014/7 (Sheldrick, 2015)
;
_computing_structure_solution
;
SHELXS97 (Sheldrick, 2008)
;
_diffrn_ambient_temperature      100(2)
_diffrn_measured_fraction_theta_full 1.000
_diffrn_measured_fraction_theta_max 1.000
_diffrn_measurement_device_type  'Bruker APEXII CCD'
_diffrn_measurement_method       '\f and \w scans'
_diffrn_radiation_type           MoK\a
_diffrn_radiation_wavelength     0.71073
_diffrn_reflns_av_R_equivalents  0.0664
_diffrn_reflns_limit_h_max       9
_diffrn_reflns_limit_h_min       -9
_diffrn_reflns_limit_k_max       15
_diffrn_reflns_limit_k_min       -15
_diffrn_reflns_limit_l_max       9
_diffrn_reflns_limit_l_min       -9
_diffrn_reflns_number            22217
_diffrn_reflns_theta_full        25.242
_diffrn_reflns_theta_max         27.998
_diffrn_reflns_theta_min         3.381
_exptl_absorpt_coefficient_mu    16.089
_exptl_absorpt_correction_T_max  0.450
_exptl_absorpt_correction_T_min  0.182
_exptl_absorpt_correction_type   multi-scan
_exptl_absorpt_process_details
;
(SADABS; Bruker, 2009)
;
_exptl_crystal_colour            yellow
_exptl_crystal_density_diffrn    3.160
_exptl_crystal_description       needle
_exptl_crystal_F_000             508
_exptl_crystal_size_max          0.161
_exptl_crystal_size_mid          0.061
_exptl_crystal_size_min          0.059
_refine_diff_density_max         0.718
_refine_diff_density_min         -0.456
_refine_ls_extinction_coef       0.0042(3)
_refine_ls_extinction_expression Fc^*^=kFc[1+0.001xFc^2^\l^3^/sin(2\q)]^-1/4^
_refine_ls_extinction_method
;
SHELXL2014/7 (Sheldrick 2015)
;
_refine_ls_goodness_of_fit_ref   1.140
_refine_ls_hydrogen_treatment    constr
_refine_ls_matrix_type           full
_refine_ls_number_parameters     54
_refine_ls_number_reflns         1426
_refine_ls_number_restraints     0
_refine_ls_restrained_S_all      1.140
_refine_ls_R_factor_all          0.0187
_refine_ls_R_factor_gt           0.0166
_refine_ls_shift/su_max          0.000
_refine_ls_shift/su_mean         0.000
_refine_ls_structure_factor_coef Fsqd
_refine_ls_weighting_details
'w=1/[\s^2^(Fo^2^)+(0.0043P)^2^+0.5753P] where P=(Fo^2^+2Fc^2^)/3'
_refine_ls_weighting_scheme      calc
_refine_ls_wR_factor_gt          0.0351
_refine_ls_wR_factor_ref         0.0356
_reflns_number_gt                1339
_reflns_number_total             1426
_reflns_threshold_expression     'I > 2\s(I)'
_cod_data_source_file            nr2064sup1.cif
_cod_data_source_block           I
_cod_database_code               2241493
_shelx_space_group_comment
;
The symmetry employed for this shelxl refinement is uniquely defined
by the following loop, which should always be used as a source of
symmetry information in preference to the above space-group names.
They are only intended as comments.
;
_shelx_estimated_absorpt_t_min   0.182
_shelx_estimated_absorpt_t_max   0.450
_shelx_hkl_file
;
   1   0   0 0.57706 1.14336   9
   1   0   0 1.41066 1.00468   9
   1   0   0 1.49241 0.93261   1
   1   0   0 -0.6278  0.4685   2
   1   0   0 2.07198 1.18158   4
   1   0   0 3.23453 0.90230   5
   1   0   0 -0.6644  0.4328   7
   1   0   0 0.04118 0.93731   1
  -1   0   0 2.91697 1.14419   2
  -1   0   0 -0.2170  0.6781   6
  -1   0   0 0.89013 0.74408   7
  -2   0   0 1321.19  109.80   5
  -2   0   0 1244.99  102.30   6
  -2   0   0 1425.75  103.11   7
  -2   0   0 1398.36  113.31   9
  -2   0   0 1267.07  103.15   1
   2   0   0 1490.32  103.11   7
   2   0   0 1551.13  103.29   1
   2   0   0 1328.90  105.67   2
  -2   0   0 1402.35  103.32   1
   2   0   0 1395.21  113.11   9
   2   0   0 1224.07  103.14   1
  -2   0   0 1334.11  105.62   2
   2   0   0 1383.17  113.23   9
   2   0   0 1359.53  113.08   4
   2   0   0 1201.18  109.57   5
   2   0   0 1509.98  109.66   5
  -2   0   0 1481.47  113.35   9
  -3   0   0 4.92682 3.14652   2
  -3   0   0 1.22551 3.22537   9
  -3   0   0 3.31663 1.68770   6
  -3   0   0 1.06887 2.01511   7
   3   0   0 4.94404 3.33882   9
   3   0   0 2.32962 1.88815   6
  -3   0   0 1.13003 2.41510   1
  -3   0   0 1.85451 3.36683   9
  -3   0   0 -0.5596  2.4459   1
  -3   0   0 -2.2075  2.0729   5
   3   0   0 2.74599 3.19366   4
   3   0   0 -1.7419  1.8173   7
   3   0   0 2.32882 2.84688   9
   3   0   0 -0.7439  1.7335   5
   3   0   0 -0.1818  2.2713   1
   4   0   0 455.990  43.034   4
  -4   0   0 550.151  39.055   7
   4   0   0 516.324  39.564   1
  -4   0   0 461.381  43.283   9
  -4   0   0 483.011  41.851   5
   4   0   0 492.348  40.847   5
  -4   0   0 441.023  43.323   9
   4   0   0 557.248  39.232   7
  -4   0   0 477.591  39.388   1
  -4   0   0 506.649  39.302   1
  -4   0   0 516.093  40.811   2
   4   0   0 527.364  43.498   9
  -5   0   0 1.42885 4.06343   2
   5   0   0 -6.5358  3.5319   8
  -5   0   0 -2.6181  3.0859   1
  -5   0   0 3.36175 2.89167  10
   5   0   0 3.79810 4.61429   4
  -5   0   0 -1.4371  3.3538   1
  -5   0   0 1.34740 4.18814   9
  -5   0   0 7.57846 4.67984   9
  -5   0   0 7.61479 4.13971   5
  -5   0   0 5.05346 3.18668   7
  -6   0   0 1596.83  149.96   9
  -6   0   0 1838.12  136.05   1
  -6   0   0 1776.86  125.37  10
  -6   0   0 1880.59  135.53   7
  -6   0   0 1718.21  140.17   2
  -6   0   0 1762.65  150.13   9
   6   0   0 1757.74  149.75   4
  -6   0   0 1932.89  136.52   1
  -7   0   0 11.8741  7.0675   2
  -7   0   0 -6.0972  5.7795   9
  -7   0   0 -4.1679  5.9056   9
  -7   0   0 1.35230 3.39549   7
  -7   0   0 2.93340 4.07594  10
  -7   0   0 7.34434 4.22669   1
  -7   0   0 5.61705 4.97462   1
  -8   0   0 50.6939  6.4648   1
  -8   0   0 44.2494 11.1932   9
  -8   0   0 21.4962  9.3687   2
  -8   0   0 36.5855  6.8508  10
  -8   0   0 46.8628 11.3999   9
   0  -1   0 -0.0822  0.4880   7
   0  -1   0 0.29217 0.53664   3
   0  -1   0 0.68315 0.75417   6
   0   1   0 -0.4710  0.3415   8
   0   1   0 -0.0067  0.4389   9
   0   1   0 0.02757 0.46570   7
   1  -1   0 2170.42  152.90   1
   1  -1   0 1830.61  152.95   1
   1  -1   0 2275.44  152.17   6
   1  -1   0 2134.18  153.56   8
  -1  -1   0 1984.63  155.91   2
   1  -1   0 2214.26  167.84   9
  -1  -1   0 1934.52  152.86   6
  -1  -1   0 1987.97  152.97   7
   1  -1   0 2179.63  162.67   5
   1  -1   0 2053.41  162.86   5
   1  -1   0 1862.07  167.58   4
  -1  -1   0 2072.35  141.34  10
   1  -1   0 2071.74  153.54   8
   1  -1   0 2088.44  159.38   3
   1   1   0 1997.99  153.01   7
  -1   1   0 2342.21  156.25   2
  -1   1   0 2029.36  152.94   7
  -1   1   0 1817.94  151.87   6
  -1   1   0 1893.79  167.73   9
   1   1   0 2022.02  155.89   2
   1   1   0 2303.53  163.14   5
   1   1   0 1913.17  152.73   1
   1   1   0 2021.55  152.89   1
   1   1   0 1737.40  167.45   9
   2  -1   0 116.792   9.897   2
   2  -1   0 89.7951 10.1740   9
   2  -1   0 87.2364  9.1556   1
   2  -1   0 114.627   8.806   8
  -2  -1   0 101.438   8.003   6
  -2  -1   0 115.167   9.714   9
  -2  -1   0 96.6327  7.8429  10
   2  -1   0 102.870   9.566   5
   2  -1   0 90.0991  8.6793   6
   2  -1   0 97.0402  8.9195   7
   2  -1   0 125.988  10.549   9
  -2  -1   0 126.959   8.899   1
   2  -1   0 90.2008  9.1230   3
   2  -1   0 125.090  10.606   4
   2  -1   0 111.713   9.207   1
  -2  -1   0 103.903   8.404   7
  -2  -1   0 101.084   9.739   9
  -2  -1   0 87.6306  8.4904   1
  -2  -1   0 103.136   9.257   2
  -2   1   0 88.2854  8.9977   1
  -2   1   0 113.402   9.182   7
   2   1   0 96.9663  8.3775   7
  -2   1   0 98.5666  9.7720   5
  -2   1   0 115.689   9.672   2
   2   1   0 104.192   8.800   1
   2   1   0 92.0380  9.5958   9
   2   1   0 113.284   8.745   1
   2   1   0 97.2328  8.2539   6
  -2   1   0 110.811   9.640   4
   2   1   0 102.081   8.748   5
   2   1   0 88.4116  9.4884   9
   2   1   0 116.254   9.289   4
  -2   1   0 99.8958 10.3506   9
  -2   1   0 109.075  10.481   9
   2   1   0 93.6596  9.1277   2
  -2   1   0 105.641   8.689   6
  -3  -1   0 606.795  49.966   5
  -3  -1   0 586.975  51.558   9
   3  -1   0 616.060  50.059   5
   3  -1   0 648.100  52.135   9
   3  -1   0 561.496  47.175   7
   3  -1   0 654.738  46.820   6
  -3  -1   0 686.740  47.237   1
  -3  -1   0 663.968  48.683   2
   3  -1   0 599.791  49.159   3
  -3  -1   0 606.191  46.935   1
  -3  -1   0 619.312  43.218  10
   3  -1   0 564.348  46.826   8
  -3  -1   0 530.908  51.691   9
   3  -1   0 597.722  52.254   4
  -3  -1   0 590.938  46.556   7
   3  -1   0 663.508  52.605   9
   3   1   0 642.720  49.338   5
  -3   1   0 705.799  49.122   2
  -3   1   0 586.565  50.813   4
  -3   1   0 608.302  46.581   6
   3   1   0 526.640  51.370   9
   3   1   0 656.547  46.789   7
  -3   1   0 642.504  50.731   5
  -3   1   0 706.938  48.163   1
  -3   1   0 636.351  47.529   1
   3   1   0 509.198  51.148   4
   3   1   0 625.293  47.039   1
   3   1   0 668.877  48.809   2
  -3   1   0 601.367  52.391   9
  -3   1   0 495.255  52.041   9
  -3   1   0 591.141  47.253   7
   3   1   0 670.460  51.646   9
  -4  -1   0 2228.59  173.14   1
   4  -1   0 2182.39  173.65   8
  -4  -1   0 2288.77  172.73   7
  -4  -1   0 2108.77  189.91   9
  -4  -1   0 2412.74  190.40   9
   4  -1   0 2192.01  173.25   7
   4  -1   0 2412.80  190.83   4
  -4  -1   0 2076.95  177.30   2
   4  -1   0 2416.91  174.01   1
   4  -1   0 2227.99  190.17   9
   4  -1   0 2399.24  190.83   9
  -4  -1   0 2560.42  173.35   1
   4  -1   0 2216.19  184.15   5
  -4  -1   0 2335.72  159.83  10
   4  -1   0 2653.79  181.23   3
  -4   1   0 2243.79  174.03   1
   4   1   0 2312.52  173.23   1
   4   1   0 2318.99  183.35   5
   4   1   0 2542.26  189.90   4
  -4   1   0 2303.90  190.85   9
  -4   1   0 2170.16  173.53   1
  -4   1   0 2314.35  177.91   2
  -4   1   0 2166.00  185.02   5
  -4   1   0 2284.56  173.43   7
  -4   1   0 1985.98  190.45   9
   4   1   0 2512.82  173.03   7
   4   1   0 2228.54  189.83   9
  -5  -1   0 1348.50   99.56  10
  -5  -1   0 1354.35  118.99   9
  -5  -1   0 1672.01  115.95   5
  -5  -1   0 1357.99  107.41   7
  -5  -1   0 1256.72  119.00   9
   5  -1   0 1633.20  109.34   1
   5  -1   0 1425.80  119.63   4
  -5  -1   0 1411.18  111.45   2
   5  -1   0 1480.20  108.58   8
   5  -1   0 1476.93  113.34   3
  -5  -1   0 1373.93  107.91   1
   5  -1   0 1594.09  114.73   5
  -5  -1   0 1363.03  108.08   1
  -5   1   0 1167.00  111.22   2
  -5   1   0 1340.21  108.28   7
  -5   1   0 1520.15  120.28   9
  -5   1   0 1318.92  119.68   9
  -5   1   0 1305.20  108.49   1
  -5   1   0 1583.53  109.46   1
   5   1   0 1468.26  118.78   4
  -6  -1   0 178.505  18.416   2
  -6  -1   0 186.257  19.188   9
   6  -1   0 199.143  20.399   4
  -6  -1   0 197.050  19.924   9
  -6  -1   0 184.800  15.321   7
  -6  -1   0 204.544  15.176  10
  -6  -1   0 163.131  16.136   1
  -6  -1   0 173.011  15.860   1
   6  -1   0 162.973  17.796   8
  -6   1   0 171.403  18.534   2
  -6   1   0 191.130  16.829   7
  -6   1   0 165.373  20.154   9
  -6   1   0 174.640  17.900   1
  -6   1   0 152.736  19.612   9
   6   1   0 163.570  18.681   4
  -6   1   0 187.963  17.148   1
  -7  -1   0 -2.6274  5.7510   2
  -7  -1   0 2.79351 3.87753   1
  -7  -1   0 4.24179 6.60384   9
  -7  -1   0 5.55264 6.45606   9
  -7  -1   0 7.24790 4.10139  10
  -7  -1   0 6.32815 4.11242   1
  -7   1   0 3.12772 4.54174   7
  -7   1   0 8.51635 4.62129  10
  -7   1   0 -3.3858  4.4892   1
  -7   1   0 6.50091 7.28409   9
  -7   1   0 13.6880  7.4511   2
  -7   1   0 5.19152 7.08373   9
  -8  -1   0 26.1178  5.6853  10
  -8  -1   0 8.39774 8.67473   9
  -8  -1   0 18.3952  8.2955   9
  -8  -1   0 28.9790  9.1607   2
  -8   1   0 12.7786  9.6528   9
  -8   1   0 23.8518  9.9041   9
  -8   1   0 16.7122  5.6270   1
  -8   1   0 27.6445 10.4760   2
  -8   1   0 21.3250  6.2049  10
   0  -2   0 1137.73  100.13   3
   0  -2   0 1264.46   95.99   8
   0  -2   0 1324.07  105.87   9
   0  -2   0 1439.29   96.39   7
   0  -2   0 1361.85   95.12   6
   0  -2   0 1173.54   96.04   6
   0  -2   0 1209.50  101.72   5
   0   2   0 1459.04   96.09   8
   0   2   0 1175.16   96.04   1
   0   2   0 1080.06  103.01   5
   0   2   0 1331.41   95.14   6
   1  -2   0 273.808  21.347   3
   1  -2   0 268.882  20.504   7
  -1  -2   0 303.976  22.835   9
  -1  -2   0 216.573  19.466   6
  -1  -2   0 253.969  18.442  10
   1  -2   0 245.664  22.136   5
   1  -2   0 258.207  20.762   2
   1  -2   0 222.195  20.300   1
  -1  -2   0 254.292  19.569   6
   1  -2   0 252.976  20.250   8
   1  -2   0 269.942  20.277   8
   1  -2   0 265.014  23.060   9
   1  -2   0 255.415  21.477   5
   1  -2   0 213.422  20.634   1
  -1  -2   0 281.483  19.815   7
   1  -2   0 251.638  20.410   6
  -1  -2   0 276.307  20.164   2
  -1  -2   0 229.678  20.134   1
   1  -2   0 263.975  22.625   4
  -1   2   0 254.549  22.272   5
   1   2   0 279.615  20.447   1
  -1   2   0 225.598  20.369   7
  -1   2   0 263.816  23.036   9
  -1   2   0 273.094  20.818   2
   1   2   0 292.988  18.510  10
   1   2   0 245.241  20.982   5
  -1   2   0 223.553  20.022   8
  -1   2   0 300.104  21.155   1
   1   2   0 281.509  21.612   4
   1   2   0 232.133  21.719   4
   1   2   0 246.184  20.095   1
   1   2   0 258.465  20.220   2
   1   2   0 242.243  20.418   3
   1   2   0 275.773  22.406   9
  -1   2   0 248.654  20.320   6
   1   2   0 274.656  20.186   7
   1   2   0 249.878  19.933   7
  -1   2   0 265.189  20.260   8
  -1   2   0 257.807  20.080   6
  -1   2   0 255.237  20.550   1
  -1   2   0 253.066  21.540   5
   2  -2   0 105.690  11.061   9
   2  -2   0 106.266   9.534   1
   2  -2   0 93.1146  9.5803   3
  -2  -2   0 100.532   9.110   2
   2  -2   0 101.299  10.096   1
  -2  -2   0 112.027  10.249   9
   2  -2   0 103.190   9.426   7
   2  -2   0 84.3109  9.2236   8
   2  -2   0 123.076  10.523   5
  -2  -2   0 101.112   7.985   6
  -2  -2   0 97.8061 10.0765   9
  -2  -2   0 112.378   8.686   1
   2  -2   0 102.189   9.954   2
   2  -2   0 104.445   9.140   8
   2  -2   0 132.349  11.371   4
   2  -2   0 106.090   9.287   6
  -2  -2   0 91.7487  7.9346  10
   2  -2   0 96.3756 10.9639   9
  -2  -2   0 85.5623  8.8881   1
   2  -2   0 111.129   9.487   6
  -2  -2   0 113.750   8.440   7
  -2   2   0 110.233  10.380   4
  -2   2   0 104.680   9.156   6
   2   2   0 111.337   9.810   9
   2   2   0 95.7757  9.1298   4
  -2   2   0 123.308   9.887   7
   2   2   0 94.9603  8.8110   5
   2   2   0 91.0425  8.7498   1
   2   2   0 103.928   8.937   7
   2   2   0 111.061   9.351   2
   2   2   0 112.640   7.926  10
  -2   2   0 106.811  11.317   9
  -2   2   0 119.836  11.308   9
   2   2   0 104.951   8.548   7
   2   2   0 105.090   8.448   6
  -2   2   0 84.1234  9.3628   3
   2   2   0 96.8715  9.2411   4
  -2   2   0 113.864   9.766   1
  -2   2   0 106.060  10.717   5
   2   2   0 111.885   9.180   1
  -2   2   0 112.356  10.007   2
  -3  -2   0 1048.71   78.19   1
   3  -2   0 1113.42   82.34   3
   3  -2   0 1093.64   87.27   9
   3  -2   0 1026.56   78.58   6
   3  -2   0 1025.13   87.24   9
   3  -2   0 1025.29   87.18   4
  -3  -2   0 1033.31   77.92   7
   3  -2   0 1035.08   79.07   7
   3  -2   0 981.796  79.400   1
  -3  -2   0 1100.21   72.31  10
  -3  -2   0 1000.30   80.33   2
  -3  -2   0 1083.41   86.44   9
  -3  -2   0 966.841  85.957   9
   3  -2   0 963.419  78.953   8
  -3  -2   0 1017.50   78.42   1
   3  -2   0 1018.86   84.08   5
   3   2   0 1116.80   82.75   5
  -3   2   0 978.178  87.295   9
  -3   2   0 1133.86   86.22   4
  -3   2   0 1000.65   79.69   1
   3   2   0 1074.91   78.17   7
  -3   2   0 966.379  79.093   1
   3   2   0 954.791  85.472   4
  -3   2   0 994.579  79.075   7
  -3   2   0 1056.28   87.56   9
   3   2   0 998.411  85.864   9
  -3   2   0 1036.57   78.19   6
   3   2   0 1129.18   80.65   2
  -3   2   0 932.523  80.852   2
   3   2   0 1088.58   78.41   1
   4  -2   0 91.0763  9.6058   5
  -4  -2   0 75.5566  9.9483   9
   4  -2   0 107.603  11.841   9
   4  -2   0 69.1049  9.3435   1
   4  -2   0 99.2150  9.5929   3
  -4  -2   0 80.2876  8.2722   1
  -4  -2   0 94.5760  8.0419   7
  -4  -2   0 99.8512  9.7999   2
  -4  -2   0 89.4946  9.7236   9
  -4  -2   0 84.3527  8.5613   1
  -4  -2   0 97.1489  7.8829  10
   4  -2   0 80.8904 10.8502   4
   4  -2   0 96.4720  9.4960   8
  -4  -2   0 89.9096  9.4128   5
   4  -2   0 72.9691 10.2785   9
  -4  -2   0 91.0041  7.8208   7
   4   2   0 90.7302  8.9207   1
   4   2   0 79.9834  9.4272   4
  -4   2   0 76.3921  9.8375   1
  -4   2   0 71.8688 10.8570   9
  -4   2   0 107.441   9.872   7
  -4   2   0 72.1000 10.9874   9
  -4   2   0 87.3973  9.6112   1
   4   2   0 101.311   8.465   7
  -4   2   0 75.4529 10.1453   2
   5  -2   0 994.848  76.798   1
  -5  -2   0 1096.07   75.15   1
   5  -2   0 1074.54   76.29   8
  -5  -2   0 932.491  74.217   7
  -5  -2   0 962.857  83.346   9
   5  -2   0 935.972  79.052   3
  -5  -2   0 1035.24   80.42   5
   5  -2   0 996.617  80.270   5
  -5  -2   0 954.583  69.245  10
  -5  -2   0 920.747  74.851   1
   5  -2   0 946.457  84.255   4
  -5  -2   0 947.682  77.741   2
  -5  -2   0 878.639  82.693   9
  -5  -2   0 965.259  74.315   7
  -5   2   0 886.228  76.015   1
  -5   2   0 951.829  76.846   1
  -5   2   0 1028.33   76.33   7
  -5   2   0 972.644  78.673   2
  -5   2   0 990.518  84.762   9
   5   2   0 1096.74   82.79   4
  -5   2   0 1053.05   84.90   9
   6  -2   0 448.574  48.506   4
  -6  -2   0 495.706  42.004   1
  -6  -2   0 515.559  41.956   1
  -6  -2   0 610.227  48.711   9
  -6  -2   0 636.500  48.334   9
  -6  -2   0 534.350  39.253  10
  -6  -2   0 508.766  45.139   2
  -6   2   0 498.642  43.877   1
  -6   2   0 615.028  45.477   1
  -6   2   0 561.888  49.926   9
  -6   2   0 527.949  43.698   7
   6   2   0 565.852  47.736   4
  -6   2   0 524.670  45.918   2
  -6   2   0 558.538  49.818   9
  -7  -2   0 27.2969  8.5710   9
  -7  -2   0 28.1251  5.1405  10
  -7  -2   0 23.5506  7.8461   9
  -7  -2   0 40.3437  8.8378   2
   7  -2   0 30.0302  7.2355   8
  -7   2   0 27.3767  6.0685  10
  -7   2   0 12.9649  7.4394   2
  -7   2   0 28.0371  6.4982   7
  -7   2   0 24.9068  9.8528   9
  -7   2   0 31.9087  7.3060   1
  -7   2   0 28.9681 10.7616   9
  -8  -2   0 431.603  44.424   9
  -8  -2   0 471.637  45.405   9
  -8  -2   0 530.115  36.082  10
  -8  -2   0 502.232  43.075   2
  -8   2   0 470.773  43.973   2
  -8   2   0 449.743  36.920  10
  -8   2   0 481.778  40.104   1
   0  -3   0 4.93167 4.03962   9
   0  -3   0 7.30161 2.10477   5
   0  -3   0 5.38360 2.17635   8
   0  -3   0 2.84610 2.79872   7
   0  -3   0 7.67716 1.92648   6
   0  -3   0 2.51314 2.13101   7
   0  -3   0 -0.4617  2.6101   3
   0  -3   0 6.08438 4.33182   5
   0  -3   0 0.07370 2.29349   1
   0  -3   0 -3.4045  3.3920   6
   0  -3   0 0.89762 2.86546   1
   0  -3   0 1.20279 2.27964   4
   0  -3   0 2.81362 1.87399   8
   0   3   0 1.38481 2.81792   3
   0   3   0 1.68123 2.32874   7
   0   3   0 5.96268 3.22015   9
   0   3   0 2.73837 2.58001   7
   0   3   0 1.00154 4.02278   9
   0   3   0 -0.3106  2.2785   8
   0   3   0 1.52835 2.57261   1
   0   3   0 1.53470 3.10924   6
   0   3   0 6.51945 2.76786   4
   0   3   0 -1.5118  2.3140   1
   0   3   0 3.68084 2.53752   8
   0   3   0 0.24073 4.02106   5
  -1  -3   0 869.037  72.706   5
  -1  -3   0 955.614  74.531   4
   1  -3   0 834.917  69.969   2
   1  -3   0 870.375  71.921   3
   1  -3   0 982.247  69.161   1
  -1  -3   0 984.949  67.758   6
   1  -3   0 854.623  74.214   5
  -1  -3   0 1003.83   67.92   6
   1  -3   0 792.742  68.790   7
  -1  -3   0 794.499  68.303   7
   1  -3   0 987.669  69.065   6
  -1  -3   0 908.444  68.548   7
  -1  -3   0 851.696  75.887   9
  -1  -3   0 931.018  68.957   1
  -1  -3   0 937.167  74.414   4
  -1  -3   0 950.299  63.267  10
  -1  -3   0 865.863  70.730   3
   1  -3   0 934.928  69.585   1
  -1  -3   0 887.279  68.666   1
   1  -3   0 935.857  76.533   9
  -1   3   0 854.408  71.895   3
   1   3   0 863.000  69.277   2
   1   3   0 868.366  74.909   4
   1   3   0 922.815  69.102   1
  -1   3   0 879.592  69.062   7
  -1   3   0 940.402  69.626   1
  -1   3   0 1009.95   69.31   1
  -1   3   0 1006.84   70.11   2
   1   3   0 832.881  75.866   9
  -1   3   0 1025.34   76.70   9
   1   3   0 836.890  72.433   5
  -1   3   0 917.672  68.860   8
   1   3   0 1013.96   74.89   4
   1   3   0 801.412  68.393   7
   1   3   0 934.234  68.062   8
   1   3   0 857.403  68.204   6
   1   3   0 883.885  63.334  10
  -1   3   0 888.908  73.067   5
  -1   3   0 790.354  75.878   9
   1   3   0 883.312  68.724   7
  -1   3   0 889.864  75.535   4
   1   3   0 946.990  68.713   1
  -1   3   0 855.025  68.166   6
   1   3   0 867.160  71.006   3
   1   3   0 882.976  68.112   8
  -1   3   0 924.492  68.877   8
  -2  -3   0 1198.85   95.22   2
  -2  -3   0 1273.48   99.40   5
   2  -3   0 1148.41  103.41   4
   2  -3   0 1247.63   94.24   8
   2  -3   0 1143.96   94.70   1
   2  -3   0 1264.14   93.91   6
  -2  -3   0 1353.00   93.12   7
   2  -3   0 1355.60   94.42   7
   2  -3   0 1371.04  100.80   5
  -2  -3   0 1213.57   86.26  10
   2  -3   0 1127.00  103.67   9
   2  -3   0 1216.39   94.17   8
   2  -3   0 1267.42   98.21   3
  -2  -3   0 1213.32   93.20   1
  -2  -3   0 1056.26   92.31   6
   2  -3   0 1256.26   93.45   6
  -2  -3   0 1176.80  103.09   9
  -2  -3   0 1209.99   93.70   1
   2  -3   0 1442.51   94.46   1
  -2  -3   0 1233.43   92.40   6
  -2   3   0 1183.67   93.63   6
   2   3   0 1133.06  101.93   4
  -2   3   0 1171.43   96.09   2
  -2   3   0 1177.31  104.03   9
  -2   3   0 1169.24   93.29   6
  -2   3   0 1331.18   98.15   3
   2   3   0 1341.12   99.04   5
   2   3   0 1223.88   86.12  10
   2   3   0 1308.98   93.55   1
   2   3   0 1295.07   93.34   7
  -2   3   0 1271.34   93.91   8
   2   3   0 1150.79   96.88   3
  -2   3   0 1294.05   94.57   1
  -2   3   0 1278.63   94.49   7
   2   3   0 1171.98  102.50   9
   2   3   0 1203.38   93.70   7
   2   3   0 1235.51   95.29   2
   2   3   0 1348.00   92.81   6
   2   3   0 1154.60  102.14   4
  -2   3   0 1344.48  104.50   9
  -3  -3   0 1050.70   98.03   9
  -3  -3   0 1119.60   91.03   2
   3  -3   0 1385.68   99.99   9
   3  -3   0 1113.20   90.54   1
   3  -3   0 1138.82   99.18   4
   3  -3   0 1325.50   90.31   8
   3  -3   0 1128.81   89.80   8
   3  -3   0 1125.95   93.56   3
  -3  -3   0 1199.94   88.49   7
   3  -3   0 1220.63   99.42   9
  -3  -3   0 1093.40   97.74   9
  -3  -3   0 1043.60   82.03  10
   3  -3   0 1369.63   89.90   6
  -3  -3   0 1144.56   88.70   1
   3  -3   0 1030.91   95.60   5
   3  -3   0 1150.23   89.21   6
  -3  -3   0 1282.88   89.25   1
   3  -3   0 1211.00   90.10   7
   3   3   0 1319.62   89.22   1
   3   3   0 1181.89   89.25   7
   3   3   0 1129.93   97.10   4
  -3   3   0 1083.68   99.39   9
  -3   3   0 1291.49   89.19   6
   3   3   0 1135.62   91.12   2
   3   3   0 1300.40   97.76   9
  -3   3   0 1047.57   98.00   4
  -3   3   0 1186.96   90.22   7
  -3   3   0 1151.82   92.01   2
   3   3   0 1203.79   88.85   7
  -3   3   0 1219.73   99.77   9
   3   3   0 1181.46   97.34   4
  -3   3   0 1112.14   89.93   1
   4  -3   0 758.127  59.719   8
   4  -3   0 720.117  60.319   1
  -4  -3   0 738.861  58.540   1
   4  -3   0 725.253  66.085   9
   4  -3   0 736.894  66.420   9
   4  -3   0 668.350  66.012   4
   4  -3   0 841.441  63.823   5
   4  -3   0 795.263  62.298   3
  -4  -3   0 859.858  58.363   1
   4  -3   0 876.534  59.873   6
  -4  -3   0 736.299  58.034   7
  -4  -3   0 755.509  65.237   9
  -4  -3   0 742.970  64.487   9
   4  -3   0 727.646  59.362   8
  -4  -3   0 782.509  54.031  10
  -4  -3   0 876.147  60.755   2
  -4  -3   0 731.033  57.805   7
  -4   3   0 686.133  59.789   7
   4   3   0 754.404  58.781   1
  -4   3   0 735.751  66.656   9
  -4   3   0 837.122  64.770   4
  -4   3   0 727.922  60.018   1
   4   3   0 787.020  58.498   7
  -4   3   0 725.469  60.641   1
  -4   3   0 796.770  67.043   9
   4   3   0 743.796  64.036   4
   5  -3   0 13.0364  4.3923   5
  -5  -3   0 15.4154  3.2818  10
   5  -3   0 21.7599  7.1812   4
   5  -3   0 11.5008  6.5325   8
  -5  -3   0 19.5113  5.9447   9
   5  -3   0 9.89085 4.41256   3
   5  -3   0 24.0744  7.8160   9
  -5  -3   0 16.0761  4.4877   9
   5  -3   0 18.5455  6.0315   1
  -5  -3   0 15.0958  3.3897   1
  -5  -3   0 9.46384 3.26720   1
   5  -3   0 9.36817 4.54590   8
  -5  -3   0 21.8049  5.2364   2
   5   3   0 15.1399  4.7887   4
  -5   3   0 17.6404  5.8874   2
  -5   3   0 13.0457  6.9532   9
  -5   3   0 15.2560  5.5756   1
  -5   3   0 4.18668 5.52477   1
  -5   3   0 24.1612  7.9463   9
  -5   3   0 22.1793  5.7722   7
  -6  -3   0 9.60501 5.13518   2
   6  -3   0 3.42691 4.84048   8
  -6  -3   0 4.28876 4.85642   9
  -6  -3   0 2.55509 5.58978   9
  -6  -3   0 4.91539 3.21580  10
  -6   3   0 1.95597 4.84423   7
  -6   3   0 5.69869 6.13467   2
  -6   3   0 4.24845 4.94905   1
   6   3   0 1.91160 5.19211   4
  -6   3   0 -2.5821  6.0058   9
  -6   3   0 14.4980  8.1148   9
  -7  -3   0 261.332  27.222   2
  -7  -3   0 324.739  22.837  10
  -7  -3   0 287.819  28.457   9
  -7  -3   0 275.739  29.222   9
   7  -3   0 290.273  26.387   8
  -7   3   0 327.426  27.474   1
  -7   3   0 293.387  31.889   9
  -7   3   0 296.757  29.304   2
  -7   3   0 297.965  31.929   9
  -7   3   0 268.005  26.147   7
  -8  -3   0 51.1372 10.3567   2
  -8  -3   0 42.3114  6.4696  10
  -8  -3   0 35.9564 10.7399   9
   8  -3   0 35.4082  8.8604   8
  -8   3   0 43.5844 12.0900   2
  -8   3   0 45.4243  8.6249  10
  -8   3   0 55.7599  9.5693   1
  -8   3   0 30.5249 12.5999   9
   0  -4   0 1164.15   87.63   5
   0  -4   0 1100.97   81.58   6
   0  -4   0 1129.66   83.57   1
   0  -4   0 1043.46   86.47   3
   0  -4   0 947.944  82.799   1
   0  -4   0 1115.05   82.18   8
   0  -4   0 1256.99   82.14   8
   0  -4   0 1034.12   90.11   5
   0  -4   0 986.782  91.583   9
   0  -4   0 1166.64   82.74   7
   0  -4   0 948.096  83.319   6
   0  -4   0 1068.48   90.22   4
   0  -4   0 1184.10   83.53   7
   0   4   0 1032.25   82.83   7
   0   4   0 903.894  90.667   9
   0   4   0 1063.34   83.06   7
   0   4   0 970.546  86.719   3
   0   4   0 1124.34   82.59   8
   0   4   0 907.024  87.220   5
   0   4   0 1110.31   90.55   4
   0   4   0 1172.48   83.28   1
   0   4   0 1098.52   83.56   1
   0   4   0 1256.56   84.05   6
   0   4   0 1148.93   92.62   9
   0   4   0 1107.87   82.42   8
  -1  -4   0 58.2011  5.9355   4
   1  -4   0 44.7697  6.7401   4
   1  -4   0 42.4901  6.4606   3
  -1  -4   0 49.3603  5.7493   5
   1  -4   0 51.0101  8.3351   9
  -1  -4   0 45.2266  6.1809   1
  -1  -4   0 38.3494  7.6612   5
  -1  -4   0 46.3972  4.9969   3
  -1  -4   0 37.6000  4.7883   6
  -1  -4   0 56.6666  6.0107   4
   1  -4   0 72.7675  7.6521   6
   1  -4   0 79.6770  7.3049   7
  -1  -4   0 48.1472  5.5253   6
   1  -4   0 54.3220  7.1520   1
   1  -4   0 49.9619  6.4079   7
   1  -4   0 48.8021  6.4606   1
  -1  -4   0 43.5395  5.6171   7
   1  -4   0 61.6171  6.2993   8
  -1  -4   0 57.4868  6.1932   7
   1  -4   0 62.5785  8.7422   5
  -1  -4   0 29.6444  7.1987   9
   1  -4   0 53.1262  6.0437   8
   1   4   0 39.4104  6.5384   9
  -1   4   0 42.5128  6.0104   5
   1   4   0 60.2165  5.8677  10
   1   4   0 46.1371  5.6264   3
  -1   4   0 45.0185  7.6265   9
  -1   4   0 46.8218  5.9613   8
  -1   4   0 49.0373  6.8703   4
   1   4   0 67.7914  7.1967   4
   1   4   0 49.9789  6.2306   7
   1   4   0 49.8827  6.6638   1
   1   4   0 55.9061  5.7556   5
   1   4   0 52.7934  6.3960   1
  -1   4   0 44.7402  6.5149   1
  -1   4   0 46.2018  6.9033   1
   1   4   0 59.0542  6.2358   7
   1   4   0 45.5942  5.1347   8
  -1   4   0 37.4664  6.2066   7
   1   4   0 59.6198  8.7077   9
  -1   4   0 32.7566  5.4796   2
   1   4   0 49.9735  4.8838   8
  -1   4   0 50.0357  5.9504   8
   1   4   0 84.6228  7.5461   6
   2  -4   0 883.155  70.374   8
  -2  -4   0 936.234  64.481  10
  -2  -4   0 895.387  68.601   6
  -2  -4   0 1003.52   69.38   7
   2  -4   0 753.394  75.413   5
  -2  -4   0 981.452  68.636   6
   2  -4   0 1044.78   71.04   7
   2  -4   0 885.274  70.392   8
   2  -4   0 824.047  77.907   9
  -2  -4   0 840.993  70.033   1
   2  -4   0 934.671  73.712   3
  -2  -4   0 913.134  74.217   5
   2  -4   0 947.370  70.690   6
   2  -4   0 973.850  69.994   6
   2  -4   0 817.646  78.262   9
   2  -4   0 1053.93   78.24   4
   2  -4   0 958.442  71.687   1
   2  -4   0 974.790  70.944   1
  -2  -4   0 897.333  69.715   7
  -2  -4   0 904.347  69.549   1
  -2   4   0 1048.79   72.06   1
  -2   4   0 988.503  73.734   3
   2   4   0 835.670  70.122   7
   2   4   0 880.967  73.596   5
   2   4   0 854.684  72.084   3
  -2   4   0 958.849  71.215   1
  -2   4   0 845.688  71.768   2
   2   4   0 954.172  76.983   9
   2   4   0 952.557  69.404   6
   2   4   0 908.037  70.808   2
   2   4   0 778.678  76.126   4
  -2   4   0 949.188  78.867   9
   2   4   0 868.997  69.710   7
  -2   4   0 1003.14   71.26   7
  -2   4   0 936.188  78.765   9
  -2   4   0 917.134  75.077   5
  -2   4   0 855.605  69.692   6
  -2   4   0 946.936  70.215   8
   2   4   0 853.832  75.968   4
   2   4   0 935.226  64.242  10
   3  -4   0 231.152  23.551   4
  -3  -4   0 242.103  19.181   1
  -3  -4   0 238.087  22.640   9
   3  -4   0 267.744  20.911   8
   3  -4   0 256.958  24.153   9
  -3  -4   0 231.766  18.748   7
  -3  -4   0 229.605  19.816   2
   3  -4   0 242.673  20.509   6
   3  -4   0 232.536  23.727   9
   3  -4   0 214.856  21.395   1
   3  -4   0 254.641  21.147   6
   3  -4   0 267.288  21.752   3
  -3  -4   0 248.114  20.863   5
  -3  -4   0 212.201  17.795  10
   3  -4   0 251.686  20.932   7
  -3  -4   0 216.520  21.990   9
   3  -4   0 242.556  20.330   8
  -3  -4   0 216.427  19.598   1
   3  -4   0 256.957  22.698   5
  -3   4   0 226.602  20.953   7
   3   4   0 281.335  21.859   9
   3   4   0 281.885  20.299   2
   3   4   0 200.047  19.666   7
   3   4   0 219.713  19.607   1
  -3   4   0 226.291  21.086   3
  -3   4   0 216.179  21.651   1
  -3   4   0 248.294  21.438   1
   3   4   0 261.105  19.689   5
  -3   4   0 200.236  23.436   9
   3   4   0 230.566  19.310   7
   3   4   0 263.173  21.105   4
   3   4   0 237.697  19.644   3
  -3   4   0 244.955  21.302   2
   3   4   0 221.559  21.253   4
  -3   4   0 208.486  23.741   9
  -3   4   0 262.469  22.837   4
   4  -4   0 238.389  22.245   1
  -4  -4   0 283.318  21.025   2
  -4  -4   0 231.782  18.139  10
  -4  -4   0 252.375  19.771   1
   4  -4   0 238.296  22.649   5
   4  -4   0 244.508  21.926   3
  -4  -4   0 203.706  22.042   9
   4  -4   0 249.246  24.618   4
   4  -4   0 246.961  20.849   8
  -4  -4   0 250.952  19.109   7
  -4  -4   0 238.456  19.233   1
   4  -4   0 222.583  21.320   8
  -4  -4   0 219.027  22.801   9
   4  -4   0 260.851  24.921   9
  -4  -4   0 247.537  21.399   5
   4  -4   0 246.804  21.532   6
  -4  -4   0 250.963  18.783   7
  -4   4   0 255.586  22.305   2
   4   4   0 214.849  19.509   7
   4   4   0 224.552  19.983   3
  -4   4   0 241.262  21.738   1
  -4   4   0 275.080  22.952   4
  -4   4   0 220.425  21.486   7
  -4   4   0 227.384  24.961   9
   4   4   0 233.364  21.414   4
  -4   4   0 238.234  24.789   9
   5  -4   0 1108.82   80.44   5
   5  -4   0 922.577  75.136   8
  -5  -4   0 1045.41   76.48   2
   5  -4   0 941.042  84.093   4
   5  -4   0 925.521  78.455   3
  -5  -4   0 956.089  72.946   1
  -5  -4   0 980.511  82.486   9
  -5  -4   0 874.416  73.050   1
  -5  -4   0 923.051  81.289   9
  -5  -4   0 966.322  68.141  10
   5  -4   0 1051.25   84.64   9
  -5   4   0 915.389  84.517   9
  -5   4   0 858.319  77.407   2
  -5   4   0 1020.05   77.32   1
  -5   4   0 1024.86   85.03   9
  -5   4   0 962.864  75.951   7
   5   4   0 956.129  80.817   4
  -5   4   0 979.080  76.063   1
  -6  -4   0 2.22575 5.30434   9
   6  -4   0 6.22703 5.60404   8
  -6  -4   0 -0.6707  4.4866   9
  -6  -4   0 -1.3816  4.8725   2
  -6  -4   0 2.35633 3.27268  10
  -6   4   0 -0.4633  5.3519   2
  -6   4   0 6.68300 5.69347   7
   6   4   0 9.01834 5.01927   4
  -6   4   0 6.99376 5.57121   1
  -6   4   0 7.24819 6.69191   9
  -6   4   0 16.3508  8.1454   9
  -7  -4   0 198.224  21.626   9
   7  -4   0 216.836  20.347   8
  -7  -4   0 197.303  15.932  10
  -7  -4   0 208.170  20.131   2
  -7   4   0 173.294  20.012   1
  -7   4   0 173.188  23.826   9
  -7   4   0 165.320  19.220   7
  -7   4   0 196.374  21.611   2
  -8  -4   0 1096.89   74.42  10
  -8  -4   0 1060.40   91.25   9
  -8   4   0 879.868  93.494   9
  -8   4   0 1009.03   82.81   7
  -8   4   0 1064.59   83.52   1
  -8   4   0 1127.25   88.10   2
   0  -5   0 1.90646 2.21828   6
   0  -5   0 -3.3054  4.3586   6
   0  -5   0 4.21345 3.58825   4
   0  -5   0 -2.2273  2.6082   8
   0  -5   0 -2.7378  2.6016   8
   0  -5   0 3.71248 5.50290   5
   0  -5   0 0.61098 3.46992   3
   0  -5   0 6.22035 4.11992   7
   0  -5   0 3.68934 4.94457   9
   0  -5   0 3.59233 4.51231   1
   0  -5   0 -0.5970  2.5524   7
   0  -5   0 0.64780 3.67755   1
   0   5   0 -3.5708  3.1951   8
   0   5   0 20.2076  5.9314   6
   0   5   0 0.23273 4.03424   3
   0   5   0 2.84158 3.78460   4
   0   5   0 1.22004 3.53032   7
   0   5   0 -1.2405  3.2369   1
   0   5   0 2.50796 4.45431   9
   0   5   0 0.41517 2.85191   5
   0   5   0 -0.4914  3.1507   7
   0   5   0 1.22440 3.59128   8
   0   5   0 2.62868 4.06311   1
   0   5   0 6.15788 5.76082   9
   1  -5   0 1444.45  113.19   1
   1  -5   0 1438.69  112.63   7
   1  -5   0 1733.81  126.08   9
   1  -5   0 1282.18  112.67   7
   1  -5   0 1614.64  113.55   6
  -1  -5   0 1639.64  116.22   3
  -1  -5   0 1592.23  119.30   5
   1  -5   0 1341.03  124.06   9
   1  -5   0 1534.14  122.21   5
  -1  -5   0 1436.46  110.69   6
  -1  -5   0 1554.57  122.23   4
  -1  -5   0 1620.71  122.39   5
   1  -5   0 1393.49  112.20   8
  -1  -5   0 1628.88  111.79   6
  -1  -5   0 1405.60  112.05   7
   1  -5   0 1628.28  112.60   8
  -1  -5   0 1423.69  122.07   4
   1  -5   0 1515.38  118.03   3
   1  -5   0 1442.80  123.42   4
  -1  -5   0 1314.42  124.24   9
  -1  -5   0 1507.84  112.78   1
   1  -5   0 1477.94  113.55   1
  -1  -5   0 1509.94  112.64   7
  -1   5   0 1403.04  123.33   4
  -1   5   0 1424.78  112.69   8
  -1   5   0 1488.46  124.50   9
  -1   5   0 1373.08  119.28   5
  -1   5   0 1482.13  112.56   8
   1   5   0 1382.21  103.97  10
  -1   5   0 1452.19  112.98   7
   1   5   0 1509.08  112.62   7
  -1   5   0 1496.52  113.86   1
   1   5   0 1682.98  113.20   6
   1   5   0 1554.71  111.90   8
  -1   5   0 1387.36  114.06   2
   1   5   0 1376.98  112.59   1
   1   5   0 1358.32  123.23   9
   1   5   0 1383.47  122.75   4
   1   5   0 1630.29  118.89   5
   1   5   0 1513.14  111.71   8
   1   5   0 1342.85  116.83   3
   1   5   0 1635.11  126.02   9
  -1   5   0 1363.55  112.98   1
   1   5   0 1314.82  112.42   7
  -2  -5   0 163.572  16.096   5
  -2  -5   0 170.945  14.003   6
   2  -5   0 189.378  17.615   1
   2  -5   0 132.909  15.228   8
  -2  -5   0 166.273  18.500   9
   2  -5   0 172.983  18.479   5
   2  -5   0 193.674  16.993   6
   2  -5   0 166.643  16.016   7
   2  -5   0 190.765  18.567   4
  -2  -5   0 160.357  15.559   1
   2  -5   0 156.092  16.531   3
   2  -5   0 173.959  19.554   9
  -2  -5   0 165.825  14.979   7
   2  -5   0 180.790  15.569   6
  -2  -5   0 175.710  13.886   6
   2  -5   0 180.906  16.546   1
  -2  -5   0 162.887  14.413   7
   2  -5   0 175.606  16.210   7
  -2  -5   0 171.881  15.113   1
  -2   5   0 173.309  15.769   8
   2   5   0 187.669  13.676   8
   2   5   0 156.790  15.030   3
   2   5   0 156.480  14.653   2
  -2   5   0 151.460  15.152   8
   2   5   0 176.893  16.661   4
   2   5   0 153.180  15.154   7
   2   5   0 192.321  15.957   7
  -2   5   0 166.840  16.416   7
  -2   5   0 161.900  17.016   1
  -2   5   0 186.878  19.524   9
  -2   5   0 163.534  15.910   2
   2   5   0 200.068  16.591   4
  -2   5   0 154.327  19.334   9
   2   5   0 184.636  14.063   8
  -2   5   0 173.278  16.930   1
   2   5   0 176.227  15.704   1
  -2   5   0 180.687  16.495   6
  -2   5   0 159.873  16.455   3
   2   5   0 200.264  17.992   9
   2   5   0 195.865  15.364   5
  -2   5   0 170.891  17.055   5
   3  -5   0 3564.53  238.74   6
  -3  -5   0 3193.27  254.31   5
   3  -5   0 3439.01  241.62   1
  -3  -5   0 3179.50  220.70  10
   3  -5   0 3260.72  264.54   9
  -3  -5   0 3212.86  238.32   1
  -3  -5   0 2791.52  262.72   9
   3  -5   0 3001.56  240.45   8
  -3  -5   0 3139.72  239.10   1
   3  -5   0 2911.38  263.75   9
  -3  -5   0 2853.92  262.36   9
   3  -5   0 3095.01  263.65   4
  -3  -5   0 3013.35  237.98   7
   3  -5   0 3368.32  240.72   8
   3  -5   0 3432.07  250.54   3
   3  -5   0 3542.52  239.65   6
   3   5   0 2992.86  238.75   7
  -3   5   0 3323.95  263.00   4
  -3   5   0 3019.30  249.89   3
   3   5   0 2842.86  261.56   4
   3   5   0 3261.83  261.26   4
  -3   5   0 3333.39  265.05   9
   3   5   0 3201.02  239.47   7
  -3   5   0 3144.07  240.68   1
   3   5   0 3210.80  261.76   9
  -3   5   0 3151.10  240.55   7
  -3   5   0 3049.42  238.80   6
   3   5   0 3077.10  243.36   2
  -3   5   0 3179.05  241.40   1
  -3   5   0 3350.31  265.02   9
   3   5   0 3213.26  253.23   5
   3   5   0 3443.51  248.52   3
  -4  -5   0 1357.77  105.78   9
  -4  -5   0 1219.14  106.44   9
   4  -5   0 1164.64   96.98   8
  -4  -5   0 1243.95   94.96   7
  -4  -5   0 1208.52   95.64   1
   4  -5   0 1107.81  103.54   5
   4  -5   0 1280.67   97.41   6
   4  -5   0 1248.18  107.81   4
   4  -5   0 1231.40  107.96   9
  -4  -5   0 1247.48   97.79   2
  -4  -5   0 1179.68   88.33  10
  -4  -5   0 1236.49   95.11   1
  -4  -5   0 1352.19  102.36   5
   4  -5   0 1309.72  101.65   3
  -4  -5   0 1294.46   94.71   7
   4  -5   0 1308.92  108.39   9
   4  -5   0 1188.74   98.44   1
  -4   5   0 1175.38   97.51   1
  -4   5   0 1286.88  106.29   4
  -4   5   0 1211.85   97.83   7
   4   5   0 1273.16   96.29   7
  -4   5   0 1216.19  108.69   9
  -4   5   0 1237.60  100.77   3
   4   5   0 1455.09  105.73   4
   4   5   0 1190.85   99.25   3
   4   5   0 1374.96  104.79   4
  -4   5   0 1205.02  108.45   9
  -4   5   0 1383.58   99.96   2
   5  -5   0 108.894  11.523   8
  -5  -5   0 91.4883 11.3826   9
  -5  -5   0 95.7949  9.0785  10
   5  -5   0 98.6141 12.3127   3
   5  -5   0 90.8201 12.1741   5
  -5  -5   0 100.597  11.065   2
  -5  -5   0 115.184  13.284   9
   5  -5   0 105.910  15.516   9
  -5  -5   0 85.8635  8.7995   1
   5   5   0 95.2626  9.6816   3
  -5   5   0 118.518  13.202   7
  -5   5   0 105.173  15.816   9
   5   5   0 84.9114 10.8762   4
  -5   5   0 96.6260 15.3659   9
  -5   5   0 89.7370 12.2877   1
  -5   5   0 118.442  13.569   2
  -6  -5   0 8.96221 4.99432   9
  -6  -5   0 12.7036  5.6442   2
  -6  -5   0 12.0592  6.4333   9
  -6  -5   0 12.6535  3.9274  10
   6  -5   0 11.0491  6.3635   8
  -6   5   0 23.0069  7.8390   1
   6   5   0 25.6731  6.0647   4
  -6   5   0 14.8361  7.5123   2
  -6   5   0 14.9103  6.7545   7
  -6   5   0 8.58951 9.20618   9
   6   5   0 7.88754 3.81836   3
  -6   5   0 4.83306 9.96963   9
  -7  -5   0 138.239  16.961   9
  -7  -5   0 132.725  12.036  10
   7  -5   0 166.395  16.521   8
  -7   5   0 126.769  17.476   2
  -7   5   0 118.252  15.973   7
  -7   5   0 152.182  16.836   1
  -7   5   0 108.312  19.325   9
  -8  -5   0 55.5497  6.9428  10
  -8  -5   0 43.7174 11.5033   9
  -8   5   0 64.0644 11.8352   1
  -8   5   0 60.8275 11.4496   7
  -8   5   0 51.9537 13.0101   2
  -8   5   0 45.1011 14.6497   9
   0  -6   0 2569.68  206.60   5
   0  -6   0 2238.89  191.62   6
   0  -6   0 2633.82  190.71   8
   0  -6   0 2457.12  190.67   8
   0  -6   0 2572.29  199.74   3
   0  -6   0 2806.36  192.94   1
   0  -6   0 2642.33  189.33   6
   0  -6   0 2459.42  208.97   4
   0  -6   0 2263.11  191.56   1
   0  -6   0 2403.43  192.12   7
   0  -6   0 2844.93  211.97   9
   0   6   0 2541.29  191.36   8
   0   6   0 2437.42  191.49   8
   0   6   0 2393.70  209.37   4
   0   6   0 2271.18  191.48   7
   0   6   0 2374.63  200.27   3
   0   6   0 2578.85  191.78   7
   0   6   0 2736.87  194.09   2
   0   6   0 2692.76  202.99   5
   0   6   0 2940.45  192.64   6
   0   6   0 2455.17  191.66   1
   0   6   0 2317.35  210.09   9
  -1  -6   0 1640.13  133.72   3
  -1  -6   0 1680.13  128.76   6
  -1  -6   0 1752.48  127.55   6
   1  -6   0 1513.05  130.27   6
  -1  -6   0 1983.95  129.52   7
   1  -6   0 1765.90  130.87   1
   1  -6   0 1776.88  142.21   4
  -1  -6   0 1537.97  143.17   9
   1  -6   0 1725.86  144.43   9
   1  -6   0 1628.67  130.39   1
   1  -6   0 1811.13  129.25   8
   1  -6   0 1779.17  129.46   8
  -1  -6   0 1651.45  140.39   5
  -1  -6   0 1542.48  129.58   7
   1  -6   0 1705.15  140.73   5
  -1  -6   0 1644.41  129.69   1
   1  -6   0 1637.36  143.18   9
   1  -6   0 1522.51  129.96   7
   1  -6   0 1622.71  129.61   7
   1  -6   0 1681.68  128.20   6
  -1  -6   0 1782.48  140.91   4
  -1   6   0 1642.19  131.28   2
   1   6   0 1485.12  144.21   9
   1   6   0 1831.35  141.83   4
   1   6   0 1543.12  136.63   5
  -1   6   0 1638.47  130.44   6
   1   6   0 1764.73  128.86   8
   1   6   0 1955.70  129.16   8
   1   6   0 1496.57  134.87   3
   1   6   0 1581.40  119.85  10
  -1   6   0 1761.68  130.03   8
   1   6   0 1748.13  130.01   1
  -1   6   0 1822.51  137.73   5
   1   6   0 1618.71  129.76   7
   1   6   0 1689.52  142.26   9
  -1   6   0 1919.72  129.88   8
  -1   6   0 1437.19  129.89   1
   1   6   0 1697.86  129.79   7
  -1   6   0 1871.21  131.69   1
  -1   6   0 1936.61  143.96   9
  -1   6   0 1564.99  129.94   7
   1   6   0 1848.50  130.62   6
   2  -6   0 2438.96  180.77   6
   2  -6   0 2093.73  195.68   5
   2  -6   0 2272.05  182.17   8
  -2  -6   0 2471.39  193.29   5
   2  -6   0 2502.29  182.55   7
  -2  -6   0 2124.24  179.35   6
   2  -6   0 2486.91  190.50   3
   2  -6   0 2350.02  182.16   6
  -2  -6   0 2649.80  182.16   1
  -2  -6   0 2287.52  181.10   7
   2  -6   0 2342.65  182.37   8
  -2  -6   0 2240.40  180.80   7
  -2  -6   0 2048.03  199.90   9
   2  -6   0 2476.12  202.09   9
   2  -6   0 2326.06  182.43   7
  -2  -6   0 2386.39  179.26   6
   2  -6   0 2692.66  184.01   1
  -2  -6   0 2603.48  187.48   3
  -2  -6   0 2403.84  181.43   1
   2   6   0 2431.97  180.91   8
  -2   6   0 2562.07  202.13   9
  -2   6   0 2254.91  193.63   5
   2   6   0 2541.39  184.24   2
   2   6   0 2466.08  182.30   7
  -2   6   0 2403.35  182.35   6
  -2   6   0 2430.27  182.34   8
   2   6   0 2198.40  181.09   8
   2   6   0 2426.90  188.76   3
   2   6   0 2571.31  181.96   7
  -2   6   0 2247.22  182.60   7
  -2   6   0 2560.52  182.45   8
   2   6   0 2561.24  182.07   1
   2   6   0 2080.16  192.00   5
  -2   6   0 2282.86  183.06   1
  -2   6   0 2319.62  185.35   2
   2   6   0 2531.81  200.55   9
  -2   6   0 2251.47  201.26   9
  -2   6   0 2554.93  190.81   3
   2   6   0 2376.47  198.81   4
  -2   6   0 2511.45  199.90   4
  -2   6   0 2838.62  184.73   1
  -3  -6   0 7.68430 5.34164   9
   3  -6   0 11.3495  5.8323   5
   3  -6   0 8.11583 5.50686   4
  -3  -6   0 5.66409 1.55582   6
   3  -6   0 9.99194 6.52773   9
   3  -6   0 7.12813 5.88152   9
  -3  -6   0 6.07488 1.58163   6
   3  -6   0 16.1778  4.7354   8
   3  -6   0 17.5867  6.0369   1
  -3  -6   0 12.6067  4.3924   5
   3  -6   0 8.09304 4.27559   7
   3  -6   0 4.04815 4.16469   3
   3  -6   0 3.31920 4.40159   6
  -3  -6   0 3.83000 2.43490   7
   3  -6   0 -0.5908  3.5266   6
  -3  -6   0 16.5337  4.4003   1
  -3  -6   0 8.69886 2.98400   1
   3   6   0 6.08139 4.02960   4
  -3   6   0 5.23608 5.93182   9
   3   6   0 3.12046 3.28709   1
   3   6   0 0.82901 2.48629   3
   3   6   0 9.18478 4.39577   4
  -3   6   0 0.35198 5.89644   9
  -3   6   0 4.44502 4.50317   4
  -3   6   0 19.7570  5.5563   2
   3   6   0 1.51961 3.95462   7
   3   6   0 3.73752 4.15832   9
  -3   6   0 -0.4699  4.3878   1
  -3   6   0 9.97860 4.97837   6
   3   6   0 7.32893 2.88179   2
  -3   6   0 16.0882  6.0684   1
   3   6   0 9.76388 2.25561   8
  -3   6   0 5.14380 3.61933   8
  -3   6   0 -1.5358  3.2909   3
   3   6   0 5.36712 3.39890   8
  -3   6   0 6.01516 4.40826   7
  -4  -6   0 987.026  67.213   7
  -4  -6   0 913.739  67.695   1
   4  -6   0 985.219  75.997   5
  -4  -6   0 808.452  76.605   9
   4  -6   0 979.430  71.024   6
   4  -6   0 959.617  72.325   1
   4  -6   0 877.013  69.665   8
  -4  -6   0 837.594  63.084  10
  -4  -6   0 781.280  68.014   1
   4  -6   0 870.967  73.149   3
  -4  -6   0 808.162  67.334   7
   4  -6   0 846.257  78.149   9
   4  -6   0 897.218  78.180   4
   4  -6   0 1083.90   80.38   9
  -4  -6   0 773.475  75.673   9
  -4   6   0 971.315  76.888   4
  -4   6   0 806.554  71.751   1
  -4   6   0 939.387  72.987   3
   4   6   0 841.355  69.051   7
   4   6   0 887.257  74.730   4
  -4   6   0 1020.29   72.28   2
   4   6   0 854.532  75.404   4
  -4   6   0 796.753  70.704   1
  -4   6   0 872.425  79.105   9
  -4   6   0 779.665  70.357   7
  -4   6   0 950.795  79.910   9
   4   6   0 935.351  70.859   3
  -5  -6   0 559.633  47.047   9
  -5  -6   0 430.641  44.907   9
   5  -6   0 541.642  42.424   8
  -5  -6   0 486.461  37.395  10
  -5  -6   0 502.431  39.342   1
   5  -6   0 574.291  45.102   3
   5  -6   0 438.446  45.047   5
  -5  -6   0 561.271  41.845   2
  -5   6   0 557.171  50.318   9
   5   6   0 524.509  42.064   3
  -5   6   0 426.954  43.443   2
  -5   6   0 520.738  43.651   7
  -5   6   0 546.300  50.589   9
   5   6   0 531.786  44.654   4
  -5   6   0 518.057  43.666   1
   6  -6   0 93.4219 12.0836   8
  -6  -6   0 74.7970 11.0859   9
  -6  -6   0 101.184  13.753   9
  -6  -6   0 91.1733 11.0445   2
  -6  -6   0 79.0642  8.9117  10
  -6   6   0 93.7319 13.5063   1
   6   6   0 79.9274 11.0349   4
  -6   6   0 111.383  13.971   7
  -6   6   0 101.214  17.448   9
   6   6   0 110.491  10.628   3
  -6   6   0 87.7606 13.7273   2
  -7  -6   0 255.856  26.868   9
   7  -6   0 244.444  23.822   8
  -7  -6   0 250.642  24.409   9
  -7  -6   0 245.417  19.544  10
  -7   6   0 201.472  29.118   9
  -7   6   0 285.767  26.270   7
  -7   6   0 241.468  25.205   1
  -7   6   0 222.594  25.831   2
  -8  -6   0 9.84237 4.29194  10
  -8   6   0 8.76109 9.32708   2
  -8   6   0 15.2177  8.6209   1
   0  -7   0 -1.4970  2.3748   6
   0  -7   0 2.55268 3.92524   3
   0  -7   0 -3.4931  3.6057   1
   0  -7   0 -5.3744  4.0684   7
   0  -7   0 1.13541 3.35053   7
   0  -7   0 -0.0503  2.8354   8
   0  -7   0 5.90660 3.69114   8
   0  -7   0 0.56978 3.85271   1
   0  -7   0 7.07817 5.43297   6
   0  -7   0 9.14527 6.27754   9
   0  -7   0 4.32165 6.06644   5
   0   7   0 0.88937 4.90842   9
   0   7   0 0.90262 4.46296   1
   0   7   0 0.59616 4.11089   6
   0   7   0 1.50471 4.85641   8
   0   7   0 3.44296 3.97048   7
   0   7   0 5.52841 4.39496   7
   0   7   0 -5.9545  5.3383   9
   0   7   0 3.36444 3.51622   5
   0   7   0 -2.3127  4.0389   3
   0   7   0 -2.2339  3.7975   4
   0   7   0 1.06377 4.16457   8
   0   7   0 4.07817 3.17306   2
   1  -7   0 3226.43  259.92   4
  -1  -7   0 2843.93  237.22   7
   1  -7   0 3246.60  255.91   5
   1  -7   0 3079.11  237.92   7
  -1  -7   0 2850.28  234.15   6
   1  -7   0 2820.36  236.96   8
  -1  -7   0 3118.45  255.54   5
  -1  -7   0 3033.98  258.49   4
   1  -7   0 3098.16  235.06   6
  -1  -7   0 3575.78  237.82   1
  -1  -7   0 3384.17  236.78   7
   1  -7   0 3448.22  237.62   7
   1  -7   0 2848.43  247.91   3
   1  -7   0 3037.36  236.79   8
  -1  -7   0 2675.23  260.79   9
   1  -7   0 2989.73  237.98   6
  -1  -7   0 3180.45  245.88   3
  -1  -7   0 3561.35  236.47   6
   1  -7   0 3131.34  238.23   1
   1  -7   0 2749.78  237.79   1
  -1   7   0 3120.57  259.97   4
   1   7   0 2987.34  237.41   7
  -1   7   0 3098.32  261.29   9
  -1   7   0 3057.13  237.94   8
   1   7   0 2961.73  262.94   9
   1   7   0 3003.11  237.32   1
   1   7   0 3295.28  237.09   8
   1   7   0 3638.42  251.47   5
  -1   7   0 3162.47  237.91   7
  -1   7   0 2934.64  251.76   5
   1   7   0 3015.35  219.45  10
   1   7   0 3557.47  260.78   9
   1   7   0 3575.78  260.00   4
   1   7   0 3045.52  236.90   8
  -1   7   0 3462.02  241.11   2
  -1   7   0 2864.35  237.35   8
  -1   7   0 3388.06  238.39   1
   1   7   0 3087.66  247.76   3
  -1   7   0 3130.91  237.90   6
  -2  -7   0 348.943  38.268   9
   2  -7   0 357.523  33.399   8
   2  -7   0 328.256  34.050   7
  -2  -7   0 414.148  33.946   1
   2  -7   0 426.407  35.858   6
  -2  -7   0 397.760  31.805   6
   2  -7   0 423.024  39.975   5
   2  -7   0 427.132  36.580   3
  -2  -7   0 356.334  32.096   6
  -2  -7   0 436.001  34.073   1
  -2  -7   0 395.444  32.609   3
  -2  -7   0 492.521  40.213   5
  -2  -7   0 384.148  32.952   7
  -2  -7   0 396.199  33.010   7
   2  -7   0 405.702  35.807   1
   2  -7   0 413.264  40.350   9
   2  -7   0 416.492  38.194   4
   2   7   0 351.116  38.352   9
  -2   7   0 397.410  34.304   2
  -2   7   0 410.310  36.370   1
  -2   7   0 446.359  35.498   7
  -2   7   0 375.589  33.569   8
  -2   7   0 480.797  34.389   8
  -2   7   0 420.801  40.514   9
   2   7   0 381.692  34.720   3
   2   7   0 382.159  34.243   7
   2   7   0 391.995  32.710   2
  -2   7   0 435.537  37.970   4
   2   7   0 458.519  32.394   8
   2   7   0 400.637  34.126   1
   2   7   0 448.457  32.993   8
  -2   7   0 415.734  39.784   9
   2   7   0 419.537  37.026   4
  -2   7   0 415.902  35.726   1
   2   7   0 493.602  34.870   5
  -2   7   0 422.858  36.817   3
  -3  -7   0 48.3825  4.7891   6
   3  -7   0 53.5714  8.3849   7
   3  -7   0 58.3134 10.3351   1
  -3  -7   0 41.8427  9.5726   9
   3  -7   0 49.1642 10.3439   5
  -3  -7   0 45.9354  4.8776   6
  -3  -7   0 38.3618  6.2669   1
   3  -7   0 34.4270  7.9592   3
  -3  -7   0 38.4260  5.8337   7
   3  -7   0 41.1185  9.3272   4
   3  -7   0 64.6616  9.9324   6
   3  -7   0 42.6037 10.2843   9
   3  -7   0 46.3768  7.4442   6
   3  -7   0 59.2142 12.3787   9
  -3  -7   0 53.0107  7.2666   1
   3  -7   0 45.2321  7.4374   8
  -3  -7   0 38.9809  5.4810   7
  -3   7   0 45.5148  9.0337   6
  -3   7   0 28.7110  9.8071   9
   3   7   0 50.4274  8.2800   7
   3   7   0 46.7316  7.2736   1
  -3   7   0 36.0545  8.2491   7
   3   7   0 45.4169  7.8324   4
  -3   7   0 58.9772  7.6966   8
   3   7   0 47.1250  5.7311   5
   3   7   0 56.5203  6.1738   2
   3   7   0 48.1730  6.6145   3
   3   7   0 51.7342  5.3631   8
  -3   7   0 39.7231  7.6285   2
  -3   7   0 44.6775  9.8149   1
  -3   7   0 51.7576 10.6492   1
  -3   7   0 44.7047 11.1328   9
  -3   7   0 63.0874  9.2036   3
   4  -7   0 18.5813  6.8748   3
  -4  -7   0 18.4223  6.9567   9
  -4  -7   0 10.8226  3.9736   1
   4  -7   0 7.78104 6.77337   5
  -4  -7   0 8.32462 2.81512   7
  -4  -7   0 9.53142 6.58539   9
  -4  -7   0 8.65236 3.63839   1
   4  -7   0 4.22311 7.38278   9
   4  -7   0 13.8329  6.7492   1
   4  -7   0 16.5771  8.5065   9
   4  -7   0 5.69768 5.00072   7
  -4  -7   0 10.1091  3.0786   7
   4  -7   0 19.3109  6.0813   8
  -4   7   0 12.5540  6.1216   4
   4   7   0 10.6487  5.0398   7
  -4   7   0 14.2452  8.6852   9
  -4   7   0 15.4012  6.2995   7
   4   7   0 5.55981 5.60228   4
  -4   7   0 7.85392 6.61604   1
   4   7   0 15.6582  3.3510   8
  -4   7   0 6.72541 5.48749   2
  -4   7   0 16.0949  6.4856   6
  -4   7   0 11.5642  5.4945   3
   4   7   0 8.03248 3.86995   3
   4   7   0 15.9168  5.4655   4
  -4   7   0 22.9519  9.9205   9
   5  -7   0 994.488  86.791   5
  -5  -7   0 1052.22   77.24   1
  -5  -7   0 957.088  77.411   1
  -5  -7   0 1035.34   88.90   9
   5  -7   0 1018.92   84.93   3
   5  -7   0 975.571  80.419   8
  -5  -7   0 996.060  87.139   9
   5   7   0 1092.41   86.80   4
  -5   7   0 994.623  81.850   7
  -5   7   0 1009.00   91.94   9
  -5   7   0 829.301  81.283   1
  -5   7   0 1011.88   83.05   2
   5   7   0 1220.39   82.24   3
   6  -7   0 858.691  68.181   8
  -6  -7   0 847.288  72.804   9
  -6  -7   0 893.893  75.081   9
  -6  -7   0 869.143  60.669  10
  -6   7   0 826.336  70.848   2
   6   7   0 901.810  72.885   4
  -6   7   0 785.128  78.213   9
  -6   7   0 744.172  69.286   1
  -6   7   0 811.305  69.194   7
  -7  -7   0 186.845  22.599   9
  -7   7   0 174.831  21.744   1
  -7   7   0 197.687  21.812   7
  -7   7   0 194.612  23.184   2
   0  -8   0 738.048  61.008   1
   0  -8   0 834.184  58.312   8
   0  -8   0 752.977  61.715   1
   0  -8   0 727.239  62.500   3
   0  -8   0 633.704  66.404   5
   0  -8   0 815.537  60.281   7
   0  -8   0 779.159  58.215   8
   0  -8   0 725.259  58.478   6
   0  -8   0 768.197  61.987   6
   0  -8   0 812.550  61.641   7
   0   8   0 715.458  59.582   2
   0   8   0 727.018  62.961   5
   0   8   0 750.382  60.819   1
   0   8   0 870.842  67.748   9
   0   8   0 835.293  62.268   6
   0   8   0 730.832  59.515   8
   0   8   0 648.252  65.435   4
   0   8   0 828.681  70.118   9
   0   8   0 748.686  60.861   7
   0   8   0 670.336  63.402   3
   1  -8   0 168.877  17.062   7
   1  -8   0 147.416  14.758   6
   1  -8   0 164.349  15.049   8
   1  -8   0 163.075  20.851   5
  -1  -8   0 177.606  16.534   6
   1  -8   0 141.810  16.877   1
  -1  -8   0 165.127  16.916   7
   1  -8   0 134.266  19.481   9
  -1  -8   0 164.196  20.923   5
  -1  -8   0 164.463  14.187   6
   1  -8   0 176.902  16.437   7
  -1  -8   0 167.756  15.144   3
  -1  -8   0 153.329  16.285   4
   1  -8   0 146.938  17.253   3
  -1  -8   0 135.327  14.960   7
   1  -8   0 161.457  18.595   6
   1  -8   0 173.089  15.145   8
  -1  -8   0 166.298  16.627   1
   1  -8   0 177.245  17.856   1
  -1  -8   0 146.130  19.157   9
   1   8   0 155.144  17.408   3
   1   8   0 125.555  21.024   9
   1   8   0 155.434  17.243   4
   1   8   0 155.673  15.523   8
   1   8   0 148.710  16.427   1
  -1   8   0 138.096  16.471   7
  -1   8   0 156.379  17.231   1
   1   8   0 175.179  15.874   5
   1   8   0 156.242  15.055   8
   1   8   0 160.496  18.272   9
  -1   8   0 161.894  16.563   5
  -1   8   0 151.374  18.002   6
   1   8   0 136.357  15.979   7
  -1   8   0 166.785  15.180   2
  -1   8   0 136.023  15.391   8
  -1   8   0 125.791  17.625   3
  -1   8   0 165.608  17.831   4
  -1   8   0 183.036  20.144   9
   2  -8   0 53.7017 12.2793   9
  -2  -8   0 42.6012  8.0673   1
  -2  -8   0 33.4870 10.4376   5
   2  -8   0 44.9162  9.5471   1
   2  -8   0 55.4046 13.0071   5
   2  -8   0 45.4334  9.4353   4
  -2  -8   0 47.3574 11.1232   9
   2  -8   0 41.9613  9.5869   6
  -2  -8   0 50.6072  7.3624   7
  -2  -8   0 67.5404  7.5510   7
   2  -8   0 49.0645  9.1439   3
  -2  -8   0 42.4386  5.5424   6
   2  -8   0 70.6589  8.1316   8
  -2  -8   0 46.5628  7.9053   1
   2  -8   0 45.7654  8.6744   7
  -2  -8   0 45.5452  5.1547   3
  -2  -8   0 37.3294  6.0947   6
  -2   8   0 64.9450 10.7196   3
  -2   8   0 47.5056 11.6675   9
  -2   8   0 46.7164  7.4786   2
  -2   8   0 73.8968 13.8561   9
   2   8   0 31.9276  7.8634   4
   2   8   0 37.6473 10.7208   9
  -2   8   0 44.6805  8.8697   7
   2   8   0 41.0705  6.0476   8
   2   8   0 46.3515  8.2877   1
   2   8   0 50.0498  6.8051   5
   2   8   0 43.6190  7.6291   8
  -2   8   0 47.4261  9.2630   4
  -2   8   0 41.5018  8.1605   8
   2   8   0 50.5907  8.1332   3
   2   8   0 52.2022  8.8015   7
   2   8   0 49.6236  5.9665   2
  -2   8   0 37.1359  9.5703   1
   3  -8   0 419.304  35.983   7
   3  -8   0 397.940  36.467   6
  -3  -8   0 466.124  40.848   5
  -3  -8   0 429.685  34.346   1
   3  -8   0 349.492  36.750   3
   3  -8   0 358.933  34.297   6
   3  -8   0 355.564  41.239   9
  -3  -8   0 430.026  31.913   6
   3  -8   0 417.515  34.878   8
   3  -8   0 433.871  37.609   1
  -3  -8   0 397.210  33.218   7
   3  -8   0 405.174  40.532   9
  -3  -8   0 447.072  34.040   1
  -3  -8   0 397.350  32.931   7
  -3  -8   0 423.304  40.106   9
   3  -8   0 409.045  40.233   5
   3  -8   0 411.044  39.639   4
  -3  -8   0 412.262  31.656   6
   3   8   0 429.057  35.459   3
  -3   8   0 475.246  38.429   1
  -3   8   0 395.714  35.532   2
  -3   8   0 347.368  35.893   6
   3   8   0 391.684  37.820   4
   3   8   0 418.522  32.581   8
   3   8   0 382.021  35.637   7
   3   8   0 440.805  33.465   2
  -3   8   0 418.712  42.032   9
  -3   8   0 452.334  36.908   7
  -3   8   0 360.409  41.315   9
  -3   8   0 439.665  37.808   3
  -4  -8   0 186.112  18.212   1
   4  -8   0 170.481  22.182   1
  -4  -8   0 205.110  22.810   9
  -4  -8   0 227.710  18.214   1
   4  -8   0 191.151  23.744   5
  -4  -8   0 239.858  17.385   7
   4  -8   0 204.374  22.144   3
   4  -8   0 160.341  19.159   8
   4  -8   0 197.474  20.648   7
  -4  -8   0 201.379  23.282   9
   4   8   0 227.829  19.073   8
  -4   8   0 187.788  21.035   7
  -4   8   0 165.479  20.275   2
  -4   8   0 193.109  22.446   1
   4   8   0 200.879  19.071   3
   4   8   0 219.229  17.351   8
  -4   8   0 225.303  21.546   3
   4   8   0 217.868  20.601   7
   4   8   0 204.722  21.714   4
  -4   8   0 206.469  26.483   9
   5  -8   0 199.070  19.978   8
   5  -8   0 202.006  23.646   5
  -5  -8   0 186.330  16.590   1
  -5  -8   0 182.432  16.880   1
   5  -8   0 194.338  20.778   7
  -5  -8   0 258.834  24.447   9
  -5  -8   0 178.144  21.054   9
  -5   8   0 203.545  22.974   1
  -5   8   0 177.051  26.110   9
   5   8   0 206.640  19.116   3
   5   8   0 229.585  21.252   4
  -5   8   0 229.034  21.779   2
  -5   8   0 207.723  21.767   7
   6  -8   0 595.003  57.917   7
  -6  -8   0 812.561  64.374   9
   6  -8   0 664.887  57.438   8
  -6  -8   0 755.956  62.101   9
  -6   8   0 725.504  60.498   2
  -6   8   0 711.161  59.511   7
  -6   8   0 631.293  59.530   1
  -7  -8   0 107.838  16.207   9
  -7   8   0 86.1642 16.1489   2
  -7   8   0 98.1147 16.4009   1
   0  -9   0 -0.7036  5.7026   6
   0  -9   0 -7.5792  5.5995   9
   0  -9   0 6.70782 4.35578   3
   0  -9   0 9.84310 4.27059   8
   0  -9   0 0.73478 4.70096   7
   0  -9   0 0.59741 3.20606   6
   0  -9   0 -3.2120  5.4009   1
   0  -9   0 -1.2509  2.9899   8
   0  -9   0 -1.9055  6.5714   5
   0  -9   0 1.55350 4.94513   1
   0  -9   0 -1.8350  3.8497   7
   0   9   0 1.85158 5.12420   8
   0   9   0 -0.0059  7.2089   9
   0   9   0 -2.4768  3.4741   2
   0   9   0 -2.4121  4.1217  10
   0   9   0 -5.8809  3.7339   5
   0   9   0 -6.5011  3.5592   7
   0   9   0 0.79413 5.51945   4
   0   9   0 1.88816 5.39365   1
   0   9   0 6.53582 5.66967   3
   0   9   0 -0.3199  6.2751   9
  -1  -9   0 66.2194 10.6270   1
  -1  -9   0 75.3291 14.4623   5
  -1  -9   0 73.3892  9.6749   4
   1  -9   0 63.2016 13.8295   9
   1  -9   0 56.7971 11.9316   6
  -1  -9   0 69.7592 12.7504   9
   1  -9   0 77.9870  9.0959   6
   1  -9   0 61.8565  8.3660   8
  -1  -9   0 75.7623  9.3970   7
   1  -9   0 60.3481 10.3050   3
   1  -9   0 55.6479 13.5100   5
  -1  -9   0 80.9303  8.8818   3
  -1  -9   0 72.0295 10.7064   7
   1  -9   0 63.4912 11.5653   1
   1  -9   0 64.3773 11.0867   1
  -1  -9   0 85.6810 10.7400   6
   1  -9   0 48.8431 10.0499   7
  -1  -9   0 68.4113  7.8166   6
  -1   9   0 59.8037  8.4303   2
  -1   9   0 54.5216 11.4529   3
  -1   9   0 46.0985  9.1691   8
  -1   9   0 43.5198 13.1401   9
  -1   9   0 77.6625 11.4558   1
   1   9   0 72.2013  7.9103   2
   1   9   0 63.4135 10.3339   7
  -1   9   0 78.0741 11.2530   7
  -1   9   0 44.2810 10.1109   4
   1   9   0 63.8430 10.8700   4
  -1   9   0 65.0451 12.9802   9
   1   9   0 64.8970  8.9277   5
  -1   9   0 74.8220 12.5238   6
   1   9   0 57.2310 10.7691   3
   1   9   0 89.6838 17.3475   9
   1   9   0 74.5595  9.7154   8
   1   9   0 71.2466 11.7875   9
  -1   9   0 62.0231  9.8957   5
   1   9   0 64.0049 10.2943   1
   2  -9   0 272.228  24.874   6
   2  -9   0 276.450  31.915   9
   2  -9   0 268.793  25.022   8
   2  -9   0 344.744  28.792   1
  -2  -9   0 276.284  25.133   7
   2  -9   0 232.866  30.945   5
   2  -9   0 294.518  28.555   3
  -2  -9   0 314.190  24.994   7
  -2  -9   0 232.980  29.456   9
  -2  -9   0 293.689  27.157   1
   2  -9   0 320.516  29.244   6
  -2  -9   0 285.441  23.248   6
   2  -9   0 266.534  26.554   7
  -2  -9   0 261.456  23.954   6
  -2  -9   0 289.841  23.593   3
  -2  -9   0 242.940  30.332   5
  -2  -9   0 300.403  26.043   1
  -2   9   0 241.409  27.209   1
  -2   9   0 291.509  29.122   3
   2   9   0 239.110  26.585   3
  -2   9   0 307.341  32.130   9
   2   9   0 310.266  28.610   4
  -2   9   0 247.883  26.336   7
  -2   9   0 272.146  25.327   2
   2   9   0 268.670  23.606   2
   2   9   0 312.756  25.701   5
   2   9   0 319.564  32.779   9
   2   9   0 308.334  27.056   7
   2   9   0 308.827  25.341   8
   2   9   0 319.547  26.711   1
  -2   9   0 294.416  29.225   4
  -2   9   0 264.830  26.095   8
  -2   9   0 293.300  32.921   9
   3  -9   0 541.790  46.766   1
  -3  -9   0 498.003  41.707   7
   3  -9   0 514.152  43.429   8
  -3  -9   0 546.737  43.211   1
   3  -9   0 524.850  50.490   5
   3  -9   0 516.113  44.888   7
  -3  -9   0 511.139  42.728   1
  -3  -9   0 520.420  40.485   6
  -3  -9   0 492.483  49.709   5
  -3  -9   0 484.141  49.510   9
  -3  -9   0 480.456  40.105   6
  -3   9   0 496.471  52.167   9
  -3   9   0 500.411  46.584   1
   3   9   0 535.292  45.348   7
  -3   9   0 558.548  44.740   2
  -3   9   0 503.114  45.066   7
  -3   9   0 602.965  48.053   3
   3   9   0 575.822  45.354   3
   3   9   0 572.100  41.823   8
   3   9   0 576.883  42.849   8
   3   9   0 456.603  47.287   4
   4  -9   0 219.670  26.883   5
  -4  -9   0 203.053  19.809   1
   4  -9   0 200.505  24.716   1
  -4  -9   0 200.415  25.312   9
  -4  -9   0 208.713  26.533   5
   4  -9   0 242.468  22.381   8
  -4  -9   0 238.493  25.964   9
   4  -9   0 222.369  23.111   7
  -4  -9   0 235.761  20.745   1
  -4  -9   0 222.172  19.051   7
   4   9   0 265.408  24.924   4
   4   9   0 222.621  21.390   3
  -4   9   0 256.679  24.360   7
  -4   9   0 228.688  22.745   2
  -4   9   0 257.129  26.283   1
  -4   9   0 214.078  23.555   3
   4   9   0 237.944  21.044   8
  -5  -9   0 578.426  47.869   9
  -5  -9   0 516.385  38.268   1
   5  -9   0 435.434  46.417   5
  -5  -9   0 513.818  37.961   1
   5  -9   0 437.703  40.909   8
  -5  -9   0 491.115  45.403   9
   5  -9   0 417.155  42.096   7
  -5   9   0 424.619  42.348   7
  -5   9   0 480.705  44.588   1
  -5   9   0 475.020  42.883   2
   6  -9   0 2.46278 6.11297   7
  -6  -9   0 -7.9647  7.6063   9
  -6  -9   0 0.64597 6.12446   9
  -6   9   0 14.5220  8.2196   2
  -6   9   0 -0.2959  8.6562   1
  -6   9   0 1.46437 7.68182   7
  -7   9   0 443.658  42.008   1
  -7   9   0 415.073  41.396   2
   0 -10   0 11.1039  6.4294   1
   0 -10   0 10.6199  9.0044   5
   0 -10   0 9.63996 4.22245   8
   0 -10   0 12.0972  6.6813   7
   0 -10   0 13.0191  4.7662   6
   0 -10   0 1.59030 7.81386   9
   0 -10   0 3.18242 6.78380   6
   0 -10   0 11.8057  3.6620   8
   0  10   0 8.11188 6.72289   4
   0  10   0 4.16642 8.25913   9
   0  10   0 3.01964 6.43678   3
   0  10   0 0.83731 4.90845   5
   0  10   0 8.17120 6.26124   7
   0  10   0 25.0157 10.2443   9
   0  10   0 23.1296  5.1473   2
   0  10   0 13.8809  6.8463   1
   0  10   0 13.8336  6.9584   8
  -1 -10   0 789.871  65.155   6
   1 -10   0 826.472  77.748   9
  -1 -10   0 882.464  76.146   5
  -1 -10   0 938.478  68.068   6
  -1 -10   0 780.103  68.167   7
   1 -10   0 801.841  76.046   5
   1 -10   0 877.674  65.970   8
  -1 -10   0 938.662  67.530   7
   1 -10   0 890.695  69.686   1
   1 -10   0 886.771  70.744   6
   1 -10   0 786.430  66.054   6
  -1 -10   0 874.852  68.581   1
  -1 -10   0 918.530  77.152   9
   1 -10   0 758.201  68.520   7
  -1  10   0 848.175  67.534   8
  -1  10   0 776.553  74.259   4
   1  10   0 803.658  66.357   2
   1  10   0 794.875  67.779   1
   1  10   0 768.743  66.759   8
  -1  10   0 797.238  72.457   3
  -1  10   0 851.970  68.999   7
   1  10   0 784.680  74.118   4
   1  10   0 881.567  71.956   3
  -1  10   0 895.088  79.500   9
  -1  10   0 942.705  67.909   2
   1  10   0 917.893  80.511   9
   1  10   0 799.284  68.454   7
   1  10   0 850.786  70.594   5
  -1  10   0 861.474  69.190   1
  -1  10   0 854.574  76.957   9
  -2 -10   0 83.0283 12.0832   1
  -2 -10   0 85.8647  9.4850   6
  -2 -10   0 102.001   9.200   3
  -2 -10   0 86.6638 11.6916   7
   2 -10   0 88.7441 11.2591   8
  -2 -10   0 84.1809 10.4178   6
   2 -10   0 80.6072 17.6913   5
   2 -10   0 94.3963 15.6023   6
   2 -10   0 85.3915 14.2155   1
   2 -10   0 82.3163 12.8000   7
  -2 -10   0 100.498  16.196   9
  -2 -10   0 87.2764 16.9697   5
   2  10   0 105.466  14.221   4
   2  10   0 87.3828  9.6929   2
  -2  10   0 93.0879 14.7999   1
  -2  10   0 101.770  12.217   2
  -2  10   0 107.243  15.852   3
   2  10   0 79.8653 11.8179   8
   2  10   0 88.2052 13.3255   7
  -2  10   0 98.6843 13.9625   7
  -2  10   0 83.4552 13.7918   4
   2  10   0 77.8309 13.1347   3
   3 -10   0 49.7792 11.7793   1
   3 -10   0 54.6527  9.6751   8
  -3 -10   0 59.7576 13.4874   9
  -3 -10   0 42.7027  5.8205   6
  -3 -10   0 57.7507  9.2094   1
  -3 -10   0 64.0117 14.7547   5
   3 -10   0 40.6355  9.9400   7
  -3 -10   0 53.6463  6.4932   6
   3 -10   0 40.6319 13.7611   5
  -3 -10   0 52.5361  7.8098   7
  -3  10   0 72.9378 10.4936   2
   3  10   0 34.2770 10.1087   7
   3  10   0 50.3078  9.7148   3
  -3  10   0 67.7838 12.5598   3
  -3  10   0 70.4377 12.3673   7
   3  10   0 60.8298 11.2105   4
  -3  10   0 37.2428 11.4143   1
   3  10   0 81.0032 10.2653   8
  -4 -10   0 456.472  44.918   9
   4 -10   0 371.952  37.780   8
  -4 -10   0 486.210  45.278   5
   4 -10   0 355.397  38.970   7
  -4 -10   0 451.639  36.344   1
  -4 -10   0 484.122  37.186   1
  -4 -10   0 459.809  35.523   7
  -4 -10   0 441.790  44.325   9
   4 -10   0 423.992  45.136   5
  -4  10   0 485.347  40.948   7
  -4  10   0 456.517  39.536   2
  -4  10   0 451.104  41.428   3
   4  10   0 441.540  37.352   8
  -4  10   0 409.486  41.996   1
   4  10   0 449.603  42.432   4
   5 -10   0 19.7666 12.0626   5
   5 -10   0 21.0473  8.9956   8
  -5 -10   0 11.6838  4.2996   1
  -5 -10   0 25.5567  5.1613   1
  -5 -10   0 8.14443 8.18717   9
  -5 -10   0 11.2407  8.9414   9
  -5 -10   0 19.1606 10.6943   5
   5 -10   0 19.3146  8.4964   7
  -5  10   0 22.8389  8.7397   2
  -5  10   0  7.3083 10.7768   1
  -5  10   0 18.6269  8.9684   7
   5  10   0 16.0183  9.4330   4
   6 -10   0 95.3886 16.1760   7
  -6 -10   0 181.249  22.840   5
  -6 -10   0 118.219  16.664   9
  -6 -10   0 110.241  18.348   9
  -6  10   0 167.952  19.194   2
  -6  10   0 121.078  20.534   1
   0 -11   0 -7.8946  4.5222   1
   0 -11   0 1.83463 4.25540   6
   0 -11   0 2.46871 3.27207   8
   0 -11   0 25.3049  8.5914   6
   0 -11   0 12.7354  6.5782   7
   0 -11   0 -4.8647  7.4632   5
   0  11   0 -1.0940  4.0997   2
   0  11   0 5.11557 6.41185   8
   0  11   0 -3.5463  6.1121   4
   0  11   0 1.27343 5.79504   3
   0  11   0 -0.3882  5.3743   7
   1 -11   0 509.147  48.708   7
   1 -11   0 607.774  56.317   5
  -1 -11   0 616.448  55.302   5
  -1 -11   0 533.746  48.282   1
   1 -11   0 577.439  45.620   8
  -1 -11   0 636.671  48.254   6
  -1 -11   0 631.639  49.542   7
   1 -11   0 578.452  50.600   6
  -1 -11   0 574.627  55.473   9
   1 -11   0 520.893  46.138   6
   1 -11   0 500.382  48.775   1
  -1 -11   0 581.270  45.502   6
  -1  11   0 593.865  49.537   1
  -1  11   0 628.939  52.801   3
  -1  11   0 513.234  46.862   2
  -1  11   0 594.238  49.636   7
   1  11   0 661.258  52.109   3
   1  11   0 517.576  48.520   7
   1  11   0 515.101  47.021   8
  -1  11   0 619.730  48.141   8
   1  11   0 555.800  45.854   2
  -1  11   0 593.713  53.543   4
   1  11   0 555.806  52.813   4
  -2 -11   0 409.036  33.266   6
  -2 -11   0 431.356  36.405   7
  -2 -11   0 452.376  34.183   3
  -2 -11   0 470.878  43.212   9
  -2 -11   0 359.423  34.188   6
   2 -11   0 421.818  38.126   7
   2 -11   0 441.565  45.259   5
  -2 -11   0 340.757  41.466   5
   2 -11   0 379.406  38.391   1
  -2 -11   0 506.063  37.612   1
   2 -11   0 438.498  35.447   8
  -2  11   0 386.794  37.600   7
   2  11   0 371.613  39.794   4
  -2  11   0 427.445  36.355   2
   2  11   0 353.494  38.282   3
  -2  11   0 413.475  40.637   3
   2  11   0 420.893  35.811   8
   2  11   0 424.439  38.091   7
  -2  11   0 390.828  38.673   1
  -3 -11   0 731.542  61.151   7
   3 -11   0 819.652  65.321   7
  -3 -11   0 743.488  62.436   1
   3 -11   0 696.893  72.006   5
   3 -11   0 872.487  63.353   8
  -3 -11   0 786.525  59.667   6
  -3 -11   0 720.034  71.130   9
  -3 -11   0 758.169  71.583   5
  -3 -11   0 746.083  59.150   6
   3 -11   0 759.431  66.371   1
  -3  11   0 840.507  64.428   2
  -3  11   0 667.780  67.620   3
  -3  11   0 727.080  66.560   1
   3  11   0 880.152  63.002   8
   3  11   0 775.201  69.638   4
  -3  11   0 806.476  65.550   7
  -4 -11   0 11.4785  4.7692   7
  -4 -11   0 16.0549 10.8741   5
  -4 -11   0 11.3128  6.1269   1
   4 -11   0 -4.2806 10.2972   5
   4 -11   0 8.51594 7.00889   7
  -4 -11   0 12.5016  9.6562   9
   4 -11   0 10.6088  7.2097   8
  -4  11   0 15.8928  7.9904   2
   4  11   0 12.2493  9.0406   4
  -4  11   0 5.06287 7.34481   7
  -4  11   0 15.9821 11.9210   1
   4  11   0 27.1785  8.0569   8
  -5 -11   0 -3.6463  3.8624   1
  -5 -11   0 -11.944   8.280   9
  -5 -11   0 19.9719 11.1810   5
   5 -11   0 6.04637 7.15484   7
   5 -11   0  2.1726 10.1820   5
  -5 -11   0 -1.8861  7.4290   9
  -5  11   0  0.1154 10.8785   1
  -5  11   0 -0.7751  5.9638   2
  -5  11   0 3.17260 7.14189   7
   5  11   0 -0.6789  9.3887   4
  -6 -11   0 337.976  37.922   5
   6 -11   0 325.513  33.315   7
  -6 -11   0 319.537  35.428   9
  -6  11   0 330.327  33.326   2
  -6  11   0 317.251  36.265   1
   0 -12   0 157.464  20.226   7
   0 -12   0 182.462  25.090   5
   0 -12   0 183.138  17.541   6
   0 -12   0 194.152  21.571   6
   0 -12   0 185.280  20.897   1
   0  12   0 177.425  22.494   4
   0  12   0 187.251  19.767   8
   0  12   0 168.651  17.149   2
   0  12   0 160.687  21.456   3
   0  12   0 166.684  20.753   7
  -1 -12   0 21.3486 10.2377   5
   1 -12   0 26.5050  8.6332   7
   1 -12   0 20.0252  9.6445   6
   1 -12   0 21.6300  5.9093   8
  -1 -12   0 24.1587  8.9365   7
  -1 -12   0 23.3425  8.0490   1
  -1 -12   0 11.3235  5.2382   6
  -1 -12   0 9.92546 6.62389   6
   1 -12   0 22.5175  9.3737   1
   1 -12   0 6.14411 9.39767   5
  -1  12   0 26.3175 10.5887   3
   1  12   0 8.48334 8.08438   4
  -1  12   0 21.7699  6.8275   2
  -1  12   0 20.2726  9.7699   4
   1  12   0 13.0583  7.9730   7
  -1  12   0 33.0370 10.0773   8
  -1  12   0 17.1749  8.4580   7
   1  12   0 18.5922  8.4970   8
  -2 -12   0 2203.71  171.81   7
   2 -12   0 2125.62  174.49   1
  -2 -12   0 2215.65  168.10   6
  -2 -12   0 2010.76  171.65   1
   2 -12   0 2225.82  189.59   5
  -2 -12   0 2562.65  188.94   5
   2 -12   0 2611.08  171.46   8
  -2 -12   0 2369.72  169.79   6
   2 -12   0 2175.08  173.88   7
  -2  12   0 2213.49  174.39   2
  -2  12   0 2292.16  174.42   7
   2  12   0 1913.70  188.30   4
  -2  12   0 2044.80  181.86   3
  -2  12   0 2230.60  175.00   1
   2  12   0 2269.62  172.07   8
   2  12   0 2231.13  174.00   7
   3 -12   0 3.26921 8.85683   1
   3 -12   0 5.94118 7.30308   8
  -3 -12   0 2.67036 3.37403   6
  -3 -12   0 -1.4121  3.4695   6
   3 -12   0  5.2351 10.3928   5
  -3 -12   0  8.1955 10.2606   5
   3 -12   0 0.55458 5.67298   7
  -3 -12   0 -5.9681  4.7519   7
  -3 -12   0 -5.2908  5.3175   1
  -3  12   0  8.0649 11.0869   1
  -3  12   0 5.44388 6.11946   2
  -3  12   0 9.36000 7.80541   3
   3  12   0 -4.1276  7.5016   4
  -3  12   0 4.80362 7.87161   7
   3  12   0 10.6115  7.2399   8
  -4 -12   0 1142.74   83.42   7
   4 -12   0 1130.30   89.17   7
   4 -12   0 1007.36   97.33   5
  -4 -12   0 958.470  95.601   5
  -4 -12   0 1033.44   84.43   1
  -4  12   0 1081.45   88.21   2
  -4  12   0 1100.42   92.11   1
   4  12   0 1068.21   85.92   8
   4  12   0 1050.16   95.33   4
  -4  12   0 1147.59   89.57   7
   5 -12   0 5.34496 7.06727   7
   5 -12   0  5.1248 10.4757   5
  -5 -12   0 -4.0980  8.6838   9
  -5 -12   0 -0.2998  9.7573   5
  -5 -12   0 -1.3442  4.3043   1
   5  12   0  4.3439 11.0434   4
  -5  12   0 -1.1521  8.3586   2
  -5  12   0  0.2947 10.8197   1
   0 -13   0 3.39095 6.52078   7
   0 -13   0 -0.1373  6.8013   6
   0 -13   0 3.83079 6.98582   1
   0 -13   0 17.3944 10.8784   5
   0  13   0 0.87194 4.99237   2
   0  13   0 -4.0377  8.3855   8
   0  13   0 -5.2229  7.3053   4
   0  13   0 5.61953 7.13263   7
  -1 -13   0 517.475  42.956   6
   1 -13   0 503.814  44.648   7
  -1 -13   0 506.948  50.376   5
   1 -13   0 522.863  52.164   5
  -1 -13   0 516.236  40.444   6
  -1 -13   0 381.062  42.605   1
  -1 -13   0 505.502  44.460   7
   1 -13   0 535.432  45.943   1
   1  13   0 557.426  45.916   7
   1  13   0 468.499  48.111   4
  -1  13   0 463.245  41.912   2
  -1  13   0 523.523  45.725   7
   1  13   0 466.576  42.953   8
   2 -13   0 583.779  46.285   8
  -2 -13   0 674.690  57.332   5
  -2 -13   0 476.495  47.487   1
  -2 -13   0 485.771  44.284   6
  -2 -13   0 542.834  45.980   6
   2 -13   0 536.593  51.015   1
  -2 -13   0 565.859  47.991   7
   2 -13   0 590.358  57.984   5
   2 -13   0 557.022  50.060   7
   2  13   0 566.304  53.920   4
  -2  13   0 604.997  51.003   7
   2  13   0 614.823  48.585   8
  -2  13   0 594.353  48.155   2
  -3 -13   0 810.417  61.270   7
  -3 -13   0 715.018  62.032   1
  -3 -13   0 765.923  71.562   5
   3 -13   0 688.338  65.663   1
   3 -13   0 722.906  64.774   7
  -3 -13   0 706.882  58.274   6
   3 -13   0 821.916  62.424   8
   3 -13   0 715.290  72.643   5
  -3 -13   0 711.278  58.690   6
   3  13   0 821.503  63.199   8
  -3  13   0 850.954  66.342   7
   3  13   0 637.339  68.754   4
  -3  13   0 917.357  64.583   2
  -3  13   0 754.252  69.099   3
  -4 -13   0 -7.1229  9.0806   5
   4 -13   0 -15.121  10.829   5
  -4 -13   0 0.65504 5.94361   1
  -4  13   0 7.81057 7.81965   2
   4  13   0 31.3427 10.6171   8
   4  13   0 2.63890 8.86012   4
  -4  13   0 11.8081 11.8737   1
  -5 -13   0 -1.0575 10.2435   5
  -5 -13   0 -0.7319  4.8872   1
   5  13   0 -3.0589 11.9646   4
  -5  13   0  9.9950 12.8815   1
  -5  13   0 -0.3189  7.9615   2
   0 -14   0  9.8536 10.3516   5
   0 -14   0 5.12042 9.26286   1
   0 -14   0 14.3707  8.2518   6
   0 -14   0 27.2365  9.5397   7
   0  14   0 29.3687 10.8417   7
   1 -14   0 289.167  29.016   7
  -1 -14   0 252.296  24.344   6
  -1 -14   0 215.177  27.427   1
   1 -14   0 296.354  30.241   1
  -1 -14   0 296.066  29.057   7
  -1 -14   0 350.956  35.624   5
   1 -14   0 306.704  36.851   5
  -1 -14   0 263.648  26.921   6
   1  14   0 308.818  32.919   4
  -1  14   0 271.702  30.016   7
  -2 -14   0 49.1154 11.2885   1
   2 -14   0 56.9729 14.3728   1
  -2 -14   0 59.2736 15.8768   5
   2 -14   0 45.5958 16.9249   5
  -2 -14   0 52.7447  9.4330   6
  -2 -14   0 55.9240  8.0694   6
  -2 -14   0 47.9563 11.1001   7
  -2  14   0 58.3575 10.5026   2
  -2  14   0 53.5679 14.0195   7
   2  14   0 68.6810 14.9349   4
   3 -14   0 31.5673 14.8798   5
  -3 -14   0 13.9377 11.7055   5
   3 -14   0 21.2380  9.4951   8
  -3 -14   0 22.3209  8.9396   1
  -3 -14   0 14.6146  4.7832   6
  -3 -14   0 16.8238  5.1453   6
  -3 -14   0 15.7531  7.1212   7
  -3  14   0 12.4334  7.9230   2
   3  14   0  3.2868 10.8097   4
  -4 -14   0 154.211  16.960   1
  -4 -14   0 144.628  24.606   5
   4 -14   0 138.019  27.384   5
  -4  14   0 138.553  18.775   2
   4  14   0 150.839  23.191   4
   0 -15   0 3.05428 9.57787   5
   0 -15   0 1.01081 8.29286   1
   0  15   0 2.06938 9.89988   7
  -1 -15   0 11.4262  7.8350   6
  -1 -15   0 36.2786 14.3150   5
   1 -15   0  3.3396 10.8784   5
   1 -15   0 8.32321 9.70648   1
  -1 -15   0 13.8796  9.3263   1
  -1  15   0 17.7757  9.3945   7
  -2 -15   0 222.174  19.420   6
   2 -15   0 198.540  31.121   5
  -2 -15   0 193.427  23.088   1
  -2 -15   0 240.930  30.190   5
   2 -15   0 183.745  25.290   1
  -2 -15   0 184.513  20.195   6
  -3 -15   0 87.4611 19.7024   5
  -9   0   1 135.056  12.739  10
  -9   0   1 139.380  19.043   2
  -8   0   1 -4.6373  6.7642   2
  -8   0   1 -4.2570  6.7412   9
  -8   0   1 9.29567 6.79283   9
  -8   0   1 -4.3623  3.3137  10
  -7   0   1 515.454  35.990  10
  -7   0   1 508.507  44.568   9
  -7   0   1 447.050  44.393   9
  -7   0   1 457.127  42.538   2
   7   0  -1 497.649  44.753   4
  -6   0   1 1.70519 4.92280   9
  -6   0   1 4.46242 2.80961   1
  -6   0   1 0.73764 4.47470   9
   6   0  -1 0.55060 4.90094   4
  -6   0   1 2.38703 2.76832  10
  -6   0   1 2.18309 4.92357   2
  -6   0   1 -1.6358  2.7452   1
   6   0  -1 -1.1138  2.5829   3
  -5   0   1 276.630  26.467   9
  -5   0   1 307.481  26.499   9
  -5   0   1 300.945  22.534   7
  -5   0   1 263.426  23.301   1
   5   0  -1 251.568  26.358   4
  -5   0   1 283.661  23.106   1
  -5   0   1 292.524  22.529   7
  -5   0   1 317.088  26.054   2
  -5   0   1 315.773  25.639   5
   4   0  -1 3.80568 2.74389   4
   4   0  -1 0.96285 1.96052   7
  -4   0   1 -0.5056  2.0353   1
  -4   0   1 -1.3107  3.1114   9
  -4   0   1 -0.8607  1.4455   7
  -4   0   1 0.89842 2.99546   9
   4   0  -1 1.21658 2.45924   1
  -4   0   1 -3.3840  2.6248   2
  -4   0   1 0.45899 2.26920   1
   3   0  -1 19.9349  3.2209   9
  -3   0   1 21.2641  4.0046   9
   3   0  -1 29.0818  3.7029   1
  -3   0   1 20.7102  2.8656   1
   3   0  -1 25.7012  3.1801   7
  -3   0   1 23.9148  4.2519   9
  -3   0   1 20.0333  2.6087   7
  -3   0   1 21.7280  3.2370   5
  -3   0   1 25.7988  4.5435   2
  -3   0   1 23.6999  3.3099   1
   2   0  -1 2.60788 1.52742   9
  -2   0   1 -0.3101  1.9442   2
  -2   0   1 3.80004 1.17824   1
  -2   0   1 1.06474 1.30880   1
  -2   0   1 6.30262 2.37347   9
   2   0  -1 0.36516 1.91475   2
   2   0  -1 2.31084 1.89391   1
  -2   0   1 -0.2630  1.9437   9
  -2   0   1 0.61902 0.99387   7
   2   0  -1 8.61291 1.87895   7
  -2   0   1 3.08129 1.22075   5
   2   0  -1 1.05092 1.36516   1
   2   0  -1 0.99725 0.97252   6
   1   0  -1 1152.68  105.66   9
   1   0  -1 1352.23  102.60   5
  -1   0   1 1265.77   98.68   2
   1   0  -1 1255.27  106.07   9
   1   0  -1 1361.86  101.27   3
  -1   0   1 1425.28   89.23  10
   1   0  -1 1250.71   96.46   1
   1   0  -1 1230.14   96.48   7
   1   0  -1 1103.68  103.11   5
   1   0  -1 1436.42   96.60   1
   0   0  -1 4.87599 1.19249   7
   0   0   1 8.95445 1.24975  10
   0   0  -1 1.96364 1.22729   8
   0   0  -1 -1.0564  0.7116   4
   0   0  -1 0.11721 0.81035   6
   0   0   1 1.05540 0.94413   4
   0   0  -1 1.08955 1.56854   9
   0   0  -1 1.01467 0.85799   1
   0   0  -1 0.71490 1.05314   1
   0   0   1 1.52031 0.91484   1
   0   0   1 -0.1668  1.3479   9
   0   0  -1 1.77259 1.20259   5
   0   0  -1 -0.0173  0.8919   3
  -1   0  -1 7127.85  569.06   6
   1   0   1 7301.42  626.05   9
   1   0   1 8629.14  570.25   6
  -1   0  -1 7788.09  626.33   9
   1   0   1 7118.76  571.09   1
  -1   0  -1 8319.25  608.33   5
   1   0   1 8244.29  609.94   5
   1   0   1 7095.00  570.94   7
   1   0   1 7290.01  626.15   9
   1   0   1 7028.76  625.83   4
  -1   0  -1 7458.62  626.06   9
  -1   0  -1 7376.12  583.04   2
   1   0   1 8479.49  575.28   8
  -1   0  -1 7741.40  571.43   1
  -1   0  -1 7831.81  571.17   7
  -1   0  -1 7594.17  575.09   8
   2   0   1 1.57529 2.23568   1
   2   0   1 6.63856 2.71144   8
  -2   0  -1 4.67250 2.79373   1
   2   0   1 2.86562 1.88383   6
   2   0   1 -1.7145  1.9339   5
   2   0   1 -0.6027  2.5851   9
  -2   0  -1 2.33711 3.08493   9
   2   0   1 1.55335 2.73582   9
  -2   0  -1 2.53765 2.63879   4
  -2   0  -1 0.06537 1.72179   6
   2   0   1 1.22500 1.86242   7
  -2   0  -1 -2.5106  1.8424   2
   2   0   1 1.49583 2.74303   4
  -2   0  -1 2.16619 1.69069  10
  -2   0  -1 4.48489 3.11983   9
  -2   0  -1 3.26505 2.52397   5
  -2   0  -1 3.22486 2.05719   7
   2   0   1 6.22627 2.49246   1
  -3   0  -1 455.345  40.492   9
  -3   0  -1 400.252  36.937   2
   3   0   1 432.152  35.738   8
   3   0   1 454.069  35.976   7
  -3   0  -1 460.212  36.666   1
   3   0   1 427.896  38.150   5
   3   0   1 450.179  40.175   9
   3   0   1 556.100  36.085   6
  -3   0  -1 458.767  33.134  10
  -3   0  -1 502.442  39.404   4
  -3   0  -1 458.515  36.554   1
  -3   0  -1 460.372  36.037   7
   3   0   1 447.095  39.916   4
  -3   0  -1 473.899  40.410   9
  -3   0  -1 496.175  35.468   6
   3   0   1 413.056  40.149   9
   3   0   1 444.069  36.455   1
  -4   0  -1 1.55970 2.63728  10
  -4   0  -1 2.47858 3.53175   1
   4   0   1 1.51083 3.45026   8
  -4   0  -1 4.03146 2.56423   6
  -4   0  -1 7.46185 4.92321   9
   4   0   1 -5.9137  3.7295   4
   4   0   1 1.33862 2.71190   5
  -4   0  -1 0.72996 3.97002   9
  -4   0  -1 1.29154 2.70073   7
  -4   0  -1 1.45714 3.46838   2
   4   0   1 5.31890 3.72806   1
  -4   0  -1 6.52981 4.06686   1
   4   0   1 -1.3405  3.5255   9
  -5   0  -1 2489.73  187.98   1
  -5   0  -1 2495.49  185.19   6
  -5   0  -1 2459.26  187.01   7
   5   0   1 2424.56  206.08   4
  -5   0  -1 2286.90  187.77   1
  -5   0  -1 2775.00  207.27   9
  -5   0  -1 2500.76  206.53   9
   5   0   1 2409.42  187.62   8
  -5   0  -1 2541.37  173.07  10
  -5   0  -1 2390.99  191.97   2
  -6   0  -1 -2.7406  3.7646   7
  -6   0  -1 2.85303 5.65613   2
  -6   0  -1 4.16511 6.44242   9
  -6   0  -1 2.62628 6.64493   9
  -6   0  -1 -2.0834  4.4944   1
  -6   0  -1 3.03669 4.05322  10
  -7   0  -1 1879.02  146.11   7
  -7   0  -1 1860.17  163.40   9
  -7   0  -1 1823.40  146.66   1
  -7   0  -1 1917.31  162.75   9
  -7   0  -1 1998.72  135.58  10
  -7   0  -1 2011.98  151.68   2
  -8   0  -1 5.02132 5.27636  10
  -8   0  -1 -3.8975  5.2478   1
  -8   0  -1 0.92509 7.79423   2
  -8   0  -1 0.71391 8.00743   9
  -9  -1   1 5.83511 9.20391   2
  -9   1   1 9.09133 9.26766   2
  -9   1   1 12.1163  5.2735  10
  -8  -1   1 64.3514 11.3730   9
  -8  -1   1 64.9215 11.2093   9
  -8  -1   1 67.3440  7.5472  10
  -8  -1   1 70.9128 12.7551   2
  -8   1   1 85.1757 12.9825   9
  -8   1   1 75.2060  7.4439   1
  -8   1   1 73.1090  8.5176  10
  -8   1   1 76.2364 13.4053   2
  -8   1   1 59.4928 12.6380   9
  -7  -1   1 51.4572  8.9180   9
  -7  -1   1 52.5592  5.8542  10
   7  -1  -1 38.5661  9.4683   4
  -7  -1   1 42.7776  9.1449   2
  -7  -1   1 50.0380  8.9251   9
   7   1  -1 29.6103  8.1253   4
  -7   1   1 33.5636  9.3261   9
  -7   1   1 49.9110  9.7232   9
  -7   1   1 57.0735  7.1213   1
  -7   1   1 52.4918  6.7567   1
  -7   1   1 44.2695  9.8871   2
   6  -1  -1 193.744  18.850   4
  -6  -1   1 159.992  16.669   9
  -6  -1   1 170.459  16.809   9
  -6  -1   1 175.856  12.996  10
  -6  -1   1 125.319  16.020   2
   6  -1  -1 152.116  15.324   3
  -6   1   1 157.473  17.098   2
  -6   1   1 180.042  18.482   9
  -6   1   1 189.137  18.166   9
  -6   1   1 167.707  15.392   1
  -6   1   1 137.594  13.870   7
   6   1  -1 151.649  16.586   4
  -6   1   1 161.178  14.703   1
   5  -1  -1 1.91413 4.29111   4
  -5  -1   1 2.10541 3.36280   9
  -5  -1   1 5.74624 4.46119   2
   5  -1  -1 8.67406 3.86405   1
  -5  -1   1 4.97642 3.50373   9
  -5  -1   1 7.24210 2.34164  10
   5  -1  -1 8.44688 3.13462   3
  -5   1   1 13.3367  3.7100   1
  -5   1   1 4.67521 4.44357   9
   5   1  -1 9.04938 2.72851   7
  -5   1   1 6.00319 4.05987   5
  -5   1   1 8.93637 5.19217   9
  -5   1   1 11.5405  4.1047   1
  -5   1   1 9.92964 4.65414   2
   5   1  -1 4.77055 3.40177   4
  -5   1   1 10.7260  3.2700   7
   4  -1  -1 1078.79   85.97   5
   4  -1  -1 1102.03   81.61   7
   4  -1  -1 1038.34   89.53   4
   4  -1  -1 1024.49   89.17   9
   4  -1  -1 1190.68   84.80   3
   4  -1  -1 1057.90   82.01   1
  -4  -1   1 967.008  88.770   9
  -4  -1   1 947.885  83.781   2
  -4  -1   1 982.100  88.838   9
  -4  -1   1 1096.68   74.48  10
  -4   1   1 1099.90   81.43   7
  -4   1   1 1133.40   90.35   9
   4   1  -1 1170.54   80.82   7
   4   1  -1 1037.05   80.89   1
  -4   1   1 1137.22   82.18   1
  -4   1   1 1153.95   84.55   2
  -4   1   1 999.183  81.280   1
  -4   1   1 1053.58   89.95   9
   3  -1  -1 2539.00  177.87   7
   3  -1  -1 2363.53  176.52   6
   3  -1  -1 2217.26  184.73   3
  -3  -1   1 2445.98  188.42   5
   3  -1  -1 2505.31  176.53   6
   3  -1  -1 2205.53  188.56   5
  -3  -1   1 2399.91  194.20   9
  -3  -1   1 2402.68  188.50   5
   3  -1  -1 2671.79  194.88   9
  -3  -1   1 2617.70  194.37   9
   3  -1  -1 2149.80  194.34   4
  -3  -1   1 2321.78  181.70   2
   3  -1  -1 2378.33  178.14   1
   3   1  -1 2793.95  182.28   2
  -3   1   1 2278.07  195.17   9
  -3   1   1 2334.88  177.98   1
  -3   1   1 2047.50  181.69   2
  -3   1   1 2161.71  189.30   5
  -3   1   1 2293.79  177.35   1
  -3   1   1 2125.31  195.04   9
  -3   1   1 2508.98  189.08   5
   3   1  -1 2343.41  176.97   7
   3   1  -1 2268.09  176.98   1
   2  -1  -1 396.045  29.547   7
   2  -1  -1 337.813  29.493   1
  -2  -1   1 421.034  30.606   2
   2  -1  -1 376.999  29.248   6
   2  -1  -1 420.761  30.451   3
   2  -1  -1 383.105  29.800   7
   2  -1  -1 397.482  32.806   9
   2  -1  -1 449.210  30.789   2
   2  -1  -1 362.202  30.868   5
   2  -1  -1 386.464  31.248   5
   2  -1  -1 369.273  30.145   1
  -2   1   1 357.109  29.394   1
  -2   1   1 387.202  30.519   2
  -2   1   1 361.366  29.346   7
  -2   1   1 398.385  28.990   6
  -2   1   1 355.529  31.103   5
   2   1  -1 406.865  30.603   2
  -2   1   1 368.418  32.988   9
  -2   1   1 431.177  32.021   5
  -2   1   1 334.916  32.774   9
  -2   1   1 301.426  29.481   1
   1  -1  -1 67.3112  7.2330   6
   1  -1  -1 84.0161  6.5670   5
   1  -1  -1 71.4645  8.3503   5
   1  -1  -1 55.7873  6.5524   1
   1  -1  -1 64.1684  6.8467   1
   1  -1  -1 61.8080  7.1536   3
   1  -1  -1 83.2233  6.7798   7
   1  -1  -1 72.7779  6.1086   8
   1  -1  -1 50.5462  7.7143   9
   1  -1  -1 55.7314  6.1802   7
   1   1  -1 76.8463  6.3142   5
   1   1  -1 67.2386  5.6574   7
  -1   1   1 77.0436  5.9835  10
  -1   1   1 75.5443  6.6358   2
   1   1  -1 72.3405  5.8348   1
   1   1  -1 81.4660  6.5198   9
  -1   1   1 79.8753  8.6372   5
   1   1  -1 71.7303  5.8042   1
   1   1  -1 77.7145  6.5009   9
  -1   1   1 72.7048  6.4817   7
  -1   1   1 49.3534  6.8257   6
   0  -1   1 1713.64  149.77   9
   0  -1  -1 1962.69  137.18   8
   0  -1   1 1794.37  142.42   3
   0  -1   1 1868.64  137.19   8
   0  -1  -1 1579.39  150.04   9
   0  -1  -1 1812.03  136.60   7
   0  -1  -1 2058.91  142.50   3
   0   1  -1 1989.76  150.04   9
   0   1  -1 1777.68  136.52   7
   0   1  -1 1627.62  136.96   8
   0   1   1 1732.09  126.20  10
   0   1   1 1678.89  136.63   1
   0   1  -1 2041.75  136.71   1
   0   1  -1 1780.61  136.62   1
   0   1  -1 1868.38  135.76   6
   0   1  -1 1847.21  145.51   5
   1  -1   1 1221.16   99.64   1
  -1  -1  -1 1227.21  101.27   2
  -1  -1  -1 1204.47   99.77   1
   1  -1   1 1254.22  109.27   4
  -1  -1  -1 1560.37  109.85   9
   1  -1   1 1283.21   99.55   7
   1  -1   1 1370.67   98.94   6
   1  -1   1 1446.78  106.27   5
   1  -1   1 1389.28  104.03   3
  -1  -1  -1 1332.70   99.56   8
  -1  -1  -1 1181.03   99.30   7
  -1  -1  -1 1565.85   99.99   7
   1  -1   1 1334.31   99.79   1
  -1  -1  -1 1137.95   91.80  10
   1  -1   1 1401.72   99.88   8
  -1  -1  -1 1235.33  108.93   4
  -1  -1  -1 1351.10  106.00   5
  -1  -1  -1 1236.63   98.76   6
   1   1   1 1533.36   99.56   7
   1   1   1 1196.21  109.00   4
  -1   1  -1 1367.47  106.30   5
  -1   1  -1 1444.52   99.89   8
   1   1   1 1314.61  105.88   5
   1   1   1 1347.60  109.53   9
  -1   1  -1 1257.92  109.47   9
   1   1   1 1257.17   98.82   6
  -1   1  -1 1298.93   99.78   1
   1   1   1 1383.98   99.64   8
  -1   1  -1 1427.95   99.62   7
   1   1   1 1170.37  109.33   9
  -1   1  -1 1469.12   99.99   1
  -1   1  -1 1207.02   98.83   6
   1   1   1 1247.58   99.76   1
  -1   1  -1 1302.87  109.51   9
   1   1   1 1298.18   99.57   1
   1   1   1 1348.89  103.60   3
   1   1   1 1302.78   91.87  10
  -2  -1  -1 5070.77  353.55   6
   2  -1   1 4944.26  390.53   9
  -2  -1  -1 4547.57  356.03   1
  -2  -1  -1 4651.03  355.90   7
  -2  -1  -1 4910.13  328.68  10
  -2  -1  -1 4738.36  355.53   7
   2  -1   1 4537.42  355.92   1
   2  -1   1 4690.80  357.23   8
   2  -1   1 4671.36  390.06   4
  -2  -1  -1 5438.30  389.68   4
   2  -1   1 4522.47  378.79   5
   2  -1   1 5540.85  353.95   6
   2  -1   1 4831.62  355.81   7
  -2  -1  -1 4272.13  390.21   9
   2  -1   1 4728.42  390.25   9
  -2  -1  -1 4939.83  362.95   2
  -2  -1  -1 4945.41  378.88   5
   2  -1   1 4688.90  355.87   1
   2   1   1 4397.65  378.42   5
   2   1   1 4616.77  355.43   7
   2   1   1 4626.47  390.01   9
  -2   1  -1 4674.36  355.76   7
   2   1   1 4542.12  355.69   1
  -2   1  -1 4585.89  357.08   8
  -2   1  -1 4477.95  363.23   2
  -2   1  -1 4653.39  390.38   9
   2   1   1 4271.70  389.58   4
   2   1   1 4929.94  353.63   6
  -2   1  -1 5101.83  379.28   5
   2   1   1 4394.25  356.86   8
   2   1   1 4706.66  390.18   9
  -2   1  -1 5052.37  353.67   6
   2   1   1 5257.27  363.07   2
  -2   1  -1 4821.93  356.06   1
  -2   1  -1 4527.81  390.32   9
  -3  -1  -1 458.275  37.832   5
   3  -1   1 468.984  35.275   8
  -3  -1  -1 458.381  32.483  10
   3  -1   1 431.992  39.289   9
   3  -1   1 442.284  39.591   9
   3  -1   1 512.862  39.650   4
  -3  -1  -1 487.760  35.047   7
   3  -1   1 473.373  37.768   5
   3  -1   1 409.523  35.271   7
  -3  -1  -1 399.531  35.879   2
  -3  -1  -1 394.065  37.583   4
  -3  -1  -1 389.466  38.932   9
  -3  -1  -1 478.792  35.589   1
  -3  -1  -1 527.535  40.130   9
   3  -1   1 478.207  36.188   1
   3  -1   1 419.253  34.854   6
  -3  -1  -1 464.335  35.924   1
  -3  -1  -1 506.749  34.492   6
  -3  -1  -1 485.390  35.690   7
  -3   1  -1 432.550  35.315   7
   3   1   1 429.439  38.632   4
  -3   1  -1 397.369  35.708   1
   3   1   1 398.800  38.976   9
  -3   1  -1 456.852  34.822   6
  -3   1  -1 460.090  39.967   9
  -3   1  -1 416.366  36.541   2
  -3   1  -1 369.472  38.495   4
  -3   1  -1 423.958  39.620   9
   3   1   1 510.903  36.606   2
   3   1   1 455.394  35.132   7
   3   1   1 462.058  37.207   5
   3   1   1 428.652  35.461   1
   3   1   1 431.473  34.745   8
   3   1   1 493.187  39.360   9
   4  -1   1 156.849  17.015   1
  -4  -1  -1 204.952  16.619   7
   4  -1   1 180.447  18.693   4
  -4  -1  -1 199.751  16.690   1
  -4  -1  -1 181.527  15.110   6
   4  -1   1 189.255  17.411   5
   4  -1   1 193.984  19.253   9
  -4  -1  -1 176.080  14.792  10
  -4  -1  -1 191.480  19.264   9
  -4  -1  -1 200.519  16.077   7
   4  -1   1 221.198  17.744   3
   4  -1   1 177.529  16.171   8
  -4  -1  -1 152.323  16.541   1
  -4  -1  -1 138.596  17.870   9
  -4  -1  -1 167.445  16.826   2
  -4   1  -1 186.189  17.604   2
  -4   1  -1 195.392  16.474   7
  -4   1  -1 178.020  17.079   1
  -4   1  -1 197.798  19.539   9
  -4   1  -1 182.554  17.226   1
   4   1   1 179.285  16.559   5
   4   1   1 222.697  19.195   9
  -4   1  -1 175.258  18.992   9
  -4   1  -1 179.183  15.556   6
   4   1   1 195.640  18.405   4
   4   1   1 193.774  15.724   8
   4   1   1 169.291  16.528   1
  -5  -1  -1 608.731  46.591   7
   5  -1   1 524.079  48.679   3
  -5  -1  -1 590.116  52.622   9
  -5  -1  -1 565.934  42.629  10
  -5  -1  -1 640.704  46.063   7
  -5  -1  -1 591.232  46.912   1
  -5  -1  -1 586.046  48.055   2
  -5  -1  -1 668.308  47.224   1
  -5  -1  -1 575.948  44.601   6
   5  -1   1 701.620  52.776   4
  -5  -1  -1 533.543  51.567   9
   5  -1   1 633.656  49.155   5
  -5   1  -1 473.449  46.672   1
  -5   1  -1 619.343  42.926  10
   5   1   1 550.592  46.012   8
   5   1   1 548.547  51.191   4
  -5   1  -1 579.205  52.451   9
  -5   1  -1 567.661  45.330   6
  -5   1  -1 536.999  48.358   2
  -5   1  -1 544.563  52.613   9
  -5   1  -1 529.258  46.370   7
  -5   1  -1 725.188  48.471   1
  -6  -1  -1 797.492  71.433   9
  -6  -1  -1 781.247  58.281  10
  -6  -1  -1 858.209  71.084   9
  -6  -1  -1 850.679  64.002   1
  -6  -1  -1 818.478  62.753   7
  -6  -1  -1 853.350  63.844   1
  -6  -1  -1 719.508  65.310   2
  -6   1  -1 759.301  66.064   2
  -6   1  -1 773.299  71.370   9
  -6   1  -1 728.914  71.490   9
  -6   1  -1 938.743  64.018   7
  -6   1  -1 805.880  64.372   1
  -6   1  -1 755.220  58.507  10
  -7  -1  -1 0.40496 6.07142   9
  -7  -1  -1 2.46997 6.40110   2
  -7  -1  -1 2.50139 4.78098   7
  -7  -1  -1 4.00878 5.01474   1
  -7  -1  -1 5.88123 4.71193  10
  -7  -1  -1 4.88097 8.18774   9
  -7   1  -1 9.09377 7.10644   2
  -7   1  -1 0.90140 5.60667   7
  -7   1  -1 16.2284  7.8854   9
  -7   1  -1 9.26924 6.32562   1
  -7   1  -1 8.99651 7.84832   9
  -7   1  -1 1.32062 4.83174  10
  -8  -1  -1 292.896  33.433   9
  -8  -1  -1 295.841  31.097   2
  -8  -1  -1 293.260  26.162  10
  -8  -1  -1 315.855  27.640   1
  -8   1  -1 333.160  29.092   1
  -8   1  -1 338.771  35.195   9
  -8   1  -1 350.615  32.607   2
  -8   1  -1 345.583  27.253  10
  -8  -2   1 18.4886  7.1858   9
  -8  -2   1 11.8513  3.5943  10
  -8  -2   1 6.22102 6.86546   2
  -8  -2   1 12.4772  6.4875   9
  -8   2   1 26.0661  9.7969   9
  -8   2   1 17.0885  9.0841   2
  -8   2   1 22.8449  5.5803  10
  -8   2   1 5.06388 8.78166   9
  -8   2   1 16.4258  5.3420   1
  -7  -2   1 572.459  51.234   9
  -7  -2   1 515.165  49.095   2
  -7  -2   1 564.380  41.752  10
  -7  -2   1 560.322  50.984   9
  -7   2   1 577.070  53.712   9
  -7   2   1 623.348  50.708   2
  -7   2   1 615.692  46.847   1
  -7   2   1 538.764  47.093   1
  -7   2   1 687.988  46.283   7
   7   2  -1 625.520  51.350   4
  -7   2   1 514.483  52.660   9
   6  -2  -1 390.846  34.936   3
  -6  -2   1 413.222  36.471   9
  -6  -2   1 434.816  35.741   2
  -6  -2   1 422.127  36.315   9
   6  -2  -1 431.752  39.095   4
  -6  -2   1 419.440  29.687  10
   6  -2  -1 413.217  33.589   8
  -6   2   1 363.304  33.327   1
  -6   2   1 457.059  38.890   9
  -6   2   1 403.973  34.445   1
   6   2  -1 415.659  36.193   4
  -6   2   1 390.413  35.913   2
  -6   2   1 429.202  39.076   9
  -6   2   1 385.914  33.243   7
  -5  -2   1 748.035  54.864   2
   5  -2  -1 639.513  58.794   4
   5  -2  -1 585.668  54.477   3
  -5  -2   1 664.865  47.371  10
   5  -2  -1 656.791  55.117   5
  -5  -2   1 676.026  57.102   9
   5  -2  -1 747.362  53.821   1
  -5  -2   1 623.102  56.746   9
  -5   2   1 739.046  53.996   1
   5   2  -1 732.906  51.482   7
  -5   2   1 700.567  52.809   7
   5   2  -1 729.351  56.543   4
  -5   2   1 688.288  52.820   1
  -5   2   1 617.335  59.054   9
  -5   2   1 674.094  55.158   2
  -5   2   1 550.673  58.472   9
   4  -2  -1 1998.39  178.43   9
  -4  -2   1 1990.43  166.27   2
   4  -2  -1 2117.04  172.69   5
  -4  -2   1 2069.34  149.18  10
   4  -2  -1 2051.60  169.26   3
  -4  -2   1 2189.90  171.99   5
   4  -2  -1 2251.11  178.98   4
  -4  -2   1 2167.93  177.40   9
  -4  -2   1 2349.63  177.34   9
   4  -2  -1 1998.96  162.70   7
   4  -2  -1 2163.92  163.55   1
  -4   2   1 2371.41  179.59   9
  -4   2   1 2262.22  174.33   5
  -4   2   1 2160.18  166.90   2
  -4   2   1 2049.67  162.70   7
  -4   2   1 1879.65  179.05   9
  -4   2   1 2483.20  163.98   1
  -4   2   1 2319.92  173.53   5
   4   2  -1 2177.95  161.40   7
  -4   2   1 2068.97  162.56   1
   3  -2  -1 1548.29  115.44   8
  -3  -2   1 1303.16  105.98  10
   3  -2  -1 1371.03  120.21   3
   3  -2  -1 1708.74  123.29   5
   3  -2  -1 1602.36  116.85   1
   3  -2  -1 1494.22  115.13   6
   3  -2  -1 1663.07  115.16   6
  -3  -2   1 1535.95  118.30   2
  -3  -2   1 1550.99  125.84   9
  -3  -2   1 1595.98  122.17   5
  -3  -2   1 1409.59  125.87   9
   3  -2  -1 1513.24  126.89   4
   3  -2  -1 1350.03  115.85   7
  -3   2   1 1535.68  115.84   1
  -3   2   1 1491.59  116.44   1
  -3   2   1 1526.74  123.96   5
   3   2  -1 1554.46  114.61   7
  -3   2   1 1535.33  127.80   9
   3   2  -1 1637.28  114.68   1
  -3   2   1 1703.06  118.83   2
  -3   2   1 1635.38  123.27   5
  -3   2   1 1530.06  115.91   7
  -3   2   1 1380.76  127.58   9
   2  -2  -1 2570.29  194.83   1
  -2  -2   1 2579.28  213.72   9
   2  -2  -1 2506.98  193.67   6
   2  -2  -1 2498.15  194.83   7
   2  -2  -1 2896.01  194.99   8
   2  -2  -1 2528.98  207.64   5
   2  -2  -1 2421.42  202.65   3
  -2  -2   1 2299.40  198.26   2
   2  -2  -1 2473.90  194.63   7
   2  -2  -1 2765.76  214.40   9
   2  -2  -1 2304.43  195.14   1
   2  -2  -1 2616.79  213.09   4
   2   2  -1 2469.67  198.46   2
   2   2  -1 2500.86  194.58   1
   2   2  -1 2839.02  194.97   1
  -2   2   1 2483.23  207.96   5
  -2   2   1 2359.20  206.79   5
  -2   2   1 2410.63  194.68   1
  -2   2   1 2929.46  214.61   9
   2   2  -1 2545.15  195.14   7
  -2   2   1 2991.35  193.73   6
   2   2  -1 2543.16  195.04   7
  -2   2   1 2855.76  214.23   9
  -2   2   1 2785.05  194.79   7
   1  -2  -1 1981.82  156.09   1
  -1  -2   1 2066.61  165.57   5
  -1  -2   1 2157.98  170.22   9
   1  -2  -1 2236.60  170.49   4
   1  -2  -1 2213.31  156.20   1
   1  -2  -1 1978.93  158.40   2
   1  -2  -1 2025.41  155.94   6
   1  -2  -1 2152.54  172.02   9
   1  -2  -1 2040.39  156.15   8
  -1  -2   1 1820.30  155.10   1
   1  -2  -1 1712.92  162.67   3
  -1  -2   1 2298.59  155.23   6
   1  -2  -1 1730.11  155.76   7
  -1  -2   1 2062.75  155.42   7
  -1  -2   1 2082.00  154.45   6
  -1  -2   1 1995.43  155.06   1
  -1  -2   1 2143.16  170.29   9
  -1   2   1 2114.76  143.91  10
  -1   2   1 2228.52  156.30   7
  -1   2   1 2021.45  171.67   9
  -1   2   1 2011.48  158.49   2
   1   2  -1 1936.91  169.95   9
   1   2  -1 1934.38  170.21   4
  -1   2   1 1808.51  165.28   5
  -1   2   1 2386.30  156.29   1
   1   2  -1 1977.39  162.20   3
  -1   2   1 2238.61  156.02   8
   1   2  -1 1966.16  165.86   5
   1   2  -1 2196.01  161.96   3
   1   2  -1 2087.42  155.08   7
   1   2  -1 2131.85  155.14   1
  -1   2   1 1965.97  167.55   5
   1   2  -1 2028.95  155.09   1
   1   2  -1 2361.54  154.25   6
   1   2  -1 2146.62  170.46   9
   1   2  -1 2261.58  154.75   6
  -1   2   1 1888.18  156.10   1
  -1   2   1 2249.53  155.81   7
   0  -2  -1 38.9672  4.5104   6
   0  -2   1 40.2566  4.4939   6
   0  -2   1 34.9553  4.3639   1
   0  -2  -1 48.0316  4.5915   8
   0  -2   1 45.7876  4.8220   3
   0  -2   1 44.0015  4.6538   1
   0  -2  -1 40.9532  4.6413   5
   0  -2   1 35.5045  4.7056   4
   0  -2  -1 44.7465  4.8791   1
   0  -2   1 42.4907  4.4656   8
   0  -2  -1 41.9718  5.0483   4
   0  -2   1 40.0170  5.2338   9
   0  -2  -1 34.5533  4.3889   3
   0  -2  -1 45.9209  6.5446   9
   0  -2  -1 46.7920  4.3234  10
   0  -2   1 60.0376  5.4966   5
   0  -2  -1 25.7763  4.6857   1
   0  -2   1 55.1863  4.3002   6
   0  -2  -1 38.4895  4.4827   7
   0   2   1 48.5844  5.2708   1
   0   2   1 38.6834  4.7556   7
   0   2   1 37.2994  4.5326   5
   0   2  -1 41.0428  4.5527   1
   0   2   1 37.7737  4.1700  10
   0   2   1 38.8235  3.8683   2
   0   2  -1 47.3638  5.4972   9
   0   2  -1 30.5395  4.7401   4
   0   2  -1 42.3073  5.0346   5
   0   2   1 44.2067  4.5557   8
   0   2  -1 48.6146  5.5571   9
   0   2  -1 31.5777  4.1125   7
   0   2   1 43.8966  5.1386   1
   0   2  -1 38.2596  4.4837   1
   0   2  -1 43.6897  4.4012   8
   0   2  -1 40.6195  4.3924   8
   0   2  -1 44.3546  4.2021   6
  -1  -2  -1 101.086   9.054   2
  -1  -2  -1 102.635  11.387   9
  -1  -2  -1 109.943  10.366   1
  -1  -2  -1 120.573   9.181   8
   1  -2   1 117.176  11.213   4
  -1  -2  -1 114.706  10.509   5
   1  -2   1 114.034  10.282   1
   1  -2   1 101.274   9.832   8
   1  -2   1 116.921  10.175   1
  -1  -2  -1 116.076   9.572   7
   1  -2   1 103.447   9.866   6
   1  -2   1 115.392   9.800   7
  -1  -2  -1 104.810  10.614   4
  -1  -2  -1 113.439   9.507   6
  -1  -2  -1 98.0875  9.6133   3
  -1  -2  -1 143.409  10.964   4
  -1  -2  -1 120.980  10.093   7
  -1  -2  -1 115.296   8.967  10
  -1  -2  -1 137.016  11.977   9
   1  -2   1 142.394  11.368   5
   1  -2   1 110.210  11.551   9
   1  -2   1 124.532  10.413   3
  -1   2  -1 81.0276 11.0139   9
  -1   2  -1 110.302  10.078   8
   1   2   1 121.680   9.624   6
  -1   2  -1 114.335  11.244   4
  -1   2  -1 117.721  11.633   9
   1   2   1 104.335  10.678   4
   1   2   1 98.6525  9.8629   1
  -1   2  -1 123.950  10.548   1
   1   2   1 88.5173 11.1905   9
   1   2   1 108.045  10.387   1
   1   2   1 102.082   9.782   3
  -1   2  -1 112.359   9.910   7
   1   2   1 107.296   8.901  10
  -1   2  -1 107.074   9.489   6
   1   2   1 114.395   9.605   7
   1   2   1 106.993  10.057   7
  -1   2  -1 121.920  10.006   8
  -1   2  -1 124.617  10.316   1
   1   2   1 111.208  10.164   5
  -1   2  -1 116.914  10.568   3
   1   2   1 123.989   9.359   8
   2  -2   1 3137.66  265.13   5
   2  -2   1 3000.60  249.07   1
  -2  -2  -1 3169.45  248.54   1
   2  -2   1 3603.88  249.86   8
   2  -2   1 3176.64  248.70   7
  -2  -2  -1 3476.84  248.42   7
  -2  -2  -1 2968.64  246.78   6
  -2  -2  -1 3309.94  264.76   5
   2  -2   1 3379.48  273.35   9
  -2  -2  -1 3191.39  273.12   9
  -2  -2  -1 3149.65  271.87   4
  -2  -2  -1 3205.34  248.91   1
  -2  -2  -1 3813.02  273.26   9
   2  -2   1 3436.87  249.98   8
  -2  -2  -1 3393.21  271.97   4
  -2  -2  -1 2785.06  248.54   7
   2  -2   1 3108.92  247.56   6
   2  -2   1 3578.38  273.22   4
  -2  -2  -1 3779.68  253.49   2
  -2  -2  -1 3218.61  229.65  10
   2  -2   1 3433.74  249.13   1
   2  -2   1 2948.91  273.04   9
   2  -2   1 3749.45  247.59   6
   2  -2   1 3539.89  259.70   3
   2   2   1 3567.37  259.00   3
  -2   2  -1 3095.21  273.25   9
  -2   2  -1 3483.00  249.28   1
  -2   2  -1 3299.43  249.64   8
   2   2   1 3360.41  248.38   7
  -2   2  -1 3126.23  272.86   4
   2   2   1 3307.08  229.56  10
   2   2   1 3373.70  272.40   4
   2   2   1 3303.07  248.63   1
   2   2   1 3581.94  247.18   6
  -2   2  -1 3141.69  273.26   9
  -2   2  -1 3147.83  248.78   7
   2   2   1 2920.17  272.54   9
   2   2   1 3660.26  253.47   2
   2   2   1 3501.48  264.43   5
  -2   2  -1 3592.97  249.56   1
  -2   2  -1 2937.48  247.09   6
   2   2   1 3239.25  249.15   8
  -2   2  -1 3342.58  254.33   2
   3  -2   1 7.99674 4.23905   8
  -3  -2  -1 7.78436 3.14483   7
  -3  -2  -1 3.96705 3.72498   9
  -3  -2  -1 10.4872  4.5835   9
   3  -2   1 0.76458 2.75497   3
  -3  -2  -1 5.52030 2.88967   2
   3  -2   1 14.8062  3.6162   7
  -3  -2  -1 2.22772 2.35709   7
   3  -2   1 6.42452 3.42499   6
   3  -2   1 6.87087 3.18506   6
   3  -2   1 7.79673 4.49251   9
   3  -2   1 4.50702 4.42337   4
   3  -2   1 3.92931 3.18132   1
   3  -2   1 5.74613 3.28727   5
  -3  -2  -1 1.70769 1.94474   6
   3  -2   1 8.28190 4.53387   9
  -3  -2  -1 4.73568 3.31587   1
  -3  -2  -1 7.15451 3.26486   5
  -3  -2  -1 5.24010 2.67051  10
  -3  -2  -1 -0.7743  2.5781   1
   3   2   1 3.13154 3.63902   9
  -3   2  -1 4.19449 3.81895   4
   3   2   1 8.31876 3.17832   2
   3   2   1 9.16908 3.21539   1
   3   2   1 1.74012 2.22751   5
  -3   2  -1 6.74379 4.45978   9
   3   2   1 6.12634 3.14034   8
  -3   2  -1 7.59747 3.81337   2
  -3   2  -1 4.26173 3.83440   1
   3   2   1 3.83229 3.71653   9
  -3   2  -1 5.99594 3.11401   7
  -3   2  -1 6.49809 2.85883   6
  -3   2  -1 9.05229 4.78287   9
   3   2   1 5.49404 3.48319   4
   4  -2   1 29.5986  5.1384   6
  -4  -2  -1 16.5577  3.0596   6
   4  -2   1 21.6842  4.9063   5
  -4  -2  -1 23.4949  6.2388   9
   4  -2   1 19.1727  5.9860   9
  -4  -2  -1 12.5326  3.9498   7
   4  -2   1 21.9737  5.5096   1
  -4  -2  -1 18.0883  3.8217  10
   4  -2   1 19.5856  5.0569   3
  -4  -2  -1 34.2877  5.0191   1
   4  -2   1 19.7684  5.0940   8
  -4  -2  -1 19.0083  3.8341   7
   4  -2   1 15.9542  5.6642   4
  -4  -2  -1 23.5554  4.8697   1
  -4  -2  -1 13.0327  5.2240   9
   4  -2   1 15.2136  5.8755   9
  -4  -2  -1 22.7442  4.5991   2
  -4   2  -1 20.6297  6.5304   9
   4   2   1 28.4421  3.9870   5
   4   2   1 17.3027  5.8138   9
  -4   2  -1 19.9395  4.1153   6
   4   2   1 22.7347  4.4828   1
   4   2   1 16.4841  5.0410   4
  -4   2  -1 20.0397  5.5255   1
  -4   2  -1 18.3305  5.3103   1
  -4   2  -1 23.6539  6.6780   9
  -4   2  -1 12.7325  4.9824   2
  -4   2  -1 11.8176  4.2869   7
   4   2   1 27.9913  4.5021   8
   5  -2   1 250.117  26.946   4
  -5  -2  -1 280.512  24.418   2
  -5  -2  -1 276.010  27.036   9
  -5  -2  -1 280.907  23.098   7
  -5  -2  -1 265.281  22.511   7
   5  -2   1 275.806  24.924   5
  -5  -2  -1 281.498  23.594   1
  -5  -2  -1 266.662  21.083   6
  -5  -2  -1 280.336  26.455   9
  -5  -2  -1 268.770  21.357  10
  -5  -2  -1 250.477  23.412   1
   5  -2   1 315.375  25.480   3
  -5   2  -1 303.754  28.740   9
   5   2   1 301.422  26.407   4
  -5   2  -1 266.601  22.699   6
   5   2   1 240.020  22.784   8
  -5   2  -1 255.363  24.432   1
  -5   2  -1 262.511  25.201   1
  -5   2  -1 331.833  28.589   9
  -5   2  -1 230.916  24.658   2
  -5   2  -1 271.703  23.925   7
  -6  -2  -1 429.393  32.814   7
  -6  -2  -1 450.138  31.132  10
  -6  -2  -1 383.866  34.982   2
  -6  -2  -1 478.415  34.250   1
  -6  -2  -1 395.486  38.809   9
  -6  -2  -1 356.078  33.364   1
  -6   2  -1 431.039  34.618   7
  -6   2  -1 398.481  36.351   2
  -6   2  -1 400.395  31.335  10
  -6   2  -1 356.454  39.312   9
  -6   2  -1 327.208  38.623   9
  -6   2  -1 416.699  35.247   1
  -7  -2  -1 85.7769 15.6831   9
   7  -2   1 96.5333 12.8559   8
  -7  -2  -1 115.944  15.711   9
  -7  -2  -1 89.7802 11.2606   1
  -7  -2  -1 105.928  13.747   2
  -7  -2  -1 98.7888 10.9116  10
  -7   2  -1 98.4777 16.6423   9
  -7   2  -1 111.782  13.697   1
  -7   2  -1 97.1363 14.7254   2
  -7   2  -1 105.632  13.030   7
  -7   2  -1 102.275  11.658  10
  -8  -2  -1 9.64334 4.73184   1
  -8  -2  -1 10.4360  5.9682  10
  -8  -2  -1  9.2498 10.5125   9
  -8   2  -1 7.14488 8.82313   2
  -8   2  -1 7.69666 6.25679   1
  -8   2  -1 27.1594  7.4613  10
  -8   2  -1 2.47829 9.32480   9
  -8  -3   1 1107.12  105.67   9
  -8  -3   1 1206.53   87.44  10
  -8  -3   1 1397.98  101.95   2
  -8   3   1 1317.33  110.57   9
  -8   3   1 1276.77  102.45   2
  -8   3   1 1290.24  109.96   9
  -8   3   1 1255.51   96.95   1
  -7  -3   1 6.55425 5.22247   9
  -7  -3   1 24.7539  7.7082   2
   7  -3  -1 11.8441  6.1829   8
  -7  -3   1 7.70845 2.97186  10
  -7  -3   1 7.64405 4.76486   9
  -7   3   1 17.1166  5.9853   1
  -7   3   1 12.3428  7.2419   2
  -7   3   1 6.25393 4.63347   7
  -7   3   1 2.11152 7.53514   9
   7   3  -1 10.1321  5.7316   4
  -7   3   1 11.8049  7.8545   9
  -6  -3   1 1839.89  153.67   9
  -6  -3   1 1792.37  154.06   9
  -6  -3   1 2053.45  145.54   2
  -6  -3   1 1665.66  128.84  10
   6  -3  -1 1705.39  141.36   8
   6  -3  -1 1805.42  156.95   4
  -6   3   1 2086.31  143.26   1
  -6   3   1 2133.70  141.93   7
  -6   3   1 1831.34  157.20   9
  -6   3   1 1621.90  141.22   1
  -6   3   1 1763.55  145.91   2
  -6   3   1 2084.42  157.69   9
   6   3  -1 1869.89  153.47   4
   5  -3  -1 106.957  11.264   8
   5  -3  -1 123.730  13.327   1
  -5  -3   1 119.814  11.097   5
   5  -3  -1 113.442  12.151   8
   5  -3  -1 132.032  15.161   4
  -5  -3   1 103.359  11.323   9
   5  -3  -1 112.615  11.936   5
  -5  -3   1 110.723  11.827   9
   5  -3  -1 113.243  11.958   3
  -5  -3   1 117.359  12.642   2
  -5  -3   1 116.796   9.102  10
  -5   3   1 118.361  13.435   2
  -5   3   1 118.443  12.328   7
  -5   3   1 102.539  14.587   9
  -5   3   1 110.284  13.126   1
   5   3  -1 118.624  10.119   7
   5   3  -1 112.843  10.775   4
  -5   3   1 135.435  15.592   9
  -5   3   1 132.048  12.590   1
   4  -3  -1 1074.43   83.87   9
  -4  -3   1 903.059  81.089   9
   4  -3  -1 896.116  75.218   8
  -4  -3   1 1022.04   81.67   9
  -4  -3   1 980.900  68.261  10
   4  -3  -1 1002.79   83.84   4
  -4  -3   1 1082.49   77.43   2
   4  -3  -1 963.005  78.582   3
   4  -3  -1 956.584  80.203   5
   4  -3  -1 858.616  76.464   1
  -4  -3   1 1110.84   78.90   5
   4  -3  -1 965.129  75.367   6
   4  -3  -1 1059.66   75.25   8
  -4   3   1 892.812  80.448   5
   4   3  -1 1043.47   73.94   7
  -4   3   1 910.296  75.596   1
  -4   3   1 895.308  75.683   7
  -4   3   1 984.126  77.833   2
  -4   3   1 861.576  84.032   9
  -4   3   1 1107.69   84.81   9
   3  -3  -1 172.982  18.408   9
   3  -3  -1 148.733  17.081   4
   3  -3  -1 197.607  15.014   8
   3  -3  -1 168.356  15.502   7
   3  -3  -1 159.386  15.087   6
  -3  -3   1 185.216  16.020   9
   3  -3  -1 182.907  16.145   7
  -3  -3   1 160.094  15.411   2
   3  -3  -1 148.753  15.650   3
   3  -3  -1 201.104  16.990   5
   3  -3  -1 180.149  16.960   1
  -3  -3   1 192.256  14.841   5
   3  -3  -1 194.166  16.032   6
  -3   3   1 189.727  15.470   3
  -3   3   1 147.062  15.936   2
  -3   3   1 195.826  19.083   9
  -3   3   1 173.091  15.926   7
  -3   3   1 160.557  15.020   6
  -3   3   1 161.251  18.291   9
  -3   3   1 177.887  16.192   1
   3   3  -1 195.695  16.157   2
  -3   3   1 188.082  16.777   5
   3   3  -1 174.033  13.762   7
   3   3  -1 171.625  14.029   1
   3   3  -1 159.495  14.034   7
   2  -3  -1 2610.05  242.50   5
   2  -3  -1 3220.88  227.48   7
  -2  -3   1 3373.89  226.64   1
  -2  -3   1 3164.02  248.40   9
   2  -3  -1 3030.56  227.53   8
   2  -3  -1 2876.23  227.38   1
  -2  -3   1 3155.68  226.58   1
   2  -3  -1 3323.80  226.66   6
   2  -3  -1 2676.83  231.27   2
   2  -3  -1 3366.94  237.04   3
   2  -3  -1 2553.19  227.07   7
   2  -3  -1 2957.82  250.31   9
   2   3  -1 3033.98  247.96   9
   2   3  -1 3035.82  226.16   7
  -2   3   1 2606.10  249.74   9
  -2   3   1 2947.14  226.20   6
  -2   3   1 3123.81  227.70   1
   2   3  -1 3188.95  226.22   1
  -2   3   1 2676.47  249.41   9
  -2   3   1 3195.62  248.44   4
  -2   3   1 2879.02  243.20   5
  -2   3   1 2972.22  236.49   3
   2   3  -1 2785.85  231.13   2
  -2   3   1 3446.45  227.53   7
   2   3  -1 2856.90  226.33   1
  -2   3   1 3304.83  231.60   2
  -2   3   1 3461.21  241.64   5
   2   3  -1 3109.56  224.86   6
  -2   3   1 2841.70  227.05   8
   2   3  -1 3034.56  208.88  10
   2   3  -1 2847.18  224.52   6
   2   3  -1 3174.35  247.78   9
   2   3  -1 2751.75  226.08   7
   1  -3  -1 723.520  61.901   7
   1  -3  -1 669.186  61.821   1
   1  -3  -1 826.937  62.088   2
  -1  -3   1 769.441  61.183   1
  -1  -3   1 805.002  62.772   3
  -1  -3   1 904.888  65.857   5
  -1  -3   1 831.943  60.547   7
  -1  -3   1 657.359  60.970   7
  -1  -3   1 810.243  67.123   9
  -1  -3   1 735.336  59.914   6
   1  -3  -1 678.590  64.630   3
  -1  -3   1 663.053  60.560   1
  -1  -3   1 925.721  66.185   4
   1  -3  -1 815.153  61.385   8
   1  -3  -1 737.776  62.479   6
   1  -3  -1 869.822  67.393   4
   1  -3  -1 833.514  69.428   9
  -1  -3   1 818.745  62.919   3
   1  -3  -1 689.179  61.955   1
  -1  -3   1 758.310  66.871   9
   1  -3  -1 745.048  61.610   7
  -1  -3   1 755.017  60.986   6
   1   3  -1 738.746  66.647   9
  -1   3   1 736.957  61.472   7
  -1   3   1 775.288  62.028   2
  -1   3   1 888.230  61.400   8
  -1   3   1 894.128  69.405   9
   1   3  -1 780.296  63.815   3
   1   3  -1 913.355  60.963   1
   1   3  -1 824.722  61.136   6
  -1   3   1 950.603  65.308   5
  -1   3   1 800.508  62.335   1
   1   3  -1 912.727  61.229   1
   1   3  -1 923.245  66.466   4
   1   3  -1 928.288  60.875   7
  -1   3   1 699.678  56.643  10
   1   3  -1 879.385  60.140   6
   1   3  -1 812.216  66.288   5
   1   3  -1 730.744  67.390   9
  -1   3   1 771.070  64.678   3
  -1   3   1 755.464  62.148   7
   0  -3   1 1.78748 2.68969   5
   0  -3  -1 0.09329 1.80287   3
   0  -3  -1 4.61307 1.19504   2
   0  -3   1 8.37870 2.16097   7
   0  -3  -1 8.68440 2.79947   4
   0  -3  -1 -3.9088  2.3583   8
   0  -3   1 6.79487 2.60557   4
   0  -3  -1 5.91766 2.61974   7
   0  -3   1 3.62332 2.26185   1
   0  -3   1 1.38033 2.07192   8
   0  -3  -1 2.85152 2.74717   1
   0  -3   1 3.54778 2.85932   9
   0  -3   1 5.58074 2.17761   1
   0  -3   1 2.44427 2.69182   9
   0  -3   1 3.23546 1.69125   6
   0  -3  -1 2.26220 2.07579   5
   0  -3   1 5.22308 2.59796   6
   0  -3  -1 7.47197 2.26419  10
   0  -3  -1 9.51683 3.05087   6
   0  -3   1 4.41685 2.43649   3
   0  -3   1 -2.7253  1.7482   8
   0  -3  -1 3.57451 2.67054   1
   0  -3  -1 4.42902 2.52637   7
   0  -3  -1 5.64110 2.21258   8
   0   3  -1 2.42656 2.15750   1
   0   3  -1 11.2124  2.4830   7
   0   3  -1 3.95212 2.96335   9
   0   3   1 4.64317 3.00852   1
   0   3  -1 0.42171 2.08502   3
   0   3   1 2.84437 2.83133   1
   0   3   1 1.50292 2.14334   5
   0   3  -1 2.62993 2.43444   4
   0   3  -1 8.46147 2.67991   1
   0   3   1 11.0327  2.5669   8
   0   3   1 8.53138 2.51668  10
   0   3   1 1.21957 1.23680   2
   0   3  -1 2.50484 1.65438   6
   0   3  -1 7.49041 2.52623   6
   0   3  -1 2.68179 2.68034   8
   0   3   1 8.18015 3.07920   6
   0   3  -1 5.50028 3.22715   9
   0   3   1 7.60091 2.76604   7
   0   3   1 0.51928 2.45430   4
   0   3   1 2.87786 2.51145   7
   0   3   1 9.98600 2.76554   3
  -1  -3  -1 146.991  13.451   7
  -1  -3  -1 179.709  14.869   4
  -1  -3  -1 152.854  12.596  10
  -1  -3  -1 143.758  14.279   1
   1  -3   1 185.291  16.279   9
  -1  -3  -1 177.999  14.064   7
  -1  -3  -1 168.711  14.834   4
   1  -3   1 168.126  13.911   8
   1  -3   1 174.807  14.237   1
   1  -3   1 166.660  13.871   7
   1  -3   1 165.716  13.978   6
   1  -3   1 151.966  14.445   3
   1  -3   1 167.108  13.678   8
   1  -3   1 165.241  15.476   4
   1  -3   1 136.823  14.963   5
  -1  -3  -1 157.222  16.336   9
  -1  -3  -1 158.583  16.036   9
  -1  -3  -1 162.332  14.502   5
   1  -3   1 170.640  14.354   1
  -1  -3  -1 186.553  13.491   6
  -1  -3  -1 141.986  12.663   8
  -1  -3  -1 130.327  13.517   3
  -1  -3  -1 167.712  12.581   8
  -1   3  -1 141.906  15.820   9
   1   3   1 181.881  13.124   8
  -1   3  -1 139.581  13.919   1
  -1   3  -1 155.306  13.898   8
  -1   3  -1 155.132  15.853   9
   1   3   1 163.515  12.516  10
  -1   3  -1 168.144  14.587   1
   1   3   1 153.741  13.576   6
  -1   3  -1 175.765  14.691   3
   1   3   1 132.621  13.684   3
   1   3   1 156.235  14.029   1
  -1   3  -1 154.263  13.811   7
   1   3   1 145.384  14.150   5
   1   3   1 174.064  15.139   4
  -1   3  -1 154.478  15.458   4
   1   3   1 180.148  14.703   1
  -1   3  -1 181.407  13.618   6
   1   3   1 160.138  13.676   7
  -1   3  -1 164.927  13.847   8
   1   3   1 185.781  14.434   7
   1   3   1 177.773  16.268   9
   2  -3   1 11.2449  3.5150   3
  -2  -3  -1 10.3026  2.7140  10
   2  -3   1 15.3162  4.9503   4
   2  -3   1 6.99330 3.54900   8
   2  -3   1 13.7098  4.0695   1
  -2  -3  -1 11.7991  2.7983   7
   2  -3   1 9.42332 3.42628   6
  -2  -3  -1 9.77655 4.81595   9
  -2  -3  -1 12.7641  3.4113   1
   2  -3   1 9.43375 4.48988   9
  -2  -3  -1 3.63059 4.15042   9
  -2  -3  -1 13.1054  3.0987   4
   2  -3   1 7.46209 4.99146   9
   2  -3   1 5.05657 3.64095   1
   2  -3   1 6.90059 3.05535   7
  -2  -3  -1 11.3271  2.1800   2
  -2  -3  -1 9.36014 2.35950   6
  -2  -3  -1 7.49266 3.18038   5
  -2  -3  -1 10.0889  3.7148   1
  -2  -3  -1 8.15563 3.01726   7
   2  -3   1 12.5249  4.1579   8
   2  -3   1 7.39668 2.88059   6
   2  -3   1 11.0455  3.9479   5
   2   3   1 10.6463  2.3747   2
   2   3   1 3.79141 2.45447   3
   2   3   1 13.4551  3.7011   4
  -2   3  -1 6.23910 3.91452   8
  -2   3  -1 12.5292  5.2994   9
   2   3   1 11.4230  4.3233   9
   2   3   1 9.65270 2.83956   5
   2   3   1 7.86099 2.63561   8
   2   3   1 10.5026  3.3382   1
   2   3   1 6.23084 2.66241   6
  -2   3  -1 3.20373 3.72451   2
  -2   3  -1 13.3203  3.2672   6
   2   3   1 4.77348 3.09296   7
  -2   3  -1 6.99459 3.24240   7
   2   3   1 6.46936 2.63211   7
   2   3   1 2.17240 2.18896  10
  -2   3  -1 12.0067  4.4063   1
  -2   3  -1 6.98070 3.34624   3
  -2   3  -1 -0.0795  4.1357   9
  -2   3  -1 9.17224 3.81863   1
   3  -3   1 18.6817  4.3259   6
  -3  -3  -1 9.17139 3.99658   1
  -3  -3  -1 16.0706  3.6501   7
  -3  -3  -1 13.5795  4.8466   9
  -3  -3  -1 24.3657  3.5299   7
  -3  -3  -1 17.6170  3.3274  10
   3  -3   1 14.7940  4.5327   8
   3  -3   1 15.7156  5.4579   4
  -3  -3  -1 15.8974  3.2561   2
   3  -3   1 11.0765  4.2344   8
   3  -3   1 11.5080  5.1085   9
   3  -3   1 18.0696  3.9222   6
   3  -3   1 10.8059  5.2877   9
   3  -3   1 18.7577  4.9428   5
  -3  -3  -1 11.6392  3.4939   1
  -3  -3  -1 13.3099  2.6167   6
   3  -3   1 17.7595  4.8603   1
   3  -3   1 10.8714  3.8767   3
  -3  -3  -1 21.0139  5.6668   9
  -3  -3  -1 18.8655  4.2799   5
   3   3   1 18.1621  4.0171   1
  -3   3  -1 14.8160  4.7366   1
   3   3   1 12.8418  3.0888   3
   3   3   1 9.92328 3.98813   4
   3   3   1 16.2430  3.5119   7
  -3   3  -1 11.3236  4.6404   1
  -3   3  -1 14.4768  4.1812   7
  -3   3  -1 16.0571  3.7696   6
  -3   3  -1 10.9673  4.3983   2
  -3   3  -1 12.2674  4.9789   4
   3   3   1 16.3499  3.4903   2
   3   3   1 13.5808  4.6512   9
  -3   3  -1 12.6100  5.9707   9
   3   3   1 16.5338  3.2097   5
  -3   3  -1 17.0471  5.9223   9
  -4  -3  -1 143.651  11.850   7
   4  -3   1 139.401  15.760   4
   4  -3   1 160.066  14.746   1
   4  -3   1 119.890  13.411   3
  -4  -3  -1 134.853  12.681   2
  -4  -3  -1 128.812  10.878   6
  -4  -3  -1 121.793  14.183   9
   4  -3   1 128.828  15.443   9
  -4  -3  -1 135.203  15.371   9
   4  -3   1 112.618  13.641   5
   4  -3   1 115.670  12.861   8
  -4  -3  -1 133.168  11.427  10
  -4  -3  -1 115.959  12.312   1
  -4  -3  -1 127.586  13.054   1
   4  -3   1 137.746  13.503   6
  -4  -3  -1 140.279  12.506   7
   4  -3   1 136.710  16.212   9
   4   3   1 147.403  13.177   1
  -4   3  -1 144.625  13.675   7
   4   3   1 138.297  12.043   8
  -4   3  -1 123.271  13.867   1
   4   3   1 127.895  12.211   5
  -4   3  -1 129.538  14.233   4
  -4   3  -1 122.716  14.185   2
  -4   3  -1 141.662  12.641   6
  -4   3  -1 120.290  15.566   9
   4   3   1 150.947  14.086   4
  -4   3  -1 136.284  16.273   9
   4   3   1 125.796  12.352   3
  -5  -3  -1 626.352  44.471   1
  -5  -3  -1 543.108  49.344   9
  -5  -3  -1 513.136  43.395   7
  -5  -3  -1 543.451  44.682   1
   5  -3   1 582.355  47.411   3
  -5  -3  -1 517.871  40.746  10
   5  -3   1 571.177  45.213   8
   5  -3   1 495.939  47.482   5
   5  -3   1 631.545  51.886   9
   5  -3   1 599.724  51.354   4
  -5  -3  -1 592.698  50.733   9
  -5  -3  -1 600.002  45.669   2
  -5   3  -1 516.270  45.232   7
  -5   3  -1 595.053  46.355   1
  -5   3  -1 504.001  43.927   6
  -5   3  -1 667.174  48.064   2
  -5   3  -1 490.303  50.830   9
   5   3   1 553.565  48.788   4
   5   3   1 588.737  43.899   8
  -5   3  -1 477.311  50.498   9
  -6  -3  -1 327.756  31.983   2
  -6  -3  -1 415.646  31.270   1
  -6  -3  -1 360.458  35.020   9
  -6  -3  -1 368.010  29.696   7
  -6  -3  -1 426.486  28.845  10
  -6  -3  -1 399.772  36.659   9
   6  -3   1 319.556  31.525   8
  -6  -3  -1 402.250  31.027   1
  -6   3  -1 360.872  37.460   9
  -6   3  -1 354.717  33.816   2
  -6   3  -1 337.879  36.960   9
  -6   3  -1 380.726  32.432   7
  -6   3  -1 329.345  32.559   1
  -7  -3  -1 140.421  17.864   9
  -7  -3  -1 145.900  19.191   9
  -7  -3  -1 143.818  14.493   1
  -7  -3  -1 135.758  14.179   1
  -7  -3  -1 125.655  13.280  10
   7  -3   1 154.867  17.126   8
  -7  -3  -1 156.330  16.659   2
  -7   3  -1 142.906  17.002   1
  -7   3  -1 149.962  16.702   7
  -7   3  -1 145.339  21.009   9
  -7   3  -1 116.378  17.219   2
  -7   3  -1 166.686  15.681  10
  -8  -3  -1 109.226  17.077   9
  -8  -3  -1 88.5149 10.6855  10
  -8   3  -1 98.0308 13.9600   1
  -8   3  -1 89.8736 18.6546   9
  -8   3  -1 73.4135 11.6674  10
  -8   3  -1 106.875  16.716   2
   8  -4  -1 17.9077  6.7352   8
  -8  -4   1 3.51581 5.55593   9
  -8  -4   1 -6.0725  6.6626   2
  -8   4   1 -7.2367  8.5887   9
  -8   4   1 4.29474 8.39029   2
  -8   4   1 4.59982 5.32856   1
  -7  -4   1 1711.38  135.08   2
  -7  -4   1 1615.22  142.21   9
  -7  -4   1 1621.03  119.04  10
   7  -4  -1 1723.71  132.07   8
  -7  -4   1 1889.52  143.36   9
  -7   4   1 1733.37  136.67   2
  -7   4   1 1830.00  147.67   9
  -7   4   1 1536.70  131.24   7
  -7   4   1 1862.20  148.13   9
  -7   4   1 1727.68  131.91   1
   7   4  -1 1687.34  142.50   4
   6  -4  -1 48.2836  7.4351   8
  -6  -4   1 54.5153  8.3191   2
  -6  -4   1 40.2308  4.4386  10
  -6  -4   1 49.7763  7.5660   9
   6   4  -1 31.4941  6.0513   4
  -6   4   1 49.8623 11.2772   9
  -6   4   1 59.6895 11.9155   9
  -6   4   1 31.6148  7.3426   1
  -6   4   1 39.3137  7.6553   7
  -6   4   1 26.5781  8.2056   2
   5  -4  -1 7.86425 5.39189   8
   5  -4  -1 -1.5604  2.9624   3
   5  -4  -1 6.45673 5.46355   1
  -5  -4   1 3.54486 2.08098  10
   5  -4  -1 7.04343 6.48155   4
  -5  -4   1 2.12214 3.75569   9
  -5  -4   1 -2.1980  3.5768   2
   5  -4  -1 4.10655 3.90426   8
  -5  -4   1 6.14071 3.09343   9
   5  -4  -1 9.73144 4.34145   5
  -5   4   1 2.37178 3.82210   7
  -5   4   1 8.80646 6.52557   9
   5   4  -1 4.21712 2.61934   4
   5   4  -1 7.55317 2.90276   4
  -5   4   1 4.05789 6.63837   9
  -5   4   1 5.48393 5.40361   1
  -5   4   1 -1.1238  4.0989   2
  -5   4   1 -2.3832  4.1368   1
   5   4  -1 5.15402 2.37472   7
  -4  -4   1 96.9471  7.7252  10
   4  -4  -1 99.6106 11.3086   5
   4  -4  -1 107.333  11.341   6
   4  -4  -1 138.211  14.203   4
   4  -4  -1 88.1007 12.4878   9
  -4  -4   1 86.6220 10.5081   9
  -4  -4   1 91.2148 10.0344   2
   4  -4  -1 87.7872 10.3118   3
   4  -4  -1 89.8682  9.9287   8
  -4  -4   1 85.3838  9.5530   9
  -4  -4   1 102.514   9.258   5
   4  -4  -1 103.100  10.746   8
   4  -4  -1 97.0129 12.0095   1
  -4   4   1 92.9986  9.6959   3
  -4   4   1 97.2675 13.7890   9
  -4   4   1 110.418  14.161   9
  -4   4   1 84.3149 10.6429   7
  -4   4   1 95.0260 11.1036   1
  -4   4   1 95.5814 11.2331   2
  -4   4   1 84.0253 11.0078   5
   4   4  -1 87.4261  8.5915   7
   4   4  -1 106.497   8.537   7
   3  -4  -1 1842.58  149.15   7
   3  -4  -1 1972.74  148.52   6
   3  -4  -1 1890.65  148.92   8
   3  -4  -1 2183.22  165.25   9
   3  -4  -1 2093.76  163.77   4
   3  -4  -1 1991.20  149.04   7
   3  -4  -1 2270.86  159.87   5
   3  -4  -1 1964.71  148.82   8
   3  -4  -1 1867.00  150.18   1
  -3  -4   1 2028.55  162.26   9
   3  -4  -1 1810.32  155.03   3
   3   4  -1 1980.10  161.15   9
   3   4  -1 1847.33  147.59   7
   3   4  -1 1825.34  151.30   2
  -3   4   1 1642.23  157.93   5
   3   4  -1 2075.37  147.45   1
   3   4  -1 1999.06  161.16   9
   3   4  -1 2059.82  147.34   7
  -3   4   1 1875.00  151.68   2
  -3   4   1 1948.57  164.77   9
  -3   4   1 2053.06  149.37   7
  -3   4   1 1854.82  147.93   6
  -3   4   1 1930.30  162.40   4
  -3   4   1 1765.62  164.42   9
  -3   4   1 2263.10  154.84   3
  -3   4   1 1956.92  149.51   1
  -2  -4   1 372.764  31.668   1
   2  -4  -1 375.475  33.488   7
   2  -4  -1 423.658  32.848   8
   2  -4  -1 414.828  34.306   6
   2  -4  -1 509.546  33.237   8
   2  -4  -1 409.659  34.966   3
   2  -4  -1 474.869  34.978   1
   2  -4  -1 417.698  37.566   5
  -2  -4   1 433.322  36.258   9
   2  -4  -1 429.373  33.501   2
  -2  -4   1 401.816  32.008   1
  -2  -4   1 395.216  31.529   7
   2  -4  -1 478.139  34.186   7
  -2  -4   1 423.226  35.775   5
   2  -4  -1 451.900  32.822   6
   2  -4  -1 333.079  37.972   9
   2  -4  -1 483.577  36.996   4
   2  -4  -1 490.370  34.702   1
   2   4  -1 374.071  32.134   7
  -2   4   1 383.079  33.385   7
  -2   4   1 430.394  38.789   9
   2   4  -1 379.476  34.440   4
  -2   4   1 361.050  34.451   3
  -2   4   1 381.925  37.655   9
  -2   4   1 424.130  34.116   6
   2   4  -1 400.415  36.043   9
   2   4  -1 399.689  32.301   7
  -2   4   1 365.763  32.171   8
   2   4  -1 417.663  32.832   3
   2   4  -1 437.991  33.078   2
   2   4  -1 387.682  32.316   1
   2   4  -1 437.826  35.243   9
   2   4  -1 441.144  34.626   4
   2   4  -1 439.304  31.499   6
  -2   4   1 444.168  33.454   2
  -2   4   1 336.807  33.685   1
  -2   4   1 352.627  34.793   5
  -2   4   1 361.856  33.926   1
  -1  -4   1 2488.06  194.97   1
  -1  -4   1 2687.21  207.25   5
  -1  -4   1 2658.91  202.85   3
  -1  -4   1 2740.63  214.33   9
  -1  -4   1 2403.74  193.24   6
   1  -4  -1 2261.65  215.99   9
   1  -4  -1 2619.81  196.03   7
   1  -4  -1 2346.70  196.27   1
   1  -4  -1 2915.70  198.84   2
   1  -4  -1 2450.27  214.15   4
   1  -4  -1 2965.96  197.06   6
   1  -4  -1 2503.20  211.21   5
  -1  -4   1 2508.86  212.86   4
   1  -4  -1 2670.22  196.06   8
  -1  -4   1 2651.54  194.90   6
  -1  -4   1 2416.96  214.27   9
  -1  -4   1 2885.80  209.22   5
   1  -4  -1 2702.47  205.21   3
  -1  -4   1 2564.75  194.61   7
  -1  -4   1 2683.54  195.68   7
   1  -4  -1 2444.86  196.28   7
   1  -4  -1 2369.54  195.99   8
   1   4  -1 2417.94  213.84   9
  -1   4   1 2618.66  195.98   7
  -1   4   1 2624.31  196.61   1
   1   4  -1 2556.75  193.49   6
  -1   4   1 2685.53  216.54   9
   1   4  -1 2918.57  195.61   1
  -1   4   1 2427.83  204.66   3
   1   4  -1 2658.68  204.12   3
  -1   4   1 2317.04  207.65   5
  -1   4   1 2412.87  196.46   1
   1   4  -1 2628.87  215.20   9
   1   4  -1 2577.70  195.19   8
   1   4  -1 2631.09  213.43   4
  -1   4   1 2806.31  181.04  10
  -1   4   1 2701.83  196.68   7
   1   4  -1 2945.22  195.19   7
  -1   4   1 2390.87  198.62   2
   1   4  -1 2807.32  195.23   1
   1   4  -1 2510.16  194.71   6
  -1   4   1 2469.74  196.03   8
   1   4  -1 2686.80  195.12   8
  -1   4   1 2467.20  214.08   4
   0  -4  -1 1849.44  142.75   1
   0  -4   1 1940.26  141.96   1
   0  -4   1 2035.45  141.53   7
   0  -4  -1 1713.89  156.69   9
   0  -4   1 1598.40  141.44   8
   0  -4   1 1820.32  147.84   3
   0  -4  -1 2205.75  143.08   1
   0  -4   1 1838.55  155.90   9
   0  -4   1 1913.19  141.34   8
   0  -4  -1 1850.57  142.01   7
   0  -4   1 2055.61  155.95   9
   0  -4  -1 1637.13  141.97   7
   0  -4  -1 1730.23  147.66   3
   0  -4  -1 1791.11  141.66   8
   0  -4  -1 1780.65  141.64   6
   0  -4   1 1887.83  141.43   6
   0  -4   1 1828.39  141.70   1
   0  -4  -1 2195.34  131.33  10
   0  -4  -1 1740.19  155.06   4
   0  -4   1 1937.81  151.91   5
   0  -4   1 1770.02  140.19   6
   0  -4   1 2047.06  155.04   4
   0  -4  -1 2045.76  141.91   8
   0   4  -1 1927.06  148.18   3
   0   4  -1 1930.45  141.72   8
   0   4   1 2083.26  155.56   4
   0   4   1 1992.96  150.62   5
   0   4   1 1802.42  142.01   7
   0   4  -1 1676.67  141.88   1
   0   4  -1 1868.31  141.78   1
   0   4   1 1872.76  143.46   2
   0   4   1 1842.08  157.50   9
   0   4   1 1666.98  142.06   1
   0   4  -1 1863.78  141.37   6
   0   4   1 1721.20  147.86   3
   0   4  -1 1773.32  141.49   7
   0   4  -1 1834.16  156.09   9
   0   4   1 2216.76  143.26   1
   0   4  -1 1865.50  140.40   6
   0   4  -1 1808.40  155.14   4
   0   4   1 1834.06  141.86   8
   0   4   1 1872.45  142.19   7
   0   4  -1 1886.51  142.22   8
   0   4   1 1886.91  131.29  10
   0   4  -1 2055.42  155.89   9
   0   4   1 1830.65  141.97   6
  -1  -4  -1 748.495  55.910   8
   1  -4   1 842.314  63.150   4
  -1  -4  -1 709.106  52.691  10
   1  -4   1 781.824  57.522   1
  -1  -4  -1 703.773  58.788   3
  -1  -4  -1 790.521  58.012   1
   1  -4   1 688.606  63.400   9
   1  -4   1 805.976  58.066   1
   1  -4   1 778.692  57.235   8
  -1  -4  -1 640.055  61.899   4
  -1  -4  -1 713.578  57.206   7
  -1  -4  -1 747.335  56.017   8
  -1  -4  -1 650.559  56.726   7
  -1  -4  -1 788.371  62.297   4
   1  -4   1 781.106  59.897   3
   1  -4   1 729.614  61.537   5
  -1  -4  -1 771.778  56.588   6
   1  -4   1 703.644  57.258   6
   1  -4   1 809.202  57.029   8
  -1  -4  -1 769.602  64.298   9
   1  -4   1 733.788  57.242   7
   1   4   1 654.768  52.610  10
   1   4   1 714.970  59.133   3
  -1   4  -1 842.438  57.474   8
  -1   4  -1 636.562  63.189   9
   1   4   1 827.788  57.444   7
   1   4   1 823.361  62.934   4
   1   4   1 836.904  57.192   6
  -1   4  -1 697.539  62.956   4
   1   4   1 738.800  56.481   8
   1   4   1 777.034  60.408   5
  -1   4  -1 639.923  57.081   7
  -1   4  -1 735.774  58.016   1
  -1   4  -1 742.965  57.625   1
   1   4   1 740.757  57.590   7
   1   4   1 734.071  63.934   9
   1   4   1 739.377  62.468   4
  -1   4  -1 739.001  57.191   8
   1   4   1 692.126  57.537   1
  -1   4  -1 661.993  56.377   6
  -1   4  -1 690.337  59.762   3
  -2  -4  -1 284.306  22.275   2
  -2  -4  -1 296.696  23.332   1
  -2  -4  -1 295.970  21.501  10
   2  -4   1 264.411  23.563   8
  -2  -4  -1 275.667  23.915   1
   2  -4   1 285.232  23.722   8
   2  -4   1 316.413  24.662   1
   2  -4   1 295.259  23.915   7
   2  -4   1 314.736  27.489   9
  -2  -4  -1 313.033  24.548   4
   2  -4   1 263.617  26.306   4
  -2  -4  -1 310.237  22.621   6
   2  -4   1 266.535  26.944   9
  -2  -4  -1 270.164  22.749   7
  -2  -4  -1 297.444  24.954   5
   2  -4   1 272.570  24.724   3
   2  -4   1 337.417  26.418   5
   2  -4   1 293.272  23.915   6
   2  -4   1 275.511  23.102   6
  -2  -4  -1 232.564  26.542   9
  -2  -4  -1 336.364  27.028   9
  -2  -4  -1 257.883  23.153   7
   2   4   1 245.267  26.003   9
  -2   4  -1 326.961  24.951   2
   2   4   1 260.422  21.141  10
   2   4   1 262.546  25.181   4
  -2   4  -1 246.122  23.578   7
   2   4   1 258.372  22.248   2
   2   4   1 332.144  23.363   7
  -2   4  -1 232.593  24.361   3
   2   4   1 310.166  22.435   8
  -2   4  -1 242.175  26.899   9
  -2   4  -1 288.923  23.447   8
   2   4   1 249.601  23.524   7
   2   4   1 304.025  23.754   1
  -2   4  -1 309.565  24.258   1
  -2   4  -1 269.251  23.744   8
   2   4   1 297.832  23.149   6
  -2   4  -1 316.361  23.332   6
  -2   4  -1 294.397  27.635   9
  -2   4  -1 262.113  24.562   1
   2   4   1 268.999  24.170   5
   2   4   1 287.984  23.691   3
  -3  -4  -1 814.280  59.479   7
  -3  -4  -1 798.657  59.365   1
   3  -4   1 632.457  63.851   5
   3  -4   1 716.016  66.702   9
  -3  -4  -1 797.404  59.700   2
   3  -4   1 800.619  60.036   8
  -3  -4  -1 896.570  63.775   5
  -3  -4  -1 718.204  58.673   7
  -3  -4  -1 658.826  54.538  10
  -3  -4  -1 827.204  66.804   9
   3  -4   1 758.917  67.031   9
  -3  -4  -1 829.496  66.095   9
  -3  -4  -1 656.861  59.632   1
  -3  -4  -1 836.121  58.140   6
   3  -4   1 691.156  66.196   4
   3  -4   1 772.110  59.956   6
   3  -4   1 824.617  59.553   6
   3  -4   1 749.037  62.601   3
   3  -4   1 881.806  60.139   8
   3  -4   1 697.673  60.625   1
   3   4   1 814.360  62.566   5
  -3   4  -1 730.993  67.149   9
   3   4   1 730.375  61.296   3
   3   4   1 742.735  59.525   1
  -3   4  -1 706.442  66.112   4
   3   4   1 759.782  59.755   2
  -3   4  -1 647.544  59.834   7
   3   4   1 805.839  59.268   7
   3   4   1 834.644  65.813   9
  -3   4  -1 805.126  59.333   6
  -3   4  -1 774.353  67.250   9
  -3   4  -1 822.804  61.524   1
  -3   4  -1 800.485  60.779   1
   3   4   1 774.327  64.843   4
   3   4   1 751.870  58.455   8
  -3   4  -1 708.858  61.538   2
  -3   4  -1 745.692  59.286   8
   3   4   1 809.275  60.097   7
   4  -4   1 126.924  16.770   9
  -4  -4  -1 122.416  11.759  10
   4  -4   1 142.739  14.317   6
   4  -4   1 130.458  16.165   4
   4  -4   1 119.766  16.090   9
  -4  -4  -1 138.415  12.736   2
   4  -4   1 159.740  15.098   3
   4  -4   1 122.130  14.686   5
  -4  -4  -1 118.605  14.904   9
  -4  -4  -1 135.143  12.197   7
  -4  -4  -1 131.840  12.772   1
  -4  -4  -1 158.651  12.977   7
  -4  -4  -1 124.069  13.346   1
   4  -4   1 142.522  15.128   1
  -4  -4  -1 130.192  11.024   6
  -4  -4  -1 134.250  15.838   9
   4  -4   1 120.975  13.646   8
  -4   4  -1 147.522  17.657   9
  -4   4  -1 129.154  14.708   1
   4   4   1 133.265  13.164   1
   4   4   1 167.949  14.786   4
  -4   4  -1 151.690  14.575   7
  -4   4  -1 152.265  15.654   4
   4   4   1 144.013  12.703   5
   4   4   1 136.325  12.068   8
  -4   4  -1 141.283  17.091   9
   4   4   1 121.465  12.613   3
  -4   4  -1 143.431  15.345   2
  -4   4  -1 134.973  13.101   6
  -5  -4  -1 125.296  12.392   1
   5  -4   1 118.534  13.363   8
  -5  -4  -1 148.113  16.576   9
  -5  -4  -1 115.383  11.352  10
  -5  -4  -1 126.664  11.406   7
  -5  -4  -1 112.497  12.609   1
  -5  -4  -1 123.606  12.646   2
   5  -4   1 151.315  15.146   3
   5  -4   1 92.0395 13.3797   5
  -5  -4  -1 120.897  14.443   9
  -5   4  -1 119.956  13.823   7
  -5   4  -1 152.704  18.196   9
  -5   4  -1 133.152  17.211   9
   5   4   1 111.996  12.130   3
  -5   4  -1 120.035  14.427   1
   5   4   1 121.615  11.940   8
  -5   4  -1 104.432  14.408   2
   5   4   1 144.824  14.472   4
  -5   4  -1 116.622  12.726   6
  -6  -4  -1 21.4298  5.7802   1
   6  -4   1 47.3381  8.5104   8
  -6  -4  -1 34.2789  7.2911   2
  -6  -4  -1 37.5984  5.0574   7
  -6  -4  -1 30.4781  5.7714  10
  -6  -4  -1 26.6271  7.9483   9
  -6  -4  -1 36.9187  9.8338   9
  -6  -4  -1 28.0198  6.0714   1
   6   4   1 30.2086  6.3253   3
  -6   4  -1 18.2065  8.0374   2
  -6   4  -1 41.8295  9.1720   1
  -6   4  -1 42.2005  8.7647   7
  -6   4  -1 28.4434 10.9089   9
  -7  -4  -1 32.6841  9.0077   9
  -7  -4  -1 47.6110  7.0980  10
  -7  -4  -1 27.2060  5.5935   1
  -7  -4  -1 49.4001 11.1471   9
  -7  -4  -1 30.5821  5.7313   1
   7  -4   1 30.7106  9.2117   8
  -7   4  -1 15.1409 11.9420   9
  -7   4  -1 44.7817 10.2509   1
  -7   4  -1 38.7324 10.5428   2
  -7   4  -1 26.9156  8.8646   7
  -8  -4  -1 29.0948  6.8330  10
  -8   4  -1 28.0551 11.4522   2
  -8   4  -1 32.1822  9.8926   1
   8  -5  -1 204.031  21.795   8
  -8   5   1 211.153  24.887   2
  -8   5   1 233.205  28.344   9
  -8   5   1 199.418  21.195   1
  -8   5   1 222.748  21.688   7
  -7  -5   1 214.797  21.348   9
   7  -5  -1 184.727  20.324   8
  -7  -5   1 233.713  20.134   9
  -7  -5   1 235.728  21.872   2
  -7   5   1 198.663  22.600   2
  -7   5   1 236.221  21.473   7
   7   5  -1 186.028  18.505   3
  -7   5   1 197.982  21.020   1
   7   5  -1 203.231  20.154   4
  -7   5   1 223.146  27.233   9
   6  -5  -1 100.011  12.898   7
   6  -5  -1 122.913  12.711   8
  -6  -5   1 122.194  13.061   9
  -6  -5   1 90.7409 12.0326   2
  -6  -5   1 98.6034 10.9634   9
  -6   5   1 80.5841 12.1889   7
  -6   5   1 107.376  14.375   2
   6   5  -1 108.997  11.182   4
  -6   5   1 122.936  17.651   9
  -6   5   1 106.415  13.127   1
  -6   5   1 111.073  17.869   9
   5  -5  -1 38.7441  7.5324   7
  -5  -5   1 43.1527  7.2273   2
   5  -5  -1 35.2624  6.7917   8
   5  -5  -1 49.8474  8.4476   5
  -5  -5   1 41.5629  7.3022   9
  -5  -5   1 43.4737  6.1674   9
   5  -5  -1 56.1427  8.5124   3
   5  -5  -1 59.2042 10.4822   1
   5  -5  -1 52.2298 10.3767   4
   5   5  -1 39.5370  6.0809   4
  -5   5   1 66.5201 10.3530   1
  -5   5   1 29.1544 10.4140   9
  -5   5   1 44.5744  8.3393   1
   5   5  -1 41.2813  5.4754   4
  -5   5   1 42.5404  8.8005   2
  -5   5   1 52.7485 11.6721   9
   5   5  -1 53.6252  5.2240   3
  -5   5   1 50.5502  8.4193   7
   4  -5  -1 12.2529  5.2269   5
  -4  -5   1 6.23776 4.36726   9
   4  -5  -1 15.1460  6.1266   4
   4  -5  -1 4.16841 4.82586   8
   4  -5  -1 30.7181  8.4084   9
   4  -5  -1 12.4872  5.0424   6
   4  -5  -1 2.99048 4.05570   7
  -4  -5   1 30.7132  4.8064   9
   4  -5  -1 8.75407 4.30265   8
   4  -5  -1 11.6964  4.6312   3
   4  -5  -1 2.62473 4.55662   1
   4   5  -1 6.92609 2.75767   7
   4   5  -1 6.92595 2.50417   4
  -4   5   1 10.5519  4.7335   7
  -4   5   1 8.02078 7.06420   9
  -4   5   1 4.84005 6.32266   9
   4   5  -1 21.9463  3.5325   4
  -4   5   1 3.01736 4.53056   1
  -4   5   1 2.90360 4.72083   5
   4   5  -1 4.42849 2.92983   7
   4   5  -1 9.91646 2.12666   3
  -4   5   1 10.8784  4.4333   4
  -4   5   1 9.89233 4.07498   6
  -4   5   1 12.0084  4.1599   3
  -4   5   1 11.4455  5.0313   2
   3  -5  -1 3323.91  253.07   8
  -3  -5   1 3283.22  250.42   7
   3  -5  -1 3131.19  254.02   1
   3  -5  -1 3234.44  277.35   4
  -3  -5   1 3039.41  250.30   7
   3  -5  -1 3151.22  270.39   5
  -3  -5   1 3531.74  250.46   1
   3  -5  -1 3630.16  279.54   9
   3  -5  -1 3488.07  252.24   6
   3  -5  -1 3387.08  253.29   8
  -3  -5   1 3618.11  276.44   9
  -3  -5   1 3451.47  250.63   1
   3  -5  -1 3115.88  252.72   7
   3  -5  -1 3485.13  263.69   3
   3  -5  -1 2947.64  250.58   6
  -3   5   1 3580.91  251.90   6
   3   5  -1 3378.91  251.67   7
   3   5  -1 3326.11  274.69   4
   3   5  -1 3123.47  274.42   4
  -3   5   1 3753.14  263.37   3
  -3   5   1 3263.41  278.86   9
  -3   5   1 2877.65  253.01   1
  -3   5   1 3566.39  276.36   4
  -3   5   1 3270.42  253.00   7
   3   5  -1 3364.11  274.87   9
   3   5  -1 3703.52  251.46   1
  -3   5   1 3220.08  268.72   5
   3   5  -1 3625.36  257.12   2
  -3   5   1 3446.17  257.47   2
  -3   5   1 3031.03  278.23   9
   3   5  -1 3390.95  251.23   7
  -3   5   1 3336.47  252.09   8
   3   5  -1 3322.01  261.17   3
   2  -5  -1 2194.05  155.54   6
   2  -5  -1 2188.43  156.90   8
   2  -5  -1 1879.86  157.11   6
   2  -5  -1 2123.74  172.00   4
  -2  -5   1 2137.79  171.53   9
  -2  -5   1 2265.53  167.89   5
  -2  -5   1 2081.95  153.85   6
  -2  -5   1 2027.17  155.91   1
   2  -5  -1 1761.53  163.48   3
   2  -5  -1 2048.09  157.24   7
  -2  -5   1 2378.10  165.48   5
  -2  -5   1 2185.55  155.48   1
   2  -5  -1 2107.69  157.25   7
   2  -5  -1 2099.99  158.06   1
   2  -5  -1 1970.95  156.71   8
   2  -5  -1 1942.30  174.04   9
  -2  -5   1 1990.78  155.33   7
  -2  -5   1 1997.51  153.63   6
  -2   5   1 1903.60  173.67   9
  -2   5   1 1973.12  157.06   6
  -2   5   1 2074.21  157.97   1
   2   5  -1 2008.81  170.04   4
   2   5  -1 1925.55  158.53   2
   2   5  -1 2074.81  170.61   9
  -2   5   1 1834.32  157.41   1
  -2   5   1 2039.12  157.07   7
   2   5  -1 1943.92  171.91   9
  -2   5   1 2301.02  173.74   9
  -2   5   1 2050.98  159.04   2
   2   5  -1 2167.14  156.13   7
   2   5  -1 2072.48  155.75   1
  -2   5   1 2103.55  156.48   8
  -2   5   1 2260.24  164.05   3
   2   5  -1 2395.31  156.14   7
   2   5  -1 1993.08  154.27   6
  -2   5   1 1903.87  166.18   5
   2   5  -1 1874.80  161.86   3
  -1  -5   1 43.8142  5.6960   4
  -1  -5   1 36.3072  4.7184   6
  -1  -5   1 55.9747  5.7608   3
  -1  -5   1 52.0700  8.0157   9
   1  -5  -1 30.3552  7.1272   7
  -1  -5   1 38.6616  7.8549   5
   1  -5  -1 57.5002  7.7532   4
  -1  -5   1 32.5687  6.9950   1
   1  -5  -1 50.4575  8.3674   1
  -1  -5   1 51.1468  5.5835   7
  -1  -5   1 46.9620  5.8746   5
   1  -5  -1 43.3555  8.1598   1
   1  -5  -1 34.5481  9.9625   9
   1  -5  -1 73.1034  7.0984   8
  -1  -5   1 41.4079  6.1552   1
   1  -5  -1 41.6397 11.0905   5
  -1  -5   1 43.1914  6.8997   7
   1  -5  -1 36.7949  6.4196   8
  -1  -5   1 38.3306  7.4929   9
   1  -5  -1 50.3732  8.3304   3
   1  -5  -1 61.1068  7.6051   7
   1  -5  -1 51.7523  5.8974   2
  -1  -5   1 42.0625  7.3199   6
   1  -5  -1 70.0109 10.0666   6
  -1   5   1 51.4064  6.6418   8
  -1   5   1 73.1269  9.0516   1
  -1   5   1 41.9012  7.2349   7
   1   5  -1 44.7429  7.1788   6
   1   5  -1 47.3458  5.6916   8
  -1   5   1 48.5312  6.4511  10
   1   5  -1 42.0887  6.2255   1
   1   5  -1 40.5438  6.0706   7
   1   5  -1 40.9420  6.5091   4
  -1   5   1 35.2818  7.2977   7
   1   5  -1 39.6835  7.2576   9
  -1   5   1 39.4109  8.0146   1
   1   5  -1 34.9940  8.9043   9
   1   5  -1 53.8598  5.4692   8
  -1   5   1 50.5093  5.5871   2
  -1   5   1 56.1473  8.4923   3
  -1   5   1 50.8694  6.8500   5
   1   5  -1 57.0919  5.6789   6
  -1   5   1 30.0997  6.5873   4
   1   5  -1 46.1031  7.3002   3
  -1   5   1 47.3181  8.8858   9
   0  -5   1 610.828  49.206   1
   0  -5  -1 573.740  48.230   8
   0  -5   1 655.616  49.468   1
   0  -5  -1 581.190  50.331   1
   0  -5  -1 671.137  48.479   8
   0  -5  -1 522.873  55.436   9
   0  -5   1 599.805  49.522   6
   0  -5  -1 740.160  54.157   4
   0  -5   1 697.212  49.545   7
   0  -5   1 599.803  53.456   5
   0  -5   1 645.169  54.832   9
   0  -5  -1 664.061  51.312   3
   0  -5  -1 593.098  49.915   6
   0  -5   1 570.236  54.252   9
   0  -5   1 525.968  47.641   6
   0  -5  -1 636.283  49.569   7
   0  -5   1 645.582  48.757   7
   0  -5   1 615.618  53.245   4
   0  -5   1 589.014  48.108   8
   0  -5  -1 630.597  49.940   7
   0  -5  -1 547.825  55.040   5
   0  -5   1 593.321  51.303   3
   0  -5   1 679.524  47.951   8
   0  -5  -1 623.898  50.261   1
   0   5   1 624.770  50.532   6
   0   5   1 605.925  51.590   3
   0   5   1 643.468  50.118   1
   0   5  -1 625.202  49.144   8
   0   5  -1 688.829  48.651   8
   0   5   1 648.872  45.867  10
   0   5   1 668.897  51.874   5
   0   5   1 656.054  54.024   4
   0   5   1 668.417  48.494   2
   0   5   1 557.252  49.228   7
   0   5   1 579.969  48.664   8
   0   5  -1 581.127  49.303   6
   0   5  -1 605.880  49.143   1
   0   5  -1 680.232  55.249   9
   0   5  -1 568.351  53.583   4
   0   5  -1 573.977  54.261   9
   0   5   1 724.645  50.890   1
   0   5  -1 712.587  49.255   7
   0   5   1 633.595  49.806   7
   0   5   1 747.478  57.920   9
   0   5  -1 551.902  51.511   3
   0   5  -1 593.570  48.002   6
   1  -5   1 235.870  24.546   9
   1  -5   1 299.643  24.697   5
   1  -5   1 291.399  22.256   1
  -1  -5  -1 252.007  19.561   8
  -1  -5  -1 288.897  23.132   4
   1  -5   1 214.677  24.106   9
  -1  -5  -1 249.282  21.197   7
  -1  -5  -1 239.254  25.320   9
   1  -5   1 227.642  20.968   8
  -1  -5  -1 195.910  21.523   1
   1  -5   1 229.809  21.997   1
  -1  -5  -1 233.705  19.622  10
  -1  -5  -1 289.030  21.493   3
  -1  -5  -1 265.891  21.643   7
   1  -5   1 199.316  20.316   6
   1  -5   1 234.801  23.600   4
   1  -5   1 210.310  21.490   6
  -1  -5  -1 254.283  20.899   6
   1  -5   1 275.110  21.696   7
   1  -5   1 314.363  21.408   8
   1  -5   1 251.178  22.715   3
  -1   5  -1 247.152  22.737   1
  -1   5  -1 234.546  22.703   3
   1   5   1 270.951  21.761   7
   1   5   1 244.222  22.029   5
  -1   5  -1 278.104  20.971   6
   1   5   1 278.391  22.170   6
  -1   5  -1 272.084  24.238   4
   1   5   1 254.013  25.674   9
  -1   5  -1 245.495  21.598   7
  -1   5  -1 266.350  21.594   8
   1   5   1 233.037  21.775   1
  -1   5  -1 290.810  25.282   9
  -1   5  -1 220.992  21.345   8
   1   5   1 257.020  23.574   4
   1   5   1 233.659  20.481   8
  -1   5  -1 260.954  22.146   1
   1   5   1 258.915  19.937  10
   1   5   1 246.823  21.243   8
   1   5   1 275.637  22.219   7
   1   5   1 233.754  21.708   3
  -2  -5  -1 878.362  63.741  10
   2  -5   1 1006.82   73.05   3
   2  -5   1 947.036  70.610   1
  -2  -5  -1 946.841  69.153   1
  -2  -5  -1 856.723  69.708   1
   2  -5   1 903.453  69.740   7
   2  -5   1 932.772  69.424   8
   2  -5   1 930.303  76.744   4
   2  -5   1 980.161  70.017   6
   2  -5   1 891.864  77.519   9
   2  -5   1 854.172  74.767   5
  -2  -5  -1 876.973  69.188   7
  -2  -5  -1 893.453  77.557   9
   2  -5   1 836.487  68.560   6
  -2  -5  -1 925.383  68.638   7
   2  -5   1 853.560  69.345   8
  -2  -5  -1 996.412  74.447   4
  -2  -5  -1 821.737  67.782   6
   2   5   1 885.197  69.796   7
  -2   5  -1 965.367  68.863   6
   2   5   1 1005.82   69.07   8
   2   5   1 852.086  68.126   8
  -2   5  -1 1055.78   78.33   9
   2   5   1 786.118  71.254   3
  -2   5  -1 937.837  69.992   7
   2   5   1 866.649  75.409   4
  -2   5  -1 809.223  72.441   3
  -2   5  -1 1002.57   71.46   2
   2   5   1 835.168  72.735   5
  -2   5  -1 944.557  71.041   1
  -2   5  -1 943.649  69.481   8
   2   5   1 898.118  76.698   9
  -2   5  -1 1058.90   78.66   9
   2   5   1 771.378  69.273   1
  -2   5  -1 853.239  69.456   6
   2   5   1 739.008  75.518   4
  -2   5  -1 956.844  69.586   8
  -2   5  -1 862.040  70.077   1
  -2   5  -1 730.544  76.255   4
   2   5   1 835.441  69.032   7
   3  -5   1 1061.38   92.07   8
   3  -5   1 1237.31   92.45   6
   3  -5   1 1091.37   93.00   1
  -3  -5  -1 1122.07  101.44   9
  -3  -5  -1 1158.94   90.78   7
   3  -5   1 1385.75   91.82   6
  -3  -5  -1 1169.00   91.35   1
   3  -5   1 1241.74   96.57   3
  -3  -5  -1 1323.76   84.64  10
  -3  -5  -1 1190.82   92.03   2
   3  -5   1 1114.37   98.74   5
  -3  -5  -1 982.435  91.658   1
  -3  -5  -1 1178.84   91.54   7
   3  -5   1 1036.06  101.35   4
  -3  -5  -1 1138.36   89.80   6
   3  -5   1 1231.69  102.64   9
  -3  -5  -1 1297.37  102.52   9
  -3   5  -1 1031.07   96.02   3
  -3   5  -1 1167.48   91.77   8
  -3   5  -1 1135.18   92.81   1
   3   5   1 1355.01   92.70   7
  -3   5  -1 1272.62  103.35   9
  -3   5  -1 1222.06   93.93   1
  -3   5  -1 1315.98  103.49   9
   3   5   1 1248.28  101.08   9
  -3   5  -1 1139.89   91.29   6
   3   5   1 1301.67   90.79   8
  -3   5  -1 1418.37   95.27   2
   3   5   1 1217.90   91.99   1
   3   5   1 1085.72   94.67   3
  -3   5  -1 1042.33   92.26   7
   3   5   1 1293.81   92.16   2
   3   5   1 1195.19   96.58   5
   3   5   1 1302.54  100.23   4
   4  -5   1 2040.99  188.04   5
  -4  -5  -1 2353.99  175.39   7
   4  -5   1 2179.93  194.71   9
  -4  -5  -1 2184.36  194.04   9
   4  -5   1 2632.34  195.23   4
   4  -5   1 2340.81  184.31   3
  -4  -5  -1 1991.67  192.77   9
   4  -5   1 2095.81  176.68   8
  -4  -5  -1 2149.89  178.18   2
   4  -5   1 2536.18  176.53   6
  -4  -5  -1 2558.27  172.92   6
  -4  -5  -1 2455.10  174.73   7
  -4  -5  -1 2221.33  175.87   1
  -4  -5  -1 2342.31  162.14  10
   4  -5   1 2777.90  196.10   9
   4  -5   1 2295.97  177.78   1
   4   5   1 2318.36  178.44   2
  -4   5  -1 1999.78  194.84   9
  -4   5  -1 2202.58  176.81   7
  -4   5  -1 2236.29  177.36   1
  -4   5  -1 2335.71  180.99   2
  -4   5  -1 2020.02  194.78   9
  -4   5  -1 2251.19  175.02   6
  -4   5  -1 2617.03  178.95   1
   4   5   1 2429.90  175.14   8
  -4   5  -1 2434.98  193.73   4
   4   5   1 2572.97  192.45   4
   4   5   1 2374.65  182.65   3
  -5  -5  -1 207.446  17.104   1
  -5  -5  -1 185.398  19.885   9
  -5  -5  -1 182.888  15.984   7
   5  -5   1 225.199  19.100   8
  -5  -5  -1 180.186  17.419   1
   5  -5   1 202.523  19.845   3
  -5  -5  -1 189.546  21.298   9
  -5  -5  -1 171.580  15.782  10
  -5  -5  -1 168.522  17.109   2
   5  -5   1 187.733  19.943   5
  -5   5  -1 203.196  20.262   1
  -5   5  -1 173.635  19.141   7
  -5   5  -1 187.767  23.483   9
  -5   5  -1 172.070  17.530   6
   5   5   1 206.027  19.579   4
  -5   5  -1 197.275  20.157   2
   5   5   1 192.871  17.595   3
  -5   5  -1 168.359  22.597   9
   6  -5   1 127.997  14.635   8
  -6  -5  -1 136.402  17.611   9
  -6  -5  -1 111.600  11.690  10
  -6  -5  -1 93.6318 14.5190   9
  -6  -5  -1 126.792  12.299   1
  -6  -5  -1 113.512  12.364   1
  -6   5  -1 98.5716 18.7509   9
  -6   5  -1 149.454  16.200   7
  -6   5  -1 124.378  15.863   1
  -6   5  -1 154.165  17.491   2
  -7  -5  -1 120.569  15.476   9
  -7  -5  -1 109.153  17.227   9
  -7  -5  -1 105.446  11.442  10
  -7   5  -1 109.837  15.544   7
  -7   5  -1 112.534  15.917   1
  -7   5  -1 101.353  16.390   2
  -8   6   1 217.586  21.692   1
  -8   6   1 179.682  23.260   2
  -8   6   1 210.650  29.119   9
  -8   6   1 187.024  20.953   7
  -7  -6   1 14.1437  6.2675   9
  -7  -6   1 6.97378 4.49317   9
   7  -6  -1 15.9426  7.4118   8
  -7   6   1 19.1690  8.8140   2
   7   6  -1 3.11390 5.18162   4
  -7   6   1 21.7358  7.7010   7
  -7   6   1 9.22350 6.93687   1
   7   6  -1 13.4150  4.1408   3
  -7   6   1 7.89446 9.24798   9
   6  -6  -1 267.471  25.714   8
  -6  -6   1 286.759  27.441   9
   6  -6  -1 314.575  27.343   7
  -6  -6   1 316.421  26.269   2
  -6  -6   1 300.647  25.987   9
  -6   6   1 244.082  32.505   9
  -6   6   1 278.802  32.688   9
  -6   6   1 330.063  27.855   1
   6   6  -1 303.069  24.341   3
  -6   6   1 283.301  26.845   7
  -6   6   1 322.657  28.367   2
   6   6  -1 232.114  25.549   4
   5  -6  -1 22.7280  7.2369   5
  -5  -6   1 15.8332  5.9949   9
   5  -6  -1 13.6122  5.7182   7
  -5  -6   1 19.2510  4.8929   9
   5  -6  -1 12.3069  5.7515   3
   5  -6  -1 12.5221  5.6178   8
   5   6  -1 15.2042  4.1493   4
  -5   6   1 9.02413 5.75688   2
   5   6  -1 14.3409  4.9377   4
  -5   6   1 13.0928  6.9485   1
  -5   6   1 15.4628  9.8931   9
  -5   6   1 20.1016  9.3079   9
  -5   6   1 19.4936  6.6315   7
   5   6  -1 15.1412  3.4005   3
   4  -6  -1 71.7216 12.3699   5
   4  -6  -1 97.7759 13.8672   1
   4  -6  -1 99.2043 11.8268   7
   4  -6  -1 91.1514 12.4302   6
  -4  -6   1 101.221  12.232   9
   4  -6  -1 85.6739 10.6750   8
   4  -6  -1 92.0743 14.8032   9
  -4  -6   1 102.216  11.650   9
   4  -6  -1 78.1387 11.5818   3
   4  -6  -1 124.805  15.110   4
   4   6  -1 102.819   9.237   3
  -4   6   1 99.3820 11.1096   3
  -4   6   1 100.424  11.771   2
   4   6  -1 112.335  10.736   7
  -4   6   1 89.2464 11.5193   6
  -4   6   1 100.083  12.046   4
  -4   6   1 97.7363 12.7092   5
  -4   6   1 97.0470 13.3675   1
   4   6  -1 88.5973  9.9214   4
  -4   6   1 93.5002 12.2306   7
   4   6  -1 110.085  10.936   4
  -4   6   1 77.8600 15.4606   9
  -4   6   1 98.1753 15.8870   9
  -3  -6   1 63.0113  9.3078   9
   3  -6  -1 58.4433  7.9635   8
   3  -6  -1 67.1485  8.1877   6
  -3  -6   1 67.8421  6.7343   1
   3  -6  -1 52.7636 11.0738   5
  -3  -6   1 65.3218  6.6981   1
  -3  -6   1 66.8368  7.6639   5
   3  -6  -1 50.6194  8.7217   3
   3  -6  -1 44.1929  8.3031   7
   3  -6  -1 62.2445 10.3203   4
  -3  -6   1 61.9526  5.8245   7
   3  -6  -1 62.0858  9.7797   6
  -3  -6   1 67.7385 10.3548   5
  -3  -6   1 54.4303  5.7136   7
   3  -6  -1 64.9998 10.7036   1
   3  -6  -1 41.2674 11.6150   9
  -3   6   1 83.7592 11.1377   1
  -3   6   1 63.4974 10.3961   1
   3   6  -1 50.9038  7.2381   1
   3   6  -1 60.6597  7.6974   4
  -3   6   1 60.2812  9.0971   7
  -3   6   1 64.7405  8.9134   3
  -3   6   1 63.2355  9.2793   5
  -3   6   1 55.9801  7.0163   8
  -3   6   1 63.2271  9.4500   6
   3   6  -1 68.0815  8.1861   7
   3   6  -1 57.6430  6.6301   3
  -3   6   1 61.6351  9.0197   4
  -3   6   1 62.9967 12.7590   9
   3   6  -1 64.6121  7.4027   7
  -3   6   1 52.4850  7.8793   2
  -3   6   1 56.4300 11.7079   9
   2  -6  -1 8.77472 5.43200   6
   2  -6  -1 8.63029 5.06753   1
   2  -6  -1 7.73008 4.26043   7
   2  -6  -1 3.41629 4.17667   7
  -2  -6   1 5.21524 1.98329   6
   2  -6  -1 5.49823 4.10168   8
   2  -6  -1 5.87712 4.77968   8
   2  -6  -1 11.1835  4.9854   3
  -2  -6   1 4.13325 5.59469   5
   2  -6  -1 6.64933 3.27254   6
  -2  -6   1 6.85284 2.62192   7
  -2  -6   1 7.63486 3.52040   7
   2  -6  -1 18.0271  8.2708   9
   2  -6  -1 26.1849  6.6450   4
  -2  -6   1 4.70624 4.81181   9
  -2  -6   1 7.39577 3.06525   5
   2  -6  -1 10.9191  6.8631   5
  -2  -6   1 8.65842 2.55269   6
  -2  -6   1 22.3049  4.2027   1
  -2  -6   1 11.8879  4.9253   1
  -2   6   1 9.38652 3.91797   2
  -2   6   1 10.2212  4.7625   7
   2   6  -1 12.1019  4.0925   3
   2   6  -1 20.9845  4.3455   7
   2   6  -1 8.25444 3.94903   1
  -2   6   1 8.00370 5.46592   1
   2   6  -1 18.9203  7.4230   9
  -2   6   1 1.86664 4.15555   4
  -2   6   1 9.31494 5.14974   3
   2   6  -1 4.53049 2.15538   8
   2   6  -1 11.3355  3.9985   7
  -2   6   1 2.09916 3.41454   8
  -2   6   1 22.1543  8.3299   9
  -2   6   1 6.15318 5.10565   1
  -2   6   1 6.60468 6.03184   9
  -2   6   1 6.25379 3.83899   5
   2   6  -1 0.80110 3.62323   4
   2   6  -1 7.90020 2.92569   8
   2   6  -1 7.60768 3.04400   2
  -2   6   1 11.8899  5.4732   6
   2   6  -1 6.52187 4.11200   9
   1  -6  -1 362.214  44.841   5
   1  -6  -1 465.314  41.060   1
  -1  -6   1 490.319  38.617   7
   1  -6  -1 479.123  42.434   3
  -1  -6   1 489.136  40.142   6
  -1  -6   1 525.748  40.082   3
   1  -6  -1 480.542  43.761   4
   1  -6  -1 544.943  47.229   9
  -1  -6   1 480.915  44.230   9
  -1  -6   1 545.708  39.731   1
   1  -6  -1 470.606  39.074   8
  -1  -6   1 440.499  37.613   6
   1  -6  -1 520.588  41.210   7
   1  -6  -1 444.835  41.526   6
   1  -6  -1 473.554  40.166   7
  -1  -6   1 441.665  43.847   9
  -1  -6   1 487.003  43.622   5
  -1  -6   1 487.599  40.130   7
   1  -6  -1 447.497  40.844   1
  -1   6   1 484.415  40.932   7
  -1   6   1 469.321  40.221   7
  -1   6   1 387.026  41.687   3
   1   6  -1 449.852  39.307   7
  -1   6   1 476.380  36.842  10
  -1   6   1 582.519  44.140   4
  -1   6   1 544.093  39.676   8
   1   6  -1 528.617  38.344   8
   1   6  -1 530.493  40.396   6
  -1   6   1 444.495  38.917   2
   1   6  -1 488.102  39.436   1
   1   6  -1 521.543  45.863   9
   1   6  -1 480.127  41.788   3
   1   6  -1 523.430  38.755   8
   1   6  -1 557.988  38.652   6
   1   6  -1 499.278  42.938   4
  -1   6   1 510.838  45.222   9
  -1   6   1 480.292  41.065   1
  -1   6   1 592.297  42.214   1
   1   6  -1 443.292  43.375   9
  -1   6   1 510.168  41.796   5
   0  -6   1 195.049  18.912   7
   0  -6   1 207.101  20.033   6
   0  -6  -1 245.029  18.172   8
   0  -6   1 225.300  18.277   7
   0  -6   1 212.229  19.813   4
   0  -6   1 163.545  18.992   3
   0  -6   1 170.303  20.940   5
   0  -6  -1 179.820  22.948   5
   0  -6  -1 179.668  18.861   3
   0  -6   1 195.300  18.970   1
   0  -6  -1 217.265  20.530   4
   0  -6   1 193.512  17.133   8
   0  -6   1 203.478  21.446   9
   0  -6  -1 229.619  20.073   7
   0  -6   1 196.055  17.175   6
   0  -6   1 185.253  21.274   9
   0  -6  -1 218.477  19.073   7
   0  -6  -1 195.848  19.775   6
   0  -6   1 176.603  18.684   1
   0  -6  -1 179.667  22.682   9
   0  -6   1 236.197  17.115   8
   0  -6  -1 214.094  20.624   1
   0  -6  -1 216.853  17.421   8
   0  -6  -1 218.586  20.284   1
   0   6  -1 228.915  18.987   7
   0   6   1 168.069  18.586   5
   0   6  -1 230.826  22.749   9
   0   6  -1 209.851  19.593   6
   0   6   1 225.812  19.318   7
   0   6   1 210.431  20.607   4
   0   6   1 196.001  20.120   3
   0   6  -1 236.773  20.817   4
   0   6   1 210.809  24.420   9
   0   6  -1 191.481  18.745   1
   0   6  -1 205.486  17.682   6
   0   6   1 185.928  19.775   1
   0   6  -1 157.330  20.670   9
   0   6   1 204.196  19.221   7
   0   6   1 225.278  18.352   8
   0   6   1 219.677  16.986   2
   0   6   1 231.822  21.300   6
   0   6   1 217.850  18.028  10
   0   6  -1 224.304  18.640   8
   0   6  -1 180.493  19.991   3
   0   6  -1 214.600  18.763   8
  -1  -6  -1 1815.31  132.95   7
   1  -6   1 1803.56  132.27   8
  -1  -6  -1 1576.09  133.23   1
  -1  -6  -1 1766.28  144.59   4
   1  -6   1 1820.94  131.33   6
  -1  -6  -1 2005.82  132.05   6
  -1  -6  -1 2067.43  148.32   9
  -1  -6  -1 1899.11  131.07   8
  -1  -6  -1 1880.02  132.88   7
   1  -6   1 1553.73  142.45   5
   1  -6   1 1904.66  132.89   7
   1  -6   1 1742.29  138.69   3
   1  -6   1 1646.03  146.31   9
   1  -6   1 1847.26  133.21   1
   1  -6   1 1707.82  145.24   4
   1  -6   1 1557.25  132.38   8
   1  -6   1 1775.57  147.04   9
  -1  -6  -1 1630.54  137.04   3
   1  -6   1 1811.85  133.66   1
   1   6   1 1457.16  132.79   7
  -1   6  -1 1692.80  132.73   6
   1   6   1 1898.07  132.22   8
  -1   6  -1 1711.91  135.16   2
   1   6   1 1598.71  137.93   3
   1   6   1 1859.40  133.19   6
   1   6   1 1615.85  145.15   4
  -1   6  -1 2027.72  147.34   9
   1   6   1 1707.87  140.30   5
  -1   6  -1 1711.73  132.92   7
  -1   6  -1 1704.99  131.43   6
  -1   6  -1 1767.75  145.98   4
   1   6   1 1686.26  122.70  10
   1   6   1 1522.28  147.26   9
  -1   6  -1 1625.27  138.90   3
  -1   6  -1 1562.02  132.48   8
  -1   6  -1 1775.18  133.31   8
   1   6   1 1553.62  132.35   8
   1   6   1 1759.03  132.95   7
  -1   6  -1 1798.84  133.43   1
   1   6   1 1814.90  133.29   1
  -2  -6  -1 888.420  70.958   6
   2  -6   1 852.783  72.333   8
  -2  -6  -1 840.025  77.556   4
   2  -6   1 960.808  74.040   1
   2  -6   1 1020.87   73.52   6
  -2  -6  -1 936.972  73.757   3
  -2  -6  -1 919.532  72.340   1
   2  -6   1 948.168  80.207   4
  -2  -6  -1 966.772  72.615   7
  -2  -6  -1 921.622  66.771  10
   2  -6   1 922.709  81.348   9
   2  -6   1 891.800  76.160   3
   2  -6   1 969.228  78.816   5
  -2  -6  -1 924.301  73.162   1
   2  -6   1 913.869  72.360   8
  -2  -6  -1 866.107  81.193   9
  -2  -6  -1 867.599  71.664   7
  -2   6  -1 913.341  71.904   6
  -2   6  -1 908.163  73.580   1
   2   6   1 906.068  71.299   8
   2   6   1 944.122  72.083   8
  -2   6  -1 865.173  81.070   9
  -2   6  -1 873.434  80.327   4
   2   6   1 1023.13   73.67   7
   2   6   1 1011.93   76.26   5
  -2   6  -1 1045.76   76.65   3
  -2   6  -1 903.350  72.598   8
   2   6   1 1046.12   79.97   4
   2   6   1 1023.53   73.25   1
   2   6   1 1022.52   80.97   9
  -2   6  -1 819.809  72.324   8
  -2   6  -1 987.518  74.455   1
   2   6   1 868.758  74.787   3
  -2   6  -1 1055.92   73.63   6
  -2   6  -1 943.364  74.304   2
   3  -6   1 2018.19  197.64   4
  -3  -6  -1 2173.91  178.97   1
   3  -6   1 2450.06  199.65   9
  -3  -6  -1 2384.38  198.86   9
  -3  -6  -1 2147.68  197.67   9
  -3  -6  -1 2708.23  180.72   1
  -3  -6  -1 2529.05  165.95  10
  -3  -6  -1 2422.89  177.21   6
  -3  -6  -1 2459.01  178.69   7
   3  -6   1 2483.51  188.39   3
   3  -6   1 2372.46  193.02   5
   3  -6   1 2519.17  179.12   6
   3  -6   1 2242.62  180.49   8
   3  -6   1 2639.18  199.67   9
   3  -6   1 2346.06  180.06   6
   3  -6   1 2465.68  181.57   1
  -3  -6  -1 2123.76  179.21   7
  -3   6  -1 2654.97  184.69   2
  -3   6  -1 2627.87  188.70   3
  -3   6  -1 2306.33  180.83   1
   3   6   1 2453.18  180.27   1
  -3   6  -1 2164.29  180.44   7
   3   6   1 2540.88  197.45   9
  -3   6  -1 2094.06  179.92   8
   3   6   1 2176.38  180.18   7
  -3   6  -1 2080.67  178.51   6
   3   6   1 2363.08  190.00   5
   3   6   1 2782.18  197.01   4
  -3   6  -1 2161.17  181.50   1
   3   6   1 2389.78  181.22   2
  -3   6  -1 2338.85  199.86   9
   3   6   1 2497.58  179.05   8
   3   6   1 2242.35  186.48   3
  -3   6  -1 2289.11  199.46   9
   4  -6   1 314.260  28.512   1
   4  -6   1 294.244  31.361   9
   4  -6   1 288.980  29.271   5
  -4  -6  -1 342.427  25.559   1
   4  -6   1 297.429  26.605   8
  -4  -6  -1 304.464  23.237   6
  -4  -6  -1 327.861  24.657   2
  -4  -6  -1 285.414  30.437   9
  -4  -6  -1 261.555  25.886   1
  -4  -6  -1 321.921  29.607   9
  -4  -6  -1 302.103  24.502   7
  -4  -6  -1 311.171  25.433   7
  -4  -6  -1 269.297  23.385  10
  -4  -6  -1 289.804  23.274   6
   4  -6   1 299.897  28.064   3
  -4   6  -1 308.223  29.828   4
   4   6   1 301.452  24.458   8
  -4   6  -1 330.831  32.596   9
  -4   6  -1 295.721  27.268   7
   4   6   1 306.489  26.047   3
   4   6   1 268.084  27.896   4
  -4   6  -1 289.540  27.851   2
  -4   6  -1 365.944  33.453   9
  -4   6  -1 283.114  27.626   1
  -4   6  -1 295.147  25.944   6
  -5  -6  -1 1013.73   88.44   9
  -5  -6  -1 948.494  72.042  10
  -5  -6  -1 897.017  86.396   9
   5  -6   1 970.471  79.535   8
  -5  -6  -1 1105.82   77.63   1
   5  -6   1 1042.29   83.65   3
  -5  -6  -1 1111.12   78.70   1
  -5  -6  -1 1005.44   76.66   7
   5  -6   1 974.424  85.194   5
   5   6   1 1011.47   81.19   3
  -5   6  -1 920.895  80.079   7
   5   6   1 1081.84   86.25   4
  -5   6  -1 1059.67   81.41   1
  -5   6  -1 917.408  81.648   2
   6  -6   1 37.5723  8.7183   8
  -6  -6  -1 48.7550  6.3769   1
  -6  -6  -1 34.4343 11.0333   9
  -6  -6  -1 38.9804  6.6936  10
  -6  -6  -1 46.5337  6.9619   1
  -6  -6  -1 56.7767 10.0372   9
  -6   6  -1 45.1037 13.6571   9
  -6   6  -1 21.4079  8.5864   7
  -6   6  -1 24.0493  8.9967   2
  -6   6  -1 41.3000 10.9845   1
  -7  -6  -1 581.487  51.856   9
  -7  -6  -1 597.351  54.570   9
  -7  -6  -1 548.657  42.416  10
  -7   6  -1 581.528  51.498   2
  -7   6  -1 507.199  49.326   1
  -7   6  -1 582.843  49.844   7
  -8   7   1 11.5533  8.3112   1
  -8   7   1 2.83128 9.43662   2
  -7  -7   1 130.557  14.409   9
  -7  -7   1 137.610  16.235   9
   7  -7  -1 160.448  16.650   8
  -7   7   1 143.459  17.559   7
  -7   7   1 148.028  23.848   9
   7   7  -1 147.550  15.605   4
  -7   7   1 116.694  17.821   2
  -7   7   1 151.697  18.353   1
  -6  -7   1 41.2712  8.6255   9
   6  -7  -1 37.4818  8.8171   7
  -6  -7   1 30.3637  6.3801   9
   6  -7  -1 44.4369  8.8713   8
   6   7  -1 26.7857  7.6608   4
  -6   7   1 39.9344  9.7275   7
   6   7  -1 45.2324  6.2297   3
   6   7  -1 50.6959  7.4332   4
  -6   7   1 29.4890  9.4123   1
  -6   7   1 68.6587 16.2519   9
  -6   7   1 25.8888  9.3229   2
   5  -7  -1 227.779  22.315   3
  -5  -7   1 208.494  20.609   9
   5  -7  -1 198.475  19.821   8
   5  -7  -1 211.495  23.059   5
  -5  -7   1 174.759  21.092   9
   5  -7  -1 213.606  21.416   7
  -5   7   1 247.354  27.593   9
   5   7  -1 211.349  18.475   3
  -5   7   1 223.530  22.930   1
   5   7  -1 181.327  20.409   4
  -5   7   1 200.429  21.304   7
  -5   7   1 218.917  21.402   2
   5   7  -1 230.815  20.142   4
  -5   7   1 203.723  27.373   9
   4  -7  -1 498.072  39.405   7
  -4  -7   1 416.262  34.820   1
  -4  -7   1 482.194  34.908   1
  -4  -7   1 430.428  41.406   9
  -4  -7   1 421.713  41.180   5
   4  -7  -1 425.627  37.536   8
   4  -7  -1 391.628  39.083   6
   4  -7  -1 535.849  41.229   3
   4  -7  -1 492.184  43.961   4
   4  -7  -1 610.234  48.358   9
   4  -7  -1 485.977  43.115   5
   4  -7  -1 401.170  40.084   1
  -4   7   1 512.667  46.669   9
   4   7  -1 453.375  37.565   7
   4   7  -1 506.535  39.809   4
  -4   7   1 456.710  41.154   5
  -4   7   1 378.362  44.768   9
   4   7  -1 455.638  37.401   3
  -4   7   1 483.570  41.616   4
  -4   7   1 439.203  38.944   7
  -4   7   1 418.593  39.186   3
  -4   7   1 438.703  40.438   1
  -4   7   1 387.863  38.176   6
  -4   7   1 452.275  38.862   2
   4   7  -1 463.102  40.091   4
   3  -7  -1 55.1165 12.6936   9
   3  -7  -1 33.8351  6.6879   8
   3  -7  -1 47.1780  9.2038   6
  -3  -7   1 40.1483  7.9749   9
  -3  -7   1 26.0419  5.6492   5
  -3  -7   1 38.7272  8.6565   5
   3  -7  -1 27.7665  7.0221   7
  -3  -7   1 31.2523  5.0377   1
  -3  -7   1 24.2950  4.0878   7
   3  -7  -1 37.3504  6.7323   6
   3  -7  -1 33.4833  8.7056   4
   3  -7  -1 34.0446  7.7384   3
   3  -7  -1 31.7255  8.8071   1
   3  -7  -1 11.9699  7.9801   5
  -3  -7   1 37.5101  5.1561   1
  -3   7   1 39.5078 11.1086   9
  -3   7   1 44.3134  7.9641   5
  -3   7   1 25.4827  6.2255   2
   3   7  -1 34.0655  6.8373   7
  -3   7   1 28.8545  7.3901   7
  -3   7   1 38.5596  9.2836   1
  -3   7   1 49.2065  9.1379   6
   3   7  -1 24.3964  5.2717   3
  -3   7   1 46.3202  8.1664   3
   3   7  -1 26.6832  6.2570   4
   3   7  -1 32.8087  6.0236   1
  -3   7   1 27.4658  8.7050   1
  -3   7   1 31.2781 10.0586   9
  -3   7   1 37.4762  5.9251   8
   2  -7  -1 7.04863 6.08743   6
   2  -7  -1 8.36479 4.89360   7
  -2  -7   1 9.34052 4.27862   7
  -2  -7   1 13.3892  6.1359   9
  -2  -7   1 6.78256 2.45628   6
   2  -7  -1 36.2075  7.6414   3
   2  -7  -1 16.4546  8.5573   9
   2  -7  -1 17.1360  6.4295   4
   2  -7  -1 8.48055 5.81186   1
   2  -7  -1 14.5974  4.8846   8
  -2  -7   1 18.2380  5.7654   1
  -2  -7   1 18.8495  3.7648   6
  -2  -7   1 13.6537  3.4195   7
  -2  -7   1 7.88304 6.19333   5
   2  -7  -1 19.7134  8.6486   5
  -2  -7   1 11.9902  4.2297   1
   2   7  -1 10.2663  3.0562   8
  -2   7   1 12.5381  5.9650   6
  -2   7   1 6.50949 5.28861   4
  -2   7   1 13.1828  7.1829   9
  -2   7   1 18.9379  8.4386   9
  -2   7   1 15.3215  4.3236   2
   2   7  -1 12.8140  5.1227   3
   2   7  -1 16.5696  5.0613   7
  -2   7   1 21.3638  5.1337   8
  -2   7   1 3.65225 4.49657   5
  -2   7   1 9.16971 6.20250   1
   2   7  -1 -0.5938  6.6165   9
   2   7  -1 9.11119 3.63265   8
  -2   7   1 8.58588 5.27809   7
   2   7  -1 30.7690  5.5245   1
  -2   7   1 8.94130 6.18987   1
  -2   7   1 5.51547 4.87063   3
   2   7  -1 6.30044 4.87879   4
   1  -7  -1 2745.03  231.77   4
   1  -7  -1 2941.29  234.95   9
  -1  -7   1 2743.47  210.13   7
   1  -7  -1 3270.38  213.89   6
  -1  -7   1 2602.84  210.58   6
  -1  -7   1 2668.09  210.90   1
   1  -7  -1 2618.29  212.23   7
  -1  -7   1 2533.30  232.11   9
  -1  -7   1 3251.51  208.60   6
   1  -7  -1 2832.99  221.41   3
   1  -7  -1 2803.89  212.79   1
  -1  -7   1 2557.67  211.50   7
  -1  -7   1 3049.61  218.98   3
   1  -7  -1 2970.03  209.72   6
   1  -7  -1 2581.64  228.48   5
   1  -7  -1 2727.66  211.09   8
  -1  -7   1 2920.88  226.86   5
   1  -7  -1 3028.06  213.21   1
   1  -7  -1 2928.98  212.03   7
  -1   7   1 2558.36  221.21   3
   1   7  -1 2635.40  208.97   6
  -1   7   1 3211.88  213.19   7
  -1   7   1 3155.20  213.27   6
   1   7  -1 2602.00  230.89   4
  -1   7   1 2377.07  213.71   2
  -1   7   1 2655.05  232.78   9
   1   7  -1 2663.81  220.69   3
  -1   7   1 2486.56  223.98   5
   1   7  -1 2665.99  231.58   9
  -1   7   1 2677.66  231.46   4
  -1   7   1 2760.40  212.06   7
   1   7  -1 2734.94  210.62   8
  -1   7   1 2938.48  195.76  10
   1   7  -1 2981.66  211.25   8
  -1   7   1 2952.19  212.71   1
   1   7  -1 2501.09  233.22   9
   1   7  -1 3043.71  211.32   1
  -1   7   1 2613.79  211.59   8
   1   7  -1 2890.18  211.41   7
   0  -7   1 1996.05  148.45   7
   0  -7   1 1972.55  146.81   6
   0  -7  -1 2154.32  148.14   8
   0  -7  -1 1797.21  149.94   1
   0  -7   1 2210.00  164.71   9
   0  -7   1 1949.11  147.45   8
   0  -7   1 1934.48  155.55   3
   0  -7  -1 1629.77  149.30   7
   0  -7  -1 1888.16  150.80   1
   0  -7   1 1918.62  149.45   7
   0  -7   1 1919.29  164.54   9
   0  -7   1 1900.14  149.67   1
   0  -7  -1 1837.78  165.79   9
   0  -7  -1 1940.76  147.30   6
   0  -7   1 1988.87  147.68   8
   0  -7  -1 1867.15  162.40   5
   0  -7  -1 1958.99  147.85   8
   0  -7  -1 1970.06  155.22   3
   0  -7  -1 1773.06  149.41   6
   0  -7   1 1956.72  149.33   1
   0  -7   1 2035.76  160.92   5
   0  -7  -1 2220.56  149.82   7
   0  -7   1 1590.09  148.94   6
   0   7   1 1844.96  150.27   6
   0   7  -1 1701.17  148.30   8
   0   7  -1 1990.74  149.45   8
   0   7   1 1809.15  156.08   3
   0   7   1 1769.36  166.76   9
   0   7  -1 1983.88  149.23   7
   0   7   1 2254.90  138.85  10
   0   7   1 1959.77  149.85   2
   0   7   1 2279.88  158.10   5
   0   7  -1 1982.11  149.43   6
   0   7  -1 1935.94  147.35   6
   0   7   1 2092.88  150.36   1
   0   7   1 1979.31  149.59   7
   0   7  -1 2146.56  164.70   9
   0   7  -1 1800.24  163.06   4
   0   7  -1 1908.93  149.10   1
   0   7   1 1996.24  163.41   4
   0   7  -1 1795.31  165.02   9
   0   7   1 1848.83  164.16   9
   0   7   1 2296.07  149.26   8
   1  -7   1 750.245  64.541   1
  -1  -7  -1 873.089  69.707   4
   1  -7   1 770.446  64.891   6
   1  -7   1 819.103  65.255   1
  -1  -7  -1 826.081  63.735   6
   1  -7   1 782.701  63.047   8
  -1  -7  -1 767.831  62.625   6
   1  -7   1 923.990  65.117   7
  -1  -7  -1 770.230  65.141   1
  -1  -7  -1 746.488  72.325   9
  -1  -7  -1 723.002  64.002   7
   1  -7   1 638.740  71.224   9
  -1  -7  -1 935.635  65.926   3
  -1  -7  -1 834.802  64.702   7
  -1  -7  -1 728.496  71.286   5
   1  -7   1 793.667  71.618   9
   1  -7   1 825.721  64.169   7
   1  -7   1 874.232  67.778   3
   1  -7   1 808.996  70.695   5
   1  -7   1 784.064  62.840   6
   1  -7   1 813.705  63.331   8
   1   7   1 836.624  70.586   4
  -1   7  -1 815.215  64.675   7
  -1   7  -1 810.300  65.043   1
   1   7   1 827.147  65.087   7
  -1   7  -1 819.055  65.169   2
   1   7   1 918.438  74.738   9
  -1   7  -1 787.139  71.688   9
   1   7   1 820.119  63.228   8
   1   7   1 926.702  62.792   2
   1   7   1 810.370  63.771   8
   1   7   1 778.777  67.109   5
  -1   7  -1 734.160  64.629   6
   1   7   1 863.199  59.860  10
  -1   7  -1 821.948  63.925   8
  -1   7  -1 780.368  63.203   6
  -1   7  -1 723.531  67.645   3
   1   7   1 853.614  65.114   1
   1   7   1 809.516  66.970   3
  -1   7  -1 815.554  64.627   8
  -1   7  -1 971.878  71.930   4
   2  -7   1 1121.01  102.08   4
  -2  -7  -1 1337.86   85.70  10
  -2  -7  -1 1335.47   91.41   6
   2  -7   1 1349.18  104.84   9
  -2  -7  -1 1212.02   93.73   1
  -2  -7  -1 1164.82   92.73   7
  -2  -7  -1 1159.88  103.85   9
   2  -7   1 1192.77   93.64   6
   2  -7   1 1224.29  100.77   5
  -2  -7  -1 1247.79   92.96   1
  -2  -7  -1 1041.33   91.69   7
  -2  -7  -1 1217.11   91.01   6
   2  -7   1 1073.85   92.53   8
   2  -7   1 1051.40   93.77   1
   2  -7   1 1271.73  103.87   9
  -2  -7  -1 1245.84   94.72   3
   2  -7   1 1127.56   97.31   3
  -2   7  -1 1247.57  104.61   9
  -2   7  -1 1208.47   93.72   7
  -2   7  -1 1157.20   94.75   2
   2   7   1 1202.01  101.88   4
   2   7   1 1320.20   93.54   1
   2   7   1 1062.75   93.44   7
  -2   7  -1 1128.26  103.62   9
   2   7   1 1284.40   97.65   5
  -2   7  -1 1152.61   92.03   6
  -2   7  -1 1130.93   97.69   3
   2   7   1 1140.56   96.02   3
   2   7   1 1159.59  103.37   9
  -2   7  -1 1119.70   92.80   8
   2   7   1 1235.57   92.54   8
   2   7   1 1414.76   92.01   8
  -2   7  -1 1190.36   94.22   1
  -3  -7  -1 105.883  15.244   9
   3  -7   1 105.109  14.669   4
  -3  -7  -1 111.844  11.106   7
   3  -7   1 123.668  14.494   1
   3  -7   1 113.270  13.703   3
  -3  -7  -1 105.678  12.704   1
  -3  -7  -1 98.7562 10.1649   6
   3  -7   1 140.346  17.649   9
  -3  -7  -1 108.176  15.720   9
  -3  -7  -1 118.032  11.104  10
  -3  -7  -1 106.113  10.229   6
  -3  -7  -1 108.400  11.980   1
   3  -7   1 94.1513 11.6695   6
   3  -7   1 162.478  17.888   9
   3  -7   1 122.674  12.715   8
   3  -7   1 118.415  14.075   6
  -3  -7  -1 127.772  12.341   7
   3  -7   1 81.9681 14.2154   5
  -3   7  -1 130.149  14.030   7
   3   7   1 130.430  13.359   1
   3   7   1 120.870  10.961   8
  -3   7  -1 107.859  16.325   9
   3   7   1 98.8845 12.8349   4
  -3   7  -1 103.828  13.703   1
  -3   7  -1 111.761  13.767   3
  -3   7  -1 113.106  12.222   6
   3   7   1 89.9425 12.6116   7
  -3   7  -1 114.493  13.283   2
   3   7   1 109.486  11.792   3
  -3   7  -1 141.393  18.362   9
  -3   7  -1 116.534  13.600   6
  -3   7  -1 112.021  14.787   1
   3   7   1 103.841  11.309   5
  -3   7  -1 101.723  12.398   8
  -4  -7  -1 230.120  19.454  10
   4  -7   1 201.688  23.616   1
  -4  -7  -1 252.660  26.391   9
   4  -7   1 243.957  22.185   8
  -4  -7  -1 269.767  21.349   1
   4  -7   1 256.017  24.017   3
   4  -7   1 224.046  24.839   5
  -4  -7  -1 244.442  25.040   9
  -4  -7  -1 238.871  18.551   6
  -4  -7  -1 235.953  18.530   6
  -4  -7  -1 214.753  21.634   1
  -4  -7  -1 228.257  19.901   7
  -4   7  -1 205.266  23.154   2
  -4   7  -1 262.431  24.617   1
   4   7   1 227.047  22.356   7
   4   7   1 236.453  21.689   3
  -4   7  -1 258.332  22.148   6
  -4   7  -1 211.700  23.011   3
  -4   7  -1 272.677  28.606   9
   4   7   1 263.813  20.158   8
  -4   7  -1 220.115  23.042   7
   4   7   1 212.665  23.254   4
  -5  -7  -1 89.8381 10.7177   1
  -5  -7  -1 99.4243 15.0619   9
  -5  -7  -1 91.2084  9.5440   1
  -5  -7  -1 94.5295  8.9109   7
   5  -7   1 93.5168 11.6620   8
  -5  -7  -1 62.2079  8.9022  10
   5  -7   1 69.7165 13.0784   5
  -5  -7  -1 77.2228 12.4303   9
  -5   7  -1 71.6721 13.3892   1
   5   7   1 100.094  10.852   3
  -5   7  -1 55.3908 11.5032   7
  -5   7  -1 68.1696 12.0772   2
  -5   7  -1 85.3035 16.9342   9
  -6  -7  -1 1281.26   99.94   1
  -6  -7  -1 1218.71   93.08  10
  -6  -7  -1 1515.84   99.57   1
  -6  -7  -1 1407.18  114.56   9
  -6  -7  -1 1226.14  111.36   9
   6  -7   1 1201.63  102.80   8
  -6   7  -1 1535.95  105.37   7
  -6   7  -1 1145.27  105.52   2
  -6   7  -1 1206.75  104.42   1
  -7  -7  -1 62.3721 15.2112   9
  -7  -7  -1 87.7767  9.9355  10
  -7   7  -1 74.7576 14.5791   1
  -7   7  -1 69.4906 14.7869   2
  -7  -8   1 37.1415  8.9253   9
  -7   8   1 49.9322 10.9654   7
  -7   8   1 48.3282 11.7775   1
  -7   8   1 29.7956 10.9307   2
  -6  -8   1 2.51841 6.33490   9
   6  -8  -1 0.41504 6.32127   8
   6  -8  -1 8.81568 6.27063   7
  -6  -8   1 1.01704 4.56369   9
   6   8  -1 4.46775 6.95597   4
   6   8  -1 5.48152 5.42392   4
  -6   8   1 -4.0451  6.1759   2
   6   8  -1 4.65474 3.83180   3
  -6   8   1 -0.2695  6.7503   7
  -6   8   1 3.44946 8.03897   1
  -6   8   1  9.1198 11.5824   9
   5  -8  -1 2375.10  176.04   7
   5  -8  -1 2053.56  174.34   8
   5  -8  -1 2596.23  183.84   3
  -5  -8   1 2389.99  187.06   5
  -5  -8   1 2587.17  191.09   9
  -5  -8   1 2355.93  189.72   9
   5  -8  -1 2102.36  187.27   5
   5   8  -1 2170.46  189.59   4
   5   8  -1 2287.16  179.39   3
  -5   8   1 2115.58  175.25   7
  -5   8   1 2090.14  173.87   6
  -5   8   1 2320.67  196.34   9
  -5   8   1 2052.77  177.99   2
   5   8  -1 2335.93  188.87   4
  -5   8   1 2339.25  177.62   1
   4  -8  -1 499.005  43.189   3
   4  -8  -1 424.064  45.085   5
  -4  -8   1 492.784  43.985   9
   4  -8  -1 401.570  42.172   1
  -4  -8   1 485.023  36.295   7
  -4  -8   1 493.367  44.554   5
  -4  -8   1 509.172  36.297   7
  -4  -8   1 435.026  36.917   1
  -4  -8   1 447.161  36.837   1
   4  -8  -1 395.430  40.313   7
   4  -8  -1 460.451  39.772   8
  -4   8   1 450.848  42.680   1
  -4   8   1 492.645  41.543   7
  -4   8   1 498.490  42.033   3
  -4   8   1 439.141  47.768   9
   4   8  -1 501.047  40.463   7
  -4   8   1 489.880  48.689   9
  -4   8   1 501.152  41.912   6
   4   8  -1 522.060  39.877   3
   4   8  -1 469.080  36.697   8
   4   8  -1 482.985  42.570   4
  -4   8   1 474.989  40.861   2
  -4   8   1 458.021  43.063   5
  -4   8   1 503.313  38.254   8
   3  -8  -1 248.363  26.575   6
   3  -8  -1 264.710  25.408   7
  -3  -8   1 244.781  27.881   5
  -3  -8   1 272.432  23.003   1
  -3  -8   1 258.957  20.561   6
  -3  -8   1 245.769  22.022   7
   3  -8  -1 369.364  30.367   4
   3  -8  -1 262.343  24.131   8
  -3  -8   1 288.342  23.014   1
   3  -8  -1 229.234  29.886   5
   3  -8  -1 276.701  31.915   9
   3  -8  -1 264.511  26.973   1
   3  -8  -1 292.810  24.378   6
  -3  -8   1 265.614  27.011   9
   3  -8  -1 219.735  25.900   3
   3   8  -1 270.427  25.946   4
  -3   8   1 250.111  25.874   5
  -3   8   1 246.392  30.588   9
   3   8  -1 278.382  22.072   8
  -3   8   1 283.359  30.943   9
   3   8  -1 308.486  21.825   8
  -3   8   1 299.594  27.557   1
   3   8  -1 293.361  25.160   7
  -3   8   1 264.387  26.502   3
  -3   8   1 242.903  23.972   2
  -3   8   1 302.027  26.280   7
  -3   8   1 276.188  26.916   6
   3   8  -1 232.992  24.169   3
  -3   8   1 273.938  27.405   1
   2  -8  -1 554.956  44.184   7
   2  -8  -1 655.866  48.900   4
  -2  -8   1 448.999  41.426   1
  -2  -8   1 532.147  40.927   7
  -2  -8   1 574.620  43.813   1
  -2  -8   1 510.347  39.721   6
  -2  -8   1 541.898  47.562   5
   2  -8  -1 607.412  51.136   5
   2  -8  -1 455.130  50.061   9
   2  -8  -1 521.074  46.017   3
  -2  -8   1 489.098  42.007   7
  -2  -8   1 447.184  40.454   6
   2  -8  -1 442.722  43.913   1
   2  -8  -1 475.229  44.834   6
  -2  -8   1 520.765  40.789   3
  -2  -8   1 517.641  47.535   9
   2  -8  -1 460.766  41.771   8
  -2   8   1 518.289  45.264   5
  -2   8   1 445.818  43.837   1
  -2   8   1 612.407  44.636   7
   2   8  -1 544.388  44.820   3
   2   8  -1 658.040  51.602   9
   2   8  -1 504.412  40.914   8
  -2   8   1 624.105  52.099   9
   2   8  -1 488.984  46.111   4
   2   8  -1 531.362  40.800   8
  -2   8   1 491.648  46.817   4
  -2   8   1 568.426  42.559   2
  -2   8   1 509.474  45.925   3
   2   8  -1 472.368  42.475   7
  -2   8   1 504.941  49.038   9
   2   8  -1 494.675  41.943   1
   1  -8  -1 11.2275  4.9056   8
  -1  -8   1 17.1431  5.9337   7
   1  -8  -1 12.2003  6.2050   8
  -1  -8   1 16.2339  5.7359   1
  -1  -8   1 26.6381  8.5702   5
  -1  -8   1 20.6670  4.6173   7
   1  -8  -1 13.2783  5.6426   3
   1  -8  -1 16.5546  7.7091   9
   1  -8  -1 10.9999  6.1188   1
  -1  -8   1 14.0182  6.9265   9
  -1  -8   1 12.3783  5.5909   6
  -1  -8   1 9.44071 3.79243   3
   1  -8  -1 10.5387  5.8190   7
   1  -8  -1 15.4791  7.2428   6
   1  -8  -1 17.3400  4.8903   6
   1  -8  -1 10.5926  6.1322   1
   1  -8  -1 12.7488  8.4014   5
  -1  -8   1 20.4859  3.8388   6
  -1   8   1 8.07477 5.61829   3
   1   8  -1 7.26366 7.83377   9
  -1   8   1 18.2489  5.5387  10
   1   8  -1 22.0682  6.9879   4
   1   8  -1 13.5846  6.2027   3
   1   8  -1 22.6520  6.6581   9
  -1   8   1 16.1123  5.6267   5
  -1   8   1 14.2652  3.9458   2
   1   8  -1 13.7616  5.6995   8
  -1   8   1 3.85966 5.92515   1
  -1   8   1 20.2580  7.4560   6
  -1   8   1 14.0869  6.1756   4
   1   8  -1 10.7854  5.4620   7
   1   8  -1 16.1512  4.5224   6
  -1   8   1 14.7329  5.8011   7
   1   8  -1 23.8777  5.5771   8
  -1   8   1 17.9183  7.4246   9
   1   8  -1 22.1654  5.8726   1
   0  -8   1 222.084  20.883   1
   0  -8   1 203.418  23.321   9
   0  -8  -1 202.087  21.663   6
   0  -8   1 227.059  21.859   1
   0  -8   1 205.906  18.500   6
   0  -8   1 233.488  17.982   8
   0  -8   1 215.707  21.077   3
   0  -8   1 216.559  22.104   6
   0  -8   1 208.901  19.696   7
   0  -8  -1 222.355  26.921   5
   0  -8   1 230.684  24.598   5
   0  -8  -1 214.294  21.483   7
   0  -8  -1 173.215  21.022   1
   0  -8  -1 247.301  18.743   8
   0  -8   1 202.716  17.971   8
   0  -8  -1 241.857  23.451   1
   0  -8  -1 213.094  20.637   7
   0  -8  -1 235.133  18.368   8
   0  -8  -1 194.242  19.049   6
   0  -8   1 223.061  24.149   9
   0  -8   1 183.823  20.474   7
   0  -8  -1 219.163  25.573   9
   0  -8  -1 214.801  20.920   3
   0   8  -1 233.799  19.655   6
   0   8  -1 227.554  21.083   1
   0   8   1 198.747  20.588   5
   0   8  -1 204.553  22.491   4
   0   8   1 232.480  18.466   2
   0   8  -1 237.237  20.012   8
   0   8   1 178.308  21.648   3
   0   8  -1 181.241  21.841   3
   0   8   1 208.500  20.907   7
   0   8   1 202.866  22.630   6
   0   8  -1 270.699  24.743   9
   0   8  -1 221.064  20.812   7
   0   8   1 247.295  24.675   9
   0   8  -1 227.411  25.443   9
   0   8   1 185.491  21.403   1
   0   8   1 232.180  28.185   9
   0   8  -1 271.212  22.685   6
   0   8   1 235.063  19.848  10
   0   8   1 199.381  22.414   4
   1  -8   1 2158.56  152.60   6
  -1  -8  -1 1897.37  154.79   7
  -1  -8  -1 1898.46  171.65   9
   1  -8   1 2146.87  153.43   8
   1  -8   1 1926.96  166.92   5
   1  -8   1 1799.12  153.38   8
  -1  -8  -1 1871.51  151.99   6
  -1  -8  -1 1887.08  155.19   1
   1  -8   1 1701.63  154.62   1
   1  -8   1 2306.70  155.93   1
   1  -8   1 2090.52  161.86   3
  -1  -8  -1 1900.88  167.87   4
  -1  -8  -1 1947.29  153.25   6
   1  -8   1 2253.53  171.21   9
  -1  -8  -1 1871.90  159.28   3
   1  -8   1 1880.92  154.95   6
  -1  -8  -1 2167.47  154.72   7
   1  -8   1 1926.54  154.82   7
  -1  -8  -1 1944.21  168.14   5
   1  -8   1 1912.02  171.16   9
  -1   8  -1 1948.16  171.75   9
   1   8   1 2069.77  169.35   4
  -1   8  -1 2029.82  154.28   8
   1   8   1 1770.46  154.65   1
  -1   8  -1 2282.09  157.26   2
  -1   8  -1 1987.49  155.04   6
   1   8   1 2177.13  161.68   3
  -1   8  -1 2016.92  169.75   4
  -1   8  -1 2296.10  171.67   9
  -1   8  -1 1981.31  154.94   7
  -1   8  -1 1984.10  152.88   6
   1   8   1 2038.10  163.03   5
   1   8   1 2144.21  170.45   9
   1   8   1 1799.43  154.80   7
  -1   8  -1 1931.96  162.33   3
   1   8   1 2228.76  154.52   2
  -1   8  -1 1993.71  155.27   1
   1   8   1 2240.31  174.46   9
   1   8   1 2264.61  154.50   8
  -2  -8  -1 177.697  16.837   6
  -2  -8  -1 211.216  23.027   9
   2  -8   1 162.171  22.195   9
   2  -8   1 176.710  21.845   5
   2  -8   1 217.996  22.604   9
   2  -8   1 164.949  18.405   7
  -2  -8  -1 199.026  16.599   6
  -2  -8  -1 178.702  17.359   7
  -2  -8  -1 157.909  18.090   1
   2  -8   1 200.377  20.200   1
   2  -8   1 183.020  19.613   3
  -2  -8  -1 203.049  16.662   3
  -2  -8  -1 170.226  18.915   1
   2  -8   1 190.315  18.063   8
   2  -8   1 194.098  19.946   6
  -2  -8  -1 187.561  18.223   7
  -2   8  -1 184.952  18.720   2
   2   8   1 208.441  23.152   9
  -2   8  -1 203.937  20.680   3
   2   8   1 188.021  19.788   7
  -2   8  -1 195.242  19.472   7
   2   8   1 213.630  17.176   8
  -2   8  -1 189.021  20.070   1
  -2   8  -1 188.851  18.478   8
   2   8   1 207.621  18.625   8
  -2   8  -1 183.725  23.059   9
   2   8   1 174.735  20.157   4
   2   8   1 200.674  18.143   5
  -2   8  -1 190.228  21.074   4
  -2   8  -1 178.733  17.676   6
   2   8   1 164.653  18.323   3
  -2   8  -1 163.798  22.098   9
  -3  -8  -1 18.4659  6.8387   1
  -3  -8  -1 32.0732  5.3119   7
   3  -8   1 13.2298  7.2036   1
  -3  -8  -1 29.7594  6.0415   7
  -3  -8  -1 19.9991  5.8138   1
   3  -8   1 21.8445  7.1788   6
   3  -8   1 13.2752  6.2600   8
   3  -8   1 32.0262  9.4710   5
  -3  -8  -1 24.1001  4.3009   6
   3  -8   1 33.4501  7.6627   3
  -3  -8  -1 32.5317 10.1074   9
  -3  -8  -1 22.7237  4.4148   6
  -3  -8  -1 25.8262  9.1840   9
  -3   8  -1 12.4128  5.4565   6
  -3   8  -1 28.7629  7.4491   3
  -3   8  -1 13.3725  6.5601   6
  -3   8  -1 31.9936  8.2116   7
  -3   8  -1 22.6943  9.9326   9
  -3   8  -1 13.4794  8.3148   9
   3   8   1 23.2504  7.7329   4
  -3   8  -1 20.2538  8.2826   1
  -3   8  -1 8.71206 5.80432   2
   3   8   1 16.1702  6.8080   7
   3   8   1 34.3927  6.2796   3
  -3   8  -1 17.1005  7.5247   8
   4  -8   1 26.4511  9.4877   5
  -4  -8  -1 43.2775  7.0770   1
  -4  -8  -1 27.2982  7.2702   1
  -4  -8  -1 28.0546  6.1403  10
  -4  -8  -1 34.9027  3.9969   6
  -4  -8  -1 26.2200 10.1489   9
   4  -8   1 43.0962  8.3306   8
  -4  -8  -1 27.7352  5.2512   7
  -4  -8  -1 29.9248  9.5657   9
  -4  -8  -1 35.0909  3.9326   6
   4  -8   1 44.8772 10.3765   1
   4   8   1 39.1565  8.0192   4
   4   8   1 18.9437  7.1958   7
  -4   8  -1 36.7213 10.3231   1
  -4   8  -1 28.2374  8.1883   2
  -4   8  -1 15.6350 10.6904   9
   4   8   1 35.9448  6.8552   3
  -4   8  -1 41.2326  9.3019   3
  -4   8  -1 30.7725  8.7261   7
   5  -8   1 0.96055 6.55483   5
  -5  -8  -1 -0.5501  8.0779   9
  -5  -8  -1 4.76984 4.65981  10
  -5  -8  -1 8.01293 3.53737   7
  -5  -8  -1 10.0494  5.4906   1
  -5  -8  -1 6.76874 4.83793   1
  -5  -8  -1 3.95165 6.44143   9
   5  -8   1 6.15292 6.13989   8
  -5   8  -1 9.99495 6.79679   2
  -5   8  -1 15.3478  8.0095   7
  -5   8  -1 1.88312 7.13573   1
  -6  -8  -1 86.1330 14.1694   9
  -6  -8  -1 94.6376 10.3553   1
  -6  -8  -1 92.4952 10.8814  10
  -6  -8  -1 109.497  10.369   1
  -6  -8  -1 111.264  17.386   9
  -6   8  -1 98.7094 15.4379   2
  -6   8  -1 113.594  16.386   7
  -6   8  -1 74.6367 15.6576   1
  -7  -8  -1 398.970  38.406   9
  -7  -8  -1 319.263  27.545  10
  -7   8  -1 352.181  35.604   2
  -7   8  -1 331.597  34.681   1
  -7  -9   1 0.99183 8.58272   5
  -7   9   1 13.4153  9.7711   1
  -7   9   1 -1.2172  7.5017   2
  -6  -9   1 637.387  56.584   9
   6  -9  -1 612.739  55.391   7
  -6  -9   1 683.644  58.062   9
  -6  -9   1 736.885  59.763   5
  -6   9   1 690.982  57.418   1
   6   9  -1 636.466  58.605   4
  -6   9   1 577.575  54.740   7
  -6   9   1 598.176  55.589   2
   5  -9  -1 23.7362  7.7579   8
   5  -9  -1 29.1310 10.5502   5
   5  -9  -1 28.1832  8.4037   7
  -5  -9   1 37.5539  8.8514   9
  -5  -9   1 26.2707  8.6793   9
  -5  -9   1 42.8382 10.9003   5
  -5   9   1 22.9549  8.9387   7
  -5   9   1 35.4622  9.3112   2
  -5   9   1 19.3089 11.1430   1
   5   9  -1 35.0527  8.4511   4
   5   9  -1 32.4790  6.4679   3
   4  -9  -1 1580.56  135.26   8
  -4  -9   1 1890.41  132.61   1
  -4  -9   1 1723.05  132.25   1
   4  -9  -1 1746.95  148.14   5
  -4  -9   1 2028.20  149.06   9
  -4  -9   1 1866.66  146.47   5
   4  -9  -1 1949.23  139.82   1
  -4  -9   1 1649.85  131.59   7
   4  -9  -1 1602.08  136.23   7
  -4   9   1 1655.79  137.66   2
  -4   9   1 1516.47  152.19   9
  -4   9   1 2000.04  137.61   7
  -4   9   1 1671.58  136.64   6
   4   9  -1 1711.82  139.59   3
  -4   9   1 1595.51  141.35   3
  -4   9   1 1682.47  138.48   1
   4   9  -1 1779.70  147.16   4
   4   9  -1 1852.42  133.09   8
  -3  -9   1 234.402  19.402   7
  -3  -9   1 203.475  24.947   5
  -3  -9   1 242.407  24.932   9
  -3  -9   1 238.921  17.950   6
  -3  -9   1 228.406  18.069   6
   3  -9  -1 206.347  28.358   5
   3  -9  -1 197.579  22.505   7
   3  -9  -1 203.280  24.239   1
  -3  -9   1 219.882  20.811   1
  -3  -9   1 218.478  19.685   7
   3  -9  -1 229.164  21.518   8
  -3  -9   1 231.455  20.460   1
   3   9  -1 223.720  22.305   3
  -3   9   1 235.996  27.882   9
  -3   9   1 230.082  24.198   3
  -3   9   1 250.158  30.071   9
  -3   9   1 193.629  24.011   1
   3   9  -1 232.318  23.389   4
   3   9  -1 291.475  23.523   7
  -3   9   1 227.863  23.127   7
  -3   9   1 238.824  23.913   5
   3   9  -1 255.478  19.632   8
  -3   9   1 199.253  21.081   2
  -3   9   1 161.374  23.061   6
  -2  -9   1 228.609  25.586   5
   2  -9  -1 228.019  23.322   7
  -2  -9   1 238.781  22.130   7
   2  -9  -1 228.311  24.305   1
  -2  -9   1 234.316  23.425   1
  -2  -9   1 202.986  20.175   6
   2  -9  -1 217.068  28.194   5
  -2  -9   1 224.723  20.427   7
  -2  -9   1 238.513  19.342   3
   2  -9  -1 251.097  25.493   6
   2  -9  -1 242.532  29.631   9
   2  -9  -1 249.929  24.722   3
  -2  -9   1 225.283  21.502   1
   2  -9  -1 215.679  21.349   8
  -2  -9   1 228.333  19.266   6
  -2  -9   1 257.380  26.117   9
   2   9  -1 222.635  23.310   3
  -2   9   1 271.384  29.781   9
  -2   9   1 255.024  25.302   3
   2   9  -1 246.765  22.325   1
  -2   9   1 219.315  21.283   2
   2   9  -1 235.970  28.214   9
  -2   9   1 243.962  24.606   1
  -2   9   1 226.212  23.234   5
   2   9  -1 263.238  21.440   8
   2   9  -1 263.329  21.327   8
  -2   9   1 262.437  27.805   9
   2   9  -1 250.332  22.974   7
  -2   9   1 218.241  23.072   7
  -2   9   1 223.830  24.774   4
   2   9  -1 222.295  23.945   4
  -1  -9   1 54.8067  9.7228   1
   1  -9  -1 51.2884 11.6088   6
  -1  -9   1 66.6614  8.9371   7
   1  -9  -1 74.6953  9.3284   6
  -1  -9   1 65.1199 13.2018   5
   1  -9  -1 92.4275 15.5970   9
  -1  -9   1 79.4229 11.3685   6
  -1  -9   1 77.2328 11.1592   7
  -1  -9   1 76.0379 13.3397   9
   1  -9  -1 83.4104 11.9106   7
   1  -9  -1 74.2603 12.1394   1
   1  -9  -1 80.4419 12.8400   1
   1  -9  -1 89.1427 16.6093   5
  -1  -9   1 79.9605  8.2801   6
   1  -9  -1 76.8154  8.9849   8
   1  -9  -1 80.7127 11.4844   3
  -1  -9   1 85.0869  9.1925   3
  -1   9   1 61.1614 15.5158   9
  -1   9   1 76.3150 12.3707   3
  -1   9   1 72.7633 10.2282  10
   1   9  -1 62.8677  9.8523   1
   1   9  -1 70.8368 10.6293   7
  -1   9   1 58.4821 11.2085   4
  -1   9   1 62.2920  8.2126   2
   1   9  -1 57.7859  9.7511   8
  -1   9   1 58.9658 11.2295   1
  -1   9   1 64.6678 10.2826   5
  -1   9   1 70.5571 12.7646   6
   1   9  -1 92.7445 12.3573   3
  -1   9   1 76.3787 11.4530   7
   1   9  -1 77.9474 11.9179   4
  -1   9   1 90.2780 14.0854   9
   1   9  -1 83.7699 15.5165   9
   0  -9  -1 465.965  44.652   6
   0  -9   1 507.917  41.517   6
   0  -9   1 534.115  43.038   7
   0  -9   1 495.608  43.898   1
   0  -9  -1 477.446  44.646   3
   0  -9  -1 434.572  49.804   5
   0  -9  -1 507.443  44.901   7
   0  -9  -1 511.020  41.015   8
   0  -9  -1 530.555  41.438   8
   0  -9   1 519.327  45.138   3
   0  -9  -1 566.137  47.025   1
   0  -9  -1 629.000  52.849   9
   0  -9   1 453.121  44.456   1
   0  -9   1 492.251  43.975   7
   0  -9  -1 561.850  44.254   7
   0  -9   1 569.427  40.749   8
   0  -9   1 497.775  44.926   6
   0  -9   1 523.068  49.701   9
   0  -9  -1 544.798  45.101   1
   0  -9   1 449.080  48.156   5
   0  -9   1 530.151  40.817   8
   0  -9  -1 526.240  42.155   6
   0   9   1 605.609  42.038   2
   0   9   1 483.797  44.371   1
   0   9   1 535.864  45.337   5
   0   9   1 623.528  45.433   7
   0   9   1 585.340  54.348   9
   0   9   1 556.859  48.414   4
   0   9  -1 427.682  45.982   3
   0   9  -1 624.496  49.174   4
   0   9   1 523.411  46.623   3
   0   9  -1 433.622  42.451   8
   0   9  -1 523.296  44.230   1
   0   9  -1 501.259  51.117   9
   0   9   1 527.367  41.105  10
   0   9  -1 503.286  49.112   9
   0   9  -1 514.586  44.125   7
   0   9   1 590.948  50.003   9
   1  -9   1 83.1117 11.7157   1
   1  -9   1 47.6313 11.8339   5
  -1  -9  -1 44.0210  7.7567   4
  -1  -9  -1 37.9164  6.4025   3
  -1  -9  -1 56.1250  8.8506   7
  -1  -9  -1 39.5060  8.5857   7
   1  -9   1 34.6938 10.4294   9
   1  -9   1 51.1727 10.7728   6
  -1  -9  -1 35.8025 11.6948   9
   1  -9   1 29.6645  7.8805   7
  -1  -9  -1 21.5219 10.9870   5
  -1  -9  -1 37.6994  7.9756   6
   1  -9   1 44.0874  9.1899   1
   1  -9   1 52.4133 12.0446   9
   1  -9   1 23.0929  6.0417   6
  -1  -9  -1 51.0115  6.8848   6
   1  -9   1 56.1145  7.3148   8
  -1  -9  -1 29.3909  8.3470   1
  -1   9  -1 52.4083 10.3190   4
  -1   9  -1 50.1656  7.8523   6
  -1   9  -1 31.8879 10.6393   9
   1   9   1 45.1684 10.8437   9
   1   9   1 46.1004  9.3773   7
  -1   9  -1 51.4153  9.5205   7
   1   9   1 32.0386  7.0141   5
   1   9   1 50.5614  9.6469   1
   1   9   1 58.5250 10.2528   3
  -1   9  -1 38.6505  7.5768   2
   1   9   1 43.8820  9.7146   4
   1   9   1 34.0645  8.4855   8
   1   9   1 45.7175 13.8749   9
  -1   9  -1 38.1101  9.4048   6
  -1   9  -1 27.5951  8.4804   1
  -1   9  -1 35.5983  9.7681   3
  -1   9  -1 55.4162  9.1675   8
   1   9   1 45.7777  4.8942   2
  -1   9  -1 44.6592 12.9081   9
   2  -9   1 14.5323  7.3275   6
  -2  -9  -1 19.8226  4.2440   3
  -2  -9  -1 17.5342  5.9094   7
  -2  -9  -1 24.5558  6.2262   7
   2  -9   1 23.4890  6.0454   8
  -2  -9  -1 30.6824  5.1521   6
  -2  -9  -1 11.5420  6.5180   1
   2  -9   1 26.3794  6.0889   6
  -2  -9  -1 10.7359  4.8310   6
  -2  -9  -1 37.2608 11.9110   5
   2  -9   1 25.2163  9.7925   9
   2  -9   1 38.8111  9.3661   1
  -2  -9  -1 27.4557  7.7250   1
   2  -9   1 24.7193  9.3575   9
   2  -9   1 11.3556  5.9936   7
  -2  -9  -1 21.3419  9.9692   9
   2  -9   1 27.8610 10.6040   5
   2   9   1 22.1428  5.4589   5
  -2   9  -1 26.6991  7.2529   2
   2   9   1 22.4249  7.8713   4
  -2   9  -1 26.6495  6.2900   6
  -2   9  -1 21.5914  8.5802   1
  -2   9  -1 17.7736  7.6218   4
   2   9   1 26.9506  8.1134   7
  -2   9  -1 14.0375  9.0330   9
  -2   9  -1 15.9080  6.9407   8
   2   9   1 20.0738  7.4926   8
   2   9   1 24.9350  6.9934   3
  -2   9  -1 14.9565  7.3884   3
   2   9   1 35.2939 11.6124   9
  -2   9  -1 25.8620  7.9404   7
  -3  -9  -1 138.364  12.507   6
  -3  -9  -1 144.619  15.927   1
   3  -9   1 151.075  15.709   8
   3  -9   1 134.126  19.472   5
  -3  -9  -1 136.313  12.829   6
  -3  -9  -1 129.531  20.204   9
   3  -9   1 132.710  17.690   1
  -3  -9  -1 163.066  20.712   9
   3  -9   1 142.721  16.327   7
  -3  -9  -1 132.855  13.558   7
   3   9   1 186.079  18.610   7
  -3   9  -1 142.091  15.454   8
   3   9   1 120.524  14.935   3
  -3   9  -1 105.950  16.453   3
  -3   9  -1 167.400  19.284   1
   3   9   1 117.415  17.283   4
  -3   9  -1 138.422  17.087   7
  -3   9  -1 124.622  15.788   2
   4  -9   1 239.849  29.533   5
   4  -9   1 274.318  26.581   7
  -4  -9  -1 275.065  21.351   6
  -4  -9  -1 323.746  23.572   7
  -4  -9  -1 256.326  21.304   6
  -4  -9  -1 244.114  24.900   1
   4  -9   1 274.537  25.484   8
  -4  -9  -1 219.240  29.596   9
  -4  -9  -1 305.442  30.230   9
  -4   9  -1 300.973  29.214   1
   4   9   1 297.444  25.826   3
  -4   9  -1 309.651  28.047   7
  -4   9  -1 260.762  26.632   2
  -4   9  -1 224.934  26.871   3
   5  -9   1 137.734  20.500   5
  -5  -9  -1 151.761  15.705   1
  -5  -9  -1 164.182  19.956   9
  -5  -9  -1 132.582  20.831   9
   5  -9   1 180.943  19.572   7
   5  -9   1 123.621  16.707   8
  -5  -9  -1 157.258  13.754   7
  -5   9  -1 140.919  18.520   2
  -5   9  -1 170.856  21.430   1
  -5   9  -1 134.909  18.727   7
  -6  -9  -1 242.553  20.546   1
  -6  -9  -1 217.211  28.476   9
  -6  -9  -1 233.031  26.188   9
   6  -9   1 231.890  25.479   7
  -6   9  -1 281.133  29.177   1
  -6   9  -1 226.195  25.933   2
  -7 -10   1 404.785  42.101   5
  -7  10   1 452.843  42.576   1
  -7  10   1 412.898  40.471   2
  -6 -10   1 532.676  48.070   5
  -6 -10   1 465.155  45.258   9
   6 -10  -1 475.438  44.425   7
  -6 -10   1 521.081  44.987   9
  -6  10   1 506.175  47.370   1
  -6  10   1 484.888  44.615   2
   6  10  -1 447.303  46.686   4
  -5 -10   1 1114.40   84.67   9
   5 -10  -1 957.686  76.862   8
  -5 -10   1 929.119  83.249   9
  -5 -10   1 913.931  83.521   5
   5 -10  -1 960.576  78.487   7
   5 -10  -1 793.908  83.935   5
  -5  10   1 917.889  78.005   7
  -5  10   1 971.906  81.292   1
  -5  10   1 884.898  78.200   2
   5  10  -1 1033.01   83.81   4
   4 -10  -1 18.2723  7.0764   8
  -4 -10   1 19.2196  3.9953   7
  -4 -10   1 21.4026 10.0618   5
   4 -10  -1 14.2936  6.8077   7
   4 -10  -1 11.6625  9.6578   5
  -4 -10   1 8.53270 4.36411   1
  -4 -10   1 25.0527  9.1144   9
  -4 -10   1 23.8741  5.0609   1
   4  10  -1 1.48810 7.67141   8
  -4  10   1 6.34174 9.22498   1
   4  10  -1 10.7981  6.4570   3
  -4  10   1 26.2536  9.0248   7
  -4  10   1 16.2541  8.4699   3
   4  10  -1 7.29846 6.57281   4
  -4  10   1 16.8385  6.8294   2
  -3 -10   1 430.549  35.189   6
   3 -10  -1 417.206  46.645   5
  -3 -10   1 447.382  43.793   9
   3 -10  -1 446.882  38.661   8
   3 -10  -1 396.878  41.354   1
  -3 -10   1 400.275  37.288   1
  -3 -10   1 474.751  35.063   6
  -3 -10   1 465.322  38.323   1
  -3 -10   1 443.983  37.017   7
  -3 -10   1 501.901  44.627   5
   3 -10  -1 478.695  40.886   7
  -3  10   1 464.009  39.066   2
  -3  10   1 456.075  42.881   3
  -3  10   1 499.911  43.115   1
  -3  10   1 378.270  39.653   7
  -3  10   1 429.487  41.604   5
   3  10  -1 495.406  41.491   3
   3  10  -1 454.087  37.819   8
   3  10  -1 517.243  43.068   4
   3  10  -1 535.609  40.921   7
  -2 -10   1 394.859  32.356   7
   2 -10  -1 381.262  34.934   1
  -2 -10   1 325.549  29.974   6
   2 -10  -1 380.040  31.236   8
  -2 -10   1 349.152  36.146   5
   2 -10  -1 415.698  36.270   6
   2 -10  -1 349.178  39.158   5
  -2 -10   1 359.058  36.788   9
   2 -10  -1 344.414  33.160   7
  -2 -10   1 357.457  31.381   1
  -2 -10   1 379.037  29.413   3
  -2 -10   1 484.533  35.160   1
  -2 -10   1 392.107  29.082   6
  -2  10   1 296.259  33.435   1
  -2  10   1 411.439  36.349   3
  -2  10   1 392.672  34.123   5
   2  10  -1 350.033  33.742   3
   2  10  -1 334.236  30.910   8
  -2  10   1 334.723  33.063   7
   2  10  -1 432.636  33.842   7
  -2  10   1 297.697  34.596   4
  -2  10   1 309.618  30.789   2
   2  10  -1 310.922  34.386   4
  -1 -10   1 118.678  17.557   9
  -1 -10   1 106.077  14.065   1
  -1 -10   1 142.620  13.702   7
  -1 -10   1 117.919  11.704   6
   1 -10  -1 123.072  20.483   5
   1 -10  -1 100.358  18.364   9
   1 -10  -1 106.992  15.197   7
   1 -10  -1 119.923  12.984   8
  -1 -10   1 133.513  15.352   6
   1 -10  -1 111.076  16.198   1
  -1 -10   1 105.125  17.504   5
  -1 -10   1 127.886  14.986   7
   1 -10  -1 131.160  13.337   6
   1 -10  -1 171.441  18.771   6
  -1 -10   1 121.623  12.722   3
   1  10  -1 121.912  14.138   1
  -1  10   1 104.296  14.923   7
  -1  10   1 115.339  14.433   5
   1  10  -1 134.616  15.310   7
  -1  10   1 106.440  15.991   3
  -1  10   1 122.440  12.769   2
   1  10  -1 137.595  16.447   3
   1  10  -1 105.671  13.835   8
   1  10  -1 126.925  20.060   9
  -1  10   1 127.761  16.407   4
  -1  10   1 95.4741 15.0618   1
   1  10  -1 114.000  15.601   4
  -1  10   1 128.458  19.055   9
   0 -10  -1 2078.83  156.99   7
   0 -10   1 2180.13  156.41   1
   0 -10   1 1668.42  152.08   6
   0 -10  -1 2057.17  153.06   6
   0 -10  -1 1719.21  168.85   5
   0 -10  -1 1988.82  156.24   6
   0 -10   1 1918.14  172.15   9
   0 -10  -1 2294.85  153.26   8
   0 -10   1 1916.59  156.03   7
   0 -10   1 2073.78  152.39   8
   0 -10   1 2207.36  157.19   6
   0 -10   1 1883.71  168.08   5
   0 -10  -1 1863.83  173.00   9
   0 -10  -1 2262.47  157.47   1
   0 -10   1 1850.32  152.41   8
   0 -10  -1 1958.00  152.82   8
   0  10   1 2132.96  172.30   9
   0  10   1 2361.98  178.12   9
   0  10   1 1991.92  156.31   7
   0  10  -1 2137.72  170.85   4
   0  10  -1 2038.43  154.98   8
   0  10   1 2203.76  156.93   1
   0  10   1 2047.31  155.61   2
   0  10   1 1911.11  163.00   3
   0  10   1 1955.60  164.13   5
   0  10  -1 1958.08  173.77   9
   0  10  -1 1947.73  155.98   7
   0  10  -1 1803.48  163.00   3
   0  10  -1 2225.35  156.47   1
   1 -10   1 309.569  34.337   9
   1 -10   1 292.754  29.462   1
  -1 -10  -1 339.318  28.836   6
   1 -10   1 303.469  26.640   8
  -1 -10  -1 310.891  35.251   5
   1 -10   1 365.739  34.752   9
  -1 -10  -1 287.767  29.254   7
  -1 -10  -1 405.939  29.868   7
  -1 -10  -1 360.621  35.720   9
  -1 -10  -1 340.007  26.884   6
  -1 -10  -1 315.672  29.677   1
   1 -10   1 309.010  31.074   6
   1 -10   1 270.120  28.960   7
   1 -10   1 282.172  33.475   5
   1 -10   1 268.161  26.534   6
   1  10   1 323.004  37.785   9
  -1  10  -1 325.966  32.468   3
   1  10   1 312.942  30.961   3
  -1  10  -1 276.224  31.664   4
   1  10   1 269.953  28.616   5
   1  10   1 343.252  32.410   4
  -1  10  -1 389.103  29.223   2
   1  10   1 274.084  29.244   7
  -1  10  -1 278.931  28.187   8
  -1  10  -1 382.349  30.825   7
   1  10   1 333.592  25.587   2
  -1  10  -1 304.603  29.834   1
  -2 -10  -1 94.5888 11.5228   6
  -2 -10  -1 91.6771 10.4446   6
  -2 -10  -1 85.3113 13.3858   1
   2 -10   1 118.506  12.470   8
   2 -10   1 114.755  14.676   7
  -2 -10  -1 109.246  12.917   7
   2 -10   1 115.140  16.411   6
   2 -10   1 91.1376 14.5528   1
  -2 -10  -1 128.791  20.223   5
   2 -10   1 141.773  19.698   5
  -2 -10  -1 124.989  19.134   9
  -2  10  -1 84.9086 12.9237   8
  -2  10  -1 115.406  15.324   7
  -2  10  -1 101.172  16.059   3
   2  10   1 87.4738 14.5723   4
  -2  10  -1 85.9680 14.7956   1
   2  10   1 121.636  14.984   3
   2  10   1 101.625  15.128   7
   2  10   1 106.226  12.174   5
  -2  10  -1 83.2357 12.5713   2
  -2  10  -1 105.195  15.628   4
   3 -10   1 127.604  17.413   1
  -3 -10  -1 127.889  11.639   6
   3 -10   1 77.8909 17.1853   5
  -3 -10  -1 90.5053 19.1983   5
   3 -10   1 132.105  14.780   8
  -3 -10  -1 119.169  11.728   6
  -3 -10  -1 95.8977 12.5036   7
  -3 -10  -1 105.275  14.424   1
   3 -10   1 124.317  15.759   7
  -3 -10  -1 164.733  21.385   9
   3  10   1 130.711  17.923   4
   3  10   1 130.364  15.469   3
  -3  10  -1 140.319  18.320   1
  -3  10  -1 116.120  16.601   3
   3  10   1 113.236  16.776   7
  -3  10  -1 120.536  15.091   2
  -3  10  -1 111.380  14.636   8
  -3  10  -1 137.127  16.931   7
   4 -10   1 77.8877 17.4803   5
  -4 -10  -1 84.7093  7.9404   6
   4 -10   1 80.3511 12.4092   8
  -4 -10  -1 93.5026 12.2625   1
  -4 -10  -1 84.0762  8.0526   6
  -4 -10  -1 92.0396 10.1521   7
  -4 -10  -1 93.4252 16.8047   9
  -4 -10  -1 81.5182 15.9758   9
   4 -10   1 89.1060 14.0388   7
  -4  10  -1 105.627  16.468   1
  -4  10  -1 108.017  15.634   7
  -4  10  -1 77.1684 13.3668   2
   5 -10   1 -0.7858  7.3515   7
  -5 -10  -1 -9.2521  9.1790   9
  -5 -10  -1 11.7147  8.6216   9
  -5 -10  -1 -2.5503  5.1300   1
   5 -10   1 -6.0504  7.5762   5
  -5  10  -1 -1.5557  6.8496   7
  -5  10  -1 -3.0978  8.6027   1
  -5  10  -1 -13.410   5.995   2
  -6 -10  -1 7.15881 4.43423   1
   6 -10   1 1.57275 8.62893   7
  -6  10  -1 13.3492  8.2091   2
  -6  10  -1 -1.8035 10.4438   1
   6 -11  -1 5.05543 8.86313   7
  -6 -11   1 -0.8299  6.6715   9
  -6 -11   1 19.8473 10.5840   5
  -6  11   1  6.6188 11.8408   1
  -6  11   1 -3.2606  7.7573   2
   6  11  -1 16.2569 10.2240   4
  -5 -11   1 136.537  20.651   9
  -5 -11   1 193.109  23.987   5
   5 -11  -1 183.075  25.929   5
   5 -11  -1 187.663  21.424   7
  -5 -11   1 181.335  21.330   9
   5  11  -1 136.473  19.884   4
  -5  11   1 161.764  20.819   7
  -5  11   1 193.254  20.291   2
  -5  11   1 143.804  23.724   1
  -4 -11   1 16.0274  9.7816   5
   4 -11  -1 31.1027  8.6989   8
   4 -11  -1 33.0188 10.3780   7
   4 -11  -1 21.8443 11.9972   5
  -4 -11   1 33.3868  5.3907   7
  -4 -11   1 24.5822  5.9451   1
  -4 -11   1 24.9282  9.9272   9
  -4  11   1 30.3157  8.3845   2
   4  11  -1 35.2928  9.8074   4
  -4  11   1 34.2691 10.0892   7
  -4  11   1 26.9142 11.9901   1
   4  11  -1 36.8561  8.9352   8
  -3 -11   1 7.82718 8.12682   5
   3 -11  -1 -7.1469  6.5868   1
   3 -11  -1 8.51155 6.68073   8
  -3 -11   1 8.67728 3.42977   6
  -3 -11   1 5.39090 2.84592   6
   3 -11  -1 10.8842  7.5684   7
  -3 -11   1 6.83729 4.80988   7
  -3 -11   1 -3.2834  6.5999   9
   3 -11  -1 13.3924 10.5402   5
  -3 -11   1 -1.6100  4.5207   1
   3  11  -1 1.33935 7.51463   8
  -3  11   1 -0.5539  5.0634   2
  -3  11   1 10.9583  7.1090   5
  -3  11   1 1.00486 6.28089   7
   3  11  -1 1.47105 6.63312   4
  -3  11   1 10.2754  8.3608   1
  -3  11   1 3.60168 7.42609   3
  -2 -11   1 1577.88  128.74   5
   2 -11  -1 1455.38  131.39   5
  -2 -11   1 1395.00  115.68   6
   2 -11  -1 1406.74  116.88   8
   2 -11  -1 1409.82  119.44   7
  -2 -11   1 1299.01  114.31   6
  -2 -11   1 1531.90  118.27   7
  -2 -11   1 1535.57  119.04   3
  -2 -11   1 1589.55  117.89   1
  -2  11   1 1691.95  121.18   1
   2  11  -1 1585.70  117.53   8
   2  11  -1 1540.10  119.44   7
  -2  11   1 1702.96  126.40   3
  -2  11   1 1520.80  120.06   7
   2  11  -1 1478.35  123.85   3
  -2  11   1 1699.90  119.59   2
  -2  11   1 1547.65  125.78   5
   2  11  -1 1428.52  129.27   4
   1 -11  -1 1073.50   85.79   8
   1 -11  -1 1163.22   89.77   7
  -1 -11   1 1004.05   84.68   6
   1 -11  -1 1091.98   98.58   5
   1 -11  -1 1240.04   91.18   6
  -1 -11   1 1030.34   88.14   7
  -1 -11   1 1087.97   96.28   5
   1 -11  -1 1064.36   90.01   1
  -1 -11   1 1103.14   98.51   9
  -1 -11   1 1134.61   88.20   1
  -1 -11   1 1251.34   88.62   6
  -1  11   1 1138.25   92.88   5
   1  11  -1 1199.56   97.08   4
  -1  11   1 1186.51   90.15   1
  -1  11   1 1118.62   93.75   3
   1  11  -1 1061.91   92.64   3
  -1  11   1 1080.25   89.22   7
  -1  11   1 1080.95   96.97   4
  -1  11   1 1135.77   87.48   2
   1  11  -1 1089.75   87.16   8
   1  11  -1 999.029  88.350   7
   0 -11  -1 176.063  19.890   6
   0 -11   1 147.617  22.015   5
   0 -11   1 166.257  19.631   6
   0 -11  -1 137.183  18.331   1
   0 -11  -1 148.214  23.483   5
   0 -11  -1 160.280  13.950   8
   0 -11   1 180.426  18.841   1
   0 -11  -1 160.663  19.261   7
   0 -11   1 140.399  18.189   7
   0 -11  -1 151.650  15.545   6
   0 -11   1 176.220  15.682   6
   0  11  -1 170.808  18.847   7
   0  11   1 138.748  18.031   7
   0  11   1 157.455  14.851   2
   0  11  -1 168.307  20.286   3
   0  11  -1 137.006  15.986   2
   0  11   1 155.493  17.421   5
   0  11   1 144.771  19.208   3
   0  11  -1 162.641  19.767   4
   0  11  -1 130.654  16.697   8
   0  11   1 146.422  20.060   4
   1 -11   1 298.976  28.321   7
   1 -11   1 281.267  24.392   8
  -1 -11  -1 330.314  28.846   1
  -1 -11  -1 329.959  34.630   5
  -1 -11  -1 318.939  24.972   6
   1 -11   1 313.356  33.417   5
   1 -11   1 192.738  27.739   6
  -1 -11  -1 242.391  26.114   6
   1 -11   1 306.856  28.679   1
  -1 -11  -1 269.908  27.793   7
   1  11   1 281.280  27.106   5
  -1  11  -1 296.815  28.397   7
   1  11   1 302.464  30.465   4
  -1  11  -1 265.008  29.905   3
   1  11   1 269.054  27.926   7
  -1  11  -1 261.826  29.658   4
  -1  11  -1 327.941  29.285   1
  -1  11  -1 248.738  25.892   2
  -1  11  -1 292.112  26.861   8
   1  11   1 293.719  29.331   3
  -2 -11  -1 93.8877 19.3654   5
  -2 -11  -1 102.213  19.026   9
   2 -11   1 86.5613 14.1125   7
   2 -11   1 110.023  15.603   1
   2 -11   1 82.7151 17.4261   5
   2 -11   1 87.5179 12.0129   8
  -2 -11  -1 113.451  14.624   1
  -2 -11  -1 91.4330 11.6594   6
  -2 -11  -1 105.803  11.024   6
  -2 -11  -1 106.149  13.300   7
  -2  11  -1 92.4777 12.8269   2
   2  11   1 122.429  16.641   4
  -2  11  -1 72.5753 15.1346   1
  -2  11  -1 109.086  14.229   8
  -2  11  -1 91.6392 16.4194   3
   2  11   1 95.6950 15.8717   7
  -2  11  -1 109.365  15.732   7
   3 -11   1 11.4317  9.1089   1
  -3 -11  -1 39.5007 13.6692   5
   3 -11   1 14.0978  7.2759   8
   3 -11   1 12.6821 10.3746   5
  -3 -11  -1 16.6735 10.6825   9
  -3 -11  -1 20.7202  4.8388   6
  -3 -11  -1 24.6764  8.1810   1
  -3 -11  -1 16.6704  4.8525   6
  -3 -11  -1 17.0276  6.1857   7
   3 -11   1 17.6657  8.1184   7
  -3  11  -1 7.30230 8.80137   3
  -3  11  -1 22.3123 10.2648   1
  -3  11  -1 24.2711  9.3654   7
  -3  11  -1 26.9592  8.5978   2
   3  11   1 14.7716  9.5146   4
  -4 -11  -1 1130.60   94.08   6
  -4 -11  -1 1481.33  112.81   5
  -4 -11  -1 1437.71  113.37   9
   4 -11   1 1190.47  110.37   5
  -4 -11  -1 1316.86   96.90   7
   4 -11   1 1209.21  101.28   7
  -4 -11  -1 1206.01   98.43   1
   4 -11   1 1230.45   99.46   8
  -4 -11  -1 1262.45   94.14   6
  -4  11  -1 1204.52  101.60   7
  -4  11  -1 1440.25  104.54   1
  -4  11  -1 1170.13  101.59   2
  -5 -11  -1 93.5726 19.0791   5
   5 -11   1 59.9594 17.4147   5
  -5 -11  -1 66.3720 15.4894   9
   5 -11   1 72.8173 14.0796   7
  -5 -11  -1 72.9360 10.5172   1
  -5  11  -1 66.5712 13.6181   2
  -5  11  -1 64.5624 16.3891   1
  -6 -12   1  6.0405 10.2826   5
  -6  12   1 5.04463 7.59484   2
  -6  12   1 -13.427  10.933   1
   5 -12  -1 73.6441 14.5835   7
  -5 -12   1 79.4509 15.5474   9
   5 -12  -1 69.0126 19.1223   5
  -5 -12   1 94.3690 17.1408   5
  -5 -12   1 72.3007  7.6795   1
  -5 -12   1 70.5363 14.1481   9
   5  12  -1 79.1921 14.9852   4
  -5  12   1 74.7088 13.5865   2
  -5  12   1 65.5933 18.5244   1
  -4 -12   1 7.13129 8.54851   9
  -4 -12   1 8.28957 9.06845   5
  -4 -12   1 12.2228  4.3876   7
  -4 -12   1 3.91723 4.75058   1
   4 -12  -1 9.21339 7.79485   7
   4 -12  -1 15.5794 12.4590   5
   4 -12  -1 11.1300  7.7620   8
  -4  12   1 -8.2365  8.4441   1
   4  12  -1 -0.6566  7.5986   4
   4  12  -1 -0.1771  8.8570   8
  -4  12   1 8.71065 7.30537   2
  -4  12   1 -3.8773  6.2999   7
   3 -12  -1 33.9070 16.0398   5
   3 -12  -1 71.4400 11.3138   8
  -3 -12   1 67.0263 14.6668   5
  -3 -12   1 69.8724  7.3523   6
  -3 -12   1 55.0494 13.6227   9
  -3 -12   1 60.4937  9.5920   1
   3 -12  -1 44.7550 11.1670   7
  -3 -12   1 60.5374  9.2854   7
  -3 -12   1 55.3594  6.6761   6
   3 -12  -1 40.6689 12.9950   1
   3  12  -1 52.3784 11.9482   4
  -3  12   1 64.5029 10.7849   2
  -3  12   1 86.5411 14.5698   7
   3  12  -1 45.1720 11.2243   8
  -3  12   1 57.3957 14.5876   1
  -3  12   1 63.2546 13.9878   3
  -2 -12   1 1.93357 3.77973   6
  -2 -12   1 -2.4623  7.5325   5
   2 -12  -1 13.0370 11.7654   5
   2 -12  -1 -1.6253  6.4786   7
   2 -12  -1 9.26145 6.51763   8
   2 -12  -1 1.35861 7.54569   1
  -2 -12   1 -1.1993  4.7154   6
  -2 -12   1 12.3225  6.8097   7
  -2 -12   1 5.14909 5.71528   1
   2  12  -1 -0.9709  7.0590   4
  -2  12   1 2.79641 9.19177   1
  -2  12   1 -1.6754  6.6415   3
   2  12  -1 -4.7133  8.0219   8
   2  12  -1 -2.2702  6.3737   7
  -2  12   1 3.10232 6.75646   5
  -2  12   1 5.10053 5.14338   2
  -2  12   1 5.25344 5.93782   7
  -1 -12   1 563.896  51.251   6
   1 -12  -1 754.149  56.258   6
   1 -12  -1 664.775  53.748   7
   1 -12  -1 606.449  54.121   1
   1 -12  -1 568.759  48.892   8
  -1 -12   1 646.761  52.449   7
  -1 -12   1 585.162  51.808   1
   1 -12  -1 615.348  60.685   5
  -1 -12   1 655.638  48.940   6
  -1 -12   1 512.884  56.954   5
   1  12  -1 626.940  50.774   2
  -1  12   1 650.766  50.572   2
  -1  12   1 742.785  57.563   3
   1  12  -1 622.727  51.268   8
  -1  12   1 618.418  54.536   5
   1  12  -1 575.667  52.682   7
  -1  12   1 660.398  53.753   7
   1  12  -1 485.030  55.874   4
   0 -12  -1 5.57666 4.89201   6
   0 -12  -1  9.0129 11.0684   5
   0 -12   1 7.15659 6.64873   1
   0 -12   1 4.68104 4.40638   6
   0 -12  -1 9.54104 7.55539   1
   0 -12   1 7.47846 6.73581   7
   0 -12   1 18.9240  8.3387   6
   0 -12  -1 8.20662 7.04050   7
   0 -12   1 5.39765 9.48057   5
   0 -12  -1 7.10026 7.48380   6
   0  12   1 23.5527  9.0435   4
   0  12  -1 1.05370 7.66743   8
   0  12   1 10.0375  7.3350   7
   0  12   1 11.9094  7.0418   5
   0  12  -1 -0.3949  7.1348   3
   0  12  -1 -5.6491  6.7371   4
   0  12   1 5.55760 7.88800   3
   0  12  -1 1.47960 5.74964   2
   0  12  -1 10.4173  7.2925   7
   1 -12   1 199.588  27.695   5
   1 -12   1 217.653  18.982   8
   1 -12   1 187.848  22.927   1
   1 -12   1 186.948  24.360   6
  -1 -12  -1 215.114  22.794   7
   1 -12   1 202.585  23.005   7
  -1 -12  -1 181.876  22.610   1
  -1 -12  -1 218.401  22.041   6
  -1 -12  -1 234.269  30.058   5
  -1 -12  -1 208.665  19.631   6
   1  12   1 216.542  25.437   4
  -1  12  -1 210.704  22.040   8
  -1  12  -1 183.326  22.945   7
   1  12   1 251.125  24.638   7
   1  12   1 199.719  21.769   5
  -1  12  -1 224.295  21.319   2
  -1  12  -1 213.168  25.501   3
   2 -12   1 -7.7360  9.1909   5
   2 -12   1 3.55762 6.63020   8
   2 -12   1 0.41606 6.62996   7
  -2 -12  -1 11.0765  7.1998   1
   2 -12   1 5.82176 7.24521   1
  -2 -12  -1 -1.7447  4.5917   6
  -2 -12  -1 2.33975 3.81938   6
  -2 -12  -1  9.4912 10.2162   5
  -2 -12  -1 2.16037 6.34728   7
   2  12   1 12.8703  8.6198   4
  -2  12  -1 1.30238 6.66573   7
  -2  12  -1 3.90987 6.00021   2
   2  12   1 -6.4976  6.6688   7
  -2  12  -1 -9.6647  6.6774   3
  -2  12  -1 21.7253  9.3619   8
  -3 -12  -1 2181.91  163.47   6
  -3 -12  -1 2072.96  165.72   7
  -3 -12  -1 2594.72  186.44   5
  -3 -12  -1 2068.90  167.24   1
   3 -12   1 2138.90  183.47   5
  -3 -12  -1 2004.47  162.84   6
   3 -12   1 2235.67  169.99   7
   3 -12   1 2279.04  170.73   1
   3 -12   1 2164.38  167.05   8
  -3  12  -1 2335.75  170.55   7
  -3  12  -1 2111.80  171.23   1
   3  12   1 1799.64  183.71   4
  -3  12  -1 2067.02  170.66   2
  -3  12  -1 2573.86  179.58   3
  -4 -12  -1 29.4205  6.5932   7
  -4 -12  -1 22.1045  3.5538   6
  -4 -12  -1 17.5649  7.4899   1
  -4 -12  -1 19.1297  3.5032   6
  -4 -12  -1  5.8722 11.1466   5
   4 -12   1 18.0706  8.9755   7
   4 -12   1 27.2447 13.2580   5
  -4 -12  -1 38.3459 14.1064   9
  -4  12  -1 19.7513  9.4232   2
  -4  12  -1 33.7011 13.6957   1
   5 -12   1 610.444  62.273   5
  -5 -12  -1 541.278  59.688   9
  -5 -12  -1 660.170  63.281   5
  -5 -12  -1 702.118  51.491   1
  -5  12  -1 641.199  59.312   1
  -5  12  -1 556.128  54.596   2
  -5 -13   1 121.154  19.966   5
  -5 -13   1 97.1280 10.4794   1
   5  13  -1 100.362  17.605   4
  -5  13   1 107.651  22.890   1
  -5  13   1 116.242  16.866   2
   4 -13  -1 25.8415 15.1587   5
  -4 -13   1 20.5331 11.3799   5
  -4 -13   1 35.6865  7.5581   1
   4 -13  -1 33.8623 11.4194   7
   4  13  -1 27.8156 11.2666   4
  -4  13   1 34.3155 13.7539   1
   4  13  -1 37.4182 11.4923   8
  -4  13   1 35.0216 10.0051   2
  -3 -13   1 9.79865 9.92539   5
   3 -13  -1 20.5048  8.9289   8
  -3 -13   1 20.2513  7.5517   1
   3 -13  -1 36.8123 12.1580   1
  -3 -13   1 24.9890  4.7828   6
  -3 -13   1 27.2364  7.6423   7
   3 -13  -1 34.9631 10.1573   7
   3 -13  -1 31.7455 15.1408   5
  -3 -13   1 16.8480  4.9369   6
   3  13  -1 28.9395  9.7940   8
   3  13  -1 18.4009 10.2289   4
  -3  13   1 10.5485  7.8163   7
  -3  13   1 38.0682 13.5878   1
  -3  13   1 25.0328  8.4431   2
  -3  13   1 17.4326 10.2987   3
  -2 -13   1 1002.16   75.40   6
  -2 -13   1 1121.61   87.46   5
   2 -13  -1 927.032  88.960   5
   2 -13  -1 896.825  78.957   7
   2 -13  -1 896.784  80.441   1
  -2 -13   1 991.855  77.824   7
   2 -13  -1 949.555  75.705   8
  -2 -13   1 921.082  77.073   1
  -2 -13   1 856.985  73.723   6
  -2  13   1 893.736  79.271   7
   2  13  -1 906.257  85.391   4
  -2  13   1 1122.31   78.16   2
   2  13  -1 985.643  77.499   8
  -1 -13   1 649.840  59.679   5
   1 -13  -1 703.377  62.727   5
  -1 -13   1 555.821  51.121   6
   1 -13  -1 587.011  54.213   1
  -1 -13   1 609.052  48.930   6
   1 -13  -1 726.109  54.809   7
  -1 -13   1 571.017  52.051   1
  -1 -13   1 680.056  53.109   7
   1  13  -1 627.443  50.860   2
   1  13  -1 627.059  51.764   8
   1  13  -1 610.129  57.809   4
   1  13  -1 568.602  53.143   7
  -1  13   1 548.253  53.119   7
  -1  13   1 569.680  54.566   5
   0 -13  -1 122.385  17.325   1
   0 -13  -1 88.0908 15.2833   7
   0 -13   1 89.7345 15.1926   7
   0 -13  -1 102.195  20.220   5
   0 -13  -1 175.286  17.948   6
   0 -13   1 94.7809 15.1474   1
   0 -13   1 119.136  20.909   5
   0 -13   1 84.6244 15.5776   6
   0  13  -1 83.5977 16.3542   4
   0  13   1 104.399  14.899   5
   0  13   1 92.3324 15.9957   7
   0  13  -1 133.273  15.263   8
   0  13  -1 93.6781 16.0674   7
   0  13  -1 92.2584 12.7115   2
   1 -13   1 61.2928 13.1520   1
  -1 -13  -1 75.0633 13.0133   7
   1 -13   1 46.8314 15.3550   5
  -1 -13  -1 44.8996  8.5245   6
  -1 -13  -1 53.7753 12.4730   1
  -1 -13  -1 40.0794 14.7304   5
  -1 -13  -1 59.9512 11.0456   6
   1 -13   1 51.2476 11.9450   7
   1  13   1 45.5928 13.2643   4
  -1  13  -1 74.0351 12.5219   8
  -1  13  -1 55.9915 10.0099   2
  -1  13  -1 71.2278 14.0513   7
   1  13   1 53.4065 13.0380   7
  -2 -13  -1 161.427  19.291   7
   2 -13   1 183.317  26.843   5
  -2 -13  -1 182.445  27.776   5
   2 -13   1 176.648  22.391   1
  -2 -13  -1 170.289  17.800   6
  -2 -13  -1 168.558  16.464   6
   2 -13   1 158.829  20.776   7
  -2 -13  -1 149.200  19.985   1
   2 -13   1 160.488  17.518   8
  -2  13  -1 148.263  21.353   7
  -2  13  -1 161.204  19.223   2
  -2  13  -1 210.658  21.493   8
   2  13   1 168.858  23.261   4
  -3 -13  -1 -0.4641 10.1077   5
  -3 -13  -1 -1.7255  5.4579   7
   3 -13   1 12.5960  7.4428   8
  -3 -13  -1 0.77711 4.41158   6
  -3 -13  -1 5.07639 4.15994   6
  -3 -13  -1 0.66991 7.36286   1
   3 -13   1 -0.9728 11.3558   5
   3 -13   1 -9.0209  6.3506   7
   3 -13   1  7.4913 10.7906   1
  -3  13  -1 -0.8342  6.5371   2
  -3  13  -1 6.11608 9.43589   7
   3  13   1 1.59264 9.61879   4
   4 -13   1 839.339  85.367   5
  -4 -13  -1 845.311  73.807   1
  -4 -13  -1 1036.53   87.67   5
  -4 -13  -1 949.867  68.789   6
  -4 -13  -1 958.627  72.470   7
  -4 -13  -1 1007.19   88.82   9
  -4  13  -1 777.677  75.850   2
  -4 -14   1 23.0798 12.3992   5
  -4 -14   1 17.1995  7.1413   1
   4 -14  -1 10.7937 14.5279   5
  -4  14   1 29.7875  9.4772   2
   4  14  -1 24.4217 10.9248   4
  -3 -14   1 146.040  17.454   1
   3 -14  -1 181.769  18.803   8
   3 -14  -1 170.881  28.610   5
  -3 -14   1 154.122  23.456   5
  -3 -14   1 132.870  14.255   6
  -3 -14   1 161.200  14.194   6
  -3 -14   1 152.477  16.956   7
   3  14  -1 156.819  21.905   4
  -3  14   1 175.902  19.212   2
  -2 -14   1 202.386  26.150   5
  -2 -14   1 188.274  18.092   6
  -2 -14   1 192.065  20.665   1
  -2 -14   1 173.375  16.777   6
   2 -14  -1 137.894  22.145   1
   2 -14  -1 159.780  28.423   5
  -2 -14   1 193.092  20.323   7
  -2  14   1 161.144  22.396   7
   2  14  -1 152.289  23.037   4
   1 -14  -1 110.727  23.492   5
  -1 -14   1 121.774  15.976   6
  -1 -14   1 130.228  17.191   7
   1 -14  -1 136.344  19.466   1
  -1 -14   1 131.331  13.759   6
  -1 -14   1 95.0254 19.9281   5
  -1 -14   1 100.661  16.295   1
   1 -14  -1 138.411  18.404   7
   1  14  -1 114.361  19.345   4
  -1  14   1 115.543  18.142   7
   0 -14   1 1645.85  112.37   1
   0 -14  -1 1131.41  110.43   1
   0 -14  -1 1467.24  122.94   5
   0 -14   1 1258.15  110.12   7
   0 -14  -1 1380.16  111.59   7
   0 -14   1 1516.49  111.38   6
   0 -14   1 1443.25  122.15   5
   0  14  -1 1345.96  111.70   7
   0  14   1 1307.48  111.40   7
  -1 -14  -1 206.030  21.394   7
   1 -14   1 117.423  23.920   5
  -1 -14  -1 176.742  21.693   1
   1 -14   1 156.765  21.263   1
  -1 -14  -1 150.417  18.797   6
  -1 -14  -1 122.132  24.867   5
   1  14   1 189.045  22.878   7
  -1  14  -1 190.498  18.943   2
  -1  14  -1 130.661  21.001   7
   2 -14   1 6.97162 8.79213   1
  -2 -14  -1 30.6053  9.7278   7
  -2 -14  -1 24.3203  6.8713   6
   2 -14   1 23.6755 14.8791   5
  -2 -14  -1 12.9870  9.0947   1
  -2 -14  -1 36.1086  8.5363   6
  -2 -14  -1 32.5550 15.0849   5
  -2  14  -1 20.6378  8.8275   2
  -2  14  -1 38.7761 12.2660   7
   2  14   1 25.9521 12.1884   4
  -3 -14  -1 73.8923 13.2663   1
  -3 -14  -1 51.7113  7.5485   6
  -3 -14  -1 60.2584  8.4079   6
  -3 -14  -1 35.8846 16.5976   5
   3 -14   1 70.3890 18.3515   5
  -3  14  -1 50.5952 12.1461   2
   3  14   1 22.9112 13.4014   4
  -3 -15   1 22.1227  8.6107   1
  -3 -15   1 27.6987  5.3492   6
  -3 -15   1 26.7109  5.3252   6
   3 -15  -1 25.3204 16.4650   5
  -3 -15   1 32.7199 13.5471   5
   3  15  -1 28.4177 12.5836   4
  -2 -15   1 63.1274 12.4267   1
  -2 -15   1 66.2062 17.3253   5
  -2 -15   1 60.9024 10.1567   6
   2 -15  -1 96.2420 22.5719   5
   2 -15  -1 40.4728 14.3453   1
  -2 -15   1 74.9701  9.4131   6
   2  15  -1 57.9396 15.0939   4
   1 -15  -1 18.1915 13.3591   5
  -1 -15   1 29.7521 10.3430   1
  -1 -15   1 31.0053 13.9300   5
   1 -15  -1 15.1198  9.6315   1
  -1 -15   1 25.3057  9.2718   6
  -1  15   1 42.5628 13.0683   7
   0 -15   1 165.911  25.730   5
   0 -15   1 127.238  19.310   1
   0 -15  -1 131.844  20.371   1
   0 -15  -1 175.062  27.422   5
   0  15  -1 134.877  21.219   7
   0  15   1 152.038  20.767   7
  -1 -15  -1 15.8368  9.6292   1
  -1 -15  -1 27.3052  9.7705   6
   1 -15   1 22.0897 10.6430   1
   1 -15   1 13.3878 12.1614   5
  -1 -15  -1 16.7292 13.4073   5
  -1  15  -1 29.7905 12.3629   7
  -2 -15  -1 5.55090 6.15800   6
  -2 -15  -1 -0.3489 11.8657   5
   2 -15   1 12.7271 13.2284   5
   2 -15   1  6.9612 10.7833   1
  -2 -15  -1 10.9839  9.0002   1
  -2 -15  -1 21.8643  7.4654   6
  -2  15  -1 19.4327  8.7006   2
  -9   0   2 3.16427 3.37518  10
  -9   0   2 0.50751 3.13939  10
  -9   0   2 2.70189 7.78138   2
  -8   0   2 99.6615 13.8680   9
  -8   0   2 98.1421 12.6187   9
  -8   0   2 86.0291 14.1935   2
  -8   0   2 94.9147  8.9187  10
   7   0  -2 -5.0716  5.6712   4
  -7   0   2 -1.7516  5.1316   9
  -7   0   2 2.42774 2.51866  10
  -7   0   2 0.44669 4.61038   9
  -7   0   2 -8.9445  5.2873   2
   6   0  -2 451.452  39.565   4
   6   0  -2 486.923  36.650   3
  -6   0   2 459.722  38.722   2
  -6   0   2 430.937  39.248   9
  -6   0   2 396.392  39.762   9
   5   0  -2 3.65544 2.73270   4
   5   0  -2 1.57937 2.24949   7
   5   0  -2 2.10996 1.87887   3
  -5   0   2 1.80269 2.96178   5
  -5   0   2 -4.1538  3.9226   9
  -5   0   2 3.25663 4.21251   2
  -5   0   2 1.80355 3.41815   9
   4   0  -2 1286.67   98.14   7
   4   0  -2 1300.79   98.41   1
   4   0  -2 1261.05  101.23   3
  -4   0   2 1248.26  107.55   9
   4   0  -2 1251.37   97.71   7
  -4   0   2 1371.68  104.09   5
   4   0  -2 1400.54  106.56   9
  -4   0   2 1292.27   90.09  10
  -4   0   2 1205.99  107.72   9
  -3   0   2 0.21649 1.79388   1
   3   0  -2 2.31634 2.69387   1
  -3   0   2 10.8387  3.8621   2
  -3   0   2 4.87743 2.07025   5
   3   0  -2 0.29607 2.33312   9
  -3   0   2 -0.8808  1.5329   1
  -3   0   2 2.35144 1.78160  10
  -3   0   2 5.73383 3.63077   9
   3   0  -2 3.56249 2.06979   9
   3   0  -2 1.82804 2.15475   7
   3   0  -2 1.50352 1.08386   3
   3   0  -2 2.88975 2.16359   7
   2   0  -2 796.626  57.553   6
   2   0  -2 736.479  60.098   3
  -2   0   2 708.110  63.328   9
  -2   0   2 849.872  57.851   1
   2   0  -2 699.179  62.788   9
  -2   0   2 726.884  56.995   6
  -2   0   2 855.159  59.734   2
   2   0  -2 829.727  60.777   5
   2   0  -2 680.878  61.860   5
   2   0  -2 786.451  63.799   9
   2   0  -2 753.064  57.619   1
  -2   0   2 708.969  60.836   5
   2   0  -2 785.418  57.482   7
   2   0  -2 769.426  53.029  10
   2   0  -2 695.108  57.317   7
  -2   0   2 699.747  52.793  10
   2   0  -2 839.905  57.555   1
  -2   0   2 714.852  57.351   1
  -1   0   2 8.63635 3.08338   9
   1   0  -2 1.50339 1.90833   1
  -1   0   2 0.89809 1.42260   7
   1   0  -2 3.52359 1.77016   1
  -1   0   2 3.75622 2.72137   9
   1   0  -2 3.00619 1.91112   2
   1   0  -2 2.74417 1.81298   8
   1   0  -2 4.65420 1.77260   6
   1   0  -2 5.45064 2.31056   8
  -1   0   2 4.47303 1.71403   3
  -1   0   2 6.21181 2.00697   5
   1   0  -2 0.80001 2.34453   9
   1   0  -2 3.33407 1.79261   7
   1   0  -2 3.03377 2.81194   9
  -1   0   2 2.20044 1.83596   6
   1   0  -2 2.57142 1.75486   3
  -1   0   2 2.53915 1.51941  10
  -1   0   2 1.87922 1.84657   1
   1   0  -2 -1.3130  2.3636   4
   1   0  -2 3.12763 1.52449  10
   0   0   2 1200.14   98.45   8
   0   0   2 1472.46   98.74   1
   0   0   2 1347.03  108.57   9
   0   0   2 1250.73   98.80   1
   0   0   2 1172.27  107.78   4
   0   0  -2 1430.93   98.62   8
   0   0   2 1211.34   90.80  10
   0   0  -2 1311.82   97.83   6
   0   0  -2 1456.64  108.72   9
   0   0   2 1247.55   98.24   7
   0   0   2 1257.01  102.47   3
   1   0   2 -0.0728  1.6686   3
   1   0   2 0.36620 2.85500   9
   1   0   2 -0.8880  1.6857   6
  -1   0  -2 0.35018 1.70801  10
  -1   0  -2 4.89536 2.89639   1
  -1   0  -2 1.92840 2.00197   7
  -1   0  -2 -1.2337  2.8304   9
   1   0   2 -0.3795  2.4675   1
   1   0   2 0.75638 2.35355   8
   1   0   2 -3.7086  2.1978   5
  -1   0  -2 0.88870 3.04493   9
   1   0   2 -1.8649  2.8294   4
  -1   0  -2 5.69645 2.33960   6
   1   0   2 -2.2544  2.0629   1
   1   0   2 0.75106 1.87897   7
  -1   0  -2 -0.3794  2.3303   1
  -1   0  -2 7.21705 2.76082   8
   2   0   2 1555.62  118.99   6
  -2   0  -2 1635.55  119.62   8
  -2   0  -2 1806.43  120.42   1
  -2   0  -2 1605.37  118.87   6
   2   0   2 1674.93  132.20   9
   2   0   2 1415.02  119.53   7
  -2   0  -2 1538.72  119.75   7
   2   0   2 1569.10  119.84   8
  -2   0  -2 1376.94  131.71   9
   2   0   2 1649.98  132.22   9
   2   0   2 1643.23  120.31   1
  -2   0  -2 1656.12  120.60   1
   2   0   2 1564.21  127.64   5
  -2   0  -2 1401.28  110.47  10
   2   0   2 1633.13  131.50   4
  -2   0  -2 1728.93  132.69   9
  -2   0  -2 1576.80  131.39   4
  -2   0  -2 1459.98  122.22   2
   3   0   2 4.75288 3.81710   1
  -3   0  -2 0.12389 2.66709   7
   3   0   2 1.62369 2.94713   5
   3   0   2 0.79722 3.56818   4
  -3   0  -2 0.59416 3.78271   9
  -3   0  -2 0.90645 4.30467   9
  -3   0  -2 4.79081 4.13151   1
  -3   0  -2 2.57684 3.26697   2
   3   0   2 -2.3918  3.7729   9
  -3   0  -2 4.05609 2.70166   6
  -3   0  -2 12.1083  4.1527   4
   3   0   2 13.5623  4.1634   8
  -3   0  -2 0.00916 2.74919  10
   3   0   2 5.25548 4.80734   9
  -4   0  -2 237.763  18.883  10
  -4   0  -2 237.930  20.295   7
  -4   0  -2 224.530  19.298   6
  -4   0  -2 235.465  21.220   1
   4   0   2 260.656  24.286   9
  -4   0  -2 190.629  23.019   9
  -4   0  -2 214.061  20.867   2
  -4   0  -2 228.800  21.346   1
   4   0   2 240.092  23.270   4
   4   0   2 250.188  21.510   1
  -4   0  -2 212.500  23.527   9
   4   0   2 226.081  21.267   5
  -5   0  -2 6.96323 7.22954   9
  -5   0  -2 2.48406 5.02056   2
  -5   0  -2 2.97176 4.00762   7
  -5   0  -2 -1.1469  3.1055   6
  -5   0  -2 -6.3416  4.2413   1
  -5   0  -2 -3.6306  3.4887  10
  -5   0  -2 3.47378 6.40675   9
  -6   0  -2 596.255  58.033   9
  -6   0  -2 630.742  50.266   7
  -6   0  -2 622.918  51.681   1
  -6   0  -2 686.577  47.062  10
  -6   0  -2 656.146  48.637   6
  -6   0  -2 497.366  56.258   9
  -6   0  -2 627.031  52.527   2
  -7   0  -2 7.91729 6.49171   1
  -7   0  -2 0.48247 5.80421   7
  -7   0  -2 7.17216 6.93323   2
  -7   0  -2 6.15678 5.65445  10
  -7   0  -2 2.90076 7.85140   9
  -9  -1   2 654.466  56.045   2
  -9   1   2 622.474  45.674  10
  -9   1   2 676.474  57.125   9
  -9   1   2 551.434  55.236   2
  -8  -1   2 0.07001 5.72711   9
  -8  -1   2 -2.2281  4.6393   9
  -8  -1   2 -7.7703  6.1617   2
  -8  -1   2 2.14437 2.46411  10
  -8   1   2 0.64234 7.30719   2
  -8   1   2 1.68465 5.86518   9
  -8   1   2 3.11750 7.25899   9
  -8   1   2 3.35290 3.48287  10
   8   1  -2 -2.5634  5.9601   4
   7  -1  -2 96.1378 13.9487   4
  -7  -1   2 90.0246 11.4444   9
  -7  -1   2 81.5443  7.6614  10
  -7  -1   2 101.927  11.028   9
  -7  -1   2 93.2845 12.9527   2
   7   1  -2 91.3679 12.0532   4
  -7   1   2 90.1635 13.6128   9
  -7   1   2 106.369  13.615   2
  -7   1   2 88.4705 12.1976   9
  -6  -1   2 904.828  81.948   9
   6  -1  -2 971.805  77.871   3
  -6  -1   2 971.905  67.988  10
  -6  -1   2 943.465  81.493   9
   6  -1  -2 995.065  83.329   4
  -6  -1   2 1025.17   78.81   2
  -6   1   2 1001.91   84.02   9
  -6   1   2 1050.06   74.08   1
  -6   1   2 1008.10   78.90   2
   6   1  -2 961.060  81.549   4
  -6   1   2 1029.37   74.20   1
  -6   1   2 827.709  82.640   9
   5  -1  -2 115.073  10.759   7
  -5  -1   2 120.875  10.544   5
  -5  -1   2 108.008  11.517   9
   5  -1  -2 110.814  10.464   3
   5  -1  -2 112.370  11.900   4
  -5  -1   2 105.693  10.638   5
  -5  -1   2 111.126  10.710   9
  -5  -1   2 87.5235 11.8563   2
  -5   1   2 121.604  10.100   1
  -5   1   2 128.999  12.992   5
   5   1  -2 105.430   9.515   7
  -5   1   2 77.3174 11.7339   2
  -5   1   2 102.070  12.713   9
  -5   1   2 108.809  13.365   9
  -5   1   2 113.561  11.809   5
  -5   1   2 119.670   9.468   7
  -5   1   2 101.115  10.251   1
  -4  -1   2 388.927  34.866   9
  -4  -1   2 402.953  29.074  10
   4  -1  -2 353.050  32.603   7
   4  -1  -2 501.732  34.574   1
   4  -1  -2 417.682  33.490   3
  -4  -1   2 447.582  33.846   5
   4  -1  -2 379.914  33.257   7
  -4  -1   2 442.889  34.828   2
  -4  -1   2 401.213  33.900   5
  -4  -1   2 423.799  35.224   9
   4  -1  -2 391.787  35.486   4
  -4   1   2 475.532  36.140   5
  -4   1   2 430.257  37.112   9
   4   1  -2 391.533  31.702   7
   4   1  -2 450.354  32.050   7
  -4   1   2 421.717  32.041   7
  -4   1   2 355.097  36.706   9
  -4   1   2 423.938  32.566   1
  -4   1   2 354.092  32.086   1
  -4   1   2 452.332  34.893   2
  -4   1   2 458.859  35.061   5
   3  -1  -2 325.216  27.080   7
  -3  -1   2 336.951  27.441   5
  -3  -1   2 331.834  28.732   9
   3  -1  -2 327.419  27.580   3
   3  -1  -2 355.777  28.193   5
  -3  -1   2 341.156  28.390   2
   3  -1  -2 325.315  30.354   9
  -3  -1   2 299.359  28.019   5
   3  -1  -2 434.318  28.586   1
   3  -1  -2 325.361  27.194   6
  -3  -1   2 349.633  23.838  10
   3  -1  -2 354.685  27.391   7
  -3   1   2 313.945  30.567   9
   3   1  -2 363.898  26.041   7
  -3   1   2 354.790  28.378   2
  -3   1   2 318.640  24.655  10
  -3   1   2 330.342  26.906   1
  -3   1   2 323.977  26.468   7
  -3   1   2 369.034  30.585   5
   3   1  -2 347.416  26.317   1
   3   1  -2 336.487  25.972   7
  -3   1   2 330.385  28.404   5
  -3   1   2 332.965  27.038   1
  -2  -1   2 905.236  70.899   1
  -2  -1   2 935.452  65.308  10
  -2  -1   2 951.239  77.836   9
   2  -1  -2 972.882  71.912   6
   2  -1  -2 769.624  77.167   5
  -2  -1   2 891.787  75.229   5
   2  -1  -2 907.590  65.983  10
  -2  -1   2 974.626  73.459   2
   2  -1  -2 909.702  74.998   3
   2  -1  -2 844.730  71.558   1
   2  -1  -2 1071.13   71.73   7
   2  -1  -2 1046.95   73.50   2
   2  -1  -2 902.092  71.869   1
  -2  -1   2 1000.93   77.76   9
   2  -1  -2 980.521  71.496   7
   2  -1  -2 963.622  70.978   8
  -2  -1   2 981.522  70.709   1
   2  -1  -2 926.911  78.330   9
   2  -1  -2 974.679  79.514   9
  -2   1   2 857.252  65.710  10
   2   1  -2 1015.60   77.57   9
   2   1  -2 902.038  70.871   1
   2   1  -2 961.653  70.433   6
   2   1  -2 997.485  78.002   9
   2   1  -2 798.140  73.885   3
  -2   1   2 977.077  75.723   5
  -2   1   2 857.400  73.176   2
   2   1  -2 1024.30   70.83   1
  -2   1   2 946.128  71.560   6
  -2   1   2 880.439  79.027   9
   2   1  -2 946.308  70.697   7
   2   1  -2 860.597  65.238  10
   2   1  -2 868.229  73.208   2
  -2   1   2 903.950  71.798   7
  -2   1   2 1037.47   71.40   7
  -2   1   2 1028.52   71.57   1
  -1  -1   2 184.756  14.769   9
   1  -1  -2 172.849  13.489   2
   1  -1  -2 128.582  12.920   8
   1  -1  -2 166.508  13.826   3
   1  -1  -2 209.745  15.974   9
  -1  -1   2 173.779  14.448   9
   1  -1  -2 167.498  13.427   1
  -1  -1   2 155.196  12.822   1
   1  -1  -2 138.913  13.025   7
   1  -1  -2 149.215  13.122   6
  -1  -1   2 165.482  13.669   5
   1  -1  -2 146.843  12.048  10
  -1  -1   2 149.525  11.611  10
   1  -1  -2 178.615  15.183   9
   1  -1  -2 159.817  13.326   7
  -1  -1   2 138.416  12.463   6
  -1  -1   2 148.641  13.019   3
  -1  -1   2 163.456  12.596   7
   1  -1  -2 147.205  13.437   1
  -1   1   2 166.799  13.286   7
   1   1  -2 150.956  12.546   6
   1   1  -2 149.246  12.620   7
  -1   1   2 141.421  13.507   3
   1   1  -2 166.270  13.169   3
   1   1  -2 154.885  12.507   8
  -1   1   2 161.097  13.553   1
  -1   1   2 201.971  15.902   9
   1   1  -2 174.346  14.606   9
   1   1  -2 169.511  14.155   4
   1   1  -2 124.352  13.046   3
  -1   1   2 151.871  13.292   6
  -1   1   2 167.216  12.721   8
   1   1  -2 152.502  12.426   8
  -1   1   2 154.497  13.247   7
   1   1  -2 148.911  13.025   1
  -1   1   2 160.375  13.756   5
   1   1  -2 143.633  14.230   9
   1   1  -2 178.480  13.070   1
   1   1  -2 145.721  11.623  10
  -1   1   2 133.854  13.327   2
   0  -1   2 14.6781  2.8226   7
   0  -1   2 19.3735  3.8285   4
   0  -1  -2 22.7591  3.2841   8
   0  -1  -2 22.7014  3.2719   6
   0  -1   2 19.1203  2.9919   6
   0  -1  -2 15.2812  3.2291   1
   0  -1   2 20.7540  2.8807   8
   0  -1   2 14.4288  2.7606   3
   0  -1   2 16.3099  3.8342   9
   0  -1   2 24.8485  3.8074   5
   0  -1   2 22.1912  3.4369   8
   0  -1   2 24.4805  4.4812   9
   0  -1  -2 24.3149  4.1137   4
   0  -1   2 32.8487  3.8668   1
   0  -1   2 25.6747  3.7433   1
   0  -1  -2 32.5527  4.4122   1
   0  -1  -2 17.3727  3.1084   3
   0  -1  -2 21.6856  4.5907   9
   0  -1  -2 22.8204  3.6584   7
   0  -1  -2 25.5406  3.3806   7
   0  -1   2 15.7207  3.2239   3
   0   1   2 22.8901  4.0856   1
   0   1   2 13.4397  2.9100   3
   0   1  -2 20.7371  3.9734   4
   0   1   2 22.7201  4.3155   4
   0   1   2 17.7477  3.0250   7
   0   1   2 21.6749  2.9329  10
   0   1   2 15.8472  3.3070   5
   0   1  -2 20.2319  4.2611   9
   0   1   2 19.9808  3.4445   1
   0   1   2 23.8364  3.1346   8
   0   1  -2 28.0885  3.7681   1
   0   1  -2 22.2067  3.0264   6
   0   1  -2 24.0999  3.8258   1
   0   1  -2 18.8734  3.0483   7
   0   1  -2 21.8822  3.3941   8
   0   1   2 14.0113  4.1105   9
  -1  -1  -2 2679.19  196.30   9
  -1  -1  -2 2069.15  178.21   1
   1  -1   2 2152.17  195.56   9
   1  -1   2 2121.26  176.95   6
  -1  -1  -2 2394.80  196.19   9
   1  -1   2 2301.83  189.90   5
  -1  -1  -2 2310.57  177.05   6
   1  -1   2 2076.41  178.32   1
   1  -1   2 2693.43  178.75   8
   1  -1   2 2682.80  178.74   1
  -1  -1  -2 2546.75  178.22   7
  -1  -1  -2 2065.78  164.46  10
  -1  -1  -2 2563.78  178.56   8
  -1  -1  -2 2295.87  178.64   7
   1  -1   2 2663.94  178.32   7
   1  -1   2 2469.07  195.48   4
  -1   1  -2 2400.04  177.09   6
   1   1   2 2208.50  195.86   9
  -1   1  -2 2096.99  195.39   4
   1   1   2 2227.57  177.95   7
   1   1   2 2363.50  189.77   5
   1   1   2 2413.49  195.99   9
   1   1   2 2328.86  164.56  10
  -1   1  -2 2105.86  178.05   7
  -1   1  -2 2577.18  196.08   9
   1   1   2 2235.87  178.49   8
  -1   1  -2 2408.05  178.72   8
   1   1   2 2441.73  178.81   1
   1   1   2 2574.65  195.51   4
  -1   1  -2 2405.20  178.72   1
  -1   1  -2 2581.48  178.63   1
   1   1   2 2443.57  185.65   3
   1   1   2 2395.52  178.35   1
  -1   1  -2 2515.64  196.29   9
   1   1   2 2218.15  177.02   6
  -1   1  -2 2290.14  164.43  10
  -2  -1  -2 714.798  58.354   6
   2  -1   2 670.413  64.952   4
   2  -1   2 822.039  65.949   9
   2  -1   2 784.125  59.154   7
  -2  -1  -2 724.283  59.951   2
   2  -1   2 730.628  59.512   1
   2  -1   2 699.145  58.890   8
  -2  -1  -2 709.716  65.683   9
  -2  -1  -2 742.642  54.507  10
   2  -1   2 845.800  63.435   5
  -2  -1  -2 764.340  60.011   1
  -2  -1  -2 694.364  58.236   8
  -2  -1  -2 817.207  65.632   9
   2  -1   2 930.703  66.124   9
  -2  -1  -2 779.279  58.899   7
   2  -1   2 822.510  58.762   6
  -2  -1  -2 775.314  64.778   4
   2   1   2 742.801  61.249   3
  -2   1  -2 620.688  65.399   9
   2   1   2 691.099  65.314   9
  -2   1  -2 847.954  65.337   4
  -2   1  -2 749.725  58.549   6
   2   1   2 774.497  59.383   1
   2   1   2 720.229  58.524   6
   2   1   2 845.443  65.330   4
  -2   1  -2 770.596  59.790   1
  -2   1  -2 810.135  60.893   2
  -2   1  -2 854.516  59.278   7
   2   1   2 779.676  65.839   9
   2   1   2 777.101  58.798   8
  -2   1  -2 776.120  59.963   1
   2   1   2 802.316  62.949   5
   2   1   2 816.278  59.047   7
  -2   1  -2 726.931  58.818   8
  -2   1  -2 717.026  65.550   9
   3  -1   2 681.564  48.723   1
  -3  -1  -2 561.662  48.397   2
  -3  -1  -2 499.627  53.003   9
   3  -1   2 620.901  52.900   4
  -3  -1  -2 626.630  46.887   6
   3  -1   2 526.660  53.152   9
   3  -1   2 590.159  53.110   9
   3  -1   2 669.892  47.665   8
  -3  -1  -2 595.922  48.632   1
  -3  -1  -2 556.909  48.032   7
  -3  -1  -2 552.052  52.900   9
   3  -1   2 634.684  51.087   5
  -3  -1  -2 586.469  51.811   4
  -3  -1  -2 606.179  43.918  10
  -3  -1  -2 586.804  47.427   7
   3   1   2 575.999  50.359   5
  -3   1  -2 643.830  44.000  10
   3   1   2 608.828  48.035   1
  -3   1  -2 670.144  49.012   1
  -3   1  -2 639.084  47.056   6
  -3   1  -2 726.477  54.142   9
   3   1   2 606.593  47.145   8
  -3   1  -2 532.244  48.753   2
  -3   1  -2 614.209  53.869   9
   3   1   2 605.484  52.360   4
   3   1   2 645.073  53.259   9
  -3   1  -2 579.623  47.668   7
   3   1   2 640.533  53.222   9
  -3   1  -2 603.182  52.476   4
  -4  -1  -2 867.842  86.942   9
  -4  -1  -2 904.021  77.866   7
   4  -1   2 960.619  87.118   9
  -4  -1  -2 1045.52   78.98   7
  -4  -1  -2 1034.45   79.46   1
   4  -1   2 1077.04   79.47   1
  -4  -1  -2 988.680  76.866   6
   4  -1   2 1205.18   82.93   3
  -4  -1  -2 1147.30   79.32   1
  -4  -1  -2 987.453  72.253  10
  -4  -1  -2 1032.27   86.92   9
  -4  -1  -2 935.224  79.743   2
   4  -1   2 1008.65   86.56   4
   4  -1   2 1026.49   83.46   5
  -4   1  -2 1127.65   88.08   9
  -4   1  -2 1101.33   81.00   2
   4   1   2 973.094  82.821   5
  -4   1  -2 1064.01   78.58   7
  -4   1  -2 1011.53   72.29  10
  -4   1  -2 867.789  87.149   9
   4   1   2 1082.23   86.32   4
   4   1   2 1142.98   87.40   9
  -4   1  -2 971.349  79.307   1
  -4   1  -2 877.841  77.066   6
   4   1   2 1041.19   78.08   8
   4   1   2 901.252  78.511   1
  -5  -1  -2 7.67818 4.09347  10
  -5  -1  -2 1.83780 5.31283   1
   5  -1   2 6.10798 4.25965   3
  -5  -1  -2 14.8456  7.7510   9
  -5  -1  -2 10.0366  3.8287   6
  -5  -1  -2 2.96466 4.66268   2
  -5  -1  -2 0.91978 4.05968   7
  -5  -1  -2 1.64411 5.51670   9
  -5   1  -2 20.0695  8.0451   9
  -5   1  -2 0.50920 4.46865   7
  -5   1  -2 6.71686 5.92615   2
  -5   1  -2 7.62548 6.82209   9
  -5   1  -2 7.63891 4.09988   6
  -5   1  -2 8.62918 4.75818  10
  -5   1  -2 4.90727 5.56108   1
  -6  -1  -2 3.25111 6.45822   9
  -6  -1  -2 -1.3966  4.0178   7
  -6  -1  -2 3.90727 4.63211  10
  -6  -1  -2 18.3403  6.9291   2
  -6  -1  -2 0.23563 7.42189   9
  -6  -1  -2 1.93635 5.45393   1
  -6  -1  -2 -0.3798  3.4592   6
  -6   1  -2 7.94473 5.18512  10
  -6   1  -2 6.20814 6.58167   2
  -6   1  -2 10.0497  8.1104   9
  -6   1  -2 4.22786 4.92146   7
  -6   1  -2 -1.3982  3.9444   6
  -6   1  -2 -0.8827  5.7174   1
  -7  -1  -2 1527.19  105.31  10
  -7  -1  -2 1352.85  113.98   1
  -7  -1  -2 1628.40  117.88   2
  -7  -1  -2 1276.72  126.26   9
  -7  -1  -2 1433.73  113.10   7
  -7   1  -2 1466.20  117.88   2
  -7   1  -2 1453.01  127.79   9
  -7   1  -2 1522.29  115.57   1
  -7   1  -2 1416.60  105.47  10
  -7   1  -2 1582.09  114.30   7
  -9  -2   2 114.322  16.402   2
  -9   2   2 112.139  15.541   9
  -9   2   2 92.2298 10.0921  10
  -9   2   2 64.8056 14.8560   2
  -8  -2   2 75.2714 10.4698   9
  -8  -2   2 96.1140 10.5634   9
  -8  -2   2 98.2805 14.2308   2
  -8   2   2 83.3858  8.2205   1
   8   2  -2 71.7614 11.5893   4
  -8   2   2 80.2044 13.7945   2
  -8   2   2 109.993  15.942   9
  -8   2   2 96.0147 13.8978   9
  -7  -2   2 13.1139  4.3816   9
   7  -2  -2 9.88988 8.00779   4
  -7  -2   2 8.30021 6.23213   2
  -7  -2   2 3.34376 4.15333   9
   7   2  -2 4.94964 4.95063   4
  -7   2   2 9.91445 7.33891   9
  -7   2   2 8.82892 6.70733   2
  -7   2   2 12.1968  4.1627   1
  -7   2   2 20.6919  4.8932   1
  -7   2   2 -0.4182  7.3448   9
   6  -2  -2 362.978  33.443   7
  -6  -2   2 320.511  34.899   2
   6  -2  -2 442.233  38.467   4
  -6  -2   2 403.858  35.238   9
   6  -2  -2 426.055  34.694   3
  -6  -2   2 403.831  34.894   9
  -6   2   2 422.655  32.459   7
  -6   2   2 423.058  33.458   1
  -6   2   2 448.649  39.456   9
  -6   2   2 395.678  36.016   2
  -6   2   2 450.544  38.545   9
   6   2  -2 442.319  31.673   7
  -6   2   2 377.836  32.649   1
   5  -2  -2 1350.61  105.47   7
  -5  -2   2 1595.86  110.57   5
   5  -2  -2 1228.49  109.17   3
   5  -2  -2 1439.20  115.86   4
  -5  -2   2 1372.78  108.52   2
  -5   2   2 1393.11  117.03   9
  -5   2   2 1288.65  104.59   7
  -5   2   2 1371.75  104.82   1
  -5   2   2 1275.59  112.31   5
  -5   2   2 1439.11  108.90   2
  -5   2   2 1215.72  105.10   1
  -5   2   2 1533.49  117.76   9
  -5   2   2 1432.06  113.67   5
   5   2  -2 1390.17  103.52   7
   4  -2  -2 2121.90  168.02   5
   4  -2  -2 1895.09  164.66   3
   4  -2  -2 2451.80  174.51   9
   4  -2  -2 1975.76  159.81   1
   4  -2  -2 2155.87  173.65   4
   4  -2  -2 2142.58  158.82   7
  -4  -2   2 2082.96  162.43   2
   4  -2  -2 2049.23  159.29   7
  -4   2   2 2457.75  169.09   5
  -4   2   2 1993.55  158.58   1
  -4   2   2 1823.80  174.76   9
  -4   2   2 1909.52  158.01   7
  -4   2   2 1967.00  158.23   1
  -4   2   2 2267.76  175.62   9
  -4   2   2 2152.38  162.69   2
  -4   2   2 2137.59  170.35   5
   3  -2  -2 468.198  35.622   3
   3  -2  -2 464.787  33.113   8
   3  -2  -2 452.299  34.986   6
   3  -2  -2 444.748  34.822   7
   3  -2  -2 420.266  35.484   1
   3  -2  -2 459.572  37.388   4
  -3  -2   2 409.284  35.148   2
   3  -2  -2 441.071  34.530   7
   3  -2  -2 391.668  36.498   5
   3  -2  -2 464.189  39.454   9
  -3   2   2 438.982  38.949   9
  -3   2   2 433.826  38.623   5
  -3   2   2 394.947  34.642   1
  -3   2   2 475.835  33.585   6
  -3   2   2 410.765  34.362   1
  -3   2   2 439.971  35.357   2
  -3   2   2 397.908  34.180   3
  -3   2   2 405.591  33.858   7
  -3   2   2 376.651  35.932   5
  -3   2   2 422.742  31.424  10
  -2  -2   2 2160.43  187.89   5
   2  -2  -2 2516.60  177.73   7
  -2  -2   2 2266.16  193.53   9
   2  -2  -2 2014.40  177.76   1
  -2  -2   2 2496.55  176.63   1
  -2  -2   2 2384.41  176.57   1
  -2  -2   2 2161.28  193.44   9
   2  -2  -2 2444.84  177.73   8
  -2  -2   2 2419.74  176.69   7
   2  -2  -2 2301.45  181.04   2
   2  -2  -2 1970.53  195.52   9
   2  -2  -2 2289.18  177.63   6
   2  -2  -2 2259.23  177.75   1
   2  -2  -2 2463.45  186.05   3
   2  -2  -2 2603.56  177.77   7
  -2   2   2 2601.53  178.35   7
   2   2  -2 2449.91  176.50   1
  -2   2   2 2298.14  177.40   6
  -2   2   2 2272.42  184.86   3
   2   2  -2 2681.14  175.54   6
   2   2  -2 2430.76  193.63   9
  -2   2   2 2151.42  177.21   7
   2   2  -2 2498.76  193.63   9
  -2   2   2 2045.31  177.93   1
  -2   2   2 2117.81  180.86   2
   2   2  -2 2731.03  176.61   1
   2   2  -2 2582.76  163.04  10
   2   2  -2 2182.24  175.42   6
   2   2  -2 2203.75  176.31   7
   2   2  -2 2766.56  181.38   2
  -2   2   2 2040.32  195.31   9
  -2   2   2 2488.34  163.95  10
  -1  -2   2 324.601  29.195   4
  -1  -2   2 318.674  29.811   9
   1  -2  -2 381.563  31.878   9
   1  -2  -2 378.368  27.803   2
   1  -2  -2 341.365  27.607   7
   1  -2  -2 305.059  27.573   7
   1  -2  -2 308.719  27.380   8
  -1  -2   2 306.344  28.771   5
   1  -2  -2 345.832  28.988   3
  -1  -2   2 369.097  26.911   6
  -1  -2   2 326.157  29.775   9
  -1  -2   2 400.929  28.054   3
  -1  -2   2 320.652  26.518   6
  -1  -2   2 402.066  27.160   1
  -1  -2   2 340.477  26.766   7
   1  -2  -2 361.952  28.020   1
   1  -2  -2 369.869  27.936   6
  -1  -2   2 335.173  27.028   1
   1  -2  -2 354.217  25.434  10
  -1   2   2 313.997  27.783   2
  -1   2   2 400.744  28.306   6
   1   2  -2 394.925  28.216   3
  -1   2   2 419.051  28.414   1
   1   2  -2 307.811  27.759   3
  -1   2   2 356.427  31.556   9
   1   2  -2 304.696  29.761   9
  -1   2   2 343.837  27.680   7
   1   2  -2 323.104  29.906   9
   1   2  -2 293.411  29.380   4
   1   2  -2 313.755  27.060   1
  -1   2   2 349.882  27.213   8
   1   2  -2 379.969  26.705   6
   1   2  -2 410.537  27.070   7
   1   2  -2 386.177  26.887   8
  -1   2   2 334.167  25.436  10
   1   2  -2 328.714  26.487   8
  -1   2   2 378.034  27.921   7
   1   2  -2 328.739  27.107   1
  -1   2   2 337.834  28.867   3
  -1   2   2 338.959  29.015   5
   0  -2   2 904.207  88.225   9
   0  -2  -2 956.719  80.826   1
   0  -2  -2 1039.38   81.26   2
   0  -2   2 1038.14   80.46   1
   0  -2  -2 948.544  88.708   9
   0  -2   2 1018.93   83.36   3
   0  -2  -2 936.922  79.832   6
   0  -2  -2 1055.65   80.32   8
   0  -2   2 1141.04   88.50   9
   0  -2   2 1163.91   80.48   8
   0  -2   2 1079.90   79.96   6
   0  -2   2 1096.24   85.83   5
   0  -2   2 933.935  79.957   8
   0  -2   2 987.364  79.526   6
   0  -2  -2 1117.76   89.40   9
   0  -2  -2 1198.98   81.06   7
   0  -2  -2 1109.01   83.73   3
   0  -2   2 1046.85   80.08   7
   0  -2   2 1160.39   88.18   4
   0  -2   2 1174.60   80.60   1
   0  -2  -2 1113.41   80.81   1
   0  -2  -2 1037.56   80.40   7
   0   2  -2 933.063  83.715   3
   0   2   2 1136.89   81.19   1
   0   2   2 1026.41   83.66   3
   0   2   2 998.371  88.160   4
   0   2   2 1109.86   80.88   7
   0   2   2 1035.60   80.39   8
   0   2   2 1152.42   74.44  10
   0   2  -2 1070.83   80.23   8
   0   2  -2 1060.94   80.54   1
   0   2   2 1047.51   80.36   7
   0   2  -2 1056.33   79.64   6
   0   2  -2 1035.36   80.51   1
   0   2   2 1058.63   85.49   5
   0   2  -2 1039.83   88.48   9
   0   2  -2 973.051  80.512   8
   0   2  -2 1113.43   88.18   4
   0   2   2 1168.79   80.84   1
   0   2  -2 1063.55   80.24   7
   1  -2   2 2.45141 2.48463   3
  -1  -2  -2 6.78209 2.96578   1
  -1  -2  -2 0.47481 1.93094   3
  -1  -2  -2 -0.1940  2.5527   7
  -1  -2  -2 -3.6320  3.3176   9
  -1  -2  -2 -0.2143  2.0345   6
   1  -2   2 2.97607 2.78205   8
   1  -2   2 1.58005 2.92169   1
  -1  -2  -2 0.84076 2.61569   8
  -1  -2  -2 0.54595 2.24408   7
  -1  -2  -2 0.15231 3.55521   9
   1  -2   2 2.93766 3.72475   9
   1  -2   2 2.90048 2.98543   8
  -1  -2  -2 4.44685 3.33333   1
   1  -2   2 2.09447 2.13262   7
   1  -2   2 7.13898 3.24659   5
   1  -2   2 7.74299 2.97642   1
   1  -2   2 8.21959 3.77349   4
  -1  -2  -2 -2.9013  1.6776  10
   1   2   2 3.17071 2.72811   1
   1   2   2 3.58883 2.44699   6
   1   2   2 -0.6192  3.1841   9
  -1   2  -2 0.13363 3.09675   1
   1   2   2 4.39476 2.62053   5
   1   2   2 4.19103 3.29941   4
  -1   2  -2 1.45211 2.03864   6
  -1   2  -2 4.17098 2.69663   7
   1   2   2 1.74191 2.47598   8
  -1   2  -2 16.3928  3.8778   8
   1   2   2 -1.4033  2.8518   1
   1   2   2 2.68022 2.28688   3
   1   2   2 2.52341 2.15834  10
  -1   2  -2 1.89423 3.63462   4
  -1   2  -2 0.81030 2.87074   1
  -1   2  -2 0.69176 3.39192   9
   1   2   2 -0.7871  2.0082   7
  -1   2  -2 -0.9420  3.2569   9
   1   2   2 5.90574 4.21554   9
  -2  -2  -2 643.011  50.735   6
   2  -2   2 695.052  57.594   9
  -2  -2  -2 626.043  51.769   2
   2  -2   2 667.977  51.220   6
   2  -2   2 730.145  51.946   8
   2  -2   2 740.110  51.791   7
  -2  -2  -2 659.325  57.357   9
   2  -2   2 596.798  51.333   8
  -2  -2  -2 665.528  52.310   1
  -2  -2  -2 661.059  56.266   4
  -2  -2  -2 752.553  52.415   7
   2  -2   2 632.582  57.558   9
  -2  -2  -2 623.831  47.417  10
   2  -2   2 745.475  55.485   5
  -2  -2  -2 616.426  51.118   7
   2  -2   2 599.926  52.138   1
   2  -2   2 691.302  57.054   4
   2  -2   2 594.286  53.841   3
  -2   2  -2 703.341  52.428   1
   2   2   2 684.600  57.419   9
  -2   2  -2 641.322  50.874   6
   2   2   2 639.268  47.289  10
   2   2   2 668.233  51.080   8
  -2   2  -2 599.450  51.327   8
   2   2   2 598.903  53.127   3
   2   2   2 705.603  54.685   5
   2   2   2 667.531  57.319   9
   2   2   2 697.436  51.116   6
  -2   2  -2 626.057  57.537   9
   2   2   2 684.861  51.336   7
   2   2   2 693.312  51.809   1
  -2   2  -2 677.863  53.238   2
  -2   2  -2 641.096  52.239   1
   2   2   2 603.930  56.367   4
  -2   2  -2 714.635  58.128   9
  -2   2  -2 705.828  51.877   7
  -3  -2  -2 4044.33  276.91   6
   3  -2   2 3217.39  306.43   9
  -3  -2  -2 4309.49  279.03   7
  -3  -2  -2 4209.38  279.84   7
   3  -2   2 4073.98  306.79   4
  -3  -2  -2 3791.70  284.10   2
   3  -2   2 3668.57  279.95   8
   3  -2   2 3981.16  306.96   9
   3  -2   2 3408.00  291.24   3
   3  -2   2 3534.86  280.30   8
   3  -2   2 3880.03  277.59   6
   3  -2   2 3572.29  279.79   1
  -3  -2  -2 3480.55  279.52   1
   3  -2   2 3811.53  297.46   5
  -3  -2  -2 3869.03  306.46   9
  -3  -2  -2 3684.99  279.26   1
  -3  -2  -2 4216.29  305.11   4
  -3  -2  -2 3496.29  306.86   9
   3   2   2 3734.12  296.54   5
   3   2   2 3325.68  305.58   4
   3   2   2 3813.72  279.45   8
  -3   2  -2 3760.68  279.24   7
   3   2   2 3573.22  306.41   9
   3   2   2 3965.14  279.26   1
   3   2   2 3395.34  290.25   3
  -3   2  -2 3383.26  306.97   9
  -3   2  -2 3480.82  279.70   1
  -3   2  -2 3978.33  306.35   4
  -3   2  -2 3212.16  279.40   1
   3   2   2 3884.75  306.69   9
  -3   2  -2 3632.55  279.31   8
  -3   2  -2 3584.40  285.15   2
  -3   2  -2 3362.92  276.88   6
   4  -2   2 560.481  50.504   5
  -4  -2  -2 576.511  47.854   2
   4  -2   2 704.494  54.422   9
  -4  -2  -2 469.553  52.112   9
  -4  -2  -2 532.846  45.668   6
   4  -2   2 601.020  48.483   1
  -4  -2  -2 618.030  53.908   9
  -4  -2  -2 569.855  47.644   7
   4  -2   2 664.211  53.635   4
  -4  -2  -2 628.296  46.878   7
   4  -2   2 643.115  50.288   3
  -4  -2  -2 677.288  43.944  10
  -4  -2  -2 654.723  48.521   1
  -4  -2  -2 572.269  47.521   1
  -4   2  -2 572.841  47.541   7
  -4   2  -2 527.240  48.350   1
   4   2   2 671.236  53.287   9
   4   2   2 612.466  49.668   5
   4   2   2 537.152  47.355   1
   4   2   2 621.084  48.957   3
   4   2   2 527.463  51.859   4
  -4   2  -2 646.499  54.085   9
  -4   2  -2 525.917  53.478   9
   4   2   2 607.482  46.744   8
  -4   2  -2 520.803  48.894   2
  -4   2  -2 628.149  52.581   4
  -4   2  -2 620.010  46.746   6
  -5  -2  -2 13.1818  3.8663   6
   5  -2   2 21.3274  6.0841   5
  -5  -2  -2 16.5646  7.7045   9
   5  -2   2 16.7648  6.0613   8
  -5  -2  -2 22.8111  6.7693   1
  -5  -2  -2 14.3426  4.7504  10
   5  -2   2 10.3593  5.5480   3
  -5  -2  -2 6.95956 6.07263   9
  -5  -2  -2 12.1720  5.2392   2
  -5  -2  -2 13.0325  4.8481   7
  -5   2  -2 17.7142  5.0038   6
  -5   2  -2 16.9963  8.4922   9
   5   2   2 17.4430  5.2144   3
  -5   2  -2 18.9211  5.9945   7
  -5   2  -2 12.2265  6.5614   1
  -5   2  -2 18.0151  7.2145   2
  -5   2  -2 20.2108  8.5916   9
  -5   2  -2 15.5987  5.3669  10
  -6  -2  -2 56.7355  6.1770   6
  -6  -2  -2 57.2142 13.2724   9
  -6  -2  -2 55.7880  7.9962   7
  -6  -2  -2 32.1149 10.2234   9
  -6  -2  -2 54.3211  9.2501   2
  -6  -2  -2 53.7390  9.3597   1
  -6  -2  -2 46.9189  7.8117  10
   6  -2   2 59.9872  9.8383   8
  -6   2  -2 39.8604  9.7256   1
  -6   2  -2 57.7518  7.9561   6
  -6   2  -2 45.7675  9.4520   7
  -6   2  -2 54.6492 10.5691   2
  -6   2  -2 44.1819  8.1881  10
  -6   2  -2 48.6559 12.3812   9
  -7  -2  -2 13.4875  6.3313  10
  -7  -2  -2 3.18198 6.11209   1
  -7  -2  -2 1.84946 8.45991   9
  -7   2  -2 20.2169  7.3064  10
  -7   2  -2 26.6477  9.2051   2
  -7   2  -2 23.7087  9.1827   1
  -7   2  -2 11.4573  7.2279   7
  -7   2  -2 8.48258 8.53479   9
  -9  -3   2 7.61804 8.24877   2
  -9   3   2 20.0800  9.5897   9
  -9   3   2 2.23437 9.27594   2
  -8  -3   2 222.103  23.521   2
  -8   3   2 209.314  23.534   2
  -8   3   2 223.802  25.208   9
  -8   3   2 178.604  25.185   9
   8   3  -2 199.364  21.036   4
  -8   3   2 235.966  19.335   1
   7  -3  -2 1577.71  116.46   8
  -7  -3   2 1563.17  120.65   2
  -7   3   2 1418.99  130.46   9
  -7   3   2 1467.53  121.09   2
   7   3  -2 1481.03  125.81   4
  -7   3   2 1631.60  115.65   7
  -7   3   2 1489.39  116.55   1
  -7   3   2 1375.50  129.46   9
  -7   3   2 1584.90  116.06   1
   6  -3  -2 349.646  29.438   3
   6  -3  -2 326.073  32.791   4
  -6  -3   2 345.967  29.865   2
   6  -3  -2 324.991  27.222   8
   6  -3  -2 285.671  28.176   7
  -6   3   2 339.818  30.295   2
  -6   3   2 319.658  33.126   9
  -6   3   2 336.364  33.770   9
  -6   3   2 297.853  27.247   7
   6   3  -2 362.740  25.643   7
  -6   3   2 354.386  28.929   1
  -6   3   2 316.622  27.758   1
   5  -3  -2 1250.13   99.85   1
   5  -3  -2 1406.23   98.63   7
   5  -3  -2 1405.72  108.26   4
   5  -3  -2 1354.48   97.26   8
   5  -3  -2 1381.74  102.00   3
  -5  -3   2 1210.05  100.32   2
   5  -3  -2 1334.12  103.34   5
  -5   3   2 1342.14  101.08   2
  -5   3   2 1193.14   98.21   1
  -5   3   2 1300.22  109.79   9
  -5   3   2 1118.96  108.98   9
  -5   3   2 1203.87  104.56   5
  -5   3   2 1250.74   97.42   7
  -5   3   2 1072.22   97.35   1
   4  -3  -2 139.818  13.898   7
   4  -3  -2 140.421  12.459   8
   4  -3  -2 180.651  15.656   4
   4  -3  -2 126.865  15.155   1
  -4  -3   2 151.036  14.279   2
   4  -3  -2 120.428  13.844   5
   4  -3  -2 146.379  14.023   3
   4  -3  -2 147.897  16.578   9
  -4   3   2 130.926  13.172   7
  -4   3   2 143.042  17.292   9
  -4   3   2 152.972  17.641   9
  -4   3   2 152.084  14.580   2
  -4   3   2 122.655  13.857   1
  -4   3   2 153.201  14.781   5
  -4   3   2 133.630  12.445   6
  -4   3   2 163.482  14.370   1
   3  -3  -2 1122.69   95.67   1
  -3  -3   2 1196.86  101.75   9
   3  -3  -2 1199.95  101.44   5
   3  -3  -2 1228.01   95.01   7
   3  -3  -2 1277.74  103.28   4
   3  -3  -2 1315.58   94.91   7
   3  -3  -2 1287.76  105.77   9
  -3  -3   2 1269.82   99.03   5
   3  -3  -2 1213.20   93.79   8
   3  -3  -2 1080.67   94.64   6
  -3  -3   2 1302.32  101.66   9
   3  -3  -2 1147.77   98.29   3
  -3   3   2 1172.97   96.15   2
  -3   3   2 1208.13  100.03   5
  -3   3   2 1112.95  104.61   9
  -3   3   2 1441.05  105.75   9
  -3   3   2 1260.69   87.05  10
  -3   3   2 1096.56   94.88   1
  -3   3   2 1422.35   94.53   7
   3   3  -2 1235.63   92.52   7
  -3   3   2 1268.60   93.95   6
   2  -3  -2 779.535  62.263   3
   2  -3  -2 690.407  58.699   7
  -2  -3   2 731.092  62.962   9
   2  -3  -2 625.746  64.601   5
   2  -3  -2 692.521  59.292   1
  -2  -3   2 744.012  57.403   7
   2  -3  -2 781.491  59.296   1
  -2  -3   2 781.766  57.087   1
   2  -3  -2 739.989  58.819   7
   2  -3  -2 721.150  66.368   9
   2  -3  -2 730.689  59.261   2
  -2  -3   2 740.886  61.251   5
   2  -3  -2 728.885  59.712   6
   2  -3  -2 704.297  58.267   8
  -2  -3   2 688.495  62.933   9
  -2  -3   2 773.959  57.395   1
  -2   3   2 709.606  61.043   3
  -2   3   2 806.244  57.537   8
   2   3  -2 776.535  59.255   3
   2   3  -2 799.351  57.131   6
   2   3  -2 722.244  59.761   3
   2   3  -2 757.218  56.660   6
  -2   3   2 752.705  59.548   7
  -2   3   2 838.867  54.228  10
   2   3  -2 770.282  57.136   7
   2   3  -2 745.550  62.803   9
  -2   3   2 861.034  62.149   5
  -2   3   2 718.207  58.485   7
   2   3  -2 685.904  59.248   2
  -2   3   2 770.722  59.872   1
  -2   3   2 788.862  59.463   2
   2   3  -2 799.309  57.225   1
   2   3  -2 769.326  63.260   9
  -2   3   2 793.989  59.814   6
   2   3  -2 792.209  62.376   4
   1  -3  -2 9069.21  675.04   3
  -1  -3   2 7894.84  646.09   1
   1  -3  -2 7640.00  643.87   6
  -1  -3   2 8527.22  646.16   1
   1  -3  -2 8552.15  659.34   2
   1  -3  -2 8140.65  647.13   1
   1  -3  -2 9054.59  649.95   8
   1  -3  -2 7767.49  709.98   9
  -1  -3   2 9095.15  674.12   3
   1  -3  -2 9938.72  648.00   1
  -1  -3   2 8440.76  688.37   5
  -1  -3   2 9207.31  707.87   4
   1  -3  -2 8202.20  647.04   7
  -1  -3   2 9873.81  643.93   6
  -1  -3   2 8637.90  708.47   9
  -1  -3   2 7842.57  645.76   7
  -1  -3   2 8677.78  708.45   9
  -1  -3   2 8430.85  643.06   6
  -1   3   2 8759.84  647.41   1
  -1   3   2 7697.82  709.97   9
   1   3  -2 9433.01  674.24   3
   1   3  -2 8205.54  646.01   7
  -1   3   2 7656.87  646.97   1
  -1   3   2 8610.52  659.63   2
   1   3  -2 9448.63  708.47   9
   1   3  -2 9174.64  642.97   6
  -1   3   2 8646.74  649.60   8
   1   3  -2 7809.88  645.95   1
  -1   3   2 8583.95  644.35   6
   1   3  -2 9759.82  649.77   8
  -1   3   2 9843.16  675.31   3
   1   3  -2 8034.50  707.93   4
   1   3  -2 8658.37  642.50   6
  -1   3   2 7926.82  646.84   7
   1   3  -2 9413.58  650.22   8
   1   3  -2 9999.99  708.89   9
  -1   3   2 7388.54  646.71   7
   0  -3   2 621.742  49.099   7
   0  -3  -2 639.236  51.324   3
   0  -3  -2 609.501  49.234   2
   0  -3   2 629.830  49.424   1
   0  -3   2 705.177  49.325   6
   0  -3  -2 644.820  49.896   7
   0  -3   2 650.603  51.427   3
   0  -3  -2 574.138  54.899   9
   0  -3   2 525.306  54.226   9
   0  -3  -2 600.036  49.057   8
   0  -3  -2 702.440  49.524   6
   0  -3  -2 759.160  50.820   1
   0  -3   2 630.334  49.448   1
   0  -3   2 615.699  53.762   4
   0  -3  -2 587.581  54.324   4
   0  -3  -2 547.308  55.388   9
   0  -3   2 656.090  48.689   6
   0  -3   2 616.661  54.584   9
   0  -3   2 638.665  48.675   8
   0  -3  -2 641.065  45.710  10
   0  -3  -2 624.090  49.429   7
   0  -3   2 639.657  49.021   8
   0  -3  -2 668.551  50.042   1
   0   3  -2 682.903  54.790   9
   0   3   2 676.377  50.106   7
   0   3  -2 615.822  49.446   1
   0   3   2 692.516  49.822   7
   0   3   2 779.508  50.520   1
   0   3   2 620.959  49.156   8
   0   3  -2 689.412  48.828   6
   0   3  -2 616.748  49.225   7
   0   3  -2 624.701  48.979   8
   0   3   2 652.648  52.441   5
   0   3   2 670.868  45.752  10
   0   3  -2 669.425  49.455   8
   0   3   2 612.191  51.378   3
   0   3  -2 588.589  51.364   3
   0   3  -2 608.345  54.094   4
   0   3   2 703.698  49.600   6
   0   3  -2 566.310  54.233   9
   0   3   2 714.489  50.575   1
   0   3  -2 533.177  49.328   1
  -1  -3  -2 1228.77  110.68   1
  -1  -3  -2 1523.83  115.14   3
   1  -3   2 1575.12  111.35   1
  -1  -3  -2 1510.60  110.67   7
  -1  -3  -2 1449.42  109.97   6
   1  -3   2 1593.62  122.64   9
   1  -3   2 1439.28  118.52   5
   1  -3   2 1631.97  110.71   6
   1  -3   2 1431.04  111.12   8
   1  -3   2 1590.55  122.62   9
  -1  -3  -2 1417.77  122.77   9
   1  -3   2 1413.10  110.77   8
  -1  -3  -2 1596.40  110.43   8
   1  -3   2 1368.52  110.74   7
   1  -3   2 1440.96  111.16   1
  -1  -3  -2 1289.07  110.98   7
  -1  -3  -2 1341.97  111.49   1
   1  -3   2 1349.10  115.54   3
  -1  -3  -2 1471.28  121.35   4
  -1  -3  -2 1441.73  122.66   9
  -1   3  -2 1379.09  110.99   8
   1   3   2 1475.84  121.59   4
  -1   3  -2 1346.62  111.12   1
   1   3   2 1419.01  111.05   1
  -1   3  -2 1668.69  110.10   6
   1   3   2 1508.78  111.48   7
   1   3   2 1407.93  110.16   6
  -1   3  -2 1321.31  110.73   7
  -1   3  -2 1255.47  121.81   9
   1   3   2 1375.50  115.11   3
  -1   3  -2 1503.87  111.37   8
   1   3   2 1514.40  110.78   7
  -1   3  -2 1658.89  111.68   1
   1   3   2 1567.07  110.76   8
   1   3   2 1677.05  102.58  10
  -1   3  -2 1577.47  121.99   4
   1   3   2 1293.92  122.27   9
   1   3   2 1405.15  117.61   5
  -2  -3  -2 45.1802  8.1452   9
  -2  -3  -2 34.6114  7.4763   9
   2  -3   2 59.2521  6.7594   7
  -2  -3  -2 55.5307  6.9011   7
  -2  -3  -2 30.2234  5.1168   6
  -2  -3  -2 46.4639  6.5458   4
   2  -3   2 43.1263  7.6049   9
   2  -3   2 43.4299  6.3386   6
   2  -3   2 56.3077  6.8947   8
  -2  -3  -2 37.0813  5.3142  10
   2  -3   2 44.6850  6.3088   8
  -2  -3  -2 50.8116  5.1400   2
  -2  -3  -2 56.8887  6.0313   7
   2  -3   2 49.1883  5.9479   6
   2  -3   2 46.8994  6.6158   3
  -2  -3  -2 31.2267  6.4826   1
   2  -3   2 32.4286  6.4808   5
   2  -3   2 41.8767  7.7267   9
   2  -3   2 36.3652  7.2010   4
   2  -3   2 39.5153  6.5173   1
   2   3   2 49.7343  6.6016   1
   2   3   2 39.8588  5.5970   7
   2   3   2 48.1045  5.5463  10
   2   3   2 49.8679  5.5695   8
   2   3   2 44.5911  5.7082   6
  -2   3  -2 37.6664  6.7134   1
   2   3   2 57.2833  8.4412   9
   2   3   2 37.9635  5.6304   3
  -2   3  -2 40.4639  7.1929   2
   2   3   2 35.0997  6.5820   4
  -2   3  -2 31.9033  5.8433   7
  -2   3  -2 76.7753  9.2973   9
   2   3   2 45.9245  5.9967   5
  -2   3  -2 44.9785  8.1008   9
   2   3   2 35.6311  7.2137   9
  -2   3  -2 46.1127  7.1367   1
  -2   3  -2 52.9678  6.1059   6
  -3  -3  -2 145.980  12.828  10
  -3  -3  -2 142.756  13.085   6
   3  -3   2 126.805  14.222   6
  -3  -3  -2 159.473  14.691   7
   3  -3   2 157.287  17.403   9
   3  -3   2 146.458  15.188   3
  -3  -3  -2 150.667  13.614   7
  -3  -3  -2 146.915  14.981   1
   3  -3   2 140.087  16.535   4
   3  -3   2 155.103  14.773   8
   3  -3   2 142.985  15.410   1
   3  -3   2 147.947  16.984   9
   3  -3   2 144.950  15.571   5
   3  -3   2 145.864  13.979   6
  -3  -3  -2 147.690  13.390   2
  -3  -3  -2 148.720  14.488   1
  -3  -3  -2 141.992  17.121   9
  -3  -3  -2 132.711  16.301   9
  -3   3  -2 169.944  17.651   9
   3   3   2 164.647  16.579   9
   3   3   2 145.492  14.487   5
  -3   3  -2 172.192  15.839   1
   3   3   2 170.648  14.883   1
   3   3   2 131.504  15.287   4
  -3   3  -2 181.445  16.106   2
   3   3   2 177.759  17.042   9
  -3   3  -2 144.547  15.391   1
  -3   3  -2 146.019  16.443   4
  -3   3  -2 136.905  13.884   8
  -3   3  -2 138.141  17.058   9
   3   3   2 156.736  13.520   8
   3   3   2 159.927  14.266   3
  -3   3  -2 152.730  14.668   7
  -3   3  -2 153.174  13.923   6
  -4  -3  -2 83.7350  8.7157  10
  -4  -3  -2 69.5540  7.9199   6
   4  -3   2 67.6115 11.5457   4
  -4  -3  -2 74.2539  8.8451   7
   4  -3   2 65.7523 11.9764   9
   4  -3   2 70.7533 10.1090   3
  -4  -3  -2 78.9297 10.3460   1
   4  -3   2 106.917  11.274   6
   4  -3   2 76.6353  9.8568   8
  -4  -3  -2 79.1897 11.3346   9
  -4  -3  -2 69.6531  8.4996   2
   4  -3   2 81.7313 11.9510   9
   4  -3   2 82.5465 10.7626   5
   4  -3   2 83.7533 11.2713   1
  -4  -3  -2 97.5440 10.1029   7
  -4  -3  -2 76.8570  9.5295   1
  -4  -3  -2 77.1911 12.1636   9
  -4   3  -2 52.9119 11.4838   9
   4   3   2 92.9552  9.6069   5
   4   3   2 87.1617 10.1287   1
  -4   3  -2 65.8701 10.5205   1
  -4   3  -2 85.1531 11.9634   4
  -4   3  -2 87.7080 13.2920   9
  -4   3  -2 62.1222 10.3591   2
   4   3   2 86.4042  8.8896   8
   4   3   2 67.9939  8.7775   3
  -4   3  -2 67.2355  9.4464   7
   4   3   2 64.8166 10.3748   4
  -4   3  -2 81.7322 11.2137   1
  -4   3  -2 74.4249  8.9328   6
  -5  -3  -2 324.909  25.482   1
  -5  -3  -2 297.823  29.399   9
  -5  -3  -2 250.554  21.847  10
  -5  -3  -2 248.991  23.734   2
  -5  -3  -2 244.285  22.926   7
  -5  -3  -2 255.995  27.085   9
   5  -3   2 266.997  24.447   8
   5  -3   2 286.012  25.939   3
   5  -3   2 281.649  26.032   5
  -5  -3  -2 260.189  21.754   6
  -5   3  -2 318.729  30.001   9
  -5   3  -2 274.117  23.447   6
   5   3   2 270.165  24.262   3
  -5   3  -2 263.980  25.860   1
  -5   3  -2 323.472  30.623   9
  -5   3  -2 243.495  24.404   7
  -5   3  -2 228.971  25.005   2
  -6  -3  -2 60.9971 11.4826   9
  -6  -3  -2 50.4151  7.9600  10
   6  -3   2 41.9544  9.5489   8
  -6  -3  -2 51.7412  7.5365   7
  -6  -3  -2 46.0793 12.2264   9
  -6  -3  -2 42.7664  8.8463   1
  -6  -3  -2 48.0006  8.5828   2
  -6   3  -2 45.9573  8.5574  10
  -6   3  -2 35.4377 10.1359   1
  -6   3  -2 50.4183  7.9806   6
  -6   3  -2 50.4051 13.0019   9
  -6   3  -2 31.0257  9.2579   2
  -6   3  -2 50.7797  9.6607   7
  -7  -3  -2 25.4463 10.5564   9
  -7  -3  -2 56.0404  9.5645   1
  -7  -3  -2 38.1744  7.9539  10
  -7   3  -2 27.1305  9.3071   7
  -7   3  -2 42.6408 11.3808   2
  -7   3  -2 63.2707 12.2790   1
  -8  -4   2 103.480  15.089   2
  -8   4   2 120.754  18.702   9
  -8   4   2 106.484  12.230   1
  -8   4   2 83.1262 15.0899   2
  -8   4   2 86.2260 18.3707   9
   8   4  -2 126.339  13.243   4
   7  -4  -2 380.729  33.422   8
  -7  -4   2 421.964  35.942   2
  -7   4   2 389.430  33.149   7
  -7   4   2 373.352  40.473   9
  -7   4   2 400.040  33.876   1
  -7   4   2 400.861  36.841   2
  -7   4   2 437.327  40.838   9
   7   4  -2 401.939  34.340   4
  -6  -4   2 1636.23  128.44   2
   6  -4  -2 1568.53  125.96   7
   6  -4  -2 1578.57  124.86   8
   6  -4  -2 1644.19  139.62   4
  -6   4   2 1849.98  126.80   1
  -6   4   2 1683.47  125.42   1
  -6   4   2 1737.20  125.16   7
  -6   4   2 1597.37  129.19   2
  -6   4   2 1519.35  134.36   5
  -6   4   2 1646.82  140.38   9
  -6   4   2 1495.86  140.04   9
   5  -4  -2 708.268  53.692   5
  -5  -4   2 678.364  51.062   5
   5  -4  -2 552.008  52.437   3
   5  -4  -2 676.469  56.750   4
  -5  -4   2 584.960  51.536   2
   5  -4  -2 635.494  51.227   7
   5  -4  -2 654.652  53.431   1
   5  -4  -2 635.607  49.798   8
  -5   4   2 519.921  49.889   7
  -5   4   2 679.535  54.821   5
  -5   4   2 614.772  58.588   9
  -5   4   2 681.474  58.880   9
  -5   4   2 607.692  52.285   2
  -5   4   2 661.620  51.715   1
  -5   4   2 616.921  50.998   1
   4  -4  -2 140.545  17.774   9
  -4  -4   2 160.951  14.613   2
   4  -4  -2 124.364  14.354   7
   4  -4  -2 121.745  14.822   6
   4  -4  -2 168.189  17.337   1
   4  -4  -2 143.308  13.402   8
   4  -4  -2 142.380  15.465   5
   4  -4  -2 146.019  14.898   3
   4  -4  -2 170.521  16.648   4
  -4  -4   2 143.296  12.471   5
  -4   4   2 152.167  14.971   2
   4   4  -2 147.482  12.135   7
  -4   4   2 131.771  15.256   5
  -4   4   2 142.325  15.242   1
  -4   4   2 166.136  19.165   9
  -4   4   2 149.107  15.229   1
  -4   4   2 164.072  18.624   9
  -4   4   2 151.638  13.861   6
  -4   4   2 119.164  13.781   7
   4   4  -2 156.615  11.858   7
   3  -4  -2 5.59962 5.21383   1
  -3  -4   2 9.13548 2.93807   9
   3  -4  -2 7.55433 3.60114   8
  -3  -4   2 9.68887 3.59342   9
   3  -4  -2 10.4052  5.9936   5
   3  -4  -2 4.74897 4.05681   4
  -3  -4   2 5.50969 3.14017   5
   3  -4  -2 19.6824  4.9932   3
   3  -4  -2 -2.5946  6.4148   9
   3  -4  -2 26.0245  5.4807   7
   3  -4  -2 8.58181 5.16947   6
   3  -4  -2 8.67352 4.61595   7
  -3   4   2 4.91464 6.09647   9
  -3   4   2 -0.8072  5.3763   9
   3   4  -2 5.53483 2.12629   1
  -3   4   2 3.67719 2.95852  10
  -3   4   2 5.28690 5.18587   1
  -3   4   2 10.0747  4.3037   6
  -3   4   2 1.34085 3.58393   2
  -3   4   2 1.63649 2.90060   3
  -3   4   2 7.47402 4.00900   5
  -3   4   2 5.46696 3.32241   7
  -2  -4   2 4021.14  272.93   6
  -2  -4   2 3069.15  299.96   9
  -2  -4   2 3284.62  273.29   1
  -2  -4   2 3768.08  274.08   7
   2  -4  -2 3180.65  274.97   7
   2  -4  -2 3915.02  275.64   7
  -2  -4   2 3763.66  292.08   5
   2  -4  -2 3755.55  275.53   6
  -2  -4   2 3461.37  273.97   1
  -2  -4   2 3834.51  300.20   9
   2  -4  -2 3691.97  279.75   2
   2  -4  -2 3425.16  303.73   9
   2  -4  -2 3659.88  301.10   4
   2  -4  -2 3591.42  287.87   3
   2  -4  -2 4181.65  275.95   8
   2  -4  -2 3162.18  295.27   5
   2   4  -2 3596.96  273.54   1
  -2   4   2 3850.07  275.34   6
   2   4  -2 4092.04  299.63   4
  -2   4   2 3555.61  275.92   7
  -2   4   2 3203.35  275.25   1
  -2   4   2 3604.81  254.07  10
  -2   4   2 3846.61  292.40   5
   2   4  -2 3397.85  271.70   6
  -2   4   2 3672.72  287.08   3
  -2   4   2 3747.75  275.11   8
   2   4  -2 3613.56  273.47   7
  -2   4   2 3423.05  275.94   1
  -2   4   2 4016.73  275.29   7
   2   4  -2 3470.78  285.64   3
   2   4  -2 3442.78  300.69   9
  -2   4   2 4189.00  304.33   9
  -2   4   2 4034.33  280.07   2
   1  -4  -2 285.106  26.773   7
  -1  -4   2 329.267  27.006   3
   1  -4  -2 282.802  28.867   4
   1  -4  -2 305.675  31.401   9
  -1  -4   2 327.970  27.755   4
  -1  -4   2 334.907  29.155   9
   1  -4  -2 350.949  28.246   1
   1  -4  -2 373.745  32.219   5
  -1  -4   2 358.485  28.278   5
   1  -4  -2 296.843  27.075   7
  -1  -4   2 358.348  29.166   9
   1  -4  -2 311.410  27.836   6
   1  -4  -2 304.956  26.398   8
  -1  -4   2 325.017  25.553   7
   1  -4  -2 303.790  28.163   3
   1  -4  -2 333.237  27.885   1
   1  -4  -2 354.727  26.070   2
  -1  -4   2 294.220  25.048   6
  -1  -4   2 322.502  25.881   1
  -1  -4   2 305.183  25.903   1
  -1  -4   2 322.206  26.195   6
   1   4  -2 307.287  25.948   8
   1   4  -2 302.997  25.154   8
   1   4  -2 332.376  25.984   6
  -1   4   2 358.935  25.003  10
   1   4  -2 378.697  25.474   6
   1   4  -2 355.533  28.984   9
   1   4  -2 313.894  27.236   3
   1   4  -2 293.531  28.317   4
  -1   4   2 346.681  32.170   9
   1   4  -2 298.552  25.928   1
  -1   4   2 288.978  28.269   3
  -1   4   2 311.617  27.544   1
   1   4  -2 335.043  29.374   9
  -1   4   2 319.797  28.008   5
   1   4  -2 345.958  25.881   7
  -1   4   2 338.646  26.237   2
  -1   4   2 309.977  26.221   8
  -1   4   2 317.970  27.262   7
  -1   4   2 310.135  27.475   1
  -1   4   2 324.931  27.137   7
   0  -4   2 2795.31  247.61   9
   0  -4   2 2765.93  246.83   4
   0  -4   2 2655.99  225.47   1
   0  -4  -2 3334.45  226.42   7
   0  -4   2 2887.94  225.61   8
   0  -4  -2 2775.38  249.07   9
   0  -4   2 2710.46  223.73   6
   0  -4  -2 3358.98  227.19   1
   0  -4   2 2832.84  225.20   7
   0  -4   2 3123.73  248.02   9
   0  -4  -2 3463.57  247.75   4
   0  -4   2 2992.12  224.69   6
   0  -4  -2 3062.54  226.17   8
   0  -4  -2 2668.18  225.66   7
   0  -4   2 3144.49  225.84   1
   0  -4   2 3076.01  226.03   8
   0  -4   2 3043.61  240.74   5
   0  -4  -2 2782.36  208.60  10
   0  -4  -2 3193.24  226.51   1
   0  -4   2 3325.25  235.47   3
   0  -4  -2 3156.89  229.01   2
   0  -4  -2 2834.67  224.71   6
   0   4   2 2877.60  226.70   1
   0   4   2 3168.95  240.18   5
   0   4  -2 2823.80  225.89   1
   0   4  -2 2989.34  247.63   9
   0   4   2 3185.80  235.42   3
   0   4  -2 2488.70  235.03   3
   0   4  -2 2887.52  247.95   9
   0   4  -2 2944.92  226.06   8
   0   4   2 2720.92  226.25   1
   0   4  -2 3230.66  247.50   4
   0   4   2 2825.51  226.23   8
   0   4   2 3144.82  226.49   7
   0   4   2 3089.55  226.09   7
   0   4  -2 3276.31  225.66   7
   0   4  -2 2962.11  223.88   6
   0   4   2 2933.28  225.15   6
   0   4  -2 3048.60  226.74   8
   0   4  -2 3118.58  225.69   1
   0   4  -2 3293.55  224.76   6
  -1  -4  -2 314.077  29.347   4
  -1  -4  -2 307.281  27.826   1
  -1  -4  -2 307.249  26.480   6
   1  -4   2 345.933  30.867   9
   1  -4   2 349.245  29.558   5
   1  -4   2 288.739  29.786   4
   1  -4   2 298.970  30.370   9
   1  -4   2 329.620  27.587   1
   1  -4   2 330.867  26.886   8
   1  -4   2 329.339  27.593   1
  -1  -4  -2 289.999  27.205   7
   1  -4   2 335.880  27.212   6
  -1  -4  -2 356.145  27.693   3
  -1  -4  -2 309.186  26.724   7
  -1  -4  -2 304.077  25.803   8
   1  -4   2 300.212  26.731   7
  -1  -4  -2 327.930  26.287   8
  -1  -4  -2 332.128  31.580   9
  -1  -4  -2 402.333  31.667   9
  -1  -4  -2 327.129  24.934  10
   1  -4   2 318.891  26.541   8
   1  -4   2 370.705  28.570   3
  -1  -4  -2 299.307  29.287   4
  -1  -4  -2 313.585  27.306   1
   1   4   2 359.067  26.458   8
  -1   4  -2 291.626  30.446   9
   1   4   2 314.727  30.973   9
   1   4   2 312.453  27.453   1
   1   4   2 329.159  25.045  10
   1   4   2 321.783  27.706   7
   1   4   2 364.224  30.146   4
  -1   4  -2 371.066  27.419   8
   1   4   2 336.543  28.443   5
   1   4   2 328.733  27.803   3
   1   4   2 358.762  27.262   7
  -1   4  -2 356.760  27.018   8
  -1   4  -2 304.702  29.935   4
  -1   4  -2 296.674  27.249   1
  -1   4  -2 374.166  26.657   6
  -1   4  -2 361.077  28.207   1
  -1   4  -2 330.063  27.083   7
   1   4   2 355.183  27.233   6
   2  -4   2 9.96168 4.77446   4
  -2  -4  -2 8.37464 3.06718   6
   2  -4   2 5.08365 4.35074   1
  -2  -4  -2 4.58742 3.60678   4
   2  -4   2 2.00671 2.95930   3
   2  -4   2 8.30549 4.16775   8
   2  -4   2 5.04389 3.15902   6
   2  -4   2 5.73798 3.43454   7
  -2  -4  -2 6.44637 4.57732   9
  -2  -4  -2 0.62109 3.12592   7
  -2  -4  -2 5.47046 3.05845   7
   2  -4   2 14.3254  5.4716   9
  -2  -4  -2 7.58955 3.31519  10
  -2  -4  -2 4.01211 1.60269   2
  -2  -4  -2 -1.2116  3.3779   1
  -2  -4  -2 5.90652 4.73602   9
   2  -4   2 3.94118 2.96295   6
   2  -4   2 5.51716 3.69267   8
   2  -4   2 4.32587 4.09978   5
   2   4   2 6.45515 2.68008  10
  -2   4  -2 4.56618 4.26893   2
  -2   4  -2 8.62729 3.83301   7
  -2   4  -2 0.48895 4.77593   8
   2   4   2 8.27313 3.20589   8
   2   4   2 6.60965 2.95232   3
  -2   4  -2 10.4847  4.8498   4
   2   4   2 4.31967 4.34740   9
   2   4   2 2.95402 3.48623   7
  -2   4  -2 5.90531 5.23009   9
   2   4   2 2.76747 3.37286   1
  -2   4  -2 4.57749 3.97207   1
  -2   4  -2 6.02630 3.22540   6
   2   4   2 7.28162 3.28886   5
  -2   4  -2 1.48886 5.02014   9
  -2   4  -2 16.2516  5.2778   1
   2   4   2 3.26126 3.95678   4
   3  -4   2 158.419  16.675   3
  -3  -4  -2 172.970  14.452   2
   3  -4   2 156.328  16.547   1
  -3  -4  -2 171.405  16.002   1
   3  -4   2 169.504  17.806   5
   3  -4   2 143.405  17.998   9
  -3  -4  -2 184.057  14.608  10
  -3  -4  -2 193.670  16.387   7
  -3  -4  -2 160.012  16.615   1
   3  -4   2 169.188  16.450   6
   3  -4   2 156.557  15.379   6
   3  -4   2 147.743  15.801   8
  -3  -4  -2 192.428  15.413   7
  -3  -4  -2 172.616  14.738   6
   3  -4   2 166.081  19.027   9
  -3  -4  -2 159.856  18.529   9
  -3  -4  -2 178.504  19.414   9
   3  -4   2 182.521  19.135   4
  -3   4  -2 142.291  18.411   9
  -3   4  -2 160.204  15.509   6
   3   4   2 167.201  15.755   3
   3   4   2 178.145  18.221   9
  -3   4  -2 165.112  16.949   2
  -3   4  -2 143.510  15.527   8
  -3   4  -2 170.077  18.516   4
  -3   4  -2 172.255  19.550   9
   3   4   2 165.029  16.054   5
   3   4   2 185.166  16.540   1
   3   4   2 165.221  17.290   4
  -3   4  -2 183.905  16.594   7
   3   4   2 193.928  15.010   8
  -3   4  -2 166.206  17.011   1
  -4  -4  -2 1576.40  117.45   1
   4  -4   2 1428.66  118.52   1
   4  -4   2 1443.92  130.64   9
  -4  -4  -2 1462.19  129.14   9
  -4  -4  -2 1691.69  117.67   7
  -4  -4  -2 1410.75  117.78   1
   4  -4   2 1379.18  129.85   4
  -4  -4  -2 1407.31  118.13   2
  -4  -4  -2 1630.76  108.17  10
   4  -4   2 1487.90  118.03   8
  -4  -4  -2 1860.59  131.70   9
   4  -4   2 1442.28  122.81   3
  -4  -4  -2 1498.16  115.04   6
  -4  -4  -2 1481.11  116.45   7
   4  -4   2 1654.62  125.86   5
  -4   4  -2 1566.29  121.10   2
  -4   4  -2 1721.83  116.73   6
   4   4   2 1426.04  128.14   4
  -4   4  -2 1514.80  117.85   7
   4   4   2 1574.30  123.74   5
  -4   4  -2 1257.43  129.89   9
  -4   4  -2 1587.69  129.76   4
  -4   4  -2 1529.11  118.74   1
  -4   4  -2 1538.61  131.01   9
   4   4   2 1655.66  121.84   3
  -5  -4  -2 405.825  38.672   9
  -5  -4  -2 384.013  34.760   1
  -5  -4  -2 426.072  31.838   6
  -5  -4  -2 429.263  31.532  10
   5  -4   2 387.252  35.096   8
   5  -4   2 393.464  37.157   5
  -5  -4  -2 426.792  34.131   2
  -5  -4  -2 432.608  33.365   7
   5  -4   2 371.326  36.541   3
  -5  -4  -2 408.206  40.425   9
  -5   4  -2 452.786  37.059   2
  -5   4  -2 398.043  36.351   1
  -5   4  -2 331.355  39.716   9
  -5   4  -2 383.002  35.100   7
  -5   4  -2 377.619  33.767   6
   5   4   2 459.587  35.484   3
  -6  -4  -2 61.1740  9.1577  10
  -6  -4  -2 81.5423  9.3009   7
  -6  -4  -2 65.9938 12.3687   9
  -6  -4  -2 81.9048 11.0585   1
   6  -4   2 87.4699 12.3265   8
  -6  -4  -2 89.3031 15.4347   9
  -6   4  -2 59.3452  9.6367   6
  -6   4  -2 67.9678 11.6046   7
  -6   4  -2 65.5080 12.7786   1
  -6   4  -2 53.1431 14.1724   9
  -6   4  -2 70.1783 12.8550   2
  -7  -4  -2 61.7330  9.4315  10
  -7  -4  -2 77.2856 11.0030   1
  -7  -4  -2 69.3057 13.7601   9
  -7   4  -2 68.5696 13.1863   1
  -7   4  -2 50.2780 13.0555   2
  -7   4  -2 64.7587 12.4756   7
  -8  -5   2 40.1746 10.3907   2
   8  -5  -2 62.6815  9.1009   8
  -8   5   2 46.8925 11.6709   2
  -8   5   2 26.7810 11.8363   9
  -8   5   2 50.8136  8.8545   7
   8   5  -2 35.0562  7.2882   4
  -8   5   2 39.1483  8.4802   1
  -7  -5   2 608.170  49.391   2
   7  -5  -2 551.837  47.223   8
  -7   5   2 556.004  47.108   7
  -7   5   2 562.206  47.774   1
  -7   5   2 628.794  57.369   9
  -7   5   2 567.676  56.223   9
  -7   5   2 555.661  50.248   2
   7   5  -2 604.565  49.075   4
   6  -5  -2 312.785  27.244   8
  -6  -5   2 317.044  28.517   2
   6  -5  -2 338.774  29.163   7
  -6   5   2 304.563  27.651   7
  -6   5   2 301.259  27.913   1
  -6   5   2 364.805  35.838   9
  -6   5   2 277.233  30.785   5
  -6   5   2 325.135  29.704   2
  -6   5   2 345.205  35.102   9
   5  -5  -2 90.2591 11.1711   3
   5  -5  -2 88.0940 11.2357   7
   5  -5  -2 68.7264 12.8623   1
   5  -5  -2 77.2415 12.8510   4
   5  -5  -2 68.2663  9.3778   8
   5  -5  -2 79.2406 11.0570   5
  -5  -5   2 86.6516  8.4008   5
  -5   5   2 69.4516 10.7834   2
  -5   5   2 82.0870 11.4428   1
   5   5  -2 85.2488  7.5981   7
  -5   5   2 85.3600 14.9823   9
  -5   5   2 85.0434 10.5230   7
  -5   5   2 83.1120 11.9869   5
  -5   5   2 83.3332 15.4962   9
  -5   5   2 80.3184 11.9036   1
   5   5  -2 87.4895  7.8177   7
   4  -5  -2 149.273  16.992   1
  -4  -5   2 137.325  12.293   5
   4  -5  -2 127.265  18.054   9
   4  -5  -2 120.855  12.925   8
   4  -5  -2 117.720  15.287   4
   4  -5  -2 109.490  13.817   3
   4  -5  -2 133.636  14.253   7
  -4  -5   2 152.913  14.023   5
   4  -5  -2 134.611  15.493   6
  -4  -5   2 139.625  12.848   9
   4  -5  -2 146.487  16.443   5
  -4   5   2 156.906  15.969   1
  -4   5   2 128.366  13.827   6
  -4   5   2 109.573  17.725   9
  -4   5   2 139.831  14.273   2
  -4   5   2 156.267  18.976   9
   4   5  -2 125.877  11.422   7
   4   5  -2 138.041  12.302   7
  -4   5   2 154.008  13.412   3
  -4   5   2 141.919  14.117   7
  -4   5   2 103.465  14.328   5
   3  -5  -2 189.211  19.760   5
  -3  -5   2 159.931  11.950   1
   3  -5  -2 143.035  15.858   3
   3  -5  -2 213.109  17.589   4
   3  -5  -2 120.998  14.902   7
   3  -5  -2 139.071  16.577   6
   3  -5  -2 133.445  19.552   9
   3  -5  -2 184.222  15.041   8
  -3  -5   2 135.432  14.576   9
   3  -5  -2 143.700  16.708   1
  -3  -5   2 157.723  15.218   5
   3   5  -2 157.543  13.509   4
  -3   5   2 116.604  15.060   5
  -3   5   2 160.841  19.377   9
  -3   5   2 153.313  13.771  10
  -3   5   2 151.240  12.885   8
  -3   5   2 134.200  14.933   3
  -3   5   2 126.700  15.949   1
  -3   5   2 133.976  14.748   7
  -3   5   2 131.775  15.595   1
   3   5  -2 162.528  13.035   1
  -3   5   2 198.216  19.597   9
  -3   5   2 158.802  16.230   6
   3   5  -2 132.864  12.925   3
   3   5  -2 152.551  13.200   7
  -3   5   2 182.980  15.363   2
   2  -5  -2 188.827  24.624   1
   2  -5  -2 250.986  25.673   6
  -2  -5   2 316.515  23.407   7
   2  -5  -2 307.423  30.232   9
   2  -5  -2 257.143  23.726   8
  -2  -5   2 305.128  25.727   9
  -2  -5   2 281.073  21.992   6
  -2  -5   2 331.330  25.589   5
  -2  -5   2 275.209  23.657   1
   2  -5  -2 293.357  26.354   4
   2  -5  -2 272.718  24.757   7
   2  -5  -2 270.443  24.640   7
  -2  -5   2 270.285  22.219   1
  -2  -5   2 274.180  25.296   9
   2  -5  -2 257.271  29.430   5
   2  -5  -2 269.162  26.093   3
  -2  -5   2 278.687  21.313   6
  -2   5   2 250.074  25.390   6
   2   5  -2 311.183  24.665   4
   2   5  -2 296.883  24.341   3
   2   5  -2 246.530  22.346   7
  -2   5   2 288.347  25.405   7
  -2   5   2 294.925  23.665   2
   2   5  -2 311.202  25.038   9
  -2   5   2 240.563  25.066   3
  -2   5   2 246.991  28.819   9
   2   5  -2 306.066  22.877   1
  -2   5   2 244.186  22.031  10
  -2   5   2 247.471  24.701   1
  -2   5   2 267.326  22.967   8
   2   5  -2 268.647  26.602   9
  -2   5   2 269.521  24.135   7
  -2   5   2 252.164  25.403   1
  -2   5   2 295.241  25.229   5
   1  -5  -2 1143.82   95.93   7
   1  -5  -2 1052.95   96.40   1
  -1  -5   2 1408.41   95.55   6
   1  -5  -2 1209.19   96.84   6
  -1  -5   2 1249.73   93.64   6
   1  -5  -2 1334.00   95.69   8
   1  -5  -2 1266.70  104.89   4
  -1  -5   2 1361.31   95.08   1
  -1  -5   2 1402.25  105.16   9
  -1  -5   2 1155.65  101.70   5
  -1  -5   2 1097.78   98.68   3
   1  -5  -2 1194.10  100.30   3
   1  -5  -2 1181.77   96.08   2
   1  -5  -2 1324.24   96.75   7
   1  -5  -2 1151.58   95.39   8
  -1  -5   2 1277.88  104.71   9
   1  -5  -2 1299.57  107.66   9
   1  -5  -2 1186.71   97.06   1
   1  -5  -2 1124.27  104.84   5
  -1  -5   2 1310.11   95.30   1
  -1  -5   2 1380.25   94.52   7
   1   5  -2 1261.31  103.98   4
   1   5  -2 1347.60   94.93   7
   1   5  -2 1353.05   93.94   6
  -1   5   2 1180.25   96.01   7
   1   5  -2 1272.57   94.82   6
  -1   5   2 1129.03   95.25   8
  -1   5   2 1170.64   96.32   7
  -1   5   2 1280.69   96.28   2
   1   5  -2 1260.46   99.48   3
   1   5  -2 1377.15   94.51   8
   1   5  -2 1377.93  105.60   9
   1   5  -2 1146.64   95.21   8
  -1   5   2 1168.40  101.30   5
  -1   5   2 1213.33   88.59  10
   1   5  -2 1182.29   94.94   1
  -1   5   2 1120.99   96.60   1
   1   5  -2 1390.74  104.67   9
  -1   5   2 1286.49  108.25   9
  -1   5   2 1120.87  100.30   3
  -1   5   2 1183.01   96.59   1
   0  -5  -2 28.4666  5.1392  10
   0  -5   2 30.4283  4.4753   7
   0  -5  -2 25.2596  2.9453   2
   0  -5   2 24.9957  3.8535   8
   0  -5  -2 23.4482  5.2221   7
   0  -5  -2 17.9881  5.7709   1
   0  -5   2 24.8699  5.0403   3
   0  -5  -2 26.1167  5.0897   3
   0  -5   2 26.4897  5.3837   4
   0  -5  -2 26.5061  5.2432   8
   0  -5   2 27.3378  5.1304   1
   0  -5   2 18.3493  4.0430   8
   0  -5  -2 16.0397  4.5461   8
   0  -5  -2 22.1842  7.8156   9
   0  -5  -2 19.8296  5.2355   6
   0  -5   2 20.3849  3.8047   6
   0  -5  -2 19.0993  5.5831   1
   0  -5  -2 20.0988  5.0877   7
   0  -5   2 16.9085  4.7073   1
   0  -5   2 21.7874  6.3428   9
   0  -5   2 17.5164  5.0137   6
   0  -5   2 26.4228  6.3899   9
   0  -5  -2 29.3889  5.7996   4
   0  -5   2 30.7234  5.9184   5
   0   5   2 25.7725  3.2294   2
   0   5  -2 20.7386  4.9816   1
   0   5   2 25.9775  8.4069   9
   0   5  -2 14.4033  5.0483   8
   0   5   2 32.8674  6.2752   7
   0   5  -2 21.3746  4.6787   7
   0   5   2 34.0758  6.6816   6
   0   5  -2 32.3348  5.7623   8
   0   5  -2 34.3934  4.4855   6
   0   5  -2 25.8725  6.1126   9
   0   5   2 20.0817  5.1719   3
   0   5   2 28.9162  5.2217   5
   0   5   2 32.5030  5.1577   8
   0   5  -2 14.7379  5.2703   4
   0   5   2 16.9758  5.7122   1
   0   5  -2 17.5635  4.6712   6
   0   5  -2 24.3915  5.3824   3
   0   5  -2 25.7770  6.7343   9
   0   5   2 25.7936  5.5333   7
   0   5   2 25.9070  5.0919  10
   1  -5   2 8.84325 4.18356   1
   1  -5   2 7.99007 3.15411   6
   1  -5   2 10.4407  3.6021   7
  -1  -5  -2 10.2214  4.5821   4
  -1  -5  -2 3.31589 3.11778   6
   1  -5   2 3.16258 4.18972   8
  -1  -5  -2 3.71793 2.69413   8
   1  -5   2 -0.4700  3.5792   8
  -1  -5  -2 7.83849 3.43286  10
  -1  -5  -2 8.20164 4.44280   1
  -1  -5  -2 2.39677 3.02092   7
   1  -5   2 3.17109 3.44651   6
   1  -5   2 6.92497 5.48213   9
  -1  -5  -2 1.57754 5.18948   9
  -1  -5  -2 2.53363 2.64480   3
   1  -5   2 4.43293 3.31297   3
  -1  -5  -2 4.49764 5.15446   9
  -1  -5  -2 3.15507 3.23073   7
   1  -5   2 1.58330 4.28771   4
  -1  -5  -2 0.24700 4.07065   1
   1  -5   2 10.0807  4.2162   1
   1  -5   2 9.12348 4.91214   9
   1  -5   2 8.23851 4.68646   5
  -1   5  -2 16.2427  4.5663   6
   1   5   2 4.64958 3.18357   3
  -1   5  -2 7.12262 5.02893   4
   1   5   2 9.63555 4.20157   6
  -1   5  -2 6.43102 3.60443   7
  -1   5  -2 3.66767 3.78987   1
   1   5   2 1.01837 3.08577   8
  -1   5  -2 4.43171 4.59074   9
   1   5   2 3.68307 3.71558   7
   1   5   2 2.46898 2.85488   5
  -1   5  -2 3.58201 3.35155   3
   1   5   2 8.78043 5.79907   9
  -1   5  -2 7.67094 4.73307   8
  -1   5  -2 12.0465  4.2539   8
   1   5   2 7.66564 3.32840  10
  -1   5  -2 7.36337 3.33119   6
   1   5   2 6.13775 3.92160   1
   1   5   2 7.23502 3.71893   7
  -2  -5  -2 1498.34  113.30   7
  -2  -5  -2 1553.51  114.14   7
  -2  -5  -2 1492.99  105.02  10
   2  -5   2 1494.54  114.84   1
   2  -5   2 1677.26  126.85   9
  -2  -5  -2 1548.72  112.58   6
  -2  -5  -2 1450.93  126.21   9
  -2  -5  -2 1336.94  126.28   9
   2  -5   2 1522.31  119.14   3
  -2  -5  -2 1496.80  114.87   1
   2  -5   2 1463.41  125.47   4
   2  -5   2 1397.48  114.04   8
  -2  -5  -2 1390.92  123.55   4
   2  -5   2 1323.35  113.41   6
   2  -5   2 1519.78  122.25   5
  -2   5  -2 1525.40  126.82   9
  -2   5  -2 1305.67  125.19   4
   2   5   2 1357.90  117.94   3
   2   5   2 1606.15  126.23   9
  -2   5  -2 1617.91  126.63   9
  -2   5  -2 1314.15  113.72   8
  -2   5  -2 1520.55  114.75   1
  -2   5  -2 1449.20  114.16   8
  -2   5  -2 1529.10  115.38   1
  -2   5  -2 1561.31  113.10   6
  -2   5  -2 1448.44  119.38   3
  -2   5  -2 1664.31  117.20   2
   2   5   2 1512.91  124.68   4
   2   5   2 1622.67  115.01   7
   2   5   2 1448.88  114.17   1
  -2   5  -2 1655.48  114.47   7
   2   5   2 1470.25  120.46   5
   2   5   2 1438.73  113.12   8
   3  -5   2 133.389  14.719   1
   3  -5   2 149.596  13.947   8
  -3  -5  -2 136.703  13.432   7
  -3  -5  -2 134.951  17.054   9
  -3  -5  -2 147.975  12.894   7
   3  -5   2 123.174  15.866   4
   3  -5   2 126.294  13.979   3
   3  -5   2 180.250  18.266   9
   3  -5   2 121.281  13.031   6
  -3  -5  -2 152.433  12.581  10
  -3  -5  -2 141.709  11.169   2
  -3  -5  -2 117.437  14.056   1
   3  -5   2 148.163  14.290   6
   3  -5   2 89.5638 14.1811   5
  -3  -5  -2 139.088  11.957   6
  -3  -5  -2 141.622  16.455   9
  -3  -5  -2 112.180  13.135   1
   3  -5   2 117.074  16.330   9
   3   5   2 132.269  14.640   4
  -3   5  -2 132.489  17.217   9
  -3   5  -2 116.892  13.495   7
   3   5   2 126.738  12.950   3
   3   5   2 141.713  13.426   5
   3   5   2 119.568  13.407   1
  -3   5  -2 94.5369 13.6299   2
   3   5   2 138.238  16.171   9
  -3   5  -2 127.894  13.552   8
  -3   5  -2 113.004  14.872   1
  -3   5  -2 127.921  14.541   1
   3   5   2 121.666  12.149   8
  -3   5  -2 133.763  13.292   6
  -3   5  -2 123.786  16.616   9
   4  -5   2 901.109  85.107   5
   4  -5   2 1076.30   83.91   3
  -4  -5  -2 1167.49   79.81   1
  -4  -5  -2 921.128  79.921   1
  -4  -5  -2 990.691  77.164   6
  -4  -5  -2 847.179  88.483   9
  -4  -5  -2 984.800  88.097   9
   4  -5   2 902.320  80.393   1
   4  -5   2 926.632  79.622   8
  -4  -5  -2 1073.75   73.46  10
  -4  -5  -2 1103.63   79.20   2
  -4  -5  -2 990.426  78.309   7
  -4   5  -2 1075.59   79.00   6
   4   5   2 984.868  86.893   4
  -4   5  -2 1141.65   81.79   1
  -4   5  -2 970.063  82.310   2
  -4   5  -2 1129.53   90.81   9
   4   5   2 1117.92   82.43   3
  -4   5  -2 996.701  80.305   7
  -4   5  -2 1032.42   89.80   9
   5  -5   2 1077.40   90.86   3
   5  -5   2 1016.12   86.54   8
  -5  -5  -2 1223.46   84.89   7
  -5  -5  -2 1058.85   79.24  10
   5  -5   2 1033.84   92.26   5
  -5  -5  -2 1019.47   86.40   1
  -5  -5  -2 1158.61   97.40   9
  -5  -5  -2 1009.26   82.71   6
  -5  -5  -2 1153.30   95.36   9
  -5   5  -2 1177.09   87.69   7
  -5   5  -2 1175.78   89.95   2
  -5   5  -2 1159.67   85.77   6
  -5   5  -2 1023.47   97.47   9
   5   5   2 1127.16   89.20   3
  -5   5  -2 1127.67   88.35   1
  -6  -5  -2 106.571  11.894  10
   6  -5   2 113.706  14.543   8
  -6  -5  -2 114.056  13.295   1
  -6  -5  -2 111.245  11.567   7
  -6  -5  -2 114.036  15.853   9
  -6  -5  -2 102.546  17.144   9
  -6   5  -2 106.017  14.552   7
  -6   5  -2 96.9153 12.7538   6
  -6   5  -2 78.9896 15.0216   1
  -6   5  -2 112.325  15.801   2
  -7  -5  -2 55.6972  9.2769  10
  -7  -5  -2 58.9623 13.1751   9
  -7  -5  -2 64.1974  9.7372   1
  -7   5  -2 44.8668 12.3404   2
  -7   5  -2 63.8348 13.8624   1
   8  -6  -2 222.658  21.611   8
  -8   6   2 179.314  28.182   9
  -8   6   2 212.184  21.518   1
  -8   6   2 219.787  21.497   7
  -8   6   2 259.216  25.834   2
   8   6  -2 192.713  20.021   4
   7  -6  -2 84.6648 11.3667   8
  -7   6   2 67.8360 12.8912   2
  -7   6   2 89.6260 17.0948   9
   7   6  -2 79.3184  8.0091   3
  -7   6   2 70.5526 10.9175   7
  -7   6   2 67.4189 11.4988   1
   7   6  -2 83.4646  9.1091   4
   6  -6  -2 35.3985  7.5775   8
   6  -6  -2 30.5172  8.1090   7
  -6   6   2 36.1727  8.7604   2
  -6   6   2 48.9114  8.4681   7
  -6   6   2 40.7298 10.2576   5
   6   6  -2 31.0160  5.0292   4
   6   6  -2 35.0448  4.5294   4
  -6   6   2 14.8986  9.8918   9
  -6   6   2 21.9405  7.7581   1
  -6   6   2 20.3578 10.8567   9
   6   6  -2 30.3486  3.8721   3
   5  -6  -2 1245.14   97.65   3
   5  -6  -2 1305.82   99.92   5
   5  -6  -2 1148.25   92.50   8
   5  -6  -2 1224.96  103.91   4
  -5  -6   2 1035.95   98.71   9
   5  -6  -2 1036.76   93.30   7
  -5   6   2 1126.08   95.07   2
  -5   6   2 1144.03  106.13   9
  -5   6   2 1299.72  106.48   9
   5   6  -2 1212.06   93.43   3
   5   6  -2 1213.57   90.57   7
  -5   6   2 1332.64   95.24   1
  -5   6   2 1247.90   99.86   5
  -5   6   2 1333.71   93.68   7
  -5   6   2 1097.95   95.21   3
   4  -6  -2 15.9301  6.9469   6
   4  -6  -2 32.5950  8.2492   4
   4  -6  -2 11.9766  7.2199   5
   4  -6  -2 41.2328 11.8321   9
  -4  -6   2 20.5428  5.9740   5
   4  -6  -2 17.8222  5.9417   7
   4  -6  -2 16.3495  5.7335   8
   4  -6  -2 21.0975  7.5119   1
  -4  -6   2 18.9163  4.9473   9
   4  -6  -2 26.5713  6.8394   3
  -4   6   2 23.2539  5.5795   3
  -4   6   2 14.0755  8.8484   9
   4   6  -2 19.5925  3.2320   3
   4   6  -2 15.8314  3.5498   4
  -4   6   2 18.0860  6.1815   5
  -4   6   2 6.67508 6.46478   1
  -4   6   2 17.5436  5.8514   2
  -4   6   2 11.0210  8.2509   9
   4   6  -2 20.8879  3.6729   4
  -4   6   2 25.1780  6.5817   7
  -4   6   2 26.2849  6.6008   6
   4   6  -2 18.1511  4.8087   7
  -3  -6   2 661.033  48.654   1
  -3  -6   2 625.816  47.953   7
   3  -6  -2 518.245  51.022   7
   3  -6  -2 646.621  50.581   8
  -3  -6   2 633.373  47.787   7
   3  -6  -2 508.555  56.236   5
   3  -6  -2 711.315  53.753   6
  -3  -6   2 673.366  48.247   1
   3  -6  -2 557.896  58.764   9
  -3  -6   2 671.989  53.848   5
  -3  -6   2 650.857  54.512   9
   3  -6  -2 593.549  55.792   4
  -3  -6   2 699.881  52.079   5
   3  -6  -2 708.873  53.810   1
  -3   6   2 651.905  53.894   5
   3   6  -2 621.861  49.011   1
  -3   6   2 623.656  58.056   9
  -3   6   2 637.077  52.333   6
  -3   6   2 602.616  52.525   1
  -3   6   2 684.915  51.511   2
  -3   6   2 693.826  52.853   1
  -3   6   2 644.760  49.226   8
   3   6  -2 562.471  53.111   4
   3   6  -2 632.326  49.587   7
  -3   6   2 561.350  46.707  10
   3   6  -2 609.218  51.225   3
  -3   6   2 734.000  59.733   9
  -3   6   2 578.914  50.785   7
  -3   6   2 615.497  53.078   3
  -2  -6   2 57.1856  6.3373   1
   2  -6  -2 44.3191  9.3859   1
   2  -6  -2 49.3710  7.6475   8
   2  -6  -2 38.7194  7.1125   8
  -2  -6   2 56.5639  6.6888   5
   2  -6  -2 41.9432  8.5328   7
   2  -6  -2 77.2820 13.8004   9
  -2  -6   2 49.7884  8.2678   9
  -2  -6   2 60.2132  5.3175   6
   2  -6  -2 51.0300 10.2819   6
   2  -6  -2 64.2495  9.0969   4
  -2  -6   2 44.3496  7.2140   7
  -2  -6   2 55.3132  5.7754   7
  -2  -6   2 65.7646  6.6567   6
   2  -6  -2 54.3811 12.2658   5
  -2  -6   2 53.9107  8.4416   5
  -2  -6   2 63.8156  8.4296   1
  -2  -6   2 68.8893  8.8156   9
   2  -6  -2 59.9951  9.8223   3
  -2   6   2 56.2092  9.2163   1
  -2   6   2 46.2241  6.8276   2
   2   6  -2 57.7257  7.7963   3
  -2   6   2 51.9568  7.8971   5
  -2   6   2 39.0366  9.2375   6
  -2   6   2 30.1349 10.2113   9
  -2   6   2 69.4487  8.2077  10
   2   6  -2 53.6872  5.7528   8
   2   6  -2 41.3572  6.8759   4
  -2   6   2 60.3399  9.1663   3
   2   6  -2 45.8753  5.1063   8
   2   6  -2 49.9382  9.8203   9
   2   6  -2 52.6262  6.8083   1
   2   6  -2 48.6650  7.4608   9
  -2   6   2 60.3373  9.7994   7
  -2   6   2 44.6662  9.4303   1
  -2   6   2 54.3800  7.1018   8
  -2   6   2 33.1394  7.2917   7
   2   6  -2 51.4285  6.6383   7
  -1  -6   2 174.127  15.644   3
   1  -6  -2 207.791  22.011   5
   1  -6  -2 178.610  16.849   7
   1  -6  -2 160.743  17.769   6
  -1  -6   2 144.758  17.068   5
  -1  -6   2 193.001  14.712   7
   1  -6  -2 147.834  17.593   1
   1  -6  -2 159.932  15.284   8
   1  -6  -2 158.270  16.783   7
  -1  -6   2 154.607  15.097   1
  -1  -6   2 137.920  16.939   9
  -1  -6   2 173.696  14.066   6
  -1  -6   2 154.515  16.132   6
   1  -6  -2 171.991  14.431   2
   1  -6  -2 183.454  17.924   4
   1  -6  -2 154.138  15.353   8
  -1  -6   2 163.875  17.362   9
   1  -6  -2 179.113  21.271   9
   1  -6  -2 169.100  17.416   1
  -1  -6   2 145.210  15.259   7
   1  -6  -2 166.490  17.161   3
   1   6  -2 158.230  18.124   9
   1   6  -2 140.953  16.419   4
  -1   6   2 187.366  17.988   1
  -1   6   2 158.592  15.539   8
   1   6  -2 157.603  15.333   1
   1   6  -2 168.502  15.229   7
   1   6  -2 175.976  14.573   6
   1   6  -2 207.820  16.166   8
  -1   6   2 152.995  17.230   3
  -1   6   2 158.598  14.470   2
  -1   6   2 138.820  14.810  10
   1   6  -2 135.858  16.697   9
   1   6  -2 168.798  14.801   8
   1   6  -2 194.181  16.998   3
  -1   6   2 130.354  16.646   1
   1   6  -2 184.085  15.988   6
  -1   6   2 195.680  17.460   7
  -1   6   2 166.858  16.274   5
  -1   6   2 174.095  16.549   7
   0  -6   2 6.20050 4.13923   6
   0  -6  -2 8.22842 3.92459   3
   0  -6  -2 6.54914 4.71133   1
   0  -6   2 3.14593 3.60823   1
   0  -6  -2 7.79495 3.87379   7
   0  -6  -2 2.78850 3.67060   6
   0  -6   2 8.30481 5.03813   9
   0  -6  -2 7.05536 4.29168   4
   0  -6   2 4.47413 3.83585   1
   0  -6   2 3.01279 2.68372   6
   0  -6  -2 0.75536 3.65040   8
   0  -6  -2 8.83848 6.42487   9
   0  -6  -2 -3.7971  3.5479   1
   0  -6  -2 -2.0306  3.5603   7
   0  -6  -2 4.94855 3.56859  10
   0  -6  -2 1.33728 3.40364   8
   0  -6   2 -0.0944  2.5305   8
   0  -6   2 7.98833 3.21217   8
   0  -6   2 6.19288 3.12921   7
   0  -6   2 2.75620 4.83815   9
   0  -6   2 2.62251 3.33668   3
   0  -6   2 6.79563 4.60280   5
   0   6   2 -1.5022  3.2821   3
   0   6   2 5.34017 4.07270   7
   0   6  -2 7.77907 4.21976   1
   0   6   2 10.0783  2.3148   2
   0   6  -2 11.0863  5.5273   9
   0   6   2 5.73173 4.74494   1
   0   6  -2 -5.0248  4.0612   8
   0   6   2 2.33592 5.56132   9
   0   6  -2 7.58095 5.42628   9
   0   6   2 7.94301 3.89503   5
   0   6  -2 11.7662  4.2394   6
   0   6  -2 -1.9338  4.0999   8
   0   6  -2 -0.8341  3.5255   3
   0   6  -2 1.57248 2.77434   6
   0   6   2 7.78269 3.65481  10
   0   6   2 7.95047 4.87565   6
   0   6   2 -1.2342  3.4872   7
   0   6  -2 4.48267 3.36405   7
   0   6  -2 3.06902 4.25437   4
   0   6   2 1.06302 3.71907   8
  -1  -6  -2 782.260  65.836  10
  -1  -6  -2 915.972  70.191   8
  -1  -6  -2 912.463  72.813   1
   1  -6   2 849.116  71.296   7
  -1  -6  -2 834.953  69.789   8
  -1  -6  -2 1070.08   82.10   9
   1  -6   2 937.637  72.013   6
   1  -6   2 849.392  78.436   4
  -1  -6  -2 1103.88   72.99   1
   1  -6   2 1016.06   75.42   3
  -1  -6  -2 991.779  74.020   3
   1  -6   2 1107.71   72.56   1
  -1  -6  -2 979.721  71.667   7
   1  -6   2 902.271  70.703   8
   1  -6   2 768.255  76.619   5
   1  -6   2 916.104  71.179   8
   1  -6   2 1059.26   80.48   9
  -1  -6  -2 860.869  77.869   4
  -1  -6  -2 806.495  71.610   7
  -1  -6  -2 870.816  70.913   6
   1  -6   2 1037.66   71.02   6
   1  -6   2 954.897  80.036   9
  -1   6  -2 946.381  79.984   9
   1   6   2 817.859  72.165   1
   1   6   2 985.373  72.344   6
   1   6   2 923.138  75.614   5
  -1   6  -2 933.398  72.094   1
   1   6   2 888.485  66.124  10
  -1   6  -2 936.898  71.849   7
   1   6   2 932.946  72.666   7
  -1   6  -2 901.515  70.672   6
   1   6   2 946.917  71.007   8
  -1   6  -2 934.362  71.487   8
  -1   6  -2 904.605  75.086   3
  -1   6  -2 938.574  71.869   6
   1   6   2 784.141  80.216   9
  -1   6  -2 865.844  71.822   8
   1   6   2 855.932  74.174   3
  -1   6  -2 959.041  79.234   4
   2  -6   2 295.332  26.450   4
  -2  -6  -2 237.650  27.030   9
  -2  -6  -2 252.427  23.849   4
  -2  -6  -2 325.471  23.760   7
   2  -6   2 251.475  25.417   5
   2  -6   2 337.861  24.656   6
  -2  -6  -2 272.927  22.364   7
  -2  -6  -2 231.705  23.594   1
  -2  -6  -2 290.390  22.494   3
  -2  -6  -2 240.944  20.892  10
   2  -6   2 244.067  22.648   8
  -2  -6  -2 247.312  21.786   6
  -2  -6  -2 242.323  26.676   9
   2  -6   2 327.071  28.312   9
   2  -6   2 291.455  24.682   3
   2  -6   2 248.318  23.892   1
  -2   6  -2 265.558  26.204   4
  -2   6  -2 281.463  22.619   6
  -2   6  -2 231.096  23.696   2
  -2   6  -2 212.464  22.719   8
  -2   6  -2 249.299  24.476   3
   2   6   2 241.833  24.829   4
   2   6   2 237.067  23.302   5
   2   6   2 255.604  23.806   1
   2   6   2 266.495  26.902   9
  -2   6  -2 228.622  26.360   9
   2   6   2 255.498  21.720   8
   2   6   2 260.709  23.874   7
  -2   6  -2 250.841  23.241   7
   2   6   2 253.516  23.182   3
  -2   6  -2 279.869  24.162   1
  -2   6  -2 284.421  27.762   9
   3  -6   2 339.995  29.554   8
  -3  -6  -2 348.952  27.870   6
  -3  -6  -2 316.669  30.171   1
   3  -6   2 393.522  34.482   4
   3  -6   2 367.846  30.566   6
  -3  -6  -2 349.590  29.598   1
   3  -6   2 349.057  32.761   5
   3  -6   2 335.079  34.388   9
  -3  -6  -2 373.614  35.147   9
  -3  -6  -2 376.367  29.655   7
  -3  -6  -2 337.622  33.958   9
   3  -6   2 377.705  34.985   9
  -3  -6  -2 355.889  27.006  10
   3  -6   2 314.555  30.614   1
   3  -6   2 376.429  31.718   3
   3  -6   2 305.254  28.956   6
  -3  -6  -2 336.340  28.428   7
   3   6   2 379.579  30.366   1
  -3   6  -2 313.904  28.769   6
  -3   6  -2 307.483  30.470   1
  -3   6  -2 328.907  30.833   2
   3   6   2 354.238  32.417   4
  -3   6  -2 399.318  36.130   9
  -3   6  -2 320.023  29.359   8
  -3   6  -2 372.001  35.117   9
   3   6   2 379.250  30.450   5
   3   6   2 360.493  33.585   9
  -3   6  -2 371.947  30.557   7
  -3   6  -2 290.862  30.729   3
   3   6   2 285.786  29.729   7
   3   6   2 330.708  29.809   3
   4  -6   2 492.955  42.681   8
   4  -6   2 493.609  43.987   1
   4  -6   2 535.313  45.244   3
  -4  -6  -2 544.351  49.441   9
  -4  -6  -2 445.379  47.065   9
  -4  -6  -2 457.265  42.623   1
  -4  -6  -2 517.227  38.785  10
   4  -6   2 497.199  46.445   5
  -4  -6  -2 516.068  41.055   7
  -4  -6  -2 546.483  40.004   6
  -4  -6  -2 550.715  42.292   1
  -4   6  -2 416.687  43.648   2
  -4   6  -2 607.865  50.924   9
  -4   6  -2 524.570  43.519   7
   4   6   2 552.072  43.443   3
   4   6   2 509.188  46.521   4
  -4   6  -2 560.994  44.799   1
  -4   6  -2 483.967  41.838   6
  -5  -6  -2 1.46152 4.05817   7
  -5  -6  -2 4.31709 2.41591   6
  -5  -6  -2 3.80666 4.79054  10
   5  -6   2 -5.5577  5.3489   5
  -5  -6  -2 1.57564 8.21352   9
  -5  -6  -2 5.71609 6.05775   9
  -5  -6  -2 -0.7641  5.4113   1
   5  -6   2 1.10786 5.69669   8
  -5   6  -2 3.11540 6.16814   7
  -5   6  -2 5.96504 7.05883   2
  -5   6  -2 5.29914 6.34579   1
  -5   6  -2 3.46587 5.33182   6
  -6  -6  -2 579.329  60.001   9
  -6  -6  -2 624.874  57.980   9
  -6  -6  -2 675.753  52.244   1
  -6  -6  -2 621.250  47.571  10
  -6   6  -2 723.207  56.108   1
  -6   6  -2 654.965  54.270   7
  -6   6  -2 557.273  54.497   2
  -7  -6  -2 11.9346  6.1369   1
  -7  -6  -2 7.92403 6.66199  10
  -7   6  -2 11.9376  9.4585   2
  -7   6  -2 0.79167 8.53001   1
  -8   7   2 330.637  32.421   2
  -8   7   2 339.829  29.760   7
  -8   7   2 324.417  30.165   1
   8   7  -2 263.848  27.883   4
  -8   7   2 380.081  39.698   9
   7  -7  -2 17.1643  6.8209   8
  -7   7   2 19.0809  9.0182   2
   7   7  -2 17.2022  4.9846   4
   7   7  -2 13.9144  5.9335   4
  -7   7   2 27.1374 13.7693   9
  -7   7   2 25.5760  8.5880   1
  -7   7   2 2.17603 6.06267   7
   7   7  -2 20.4600  4.4367   3
  -6  -7   2 116.511  12.253   9
  -6  -7   2 132.567  15.431   5
  -6  -7   2 130.721  12.794   9
   6  -7  -2 149.942  15.355   8
   6  -7  -2 116.976  15.812   7
  -6   7   2 128.156  16.852   1
  -6   7   2 113.816  15.809   2
  -6   7   2 153.167  16.124   7
   6   7  -2 122.919  12.924   4
  -6   7   2 142.794  22.147   9
   6   7  -2 147.375  14.157   4
   6   7  -2 129.744  11.941   3
  -5  -7   2 233.794  21.030   5
   5  -7  -2 189.286  20.178   7
   5  -7  -2 193.698  22.074   5
   5  -7  -2 212.982  21.294   3
  -5  -7   2 201.397  18.734   9
  -5  -7   2 191.715  18.586   9
   5  -7  -2 215.866  19.427   8
  -5   7   2 160.277  19.556   2
  -5   7   2 179.512  20.949   5
  -5   7   2 192.771  26.065   9
   5   7  -2 183.727  17.813   4
   5   7  -2 167.237  18.098   4
  -5   7   2 186.125  21.428   1
  -5   7   2 226.131  20.195   7
   5   7  -2 183.548  16.686   3
  -5   7   2 218.256  19.826   6
  -5   7   2 210.684  27.039   9
   4  -7  -2 43.6359 13.4794   9
   4  -7  -2 13.7951  7.6727   6
   4  -7  -2 47.4667 10.1779   4
   4  -7  -2 38.2309  8.5664   7
   4  -7  -2 42.4087  9.1444   3
   4  -7  -2 51.0909 11.9197   5
   4  -7  -2 44.2614  8.1208   8
  -4  -7   2 26.7563  7.6722   5
  -4  -7   2 33.4914  7.1159   9
   4  -7  -2 49.9275 11.5888   1
  -4   7   2 56.2841  9.7707   5
   4   7  -2 53.7826  6.8719   4
  -4   7   2 21.6875 10.7300   9
  -4   7   2 45.7447  8.0152   3
  -4   7   2 46.8886  8.6231   7
  -4   7   2 62.2499 11.0465   1
  -4   7   2 37.8947 10.1966   1
   4   7  -2 40.8391  7.3175   7
   4   7  -2 52.9415  6.1840   3
  -4   7   2 47.9991  8.1692   2
  -4   7   2 38.3031 13.0588   9
  -4   7   2 47.8661  9.1051   6
   3  -7  -2 476.912  39.721   3
   3  -7  -2 455.707  37.567   7
  -3  -7   2 371.280  33.467   1
  -3  -7   2 370.679  33.371   7
   3  -7  -2 438.249  35.748   6
   3  -7  -2 428.493  38.590   1
   3  -7  -2 371.857  43.102   9
  -3  -7   2 435.973  38.764   9
  -3  -7   2 480.052  36.715   5
   3  -7  -2 462.462  39.187   6
   3  -7  -2 513.229  41.436   4
   3  -7  -2 459.382  35.876   8
  -3  -7   2 457.159  34.647   1
  -3  -7   2 421.840  38.313   5
   3  -7  -2 440.327  43.014   5
  -3   7   2 404.859  37.824   6
  -3   7   2 432.476  34.728   8
   3   7  -2 396.238  37.522   4
  -3   7   2 452.624  36.887   7
   3   7  -2 468.383  36.871   3
   3   7  -2 367.011  34.871   7
  -3   7   2 463.795  43.732   9
  -3   7   2 428.413  38.321   5
  -3   7   2 396.986  41.920   9
  -3   7   2 408.273  38.134   1
  -3   7   2 438.416  36.169   2
   3   7  -2 436.172  34.590   1
  -3   7   2 394.517  33.312  10
  -3   7   2 414.919  38.125   3
  -3   7   2 514.758  39.298   1
  -2  -7   2 35.2527  5.3635   1
   2  -7  -2 25.8807  8.6091   6
   2  -7  -2 38.1445 11.3105   5
  -2  -7   2 27.7638  7.5123   9
   2  -7  -2 20.9562  6.9788   7
   2  -7  -2 14.8941  7.3499   1
  -2  -7   2 50.2260  7.9100   1
   2  -7  -2 28.3736  7.3172   4
   2  -7  -2 31.7633  7.9302   3
  -2  -7   2 44.7323  8.0799   5
  -2  -7   2 31.7858  4.4411   7
  -2  -7   2 38.7814  4.1816   6
   2  -7  -2 29.6484 10.6180   9
  -2  -7   2 32.7002  7.3584   9
  -2  -7   2 27.8569  5.4032   6
   2  -7  -2 35.8174  6.6276   8
  -2  -7   2 28.5095  6.2225   7
  -2   7   2 27.7747  7.0256   4
   2   7  -2 31.1880  5.6598   1
   2   7  -2 33.9993  9.1169   9
  -2   7   2 20.7250  6.3025   7
   2   7  -2 28.5162  4.9287   8
  -2   7   2 29.5056  8.0084   1
  -2   7   2 7.39387 8.40962   9
   2   7  -2 37.0558  4.8222   8
  -2   7   2 27.1426  5.4738   2
  -2   7   2 32.9943  9.2090   9
  -2   7   2 32.7814  8.5829   6
   2   7  -2 29.4337  6.5262   3
  -2   7   2 30.7922  7.7147   3
   2   7  -2 24.0064  6.0294   4
  -2   7   2 32.8343  8.7976   1
  -2   7   2 26.2557  5.8763   8
  -2   7   2 24.2398  6.4623   5
   2   7  -2 27.1921  5.6456   7
  -2   7   2 28.7584  7.8004   7
  -2   7   2 32.6156  6.7366  10
   1  -7  -2 241.678  25.899   6
  -1  -7   2 269.189  24.954   6
  -1  -7   2 245.706  23.255   1
   1  -7  -2 289.588  25.122   7
  -1  -7   2 265.028  26.620   9
   1  -7  -2 280.652  22.887   2
   1  -7  -2 347.789  28.119   1
   1  -7  -2 300.408  25.770   7
  -1  -7   2 267.886  22.055   6
   1  -7  -2 252.968  26.348   4
   1  -7  -2 297.764  30.601   9
   1  -7  -2 264.467  23.556   8
  -1  -7   2 250.365  22.648   7
  -1  -7   2 220.819  26.231   9
   1  -7  -2 263.266  30.086   5
   1  -7  -2 331.535  26.574   3
   1  -7  -2 283.760  23.317   8
  -1  -7   2 253.738  26.444   5
   1  -7  -2 285.475  26.400   1
  -1  -7   2 302.363  24.524   7
  -1  -7   2 253.451  23.764   3
   1   7  -2 284.112  26.090   4
  -1   7   2 242.953  24.712   5
  -1   7   2 267.108  22.737   2
   1   7  -2 252.295  27.815   9
  -1   7   2 246.133  26.426   4
   1   7  -2 286.768  23.971   8
  -1   7   2 290.880  23.925   8
   1   7  -2 271.516  22.754   8
   1   7  -2 276.089  23.847   1
   1   7  -2 270.763  22.605   6
  -1   7   2 295.876  23.177  10
  -1   7   2 249.262  25.678   1
   1   7  -2 333.084  24.193   7
  -1   7   2 242.292  25.750   3
  -1   7   2 235.917  24.314   7
   1   7  -2 254.144  25.206   3
   1   7  -2 318.377  26.958   9
   0  -7  -2 1420.35  115.66   6
   0  -7   2 1617.42  120.57   3
   0  -7  -2 1602.54  117.62   1
   0  -7   2 1524.14  113.57   8
   0  -7   2 1411.48  114.61   7
   0  -7   2 1474.67  115.45   7
   0  -7   2 1393.32  113.78   8
   0  -7  -2 1429.67  120.02   3
   0  -7   2 1426.71  123.58   5
   0  -7  -2 1712.22  117.76   1
   0  -7  -2 1453.97  114.18   8
   0  -7   2 1535.82  113.60   6
   0  -7  -2 1428.21  116.36   7
   0  -7   2 1275.54  114.94   1
   0  -7  -2 1368.55  114.36   8
   0  -7   2 1485.08  127.33   9
   0  -7   2 1565.08  127.45   9
   0  -7  -2 1432.43  129.13   9
   0  -7   2 1715.52  116.06   1
   0  -7   2 1517.45  115.61   6
   0  -7  -2 1427.96  126.74   5
   0  -7  -2 1490.94  116.00   7
   0   7   2 1506.68  120.92   3
   0   7   2 1647.17  115.32   2
   0   7   2 1431.86  121.93   5
   0   7  -2 1661.84  126.89   4
   0   7   2 1488.54  130.82   9
   0   7  -2 1231.27  114.30   8
   0   7  -2 1426.68  120.74   3
   0   7   2 1684.64  117.46   6
   0   7   2 1641.70  116.84   7
   0   7  -2 1434.33  113.66   6
   0   7  -2 1489.17  127.15   9
   0   7  -2 1473.34  115.20   7
   0   7   2 1516.19  107.25  10
   0   7  -2 1567.61  115.37   6
   0   7  -2 1577.16  128.28   9
   0   7  -2 1573.98  115.75   1
   0   7  -2 1591.31  116.26   8
  -1  -7  -2 425.058  30.313   8
   1  -7   2 398.991  32.663   7
   1  -7   2 343.566  31.632   8
   1  -7   2 331.408  32.927   1
  -1  -7  -2 322.385  33.397   1
   1  -7   2 360.311  34.031   3
  -1  -7  -2 334.262  32.345   7
   1  -7   2 346.685  36.893   9
  -1  -7  -2 384.053  35.321   4
  -1  -7  -2 366.707  38.676   9
   1  -7   2 334.585  35.394   5
   1  -7   2 416.891  31.947   6
  -1  -7  -2 372.541  30.047  10
  -1  -7  -2 414.655  33.192   3
   1  -7   2 424.134  31.552   8
   1  -7   2 407.519  37.416   9
   1  -7   2 407.206  33.717   6
  -1  -7  -2 441.650  30.751   8
  -1  -7  -2 398.123  33.941   1
   1  -7   2 398.232  33.280   1
  -1  -7  -2 351.820  32.042   6
   1   7   2 405.452  33.974   7
  -1   7  -2 443.167  32.834   8
  -1   7  -2 437.415  38.761   9
  -1   7  -2 432.878  33.894   1
   1   7   2 340.055  33.510   3
  -1   7  -2 450.321  38.250   9
   1   7   2 400.450  30.668  10
   1   7   2 343.596  33.236   1
   1   7   2 344.962  38.228   9
  -1   7  -2 398.919  36.638   4
  -1   7  -2 348.831  34.518   3
  -1   7  -2 420.457  32.046   6
   1   7   2 348.189  33.673   5
  -1   7  -2 471.620  34.142   6
  -1   7  -2 379.349  32.894   7
   2  -7   2 98.1132 13.5241   5
  -2  -7  -2 82.9006 14.0110   9
  -2  -7  -2 68.6790  9.3766  10
   2  -7   2 78.2789 11.5064   3
  -2  -7  -2 96.4252 10.4527   7
  -2  -7  -2 82.1331 11.9859   1
  -2  -7  -2 78.2975  9.6405   6
   2  -7   2 91.1963 11.9469   6
   2  -7   2 84.0372 14.1311   9
  -2  -7  -2 107.452   9.898   3
   2  -7   2 102.032  14.689   9
   2  -7   2 94.7553 12.4269   1
  -2  -7  -2 97.9190 11.4101   7
   2  -7   2 94.1060 10.8645   8
  -2  -7  -2 120.183  16.593   9
  -2   7  -2 102.120  12.196   2
   2   7   2 96.6415 12.3872   7
  -2   7  -2 98.5387 12.4989   3
   2   7   2 76.2867 13.2667   9
  -2   7  -2 63.4189 13.5959   9
  -2   7  -2 107.128  14.359   4
  -2   7  -2 108.563  11.110   6
   2   7   2 79.6280 10.5760   3
   2   7   2 85.5886 10.6285   5
  -2   7  -2 87.4753 11.5813   8
  -2   7  -2 107.279  12.811   1
  -2   7  -2 105.626  15.068   9
  -2   7  -2 119.829  12.400   7
   2   7   2 97.1073 12.0333   1
  -3  -7  -2 431.435  46.317   9
  -3  -7  -2 552.019  41.272   1
   3  -7   2 489.600  43.369   3
   3  -7   2 593.541  43.847   1
  -3  -7  -2 499.907  42.107   1
   3  -7   2 486.476  40.965   8
  -3  -7  -2 479.676  37.605  10
  -3  -7  -2 485.235  47.620   9
  -3  -7  -2 477.590  39.843   7
  -3  -7  -2 536.187  41.427   7
   3  -7   2 452.420  45.076   5
   3  -7   2 465.375  41.892   6
  -3  -7  -2 455.142  39.035   6
  -3   7  -2 458.785  41.693   7
  -3   7  -2 563.705  41.159   6
  -3   7  -2 477.961  42.531   1
   3   7   2 496.384  42.049   3
   3   7   2 528.721  42.556   7
   3   7   2 492.685  44.899   4
   3   7   2 507.199  42.391   5
  -3   7  -2 517.158  42.840   2
  -3   7  -2 424.278  43.174   3
  -3   7  -2 515.407  41.129   8
  -3   7  -2 548.777  48.556   9
   4  -7   2 110.905  14.721   1
  -4  -7  -2 104.251  10.921  10
   4  -7   2 83.8556 11.8332   8
  -4  -7  -2 91.2742 14.9794   9
  -4  -7  -2 91.7841  9.3297   6
  -4  -7  -2 99.0132 10.5244   7
  -4  -7  -2 85.1033 12.2948   1
   4  -7   2 96.1081 14.5472   5
  -4  -7  -2 85.0833 16.2188   9
  -4   7  -2 94.1644 13.0769   7
  -4   7  -2 101.981  17.425   9
   4   7   2 103.634  11.789   3
  -4   7  -2 65.0857 12.6968   2
  -4   7  -2 104.967  12.241   6
  -4   7  -2 87.7794 13.8552   1
  -5  -7  -2 99.4019 14.9142   9
  -5  -7  -2 87.1334  8.2163   6
   5  -7   2 73.8617 13.9862   5
  -5  -7  -2 99.8575 11.3247  10
   5  -7   2 93.0806 13.2120   8
  -5  -7  -2 110.776  10.999   7
  -5  -7  -2 88.7033 12.5892   1
  -5  -7  -2 102.730  17.300   9
  -5   7  -2 94.0920 14.2303   2
  -5   7  -2 83.4213 12.2043   6
  -5   7  -2 112.012  15.740   1
  -5   7  -2 114.632  14.948   7
  -6  -7  -2 660.480  52.347  10
  -6  -7  -2 782.232  57.438   1
  -6  -7  -2 680.534  63.473   9
  -6   7  -2 780.435  61.536   1
  -6   7  -2 609.623  59.878   2
  -8   8   2 336.590  31.228   1
  -8   8   2 278.547  31.677   2
  -7  -8   2 312.698  29.950   5
   7   8  -2 302.093  27.801   4
  -7   8   2 316.656  29.049   7
   7   8  -2 285.445  29.268   4
  -7   8   2 287.087  30.112   2
  -7   8   2 305.589  30.053   1
   6  -8  -2 27.8592  9.4781   7
  -6  -8   2 51.2943  7.2302   9
   6  -8  -2 45.8653  9.3188   8
  -6  -8   2 41.7716  9.7515   5
  -6  -8   2 40.3330  6.5714   9
  -6   8   2 53.5199 10.6048   7
   6   8  -2 42.1518  6.0664   3
  -6   8   2 29.2719 10.6141   1
  -6   8   2 41.0252 10.0892   2
   6   8  -2 52.5964  8.7666   4
  -6   8   2 45.6534 15.4100   9
   5  -8  -2 38.4490  9.8288   7
  -5  -8   2 53.7505  8.9886   9
  -5  -8   2 67.3123 10.9629   5
   5  -8  -2 63.3175  9.9962   8
   5  -8  -2 89.5585 14.3189   5
   5  -8  -2 63.0073 10.8380   3
  -5   8   2 46.7577 10.1055   6
  -5   8   2 58.2562 13.4690   1
   5   8  -2 56.1192  7.3876   3
  -5   8   2 57.8325 11.8238   5
  -5   8   2 68.9225 11.1172   7
  -5   8   2 56.1258 10.3443   2
   5   8  -2 63.1707  9.1718   4
  -5   8   2 51.2197 14.9038   9
  -4  -8   2 2156.95  187.67   9
   4  -8  -2 1824.49  186.49   5
   4  -8  -2 2130.59  172.77   8
   4  -8  -2 2309.89  176.44   1
  -4  -8   2 2138.89  168.95   1
  -4  -8   2 2423.91  184.14   5
   4  -8  -2 2153.11  173.67   7
   4  -8  -2 2487.56  182.46   3
  -4   8   2 2183.85  193.12   9
  -4   8   2 2136.72  175.58   2
  -4   8   2 2165.43  173.33   6
   4   8  -2 2483.94  187.37   4
  -4   8   2 2625.09  174.37   7
  -4   8   2 2366.86  171.01   8
  -4   8   2 2289.91  159.92  10
  -4   8   2 2153.43  192.94   9
  -4   8   2 2276.41  180.23   3
   4   8  -2 2499.36  178.60   3
   4   8  -2 2157.67  172.06   7
  -4   8   2 2063.46  183.80   5
   3  -8  -2 71.5905 12.8602   6
   3  -8  -2 89.8299 17.4978   9
  -3  -8   2 55.8077  7.1811   1
   3  -8  -2 64.9124 11.4482   4
  -3  -8   2 68.4819  7.4781   7
  -3  -8   2 75.8252 10.8000   9
  -3  -8   2 69.6024  9.0139   1
   3  -8  -2 73.7401 12.8455   1
   3  -8  -2 42.9894 10.1838   3
   3  -8  -2 45.1609  8.7415   8
   3  -8  -2 74.1296 15.8417   5
  -3  -8   2 61.8062 10.5374   5
   3  -8  -2 43.4189 10.1055   7
   3  -8  -2 70.9869  9.5025   6
  -3   8   2 53.3571 14.5127   9
   3   8  -2 59.1880  9.1570   4
   3   8  -2 60.8281  6.9285   8
  -3   8   2 52.2440  9.8522   5
  -3   8   2 64.0494 12.3327   1
  -3   8   2 89.1557 13.1186   6
  -3   8   2 78.8719 13.0117   1
   3   8  -2 59.5931  6.7054   8
   3   8  -2 54.5361  8.7533   7
  -3   8   2 64.9068  9.2539  10
   3   8  -2 59.6017  9.2467   3
  -3   8   2 80.3399 14.9360   9
  -3   8   2 55.3542 10.7013   3
  -3   8   2 77.2215  9.5180   2
  -3   8   2 72.9781 10.8375   7
   2  -8  -2 473.249  43.758   1
  -2  -8   2 519.339  41.318   7
  -2  -8   2 506.457  38.629   6
  -2  -8   2 508.375  41.892   1
  -2  -8   2 481.335  46.191   9
   2  -8  -2 481.057  49.513   9
   2  -8  -2 475.711  40.833   8
   2  -8  -2 487.862  42.722   7
   2  -8  -2 446.212  48.504   5
   2  -8  -2 490.317  44.058   6
   2  -8  -2 523.565  46.645   4
  -2  -8   2 465.248  44.794   5
   2  -8  -2 470.287  44.517   3
  -2  -8   2 490.823  45.707   9
  -2  -8   2 520.039  40.171   6
  -2  -8   2 484.785  39.495   7
  -2  -8   2 469.929  40.065   1
  -2   8   2 490.188  43.682   5
   2   8  -2 534.260  47.877   9
  -2   8   2 525.875  50.852   9
  -2   8   2 554.204  46.391   4
   2   8  -2 477.274  44.513   4
   2   8  -2 593.784  40.499   8
  -2   8   2 557.928  48.825   9
  -2   8   2 554.229  41.241   2
   2   8  -2 499.451  39.482   8
  -2   8   2 444.485  38.628  10
  -2   8   2 544.422  44.437   6
   2   8  -2 477.450  41.040   7
  -2   8   2 407.579  41.630   7
   2   8  -2 511.738  40.908   1
  -2   8   2 468.237  43.100   1
  -2   8   2 481.326  44.454   3
   2   8  -2 532.120  43.417   3
  -1  -8   2 12.1807  4.7372   1
  -1  -8   2 3.80451 5.62098   9
  -1  -8   2 0.81114 2.53906   6
   1  -8  -2 -1.4594  5.2750   1
  -1  -8   2 7.52394 3.79107   3
  -1  -8   2 4.90829 4.39818   7
   1  -8  -2 11.9225  5.8922   7
   1  -8  -2 5.34423 4.82655   3
   1  -8  -2 3.53012 4.25966   8
   1  -8  -2 3.29823 8.46018   5
  -1  -8   2 3.83122 5.60818   9
  -1  -8   2 7.38208 5.66629   5
   1  -8  -2 3.64594 7.20067   1
  -1  -8   2 1.29402 3.04427   7
  -1  -8   2 4.04358 5.10073   6
   1  -8  -2 -0.9080  5.0906   6
   1  -8  -2 0.31029 7.30652   9
   1   8  -2 3.26718 4.39058   7
  -1   8   2 -3.1370  4.6853   4
  -1   8   2 10.1312  5.7044   3
  -1   8   2 -1.8457  3.9592   5
  -1   8   2 -0.9719  4.8533   6
   1   8  -2 1.79032 5.50657   9
   1   8  -2 1.49678 3.53852   6
  -1   8   2 3.11509 6.43384   9
  -1   8   2 4.21772 4.67071   7
  -1   8   2 10.3367  6.1840   1
  -1   8   2 -1.7368  2.9313   2
   1   8  -2 8.24563 4.91171   8
   1   8  -2 17.8568  6.0413   8
   1   8  -2 8.92432 5.72407   4
   1   8  -2 1.79491 4.70926   3
   1   8  -2 0.42738 4.03938   1
   1   8  -2 2.33414 6.81973   9
  -1   8   2 9.24500 4.68138  10
   0  -8   2 592.038  44.583   1
   0  -8  -2 583.617  42.973   8
   0  -8  -2 509.871  44.621   7
   0  -8  -2 594.309  47.282   1
   0  -8  -2 499.723  51.912   9
   0  -8   2 566.283  44.917   1
   0  -8  -2 456.114  45.227   1
   0  -8  -2 502.426  44.947   6
   0  -8   2 432.029  48.517   9
   0  -8   2 563.415  46.253   3
   0  -8   2 569.103  41.583   8
   0  -8   2 495.618  44.763   6
   0  -8   2 513.583  44.242   7
   0  -8   2 579.712  41.806   8
   0  -8   2 488.775  47.939   5
   0  -8  -2 490.869  48.585   4
   0  -8   2 569.822  43.729   7
   0  -8  -2 557.275  45.941   7
   0  -8  -2 523.716  51.501   5
   0  -8  -2 451.553  45.209   3
   0  -8  -2 554.752  42.300   8
   0  -8   2 513.783  49.431   9
   0  -8   2 505.253  42.331   6
   0   8   2 502.624  45.374   1
   0   8  -2 611.715  51.389   9
   0   8   2 546.947  46.201   5
   0   8  -2 531.888  48.690   4
   0   8  -2 607.735  49.884   9
   0   8  -2 564.559  43.039   6
   0   8   2 600.766  54.529   9
   0   8  -2 569.864  44.731   1
   0   8  -2 489.575  43.125   8
   0   8   2 507.506  48.707   4
   0   8  -2 534.314  46.927   3
   0   8   2 501.934  46.744   3
   0   8   2 480.937  45.939   6
   0   8   2 645.620  46.444   7
   0   8  -2 538.485  44.175   7
   0   8   2 572.439  41.833  10
   0   8   2 520.669  42.078   2
  -1  -8  -2 472.279  44.491   7
   1  -8   2 574.059  49.338   5
  -1  -8  -2 546.491  41.855   8
   1  -8   2 545.030  50.847   9
  -1  -8  -2 603.568  48.616   4
  -1  -8  -2 492.941  41.592   8
  -1  -8  -2 665.859  53.856   9
  -1  -8  -2 528.391  44.328   6
  -1  -8  -2 510.712  46.041   1
  -1  -8  -2 561.490  45.409   7
   1  -8   2 567.404  45.497   1
   1  -8   2 582.714  43.487   8
   1  -8   2 464.232  44.820   1
   1  -8   2 615.144  51.317   9
  -1  -8  -2 616.002  46.838   1
   1  -8   2 581.265  47.209   3
  -1  -8  -2 536.582  45.276   3
   1  -8   2 585.221  46.082   6
  -1   8  -2 536.704  49.796   4
  -1   8  -2 498.436  45.266   6
  -1   8  -2 564.824  44.496   8
   1   8   2 580.611  47.062   3
  -1   8  -2 517.663  47.485   3
   1   8   2 556.173  46.596   5
   1   8   2 574.025  53.375   9
   1   8   2 515.775  45.720   1
   1   8   2 552.900  46.151   7
  -1   8  -2 556.423  50.881   9
  -1   8  -2 542.612  43.694   6
  -1   8  -2 497.888  45.247   1
  -1   8  -2 469.188  44.496   7
  -1   8  -2 477.658  50.639   9
   2  -8   2 2326.67  186.81   5
  -2  -8  -2 2247.94  178.67   3
   2  -8   2 2364.69  174.09   6
  -2  -8  -2 2224.90  171.34   6
  -2  -8  -2 1925.42  191.87   9
  -2  -8  -2 2156.05  159.92  10
  -2  -8  -2 2240.42  193.25   9
   2  -8   2 2399.50  192.42   9
  -2  -8  -2 2510.24  174.15   7
   2  -8   2 2146.40  192.22   9
   2  -8   2 2312.74  173.50   8
   2  -8   2 2124.72  171.86   6
  -2  -8  -2 2228.75  172.79   7
  -2  -8  -2 2425.59  175.02   1
   2   8   2 2582.42  180.78   3
  -2   8  -2 2070.70  191.95   9
  -2   8  -2 2101.91  176.98   2
   2   8   2 2331.52  192.80   9
  -2   8  -2 2349.25  173.84   8
  -2   8  -2 2391.50  182.42   3
  -2   8  -2 2519.58  174.96   1
   2   8   2 2340.37  175.24   7
  -2   8  -2 2040.33  190.91   4
  -2   8  -2 2224.75  174.00   7
  -2   8  -2 2217.99  193.05   9
   2   8   2 2038.85  182.96   5
  -2   8  -2 2377.94  172.29   6
   2   8   2 2368.42  174.34   1
  -3  -8  -2 455.251  47.404   9
  -3  -8  -2 464.689  39.982   7
  -3  -8  -2 508.546  42.474   1
   3  -8   2 516.195  46.492   5
  -3  -8  -2 490.093  37.884  10
  -3  -8  -2 490.882  48.534   9
  -3  -8  -2 455.712  38.997   6
   3  -8   2 515.838  41.170   8
   3  -8   2 447.390  42.733   1
   3   8   2 506.458  43.061   7
  -3   8  -2 549.143  43.115   2
  -3   8  -2 563.632  41.595   6
  -3   8  -2 540.648  42.894   7
  -3   8  -2 413.388  42.220   1
  -3   8  -2 477.606  44.235   3
   3   8   2 478.398  42.205   3
  -3   8  -2 504.810  41.149   8
  -4  -8  -2 79.9709 14.3903   9
  -4  -8  -2 73.0941  7.9416   6
   4  -8   2 65.1790 13.5685   5
  -4  -8  -2 61.9148 11.1556   1
  -4  -8  -2 61.0319  8.6785   7
  -4  -8  -2 72.1536  8.0557   6
   4  -8   2 82.8545 11.2481   8
  -4  -8  -2 85.0692 15.7258   9
  -4  -8  -2 72.1646  9.6851  10
  -4   8  -2 60.7652 11.8731   2
  -4   8  -2 77.1844 13.8507   1
  -4   8  -2 78.4033 11.2641   6
  -4   8  -2 80.8378 12.7560   7
  -5  -8  -2 55.6605  8.2130   7
  -5  -8  -2 69.4356 11.0443   1
  -5  -8  -2 65.2878  9.3963  10
   5  -8   2 67.5885 11.5325   8
   5  -8   2 70.2234 13.2761   5
  -5  -8  -2 46.1256 13.9968   9
  -5  -8  -2 66.8311 13.3795   9
  -5   8  -2 79.6629 13.5894   2
  -5   8  -2 60.7807 12.2435   7
  -5   8  -2 75.0744 14.4118   1
  -6  -8  -2 66.8886 10.5189   1
  -6  -8  -2 56.2584  9.4734  10
  -6  -8  -2 57.8457 12.7977   9
  -6   8  -2 59.6180 13.2698   2
  -6   8  -2 80.9088 15.5823   1
  -7  -9   2 11.5802  8.3293   5
  -7   9   2 24.4534 10.6731   1
  -7   9   2 4.02017 8.14715   2
   7   9  -2 1.96632 7.40997   4
  -6  -9   2 90.8788 11.2327   9
   6  -9  -2 109.594  14.669   7
  -6  -9   2 84.3799 13.8568   5
  -6  -9   2 89.4353 11.1043   9
   6  -9  -2 84.6998 13.1501   8
  -6   9   2 76.2225 13.4157   7
   6   9  -2 81.9506 10.1421   3
  -6   9   2 76.9952 16.0372   1
  -6   9   2 70.3880 13.2914   2
   6   9  -2 95.3986 12.5360   4
  -5  -9   2 1166.05   99.79   9
  -5  -9   2 1301.67   99.57   5
   5  -9  -2 1155.13   94.39   7
   5  -9  -2 1281.70  102.97   5
   5  -9  -2 1036.21   92.61   8
  -5   9   2 1294.65  108.09   9
  -5   9   2 1356.05   94.95   6
   5   9  -2 1000.23   99.32   4
  -5   9   2 1177.64   96.79   1
  -5   9   2 1161.19   93.80   7
  -5   9   2 1168.72   94.96   2
   5   9  -2 1206.21   94.80   3
  -5   9   2 1119.85   99.67   5
  -4  -9   2 56.1542  6.0720   1
  -4  -9   2 60.6610 11.0502   5
   4  -9  -2 33.8170  9.4130   7
   4  -9  -2 38.1541  8.8241   8
  -4  -9   2 43.1320  9.3646   9
  -4  -9   2 46.9766  5.5930   1
   4  -9  -2 50.6891 12.6048   1
   4  -9  -2 29.0502 12.3190   5
  -4   9   2 38.2012 13.4067   9
  -4   9   2 55.4898 10.5980   3
   4   9  -2 55.8923  6.6998   8
  -4   9   2 56.5075 10.9897   5
   4   9  -2 39.5735  8.9714   4
   4   9  -2 67.7823  9.4606   3
  -4   9   2 55.8460 13.1674   1
  -4   9   2 46.3042 11.0887   6
  -4   9   2 55.5511  9.5826   2
  -4   9   2 44.6903 10.0694   7
  -3  -9   2 4015.60  317.45   5
   3  -9  -2 3872.49  300.30   1
   3  -9  -2 4005.96  298.36   8
  -3  -9   2 3891.67  296.44   1
  -3  -9   2 4040.20  325.81   9
   3  -9  -2 4078.66  322.38   5
  -3  -9   2 3880.15  292.14   6
  -3  -9   2 3936.12  295.45   7
   3  -9  -2 3585.56  298.33   7
  -3   9   2 4329.29  299.71   6
   3   9  -2 4037.71  309.80   3
   3   9  -2 4283.27  325.16   4
   3   9  -2 4082.92  297.52   7
  -3   9   2 3623.08  302.27   2
  -3   9   2 3523.59  310.86   3
  -3   9   2 3421.20  329.77   9
   3   9  -2 4113.15  296.35   8
  -3   9   2 4373.16  299.19   7
  -3   9   2 3310.67  298.94   1
  -3   9   2 4155.64  275.84  10
  -3   9   2 4080.94  316.67   5
   3   9  -2 3737.41  296.00   8
   2  -9  -2 583.069  50.635   7
  -2  -9   2 655.359  50.205   1
  -2  -9   2 608.823  46.263   6
   2  -9  -2 633.579  48.761   8
  -2  -9   2 643.508  54.159   5
   2  -9  -2 638.285  58.213   5
  -2  -9   2 607.944  47.454   7
  -2  -9   2 600.970  47.161   3
   2  -9  -2 568.514  51.695   1
   2  -9  -2 663.400  53.485   3
  -2  -9   2 588.577  47.973   1
  -2  -9   2 562.850  54.388   9
   2  -9  -2 548.529  51.895   6
  -2  -9   2 635.585  49.235   7
  -2  -9   2 579.691  47.696   6
   2  -9  -2 603.701  58.501   9
  -2   9   2 517.251  58.081   9
  -2   9   2 571.211  51.177   1
  -2   9   2 516.245  48.435   2
   2   9  -2 603.982  49.380   7
   2   9  -2 593.176  51.490   3
   2   9  -2 651.354  48.424   8
  -2   9   2 536.801  54.080   4
  -2   9   2 605.792  52.218   5
  -2   9   2 525.968  52.197   3
  -2   9   2 588.083  56.884   9
  -2   9   2 542.525  49.921   7
   2   9  -2 671.983  54.021   4
   2   9  -2 657.536  47.565   8
  -1  -9   2 460.558  46.946   9
  -1  -9   2 535.632  43.093   6
  -1  -9   2 470.238  39.601   6
   1  -9  -2 453.098  49.422   5
  -1  -9   2 536.766  41.808   1
   1  -9  -2 533.122  51.139   9
   1  -9  -2 493.525  44.503   1
  -1  -9   2 478.983  42.087   3
  -1  -9   2 416.440  45.682   5
  -1  -9   2 566.513  41.244   7
   1  -9  -2 539.630  41.445   6
   1  -9  -2 460.425  44.270   6
   1  -9  -2 521.030  44.011   7
  -1  -9   2 471.654  42.169   7
  -1  -9   2 435.500  46.701   9
   1  -9  -2 452.045  40.552   8
  -1   9   2 530.756  44.783   1
   1   9  -2 463.420  42.059   7
  -1   9   2 585.574  46.044   6
  -1   9   2 484.948  40.620   2
  -1   9   2 458.652  48.039   9
   1   9  -2 475.927  40.792   8
  -1   9   2 509.812  45.299   3
   1   9  -2 607.078  47.103   4
  -1   9   2 478.187  43.118   7
  -1   9   2 468.554  46.513   4
   1   9  -2 560.593  45.255   3
  -1   9   2 580.268  40.676  10
  -1   9   2 483.786  44.038   5
   1   9  -2 575.122  50.058   9
   1   9  -2 577.752  41.243   6
   1   9  -2 500.954  42.168   1
   0  -9  -2 210.070  22.439   1
   0  -9  -2 223.665  26.733   5
   0  -9   2 194.792  19.034   1
   0  -9  -2 152.802  19.158   6
   0  -9  -2 172.302  20.189   7
   0  -9  -2 158.847  24.243   9
   0  -9   2 200.627  16.914   6
   0  -9   2 164.142  21.352   5
   0  -9  -2 184.889  20.616   4
   0  -9   2 169.772  15.302   8
   0  -9   2 182.153  21.448   9
   0  -9  -2 169.945  20.482   1
   0  -9   2 196.966  15.386   8
   0  -9   2 186.390  20.262   1
   0  -9   2 192.086  17.937   7
   0  -9  -2 177.688  16.145   8
   0  -9  -2 197.178  17.510   8
   0  -9   2 168.396  19.983   6
   0  -9   2 201.858  19.525   7
   0  -9   2 192.185  22.302   9
   0   9   2 182.940  18.686   5
   0   9   2 208.535  27.597   9
   0   9  -2 221.006  22.052   4
   0   9  -2 178.227  23.379   9
   0   9  -2 174.462  18.993   1
   0   9   2 186.808  20.601   3
   0   9  -2 180.736  17.672   6
   0   9   2 185.763  20.524   1
   0   9   2 163.322  19.453   7
   0   9  -2 177.191  18.987   7
   0   9  -2 170.376  19.847   3
   0   9   2 178.469  15.546   2
   0   9  -2 162.687  21.130   9
   0   9   2 138.886  20.241   4
   0   9  -2 181.260  18.665   8
  -1  -9  -2 1167.68  104.57   6
   1  -9   2 1506.72  118.91   9
  -1  -9  -2 1368.63  118.03   5
  -1  -9  -2 1475.75  115.27   4
  -1  -9  -2 1395.98  106.52   7
  -1  -9  -2 1239.50  107.11   1
   1  -9   2 1308.90  106.71   6
   1  -9   2 1264.47  113.98   5
   1  -9   2 1472.28  107.15   1
  -1  -9  -2 1533.30  106.91   7
  -1  -9  -2 1207.08  118.66   9
   1  -9   2 1299.74  104.29   8
   1  -9   2 1410.29  118.01   9
   1  -9   2 1406.44  104.30   6
   1  -9   2 1493.26  106.83   7
  -1   9  -2 1303.82  118.50   9
  -1   9  -2 1337.28  105.42   8
  -1   9  -2 1347.54  106.36   7
  -1   9  -2 1416.46  107.97   2
   1   9   2 1499.67  107.68   1
  -1   9  -2 1308.83  106.71   1
   1   9   2 1369.01  111.35   5
   1   9   2 1336.20  120.88   9
  -1   9  -2 1326.60  104.49   6
  -1   9  -2 1316.29  117.70   9
  -1   9  -2 1448.51  112.35   3
   1   9   2 1196.86  110.25   3
   1   9   2 1444.93  107.86   7
  -1   9  -2 1187.68  116.31   4
   2  -9   2 -2.0238  5.7212   6
   2  -9   2 4.96606 7.79657   9
  -2  -9  -2 -1.4145  4.1836   7
  -2  -9  -2 -2.3762  5.3103   1
  -2  -9  -2 2.72128 8.29478   9
  -2  -9  -2 -7.0346  7.8516   9
   2  -9   2 1.81395 5.20724   8
   2  -9   2 2.05506 6.46601   1
  -2  -9  -2 1.01180 3.90718   6
   2  -9   2 5.35178 6.78218   5
  -2  -9  -2 4.78980 3.88396   6
   2   9   2 -0.2253  3.9316   5
  -2   9  -2 2.49263 6.66331   4
  -2   9  -2 8.63756 6.02115   7
   2   9   2 1.10770 6.56492   7
  -2   9  -2 19.1465  8.5726   8
   2   9   2 4.87972 5.15472   3
  -2   9  -2 0.44651 5.79749   3
  -2   9  -2 4.80089 7.05246   1
  -2   9  -2 -3.0322  4.9717   2
   3  -9   2 625.572  51.474   8
  -3  -9  -2 644.316  50.652   7
   3  -9   2 625.745  54.162   1
  -3  -9  -2 636.171  49.575   6
  -3  -9  -2 598.146  49.310   6
   3  -9   2 649.616  58.284   5
  -3  -9  -2 649.861  60.130   9
  -3  -9  -2 598.080  59.891   9
  -3  -9  -2 576.091  47.201  10
  -3  -9  -2 607.193  52.774   1
  -3   9  -2 567.005  51.277   8
  -3   9  -2 696.873  56.453   3
  -3   9  -2 650.940  54.415   1
  -3   9  -2 724.263  54.036   7
   3   9   2 655.646  53.559   3
   3   9   2 611.007  53.719   7
  -3   9  -2 607.043  53.178   2
  -4  -9  -2 187.775  15.452   6
   4  -9   2 138.932  21.270   5
  -4  -9  -2 166.398  15.349   6
  -4  -9  -2 215.390  24.361   9
   4  -9   2 181.076  19.045   8
  -4  -9  -2 149.903  23.476   9
  -4  -9  -2 164.340  16.549  10
  -4  -9  -2 162.058  19.193   1
  -4  -9  -2 203.601  17.341   7
  -4   9  -2 180.442  20.588   2
  -4   9  -2 149.814  19.862   7
  -4   9  -2 152.369  21.128   1
  -5  -9  -2 6.27508 8.45025   9
  -5  -9  -2 3.75648 4.76191   7
   5  -9   2 -0.2838  8.6724   5
  -5  -9  -2 2.35824 5.54231  10
  -5  -9  -2 4.42029 6.24256   1
  -5   9  -2 8.44301 9.50041   1
  -5   9  -2 6.25663 8.06286   7
  -5   9  -2 -3.2982  7.0763   2
  -6  -9  -2 59.6800 13.1000   9
  -6  -9  -2 40.9611  9.1766   1
  -6  -9  -2 36.0914  8.3225  10
  -6   9  -2 35.5884 11.4799   2
  -6   9  -2 41.9189 13.1779   1
  -7  10   2 322.504  32.873   1
  -7  10   2 303.490  30.915   2
   7  10  -2 272.285  30.827   4
  -6 -10   2 504.509  43.486   9
  -6 -10   2 513.202  45.258   5
   6 -10  -2 411.797  42.855   7
  -6 -10   2 425.823  43.100   9
   6  10  -2 513.169  45.240   4
  -6  10   2 481.461  43.693   2
  -6  10   2 540.704  47.445   1
  -6  10   2 489.290  43.517   7
   5 -10  -2 54.3472 11.8877   7
  -5 -10   2 64.6348 10.8022   9
   5 -10  -2 53.1332 10.5923   8
   5 -10  -2 68.3987 16.1771   5
  -5 -10   2 59.7742 12.1521   5
   5  10  -2 62.0451 10.8096   4
  -5  10   2 51.1002 15.3338   1
  -5  10   2 62.5115 11.5209   2
  -5  10   2 52.5470 12.5255   5
  -5  10   2 63.9839 12.4921   7
  -4 -10   2 356.472  27.959   7
   4 -10  -2 362.381  33.768   7
  -4 -10   2 333.980  28.585   1
  -4 -10   2 379.661  35.043   9
  -4 -10   2 335.534  34.762   5
   4 -10  -2 329.283  39.064   5
   4 -10  -2 316.779  31.766   8
  -4 -10   2 391.364  29.203   1
  -4  10   2 348.296  34.394   3
  -4  10   2 354.937  32.403   2
   4  10  -2 325.470  32.450   3
   4  10  -2 407.349  35.052   4
   4  10  -2 339.878  29.331   8
  -4  10   2 408.035  34.533   7
  -4  10   2 375.628  36.079   1
  -3 -10   2 306.151  25.170   6
   3 -10  -2 308.437  30.755   7
  -3 -10   2 350.399  33.083   5
  -3 -10   2 400.154  30.360   1
  -3 -10   2 309.995  32.499   9
  -3 -10   2 311.797  25.403   6
   3 -10  -2 360.439  38.469   5
   3 -10  -2 321.144  33.102   1
   3 -10  -2 312.682  29.275   8
  -3 -10   2 324.273  27.879   7
  -3 -10   2 344.764  27.834   1
   3  10  -2 321.428  32.361   4
   3  10  -2 339.186  27.770   8
  -3  10   2 320.432  32.934   1
   3  10  -2 328.204  30.686   3
  -3  10   2 306.437  29.070   2
   3  10  -2 318.266  29.916   7
  -3  10   2 363.409  31.499   7
  -3  10   2 418.231  34.183   3
  -3  10   2 282.894  31.201   5
  -2 -10   2 777.622  61.353   3
   2 -10  -2 917.137  65.904   7
   2 -10  -2 729.523  72.090   5
  -2 -10   2 870.163  64.219   1
   2 -10  -2 895.059  67.374   6
  -2 -10   2 856.917  62.255   1
  -2 -10   2 708.697  62.442   7
  -2 -10   2 720.669  69.814   9
   2 -10  -2 799.970  62.294   8
   2 -10  -2 654.003  64.946   1
  -2 -10   2 799.824  59.932   6
  -2 -10   2 851.891  69.425   5
  -2 -10   2 762.698  61.384   6
   2  10  -2 731.257  63.138   7
  -2  10   2 871.885  66.382   1
   2  10  -2 612.093  68.118   4
  -2  10   2 710.418  62.527   2
   2  10  -2 837.549  61.811   8
   2  10  -2 843.499  66.672   3
  -2  10   2 794.662  67.718   3
  -2  10   2 755.980  66.672   5
  -2  10   2 814.453  64.936   7
  -2  10   2 708.459  69.407   4
   1 -10  -2 134.065  14.161   8
  -1 -10   2 160.315  19.792   5
   1 -10  -2 152.836  18.058   7
  -1 -10   2 136.453  18.948   9
  -1 -10   2 123.755  14.857   1
  -1 -10   2 124.769  18.386   9
  -1 -10   2 136.791  14.323   7
  -1 -10   2 139.887  16.282   7
   1 -10  -2 167.312  23.880   5
   1 -10  -2 120.754  17.703   6
  -1 -10   2 137.408  16.472   6
  -1 -10   2 131.496  13.187   6
   1 -10  -2 122.197  14.478   6
   1 -10  -2 157.739  18.655   1
  -1  10   2 129.740  16.551   7
   1  10  -2 154.393  16.526   7
   1  10  -2 170.508  17.849   3
  -1  10   2 117.774  13.417   2
  -1  10   2 114.777  15.452   5
  -1  10   2 174.836  19.148   1
   1  10  -2 137.653  15.067   8
  -1  10   2 126.045  17.454   4
   1  10  -2 131.192  21.250   9
  -1  10   2 169.318  18.582   3
   1  10  -2 136.486  17.861   4
   0 -10   2 1352.97  101.26   8
   0 -10  -2 1400.55  107.08   7
   0 -10   2 1389.37  102.45   6
   0 -10  -2 1375.08  102.38   8
   0 -10   2 1432.98  116.96   9
   0 -10   2 1329.44  105.48   7
   0 -10   2 1348.54  116.62   9
   0 -10  -2 1324.78  105.73   6
   0 -10   2 1356.73  106.42   6
   0 -10  -2 1317.00  119.29   9
   0 -10   2 1357.97  104.81   1
   0 -10  -2 1402.51  103.24   6
   0 -10  -2 1264.39  101.93   8
   0 -10  -2 1541.84  108.06   1
   0 -10  -2 1154.19  115.96   5
   0 -10   2 1416.29  114.22   5
   0  10   2 1262.42  115.25   4
   0  10  -2 1235.85  104.94   1
   0  10   2 1246.48  109.94   5
   0  10   2 1366.66  106.77   1
   0  10  -2 1310.79  105.32   7
   0  10   2 1363.32  110.85   3
   0  10   2 1256.49  106.08   7
   0  10  -2 1098.09  109.63   3
   0  10  -2 1218.58  103.67   8
   0  10   2 1456.20  103.34   2
   0  10  -2 1460.35  116.03   4
  -1 -10  -2 1106.87  100.82   9
  -1 -10  -2 934.964  88.967   1
   1 -10   2 1119.25   88.99   7
   1 -10   2 1145.40   98.83   9
  -1 -10  -2 971.791  98.311   5
  -1 -10  -2 972.302  88.129   7
   1 -10   2 1156.01   89.17   1
   1 -10   2 1103.02   86.09   8
  -1 -10  -2 1146.86   86.30   6
   1 -10   2 1148.59   96.17   5
   1 -10   2 1176.53   86.61   6
   1 -10   2 1009.59   89.33   6
  -1 -10  -2 1061.66   87.41   6
  -1  10  -2 1150.76   89.54   2
   1  10   2 1171.19   92.46   5
   1  10   2 1224.93   90.83   7
  -1  10  -2 962.351  87.270   8
   1  10   2 1227.77   93.61   3
  -1  10  -2 1114.47   93.93   3
  -1  10  -2 1181.79   89.39   7
  -1  10  -2 1099.29   97.79   4
  -1  10  -2 1281.08   90.45   1
   2 -10   2 444.100  35.209   8
   2 -10   2 388.490  41.076   5
  -2 -10  -2 347.744  35.214   7
  -2 -10  -2 363.675  34.494   6
  -2 -10  -2 323.867  36.678   1
  -2 -10  -2 460.102  34.580   6
   2 -10   2 460.310  37.740   7
  -2 -10  -2 382.358  42.797   9
  -2 -10  -2 464.302  45.121   9
   2 -10   2 403.065  38.135   1
  -2 -10  -2 445.444  44.857   5
  -2  10  -2 440.523  37.996   7
  -2  10  -2 438.110  36.661   8
  -2  10  -2 435.847  38.675   1
   2  10   2 417.574  38.105   3
  -2  10  -2 436.861  40.090   3
   2  10   2 466.328  39.559   7
  -2  10  -2 382.795  36.842   2
  -3 -10  -2 8.28992 6.80966   1
  -3 -10  -2  3.8349 11.2521   9
  -3 -10  -2 -0.0731  4.8852   7
   3 -10   2 19.9744 10.4608   5
   3 -10   2 -8.3420  4.9559   7
   3 -10   2 6.22797 6.70678   8
  -3 -10  -2 1.52499 3.97490   6
  -3 -10  -2 5.69057 4.59977   6
   3 -10   2 -2.8202  6.3072   1
   3  10   2 3.42630 7.47792   7
  -3  10  -2 1.94572 7.70202   1
  -3  10  -2 2.33799 6.56353   2
  -3  10  -2 -1.0306  6.8493   3
  -3  10  -2 9.87301 7.83272   8
  -3  10  -2 5.81074 7.20220   7
  -4 -10  -2 11.2331  3.9171   6
  -4 -10  -2 -5.3177  8.2243   9
  -4 -10  -2 8.19972 3.91055   6
   4 -10   2 7.01815 7.19677   7
  -4 -10  -2 15.1507  5.8819   7
   4 -10   2 10.0702  7.4823   8
  -4 -10  -2 11.3910  7.2052   1
   4 -10   2 6.62172 9.30607   5
  -4  10  -2 15.4439  7.6364   2
  -4  10  -2 6.22158 7.14937   7
  -4  10  -2 6.73639 9.32310   1
  -5 -10  -2 400.982  39.856   9
  -5 -10  -2 360.447  33.715   1
   5 -10   2 332.168  38.982   5
  -5 -10  -2 384.159  31.133   7
  -5  10  -2 372.060  35.889   2
  -5  10  -2 343.629  37.985   1
  -6 -11   2 69.4856 13.8565   5
   6 -11  -2 92.4571 15.5445   7
  -6 -11   2 71.4198 11.8338   9
  -6  11   2 77.1283 13.6855   2
  -6  11   2 69.1620 18.3638   1
   6  11  -2 69.8123 13.5543   4
   5 -11  -2 46.3760 11.4544   7
  -5 -11   2 48.8665  9.7415   9
   5 -11  -2 26.0442 13.3700   5
  -5 -11   2 28.8655 10.3779   5
  -5  11   2 14.5124 13.0723   1
  -5  11   2 24.4215  9.8337   7
  -5  11   2 39.7140 11.3406   5
   5  11  -2 35.7761 10.1510   4
  -5  11   2 41.6126  9.8468   2
   4 -11  -2 9.38494 8.09980   8
   4 -11  -2 10.5251 10.9833   5
  -4 -11   2 9.61263 4.12928   1
  -4 -11   2 1.23629 6.65206   5
  -4 -11   2 4.34453 7.21383   9
   4 -11  -2 13.0057  7.6772   7
  -4 -11   2 8.49870 3.57122   7
  -4 -11   2 0.87836 4.54917   1
  -4  11   2 -0.3139  9.6482   1
  -4  11   2 2.75506 6.53057   2
  -4  11   2 15.1970  8.4491   7
  -4  11   2 5.76079 7.80610   5
   4  11  -2 16.1594  8.0953   4
   3 -11  -2 45.0217 12.5075   1
  -3 -11   2 50.6895 11.5630   9
   3 -11  -2 48.3130 15.3774   5
  -3 -11   2 35.2980  5.1092   6
   3 -11  -2 40.9590  9.1319   8
   3 -11  -2 74.1180 12.4533   7
  -3 -11   2 47.2760  5.0469   6
  -3 -11   2 30.7954 10.8191   5
  -3 -11   2 55.2562  8.3805   7
  -3 -11   2 51.7889  8.0428   1
   3  11  -2 45.8195 11.2215   4
  -3  11   2 38.2179  8.5874   2
   3  11  -2 26.8979  9.7309   8
  -3  11   2 39.6188 10.9574   3
  -3  11   2 62.9734 13.9748   1
  -3  11   2 37.8067 10.4065   7
  -3  11   2 35.3492  9.7043   5
  -2 -11   2 169.833  18.140   6
  -2 -11   2 176.336  23.077   5
   2 -11  -2 165.955  21.103   7
   2 -11  -2 178.003  22.681   1
  -2 -11   2 204.301  23.943   9
   2 -11  -2 179.765  18.674   8
   2 -11  -2 211.440  27.840   5
  -2 -11   2 183.047  19.595   7
  -2 -11   2 224.959  19.858   1
  -2 -11   2 190.367  16.875   6
   2  11  -2 201.883  20.182   8
   2  11  -2 160.055  22.160   4
  -2  11   2 181.896  22.461   1
   2  11  -2 211.364  22.162   3
   2  11  -2 216.854  21.233   7
  -2  11   2 209.672  23.714   3
  -2  11   2 194.323  21.135   5
  -2  11   2 213.248  19.368   2
   1 -11  -2 372.701  36.498   7
   1 -11  -2 401.745  37.658   6
  -1 -11   2 388.917  34.282   1
   1 -11  -2 409.538  43.076   5
  -1 -11   2 383.530  39.397   5
  -1 -11   2 505.940  41.881   9
   1 -11  -2 381.715  36.972   1
  -1 -11   2 335.832  31.612   6
   1 -11  -2 397.778  32.498   8
  -1 -11   2 423.087  35.694   7
  -1 -11   2 352.519  34.523   6
  -1  11   2 385.423  36.600   1
  -1  11   2 380.500  32.659   2
  -1  11   2 421.013  36.628   5
  -1  11   2 344.225  35.525   7
   1  11  -2 412.164  37.430   3
   1  11  -2 347.688  35.037   7
  -1  11   2 388.958  37.506   3
   1  11  -2 410.794  39.133   4
   1  11  -2 424.090  34.593   8
  -1  11   2 366.461  38.917   4
   0 -11  -2 686.457  57.460   6
   0 -11  -2 755.085  52.699   8
   0 -11   2 609.847  57.234   6
   0 -11   2 694.071  62.399   5
   0 -11  -2 741.354  58.851   1
   0 -11  -2 732.594  54.857   6
   0 -11  -2 604.144  64.805   5
   0 -11  -2 623.497  57.760   7
   0 -11   2 705.747  56.475   1
   0 -11   2 652.507  53.582   6
   0 -11   2 687.057  64.029   9
   0 -11   2 695.181  56.907   7
   0  11   2 727.600  60.529   3
   0  11   2 598.942  61.790   4
   0  11   2 599.835  57.324   7
   0  11  -2 612.859  61.763   4
   0  11  -2 660.489  55.371   8
   0  11  -2 593.858  55.881   2
   0  11  -2 587.173  59.160   3
   0  11   2 801.369  59.262   5
   0  11  -2 711.270  57.463   7
   1 -11   2 27.1953 11.1999   5
  -1 -11  -2 12.9581  8.2353   1
   1 -11   2 10.9128  8.3858   6
  -1 -11  -2 23.2097  6.6526   6
   1 -11   2 22.8513  7.7756   7
   1 -11   2 17.3638  5.3089   8
  -1 -11  -2 25.2420  8.3696   7
  -1 -11  -2 16.0326  7.4141   6
   1 -11   2 22.9491  8.4564   1
  -1 -11  -2 -0.8448 10.1860   5
  -1  11  -2 1.08456 8.95812   8
   1  11   2 52.4547 11.2360   3
   1  11   2 21.8066  6.7648   5
  -1  11  -2 3.54201 6.55254   7
  -1  11  -2 12.4988  6.4875   2
  -1  11  -2 2.58336 7.26095   3
  -1  11  -2 5.25802 9.39196   4
   1  11   2 7.18615 8.42930   4
   1  11   2 8.71134 7.69192   7
  -2 -11  -2 221.058  29.723   5
   2 -11   2 227.949  20.263   8
   2 -11   2 162.597  22.245   1
  -2 -11  -2 200.495  19.056   6
   2 -11   2 171.284  25.375   5
   2 -11   2 241.192  23.144   7
  -2 -11  -2 191.976  19.596   6
  -2 -11  -2 226.999  23.488   1
  -2 -11  -2 195.249  20.865   7
  -2  11  -2 228.150  25.457   3
  -2  11  -2 176.628  22.519   7
   2  11   2 211.829  24.284   7
  -2  11  -2 181.900  23.225   1
  -2  11  -2 188.622  21.062   8
  -2  11  -2 201.221  21.268   2
  -3 -11  -2 356.976  39.522   5
   3 -11   2 356.759  30.677   8
  -3 -11  -2 334.111  28.050   6
  -3 -11  -2 316.241  28.376   6
  -3 -11  -2 324.237  29.604   7
   3 -11   2 348.564  38.080   5
  -3 -11  -2 296.207  31.642   1
   3 -11   2 336.282  32.655   7
   3 -11   2 308.742  33.386   1
  -3 -11  -2 309.278  38.660   9
  -3  11  -2 392.664  36.024   1
  -3  11  -2 350.415  31.520   8
  -3  11  -2 365.478  33.657   7
  -3  11  -2 367.148  35.876   3
  -3  11  -2 311.135  32.071   2
   4 -11   2 31.5016 13.7729   5
  -4 -11  -2 20.8311  6.6385   7
  -4 -11  -2 14.7365  8.5264   1
  -4 -11  -2 23.4640  5.0725   6
   4 -11   2 21.9559  9.4387   7
  -4 -11  -2 29.6473  5.3280   6
  -4 -11  -2 37.6295 13.8488   9
  -4  11  -2 30.6491 11.8388   1
  -4  11  -2 35.3443 11.9077   7
  -4  11  -2 19.9424  9.6268   2
  -5 -11  -2 916.742  72.698   1
  -5 -11  -2 852.391  82.429   9
  -5  11  -2 878.326  75.823   2
  -5  11  -2 922.112  78.967   1
  -6 -12   2 514.795  46.225   5
   6 -12  -2 480.792  45.208   7
  -6  12   2 465.271  44.065   2
   6  12  -2 464.929  46.340   4
  -6  12   2 448.153  48.499   1
  -5 -12   2 1.75159 7.34583   9
   5 -12  -2 -8.8226 10.3123   5
  -5 -12   2 -8.4171  6.7380   5
   5 -12  -2 8.09814 7.94076   7
  -5  12   2 6.13475 7.00066   2
  -5  12   2 -3.8051 11.2985   1
   5  12  -2 -5.3086  6.6523   4
   4 -12  -2 710.451  70.342   5
  -4 -12   2 669.045  55.686   1
   4 -12  -2 691.959  58.948   8
   4 -12  -2 760.216  61.392   7
  -4 -12   2 708.864  64.877   9
  -4 -12   2 790.366  64.932   5
   4  12  -2 688.326  64.288   4
  -4  12   2 643.013  60.450   7
  -4  12   2 727.421  59.975   2
  -4  12   2 778.963  64.418   1
  -4  12   2 686.816  63.657   5
   3 -12  -2 6.36232 9.04532   1
  -3 -12   2 9.60494 5.43118   1
   3 -12  -2  0.0484 10.9782   5
   3 -12  -2 2.79867 5.83717   7
  -3 -12   2 3.48427 7.40037   5
  -3 -12   2 11.5746  5.3581   7
  -3 -12   2 2.93378 8.22683   9
   3 -12  -2 -6.7177  6.4902   8
  -3 -12   2 3.52137 3.12997   6
  -3 -12   2 5.28088 2.90054   6
  -3  12   2 14.0201  8.3950   7
  -3  12   2 -12.101   8.041   1
   3  12  -2 13.4114  8.5061   4
  -3  12   2 -1.2667  6.5726   5
  -3  12   2 -1.7858  7.6031   3
   3  12  -2 -0.0585  9.1110   8
  -3  12   2 -0.1571  5.9002   2
   2 -12  -2 10.8310  6.7389   8
  -2 -12   2 3.17336 5.87589   7
   2 -12  -2 -0.3358  7.5030   1
   2 -12  -2 -0.1803  9.6373   5
  -2 -12   2 1.94606 3.81308   6
  -2 -12   2 12.5865  5.8061   6
   2 -12  -2 -0.2715  6.6578   7
  -2 -12   2 12.8494  8.2228   5
  -2 -12   2 -1.2893  5.6444   1
  -2  12   2 5.28446 5.49602   2
   2  12  -2 0.57752 7.66784   4
  -2  12   2 4.21182 7.04422   5
  -2  12   2 -0.9759  6.0139   3
  -2  12   2 2.05705 8.35364   1
  -2  12   2 0.46948 5.94771   7
   2  12  -2 21.3732  8.7724   8
  -1 -12   2 7.34495 7.26082   7
   1 -12  -2 13.1795  8.6250   7
  -1 -12   2 7.20335 8.65107   5
   1 -12  -2 14.4903  9.5819   1
  -1 -12   2 15.7009  5.0322   6
  -1 -12   2 16.1293  7.8433   6
  -1 -12   2 14.1639  7.1088   1
   1 -12  -2 15.4180 11.9251   5
   1 -12  -2 8.52834 5.59060   8
   1  12  -2 13.6585  9.0150   8
   1  12  -2 12.6698  8.5140   4
  -1  12   2 15.7281  7.1610   5
  -1  12   2 15.0814  8.2054   7
  -1  12   2 9.66891 8.06117   3
   1  12  -2 16.4369  7.6901   7
   0 -12   2 319.152  28.714   1
   0 -12  -2 252.091  29.370   1
   0 -12   2 272.732  25.235   6
   0 -12   2 262.964  32.240   5
   0 -12  -2 255.030  29.093   7
   0 -12  -2 274.512  28.872   6
   0 -12   2 304.354  28.809   7
   0 -12  -2 293.839  36.559   5
   0 -12   2 363.182  31.261   6
   0  12   2 266.585  29.212   7
   0  12  -2 249.923  28.411   7
   0  12   2 345.485  28.995   5
   0  12  -2 272.671  27.343   2
   0  12  -2 271.390  28.032   8
   0  12  -2 279.869  31.290   4
   0  12   2 300.803  31.871   4
  -1 -12  -2 -5.0106  4.4620   6
   1 -12   2 -6.0089  6.3189   1
  -1 -12  -2 -6.3878  9.2354   5
  -1 -12  -2 2.17790 6.16529   6
   1 -12   2 1.78914 6.94677   7
  -1 -12  -2 -1.9591  6.3262   7
  -1 -12  -2 2.60352 7.23666   1
   1 -12   2 6.01728 9.62397   5
  -1  12  -2 5.03080 6.70673   2
  -1  12  -2 1.91173 8.14306   7
  -1  12  -2 -0.4121  7.9535   8
   1  12   2 10.9798  8.6837   7
   1  12   2 -4.8789  9.0559   4
  -2 -12  -2 92.9333 21.5617   5
  -2 -12  -2 119.039  13.189   6
   2 -12   2 141.304  14.352   8
  -2 -12  -2 120.312  14.446   6
  -2 -12  -2 127.838  16.034   7
   2 -12   2 104.310  20.175   5
   2 -12   2 102.428  17.171   1
  -2 -12  -2 126.767  17.524   1
   2 -12   2 115.212  16.989   7
   2  12   2 91.3671 18.0267   7
  -2  12  -2 113.727  15.363   8
  -2  12  -2 118.659  17.661   7
  -2  12  -2 131.271  15.920   2
   3 -12   2 14.8276 12.7026   5
  -3 -12  -2 11.5551  5.1075   6
  -3 -12  -2 -10.316  10.285   5
  -3 -12  -2 16.6728  7.1417   7
  -3 -12  -2 4.68745 5.10852   6
  -3 -12  -2 12.7824 12.3180   9
   3 -12   2 9.58507 7.33761   7
  -3 -12  -2 10.9614  8.1025   1
   3 -12   2 11.4196  7.4973   8
   3 -12   2 6.05520 9.25297   1
  -3  12  -2 11.1826  8.2583   7
  -3  12  -2 24.6600 10.3327   8
  -3  12  -2 11.1779  7.9502   2
  -4 -12  -2 481.676  42.497   1
  -4 -12  -2 456.148  39.551   7
  -4 -12  -2 459.427  51.409   5
   4 -12   2 468.597  50.597   5
  -4 -12  -2 481.324  37.210   6
  -4 -12  -2 478.412  51.328   9
  -4 -12  -2 484.427  37.209   6
  -4  12  -2 408.199  42.867   2
  -4  12  -2 492.426  47.446   1
  -5 -13   2 63.0228 14.0961   5
  -5 -13   2 42.9118 11.9572   9
  -5  13   2 54.9622 12.4413   2
  -5  13   2 36.2280 13.7273   1
   5  13  -2 27.8610 11.9069   4
   4 -13  -2 -6.4001  7.5265   7
   4 -13  -2  5.2985 12.3485   5
  -4 -13   2 9.30576 5.00999   1
  -4 -13   2 13.1314  8.8535   5
   4  13  -2 14.0900  9.6499   4
  -4  13   2 8.32583 9.19218   5
  -4  13   2 8.42066 7.49494   2
  -4  13   2 10.3045 11.5079   1
  -3 -13   2 8.62328 9.19783   5
  -3 -13   2 6.69417 3.35358   6
   3 -13  -2 8.08364 8.18240   7
  -3 -13   2 18.2846  6.3456   7
  -3 -13   2 8.72400 5.43680   1
   3 -13  -2 14.9671  8.0500   8
  -3 -13   2 10.3589  3.8663   6
   3 -13  -2  9.8817 12.2419   5
   3  13  -2 10.0406  9.0089   4
  -3  13   2 3.59808 7.68743   5
   3  13  -2 -17.555   8.711   8
  -3  13   2 15.0834  8.1529   7
  -3  13   2  2.0234 11.4421   1
  -3  13   2 12.8788  7.2371   2
  -2 -13   2 200.302  21.017   6
  -2 -13   2 244.471  28.433   5
   2 -13  -2 199.343  30.568   5
   2 -13  -2 249.650  22.325   8
  -2 -13   2 246.753  23.467   7
   2 -13  -2 196.139  26.264   1
   2 -13  -2 251.921  25.783   7
  -2 -13   2 244.115  20.151   6
  -2 -13   2 223.001  22.547   1
   2  13  -2 198.932  23.505   8
  -2  13   2 215.274  25.589   7
   2  13  -2 193.880  25.935   4
  -2  13   2 234.474  25.443   5
   1 -13  -2 208.051  25.817   1
  -1 -13   2 221.108  23.637   6
  -1 -13   2 242.313  24.174   7
   1 -13  -2 269.787  26.438   7
  -1 -13   2 196.265  27.551   5
  -1 -13   2 203.188  23.103   1
  -1 -13   2 213.040  20.316   6
   1 -13  -2 249.071  31.885   5
   1  13  -2 183.496  25.998   4
   1  13  -2 205.067  23.592   8
   1  13  -2 271.145  26.181   7
  -1  13   2 243.332  25.048   5
  -1  13   2 226.700  26.070   7
   0 -13  -2 394.729  37.580   7
   0 -13   2 352.455  35.581   1
   0 -13   2 411.938  37.684   6
   0 -13  -2 414.215  45.131   5
   0 -13   2 369.187  40.263   5
   0 -13  -2 389.521  37.958   1
   0 -13   2 386.727  36.628   7
   0  13  -2 333.326  34.313   2
   0  13   2 372.990  36.214   5
   0  13   2 416.870  38.948   7
   0  13  -2 393.585  35.607   8
   0  13  -2 410.284  37.333   7
  -1 -13  -2 13.8944  8.7517   1
   1 -13   2 29.1783  9.7830   1
  -1 -13  -2 -6.6921  9.8646   5
  -1 -13  -2 25.9610  8.9343   7
   1 -13   2 27.7456 10.1292   7
   1 -13   2 31.0374 12.4598   5
  -1 -13  -2 20.7450  8.1020   6
   1  13   2 33.6590 11.4476   7
  -1  13  -2 20.9036  8.6612   2
  -1  13  -2 26.2884 10.4607   7
   1  13   2  7.6391 11.1939   4
  -2 -13  -2 190.372  31.875   5
   2 -13   2 275.703  27.958   1
  -2 -13  -2 211.982  21.123   6
   2 -13   2 199.931  29.788   5
  -2 -13  -2 257.705  23.127   6
   2 -13   2 206.433  25.613   7
  -2 -13  -2 235.988  24.572   7
  -2 -13  -2 229.413  25.602   1
  -2  13  -2 232.775  24.502   2
  -2  13  -2 228.697  26.754   7
  -3 -13  -2 225.108  20.340   6
  -3 -13  -2 195.806  22.176   7
   3 -13   2 248.186  23.396   8
  -3 -13  -2 229.282  20.988   6
  -3 -13  -2 219.235  33.286   5
  -3 -13  -2 223.995  24.571   1
   3 -13   2 183.025  30.196   5
  -3  13  -2 246.004  25.198   2
   4 -13   2 -0.3345 14.0459   5
  -4 -13  -2 12.6366  4.4789   6
  -4 -13  -2 25.4565 14.0631   5
  -4  13  -2 6.47309 9.09908   2
  -4 -14   2 296.449  32.388   5
  -4 -14   2 259.722  24.766   1
   4 -14  -2 233.980  36.660   5
  -4  14   2 353.392  29.690   2
   4  14  -2 249.163  30.861   4
  -3 -14   2 122.918  14.995   7
  -3 -14   2 154.206  21.868   5
  -3 -14   2 135.008  12.028   6
  -3 -14   2 122.859  12.317   6
  -3 -14   2 134.419  15.529   1
   3 -14  -2 131.628  26.324   5
  -3  14   2 179.796  20.859   5
   3  14  -2 120.318  19.987   4
  -2 -14   2 251.548  33.809   5
   2 -14  -2 275.078  33.376   1
   2 -14  -2 355.718  40.555   5
  -2 -14   2 319.547  27.605   6
  -2 -14   2 313.868  29.672   7
  -2 -14   2 301.540  29.296   1
  -2 -14   2 283.394  26.025   6
   2  14  -2 383.668  36.092   4
  -2  14   2 276.806  31.409   7
  -2  14   2 350.490  32.695   5
  -1 -14   2 137.478  17.711   1
   1 -14  -2 154.049  26.025   5
  -1 -14   2 119.139  14.169   6
   1 -14  -2 175.425  22.159   1
  -1 -14   2 117.846  16.911   6
  -1 -14   2 153.659  18.253   7
  -1 -14   2 130.815  21.925   5
  -1  14   2 135.853  18.442   5
  -1  14   2 132.441  20.156   7
   1  14  -2 139.759  20.848   4
   0 -14   2 647.765  61.888   5
   0 -14  -2 606.866  64.263   5
   0 -14   2 581.514  54.849   1
   0 -14  -2 642.488  57.442   1
   0 -14   2 596.541  55.511   6
   0  14  -2 664.924  54.752   2
   0  14   2 620.967  57.176   7
   0  14  -2 730.492  58.043   7
  -1 -14  -2 625.063  58.542   5
  -1 -14  -2 485.933  45.280   6
   1 -14   2 540.308  48.004   1
  -1 -14  -2 473.850  47.199   1
   1 -14   2 515.612  52.542   5
   1  14   2 483.523  49.141   7
  -1  14  -2 565.131  46.560   2
  -1  14  -2 519.814  48.315   7
   2 -14   2 204.065  28.327   5
  -2 -14  -2 172.316  19.106   6
  -2 -14  -2 162.419  17.600   6
   2 -14   2 185.723  23.213   1
  -2 -14  -2 199.668  30.933   5
  -2 -14  -2 151.570  21.388   1
  -2  14  -2 176.335  20.818   2
   3 -14   2  8.8201 13.0370   5
  -3 -14  -2 10.8904  8.2322   1
  -3 -14  -2 12.6707  5.9818   6
  -3 -14  -2  6.7211 13.0470   5
  -3 -14  -2 7.78251 5.45095   6
  -3  14  -2 24.2421 10.3077   2
  -3 -15   2 1236.63   98.27   6
  -3 -15   2 1334.66   98.25   6
  -3 -15   2 1379.39  114.95   5
   3 -15  -2 1403.03  120.54   5
  -3 -15   2 1308.43  102.53   1
   3  15  -2 1223.35  115.11   4
  -2 -15   2 343.835  29.241   6
  -2 -15   2 323.494  38.283   5
   2 -15  -2 412.989  39.097   1
   2 -15  -2 352.204  42.948   5
  -2 -15   2 323.495  32.219   1
  -2 -15   2 367.516  30.504   6
   2  15  -2 326.592  38.276   4
  -2  15   2 312.865  35.464   5
   1 -15  -2 218.572  32.638   5
  -1 -15   2 221.384  29.637   5
  -1 -15   2 242.559  23.943   6
   1 -15  -2 197.853  27.387   1
  -1 -15   2 235.246  25.138   1
  -1  15   2 202.525  26.974   7
   0 -15  -2 40.6864 13.7285   1
   0 -15  -2 45.3493 17.4197   5
   0 -15   2 39.7132 11.5849   1
   0 -15   2 61.9388 16.9226   5
   0  15   2 47.7630 14.1868   7
   1 -15   2 730.596  58.329   1
  -1 -15  -2 609.268  57.314   1
   1 -15   2 736.013  64.758   5
  -1 -15  -2 660.988  66.172   5
  -1  15  -2 584.375  57.298   7
  -1  15  -2 567.945  54.624   2
  -9   0   3 1058.57   88.76   2
  -8   0   3 3.77621 2.38908  10
  -8   0   3 -1.2674  4.4330   9
  -8   0   3 -0.7962  2.0886  10
  -8   0   3 3.29321 5.33435   9
   8   0  -3 5.93447 7.87847   4
  -8   0   3 -4.9753  6.6448   2
  -7   0   3 981.868  66.256  10
  -7   0   3 1018.22   78.02   2
  -7   0   3 910.250  79.711   9
   7   0  -3 897.191  80.482   4
  -7   0   3 922.941  80.427   9
  -6   0   3 1.39699 4.00176   9
  -6   0   3 -0.1197  2.1174  10
   6   0  -3 5.82569 2.56927   3
  -6   0   3 -0.3588  4.8386   2
  -6   0   3 -0.8789  4.1017   9
   6   0  -3 1.18359 3.09635   7
  -6   0   3 1.64083 4.15093   5
   6   0  -3 0.34262 3.26619   4
   5   0  -3 431.957  32.211   7
  -5   0   3 374.987  34.774   2
  -5   0   3 409.796  29.131  10
  -5   0   3 408.340  34.376   5
  -5   0   3 347.086  36.003   9
   5   0  -3 426.126  33.290   7
  -5   0   3 413.400  36.048   9
   5   0  -3 418.333  32.816   3
   4   0  -3 3.90998 2.05424   3
  -4   0   3 2.67793 3.37136   9
   4   0  -3 6.39295 2.82106   7
  -4   0   3 3.60170 3.89032   2
  -4   0   3 0.05718 1.71000   1
  -4   0   3 -0.1671  1.7540  10
  -4   0   3 2.93918 2.44489   5
   4   0  -3 2.10961 3.25718   1
   4   0  -3 3.47974 2.17664   7
  -4   0   3 1.75948 1.91745   1
   3   0  -3 1915.60  153.88   5
   3   0  -3 1928.16  144.77   1
  -3   0   3 2174.23  153.49   5
   3   0  -3 2232.79  159.63   9
  -3   0   3 1884.35  144.08   1
  -3   0   3 1794.96  132.96  10
   3   0  -3 1723.56  157.82   9
  -3   0   3 1913.59  144.78   1
   3   0  -3 1755.17  150.71   3
   3   0  -3 1865.50  144.05   7
   2   0  -3 4.42001 2.10055   8
   2   0  -3 3.89139 2.38645   7
   2   0  -3 4.46952 3.79686   9
   2   0  -3 -2.1508  1.6766  10
   2   0  -3 -0.0656  2.9240   8
   2   0  -3 -0.0637  2.4222   1
  -2   0   3 -1.4509  2.0187   7
  -2   0   3 2.62287 3.52669   9
  -2   0   3 -3.1462  2.6113   1
  -2   0   3 3.74525 2.04798  10
   2   0  -3 1.55901 2.36937   7
  -2   0   3 3.28811 2.68542   1
   2   0  -3 -1.0739  2.2834   6
  -2   0   3 2.15063 3.83700   9
   2   0  -3 0.04014 2.86944   9
  -2   0   3 2.51793 2.67678   5
  -2   0   3 0.21784 1.63071   3
  -2   0   3 1.94956 2.86941   6
   2   0  -3 0.03514 2.33921   3
  -1   0   3 914.649  74.645   1
  -1   0   3 933.889  77.135   3
  -1   0   3 959.104  74.047   7
  -1   0   3 1117.76   82.77   9
   1   0  -3 1010.56   73.88   6
  -1   0   3 888.969  73.838   8
   1   0  -3 907.396  81.789   9
   1   0  -3 1078.43   74.71   1
  -1   0   3 862.162  73.674   6
   1   0  -3 1094.71   82.66   9
  -1   0   3 1040.99   73.96   8
   1   0  -3 1037.62   75.03   1
   1   0  -3 1085.42   77.53   3
  -1   0   3 928.995  68.452  10
   1   0  -3 886.934  81.390   4
  -1   0   3 946.139  74.371   1
  -1   0   3 997.274  82.011   9
   1   0  -3 896.374  68.361  10
   1   0  -3 966.900  74.166   8
   0   0   3 0.46587 3.05230   5
   0   0  -3 2.39799 3.15572   1
   0   0   3 5.93928 3.46492   1
   0   0   3 2.78654 3.22290   1
   0   0   3 -0.4098  3.8971   9
   0   0   3 4.79590 4.13605   9
   0   0   3 -2.2482  2.2720   6
   0   0  -3 -1.9122  3.0526   8
   0   0  -3 0.95717 2.44578   7
   0   0  -3 2.96813 2.50950   3
   0   0   3 2.64037 3.61318   4
   0   0   3 3.28901 2.38833  10
   0   0  -3 -1.2431  3.0083   1
   0   0  -3 -6.1465  3.4978   4
   0   0  -3 1.00463 3.54663   9
   0   0   3 2.04015 2.77531   8
   0   0   3 -0.7560  2.2371   3
   0   0   3 -2.6189  1.7979   7
   0   0  -3 2.77324 2.85525   6
  -1   0  -3 395.159  29.400   1
  -1   0  -3 348.336  28.024   6
   1   0   3 342.635  28.062   6
   1   0   3 344.633  31.370   4
  -1   0  -3 371.982  32.261   9
   1   0   3 344.915  30.398   5
  -1   0  -3 374.387  29.576   1
  -1   0  -3 308.513  28.023   7
   1   0   3 369.422  28.389   7
  -1   0  -3 414.758  33.122   9
  -1   0  -3 312.241  31.439   4
   1   0   3 313.822  31.884   9
   1   0   3 305.039  27.812   8
  -1   0  -3 318.617  27.947   8
  -1   0  -3 356.433  26.207  10
   1   0   3 358.320  29.193   1
   1   0   3 365.325  29.364   3
   1   0   3 394.221  29.177   1
  -2   0  -3 16.2295  3.9046   6
  -2   0  -3 -1.8899  3.7095   1
   2   0   3 6.46863 5.02237   9
  -2   0  -3 5.06227 3.32318   7
  -2   0  -3 2.12838 3.72951   8
   2   0   3 0.43136 3.43645   1
   2   0   3 -2.4113  2.3179   3
  -2   0  -3 1.31013 3.66158   2
  -2   0  -3 -1.1106  3.0814   1
  -2   0  -3 -0.0622  2.5560  10
   2   0   3 2.80795 3.39297   8
  -2   0  -3 6.36018 4.40910   9
   2   0   3 0.29066 3.49034   5
   2   0   3 2.83213 4.13585   9
  -2   0  -3 0.73612 3.79953   4
  -2   0  -3 7.29839 4.65154   9
   2   0   3 3.56993 4.05144   4
   2   0   3 4.89098 3.11661   6
  -3   0  -3 644.629  48.977   8
  -3   0  -3 615.481  46.578  10
  -3   0  -3 593.119  57.043   9
   3   0   3 659.814  51.326   1
   3   0   3 665.480  56.976   9
  -3   0  -3 685.523  51.643   1
  -3   0  -3 625.284  51.739   1
  -3   0  -3 685.984  50.532   7
   3   0   3 586.732  55.660   4
   3   0   3 629.378  52.262   3
   3   0   3 648.121  53.749   5
  -3   0  -3 531.759  49.345   6
  -3   0  -3 606.617  55.292   4
  -3   0  -3 722.670  57.226   9
   3   0   3 574.155  56.319   9
  -3   0  -3 703.774  51.773   2
  -4   0  -3 2.00863 4.15016   7
  -4   0  -3 3.06619 4.83303   2
   4   0   3 -1.1577  3.6538   5
  -4   0  -3 0.13775 3.53426   6
  -4   0  -3 9.19497 6.98723   9
  -4   0  -3 -2.7954  5.2573   1
  -4   0  -3 2.91014 5.92920   9
  -4   0  -3 0.71430 3.51955  10
  -5   0  -3 377.091  33.202   2
  -5   0  -3 422.630  30.366  10
  -5   0  -3 416.655  34.561   1
  -5   0  -3 288.914  36.150   9
  -5   0  -3 380.142  30.989   6
  -5   0  -3 350.698  31.908   7
  -6   0  -3 -2.1632  5.0784   7
  -6   0  -3 2.57409 8.00742   9
  -6   0  -3 -5.3456  5.4377   2
  -6   0  -3 -2.0887  5.1125  10
  -6   0  -3 1.81518 4.20702   6
  -6   0  -3 -8.9394  5.7642   1
  -7   0  -3 29.6232  9.8648   2
  -7   0  -3 12.6578  8.6925   1
  -7   0  -3 37.7598  6.4418   6
  -9  -1   3 50.3757 12.8954   2
  -9   1   3 73.6951 10.4387   9
  -9   1   3 57.6381  6.1926  10
  -9   1   3 54.4313 13.4587   2
  -9   1   3 49.1403  6.1376  10
  -8  -1   3 1801.80  146.29   9
  -8  -1   3 1721.27  141.18   2
  -8   1   3 1845.89  148.47   9
  -8   1   3 1775.44  141.59   2
  -8   1   3 1699.36  149.24   9
   8   1  -3 1756.36  149.33   4
  -8   1   3 1766.53  123.86  10
  -7  -1   3 5.08650 3.22651   9
  -7  -1   3 9.83794 6.59574   2
   7  -1  -3 7.46316 6.40538   4
  -7  -1   3 4.16166 3.72828   9
  -7   1   3 3.90230 5.14420   9
   7   1  -3 11.2580  4.6639   4
  -7   1   3 0.92625 3.06309  10
  -7   1   3 -0.1607  5.9856   2
  -7   1   3 4.92270 5.55596   9
   6  -1  -3 20.8318  5.3875   4
  -6  -1   3 11.9111  5.9049   2
   6  -1  -3 17.3608  4.1520   3
   6  -1  -3 15.2988  4.5453   7
  -6  -1   3 21.4053  3.8755   9
  -6  -1   3 15.0746  4.1264   9
  -6  -1   3 20.7756  4.4919   5
  -6   1   3 18.2665  3.7044  10
  -6   1   3 29.9263  7.2045   9
  -6   1   3 20.2141  5.9775   5
  -6   1   3 10.8705  6.0185   2
   6   1  -3 20.8965  3.5722   7
   6   1  -3 14.5654  2.6753   3
  -6   1   3 5.80885 5.50266   9
   6   1  -3 14.9462  3.3076   7
  -5  -1   3 1223.12   94.44   9
  -5  -1   3 1076.03   92.42   5
  -5  -1   3 1161.34   91.42   5
   5  -1  -3 1087.05   86.82   7
  -5  -1   3 1090.38   94.10   9
  -5  -1   3 1267.94   90.76   2
   5  -1  -3 1056.25   89.90   3
  -5   1   3 1188.44   85.91   1
   5   1  -3 1128.05   86.45   7
  -5   1   3 1030.22   95.93   9
  -5   1   3 1074.66   90.17   2
  -5   1   3 1064.34   79.60  10
  -5   1   3 1210.12   92.62   5
  -5   1   3 1226.28   85.81   1
   5   1  -3 1085.86   85.58   7
  -5   1   3 1175.38   96.99   9
   4  -1  -3 661.510  54.126   3
   4  -1  -3 740.151  56.792   9
  -4  -1   3 683.149  46.927  10
   4  -1  -3 665.348  52.590   7
  -4  -1   3 683.202  56.406   9
   4  -1  -3 777.409  53.920   1
  -4  -1   3 673.087  54.273   5
  -4  -1   3 643.183  54.353   2
   4  -1  -3 664.909  51.975   7
  -4   1   3 628.457  47.602  10
  -4   1   3 685.083  51.676   1
  -4   1   3 728.240  54.810   2
   4   1  -3 614.467  51.225   7
  -4   1   3 578.921  51.702   1
  -4   1   3 679.263  57.708   5
  -4   1   3 612.146  57.917   9
  -4   1   3 642.606  55.156   5
   4   1  -3 736.301  51.084   7
   3  -1  -3 903.811  78.279   5
  -3  -1   3 893.301  78.901   9
   3  -1  -3 952.779  72.660   7
  -3  -1   3 897.828  71.880   1
  -3  -1   3 1033.39   76.31   5
  -3  -1   3 894.260  71.369   1
   3  -1  -3 911.805  76.144   3
   3  -1  -3 875.238  73.033   1
  -3  -1   3 967.980  74.956   2
  -3  -1   3 970.632  66.080  10
   3  -1  -3 1114.57   81.65   9
   3  -1  -3 981.966  79.470   9
  -3  -1   3 817.493  78.744   9
  -3  -1   3 922.277  71.632   7
   3  -1  -3 848.095  72.490   6
   3  -1  -3 972.138  72.438   7
  -3   1   3 1068.36   73.60   1
   3   1  -3 905.515  74.845   3
  -3   1   3 1125.15   66.81  10
  -3   1   3 995.491  76.812   5
   3   1  -3 1016.62   79.44   9
  -3   1   3 853.707  72.756   7
  -3   1   3 989.916  75.028   2
   3   1  -3 939.509  71.569   7
   3   1  -3 886.348  71.892   1
  -3   1   3 985.023  71.891   6
   3   1  -3 935.375  71.767   7
  -3   1   3 827.257  72.136   1
  -3   1   3 1010.91   80.59   9
  -2  -1   3 2725.46  234.84   9
   2  -1  -3 2868.35  234.95   9
  -2  -1   3 2632.86  213.70   1
   2  -1  -3 2980.85  213.42   6
   2  -1  -3 2672.62  213.99   7
  -2  -1   3 2626.35  222.65   3
  -2  -1   3 2843.86  213.81   1
  -2  -1   3 2857.95  234.61   9
  -2  -1   3 2845.25  212.67   6
   2  -1  -3 2660.99  214.30   7
   2  -1  -3 3169.85  215.31   8
  -2  -1   3 2805.25  197.41  10
  -2  -1   3 3026.64  227.75   5
  -2  -1   3 2824.19  213.56   7
   2  -1  -3 2600.94  223.45   3
   2  -1  -3 2793.91  235.89   9
   2  -1  -3 3027.73  197.91  10
  -2  -1   3 3164.51  222.71   3
  -2   1   3 2698.72  219.05   2
  -2   1   3 2962.35  214.30   7
   2   1  -3 2799.15  197.37  10
   2   1  -3 2733.81  214.06   1
  -2   1   3 2988.10  227.87   5
   2   1  -3 2712.26  222.78   3
  -2   1   3 2803.87  214.64   1
  -2   1   3 3024.92  235.92   9
   2   1  -3 2929.47  234.49   9
   2   1  -3 3202.04  212.75   6
  -2   1   3 2990.53  213.82   6
   2   1  -3 2627.76  213.53   7
  -2   1   3 2820.58  197.76  10
   2   1  -3 2564.50  214.39   8
   2   1  -3 3050.24  234.53   4
   1  -1  -3 19.3322  5.1590   4
   1  -1  -3 19.3122  5.0870   9
   1  -1  -3 17.8620  3.7670   3
   1  -1  -3 22.7566  3.4006  10
   1  -1  -3 25.0760  4.1248   7
  -1  -1   3 19.5678  3.4483   3
  -1  -1   3 25.1542  3.2899  10
   1  -1  -3 24.0543  4.4172   1
   1  -1  -3 26.4736  4.8841   1
   1  -1  -3 17.1980  5.2982   9
  -1  -1   3 18.3843  3.4101   3
  -1  -1   3 20.5491  4.0852   5
   1  -1  -3 20.5108  3.9010   6
   1  -1  -3 32.2060  4.5874   7
  -1  -1   3 20.6004  3.3992   7
  -1  -1   3 17.7100  4.1244   4
  -1  -1   3 18.4235  4.7358   9
  -1  -1   3 18.4202  2.7786   8
  -1  -1   3 18.9190  3.9088   1
   1  -1  -3 21.0051  3.7385   2
  -1  -1   3 19.7128  3.5149   6
   1  -1  -3 21.8525  4.1681   8
  -1  -1   3 25.4107  5.4562   9
  -1  -1   3 17.5381  2.9041   8
  -1   1   3 22.3698  5.7573   9
   1   1  -3 14.5629  3.2786   3
   1   1  -3 23.0973  5.0164   9
  -1   1   3 24.2439  5.3229   9
   1   1  -3 26.8466  4.8589   4
  -1   1   3 23.4643  3.7578   7
  -1   1   3 9.71787 3.62241   6
  -1   1   3 24.1942  4.4956   1
   1   1  -3 21.1246  4.6695   9
   1   1  -3 18.1491  3.6916   8
   1   1  -3 21.8827  3.6931   7
  -1   1   3 23.1248  3.8917   8
  -1   1   3 19.7304  3.8419   3
   1   1  -3 31.2878  3.9928   6
  -1   1   3 22.0755  4.1800   5
   1   1  -3 18.2751  3.9512   1
  -1   1   3 20.0768  4.5366   1
   1   1  -3 16.8677  3.6775   8
  -1   1   3 18.9509  3.5861  10
   0  -1   3 160.980  14.623   9
   0  -1   3 112.793  13.496   9
   0  -1   3 134.352  11.392   6
   0  -1   3 123.262  12.032   3
   0  -1  -3 114.361  12.354   1
   0  -1  -3 166.221  13.003   1
   0  -1   3 104.621  12.542   5
   0  -1  -3 120.517  11.564   6
   0  -1  -3 129.878  12.296   7
   0  -1  -3 165.118  11.877   8
   0  -1  -3 121.706  11.565   7
   0  -1  -3 132.088  12.030   3
   0  -1   3 120.693  11.412   8
   0  -1   3 127.444  11.388   7
   0  -1   3 149.995  13.511   4
   0  -1  -3 86.1656 12.7377   4
   0  -1   3 128.215  11.300   8
   0  -1   3 126.759  12.206   1
   0  -1   3 127.000  12.003   1
   0  -1   3 133.823  11.776   3
   0  -1  -3 111.828  14.053   9
   0   1   3 129.453  13.666   4
   0   1   3 92.0395 13.5747   9
   0   1   3 108.563  13.814   9
   0   1   3 137.920  12.966   1
   0   1  -3 132.967  11.621   7
   0   1  -3 121.394  12.206   1
   0   1  -3 99.6791 10.2976  10
   0   1   3 133.875  12.397   1
   0   1   3 106.401  11.607   3
   0   1   3 141.690  10.904  10
   0   1  -3 149.591  13.850   4
   0   1  -3 103.263  10.992   6
   0   1  -3 135.404  14.170   9
   0   1  -3 129.931  12.378   1
   0   1   3 119.123  11.276   8
   0   1  -3 122.067  11.571   8
   0   1   3 124.752  12.615   5
   1  -1   3 839.444  67.512   1
   1  -1   3 861.781  66.571   8
  -1  -1  -3 960.128  67.016   7
  -1  -1  -3 879.496  67.749   7
   1  -1   3 924.275  66.959   7
  -1  -1  -3 818.869  61.688  10
   1  -1   3 864.705  71.535   5
   1  -1   3 800.461  73.548   4
  -1  -1  -3 826.983  66.308   6
  -1  -1  -3 788.885  67.762   1
  -1  -1  -3 859.964  74.297   9
  -1  -1  -3 948.829  67.736   1
   1  -1   3 824.078  74.217   9
  -1  -1  -3 824.242  74.643   9
   1  -1   3 716.160  69.145   3
   1  -1   3 852.457  67.107   8
  -1  -1  -3 916.869  66.718   8
  -1   1  -3 841.842  66.346   6
   1   1   3 858.425  71.371   5
   1   1   3 869.729  61.683  10
   1   1   3 844.136  74.411   9
  -1   1  -3 882.140  67.020   7
   1   1   3 768.972  66.269   6
  -1   1  -3 884.589  74.716   9
  -1   1  -3 866.574  67.777   1
  -1   1  -3 861.272  74.204   9
  -1   1  -3 821.154  61.686  10
  -1   1  -3 836.735  66.714   8
   1   1   3 935.700  66.916   7
   1   1   3 978.190  66.789   8
  -1   1  -3 841.863  73.714   4
   1   1   3 949.852  69.783   3
   1   1   3 937.823  73.809   4
  -1   1  -3 996.817  68.021   1
   2  -1   3 250.699  26.384   4
  -2  -1  -3 263.892  23.295   6
  -2  -1  -3 269.110  27.026   9
   2  -1   3 339.451  24.026   6
  -2  -1  -3 297.373  26.684   4
   2  -1   3 276.606  25.740   5
  -2  -1  -3 294.518  24.908   7
   2  -1   3 273.331  24.476   3
  -2  -1  -3 250.232  24.822   1
   2  -1   3 273.957  23.362   8
  -2  -1  -3 296.350  27.802   9
  -2  -1  -3 270.794  21.990  10
  -2  -1  -3 281.505  23.063   8
  -2  -1  -3 295.939  24.199   2
   2  -1   3 315.937  27.834   9
   2  -1   3 298.467  27.641   9
  -2  -1  -3 303.880  24.763   1
  -2  -1  -3 329.191  24.040   7
   2  -1   3 259.558  24.326   1
  -2   1  -3 289.773  22.138  10
   2   1   3 286.907  27.603   9
  -2   1  -3 281.732  24.789   1
   2   1   3 310.327  24.650   1
  -2   1  -3 273.819  24.760   1
  -2   1  -3 275.502  23.380   6
   2   1   3 306.482  23.391   8
  -2   1  -3 255.013  27.141   9
  -2   1  -3 293.167  23.368   8
   2   1   3 243.031  24.169   3
  -2   1  -3 243.056  27.078   9
   2   1   3 258.241  26.320   4
   2   1   3 252.573  26.921   9
   2   1   3 283.589  23.610   6
  -2   1  -3 290.485  24.041   7
   2   1   3 282.546  25.386   5
   3  -1   3 173.477  18.283   5
  -3  -1  -3 202.938  20.556   9
  -3  -1  -3 184.661  16.925   7
  -3  -1  -3 206.578  16.187  10
  -3  -1  -3 180.852  20.543   9
  -3  -1  -3 148.553  17.580   1
   3  -1   3 167.817  19.094   4
  -3  -1  -3 193.434  18.812   4
   3  -1   3 210.890  18.469   1
  -3  -1  -3 187.542  17.899   1
  -3  -1  -3 174.669  16.258   6
  -3  -1  -3 198.151  18.334   7
   3  -1   3 181.442  20.560   9
  -3  -1  -3 189.306  17.306   2
   3  -1   3 151.879  19.832   9
   3   1   3 165.817  17.228   1
   3   1   3 163.754  17.614   5
  -3   1  -3 229.591  16.829   6
  -3   1  -3 202.804  19.695   4
   3   1   3 193.508  20.146   9
  -3   1  -3 147.036  19.698   9
  -3   1  -3 188.692  20.802   9
  -3   1  -3 195.174  18.382   1
  -3   1  -3 184.366  18.252   1
   3   1   3 153.623  18.885   4
   3   1   3 205.512  17.513   3
   3   1   3 203.924  20.513   9
  -3   1  -3 208.215  16.084  10
  -3   1  -3 159.650  16.791   7
  -3   1  -3 176.135  17.864   2
  -3   1  -3 153.574  15.805   8
  -4  -1  -3 153.854  14.047   6
  -4  -1  -3 123.318  18.208   9
  -4  -1  -3 133.111  13.942  10
  -4  -1  -3 147.573  18.311   9
   4  -1   3 153.450  16.309   3
  -4  -1  -3 156.245  16.803   1
   4  -1   3 137.724  15.988   5
  -4  -1  -3 131.353  14.541   7
  -4  -1  -3 131.134  15.068   2
  -4  -1  -3 139.569  15.742   7
   4   1   3 144.426  15.156   3
  -4   1  -3 152.109  16.343   2
  -4   1  -3 148.149  14.371  10
  -4   1  -3 147.687  19.122   9
  -4   1  -3 156.711  17.008   1
   4   1   3 169.410  16.091   5
   4   1   3 173.697  18.728   9
  -4   1  -3 167.118  14.594   6
  -4   1  -3 133.561  15.090   7
  -4   1  -3 142.592  18.373   9
  -5  -1  -3 489.031  41.992   2
  -5  -1  -3 539.001  43.210   1
  -5  -1  -3 435.511  46.495   9
  -5  -1  -3 473.236  40.950   7
  -5  -1  -3 515.895  38.442  10
  -5  -1  -3 514.330  39.776   6
  -5   1  -3 480.014  41.354   7
  -5   1  -3 507.298  43.305   1
  -5   1  -3 442.587  46.855   9
  -5   1  -3 530.183  40.374   6
  -5   1  -3 433.344  42.227   2
  -5   1  -3 572.454  38.992  10
  -6  -1  -3 67.9957  8.5316   6
  -6  -1  -3 64.2641 10.2671   7
  -6  -1  -3 74.5737 10.6052  10
   6  -1   3 60.2059 10.8743   8
  -6  -1  -3 65.3159 11.8513   1
  -6  -1  -3 67.9967 11.0894   2
  -6  -1  -3 68.8857 14.8719   9
  -6   1  -3 70.0397 14.5538   9
  -6   1  -3 59.3033 10.0306  10
  -6   1  -3 83.1927  9.8298   6
  -6   1  -3 60.1923 12.5251   1
  -6   1  -3 64.8606 10.8371   7
  -6   1  -3 73.0474 12.2321   2
  -7  -1  -3 -13.327   5.502   7
  -7  -1  -3 6.95737 7.70952   1
  -7  -1  -3 -15.281   9.348   9
  -7  -1  -3 1.20372 3.77309   6
  -7   1  -3 3.84614 7.42582   2
  -7   1  -3 -0.2201  4.6894   6
  -7   1  -3 -4.6294  6.8590   1
  -9  -2   3 12.1110  8.5612   2
  -9   2   3 2.85247 8.25653   2
  -9   2   3 0.50011 4.22129  10
  -9   2   3 6.40464 6.83689   9
  -8  -2   3 39.8637 10.5027   2
  -8   2   3 58.0631 11.3569   9
  -8   2   3 25.4247  9.0721   2
  -8   2   3 35.9578  9.8136   9
   8   2  -3 27.3777  8.1773   4
  -8   2   3 34.0422  5.6683  10
   7  -2  -3 59.8456 10.7422   4
  -7  -2   3 40.1911  9.6359   2
  -7   2   3 52.9636 10.2480   9
  -7   2   3 59.6121 11.0345   9
  -7   2   3 46.8686  5.7941   1
  -7   2   3 48.1401  6.6335  10
  -7   2   3 62.0553 11.2623   2
  -7   2   3 62.5936 10.1978   5
  -7   2   3 49.3782  5.7682   1
   6  -2  -3 0.81250 2.47444   8
  -6  -2   3 3.11355 4.75464   2
  -6  -2   3 4.92132 2.59168   5
   6  -2  -3 9.28323 4.49295   7
   6  -2  -3 -0.6070  4.4576   4
   6  -2  -3 -1.4622  2.9709   3
  -6  -2   3 5.29127 3.53854   5
  -6   2   3 -2.0370  2.3418   7
  -6   2   3 4.79537 3.24050  10
  -6   2   3 4.35657 6.59664   9
  -6   2   3 1.45963 5.32138   2
  -6   2   3 4.50401 3.34055   1
  -6   2   3 2.74495 3.15782   1
   6   2  -3 2.44816 1.70579   7
  -6   2   3 -9.0870  4.3260   5
  -6   2   3 9.33553 6.30504   9
  -5  -2   3 624.737  49.756   2
  -5  -2   3 602.809  48.436   5
   5  -2  -3 549.333  51.699   4
   5  -2  -3 534.224  48.993   3
   5  -2  -3 574.414  47.646   7
   5  -2  -3 676.610  45.871   8
  -5   2   3 561.675  46.370   7
  -5   2   3 647.687  50.151   2
  -5   2   3 593.628  53.436   5
  -5   2   3 574.715  46.901   1
  -5   2   3 580.103  54.424   9
  -5   2   3 677.073  43.732  10
  -5   2   3 689.053  47.390   1
   5   2  -3 594.499  45.869   7
  -5   2   3 550.359  50.525   5
  -5   2   3 531.273  53.289   9
   4  -2  -3 3461.62  295.22   7
  -4  -2   3 4116.58  302.58   2
   4  -2  -3 4209.95  308.51   3
   4  -2  -3 4418.86  295.68   8
   4  -2  -3 3611.55  314.13   5
  -4  -2   3 4012.15  313.05   5
  -4  -2   3 3713.91  322.40   9
   4  -2  -3 3722.62  295.98   7
   4  -2  -3 3823.63  297.03   1
  -4   2   3 3909.35  295.81   1
  -4   2   3 3885.49  302.46   2
   4   2  -3 3905.64  293.86   7
  -4   2   3 3830.12  325.08   9
  -4   2   3 3931.56  272.70  10
  -4   2   3 4232.80  295.07   7
  -4   2   3 4506.71  318.09   5
  -4   2   3 4110.97  292.84   6
  -4   2   3 3730.98  314.25   5
  -4   2   3 3773.88  295.16   1
   4   2  -3 3752.98  293.99   7
   3  -2  -3 461.246  45.234   5
   3  -2  -3 505.888  41.063   7
   3  -2  -3 546.714  42.044   1
  -3  -2   3 519.853  43.586   9
   3  -2  -3 509.279  40.850   7
   3  -2  -3 458.029  44.637   9
   3  -2  -3 491.073  40.048   8
   3  -2  -3 570.426  47.547   9
  -3  -2   3 525.282  43.783   9
  -3  -2   3 484.074  39.143   1
  -3  -2   3 551.364  39.513   1
   3  -2  -3 540.431  43.715   3
   3  -2  -3 493.220  41.602   6
  -3  -2   3 541.275  42.112   5
   3   2  -3 495.047  43.548   9
  -3   2   3 470.122  41.762   1
   3   2  -3 542.033  40.834   3
   3   2  -3 505.732  40.970   3
   3   2  -3 489.208  39.342   7
  -3   2   3 552.203  40.707   7
  -3   2   3 541.573  46.441   9
  -3   2   3 428.174  41.788   2
  -3   2   3 517.442  41.704   7
   3   2  -3 570.503  39.922   1
  -3   2   3 513.680  37.425  10
  -3   2   3 489.162  40.752   1
  -3   2   3 543.930  41.154   6
   3   2  -3 535.462  43.217   9
  -3   2   3 544.786  43.203   5
   2  -2  -3 8.75037 5.36290   9
  -2  -2   3 -1.7343  1.7760   6
  -2  -2   3 4.78781 3.77819   9
  -2  -2   3 3.26340 2.60763   5
   2  -2  -3 10.5201  4.1421   3
   2  -2  -3 0.81282 3.01873   7
  -2  -2   3 0.85057 1.72034   7
   2  -2  -3 1.68773 3.91311   9
  -2  -2   3 3.27538 3.42705   9
  -2  -2   3 2.71892 2.00291   6
   2  -2  -3 0.45501 2.77356  10
   2  -2  -3 -2.1443  4.1810   8
  -2  -2   3 0.63333 2.40176   1
  -2  -2   3 3.87633 2.40831   1
   2  -2  -3 11.4918  4.3091   1
   2  -2  -3 5.64065 3.22315   7
   2  -2  -3 3.04481 3.32475   6
  -2   2   3 6.91001 3.46994   7
  -2   2   3 2.64948 3.00023   5
   2   2  -3 3.23259 3.05351   9
   2   2  -3 5.63406 2.20794   7
  -2   2   3 5.47304 4.79258   9
  -2   2   3 2.80301 3.41722   3
  -2   2   3 1.93154 3.90950   6
   2   2  -3 1.70349 1.87198  10
  -2   2   3 10.9640  3.0161  10
  -2   2   3 8.37672 3.56312   2
  -2   2   3 5.08867 4.30669   1
  -2   2   3 6.97820 3.40424   7
   2   2  -3 4.24988 2.12056   3
   2   2  -3 4.41348 2.24358   6
   2   2  -3 1.23425 2.41235   1
   2   2  -3 8.16076 3.41991   9
   2   2  -3 9.12346 2.57365   3
   2   2  -3 4.52625 3.25040   4
  -1  -2   3 817.451  57.543   7
   1  -2  -3 681.280  58.026   8
   1  -2  -3 800.572  64.428   4
  -1  -2   3 774.878  57.388   6
  -1  -2   3 751.709  63.713   9
  -1  -2   3 759.083  59.938   3
  -1  -2   3 862.828  61.853   5
   1  -2  -3 725.092  53.609  10
   1  -2  -3 825.936  59.149   1
   1  -2  -3 680.224  57.809   6
  -1  -2   3 767.021  57.129   6
  -1  -2   3 742.339  63.029   4
   1  -2  -3 808.398  58.721   7
   1  -2  -3 753.992  58.107   7
   1  -2  -3 847.696  58.890   1
   1  -2  -3 773.898  58.941   2
  -1  -2   3 635.955  59.429   3
  -1  -2   3 665.416  63.709   9
  -1  -2   3 704.203  57.717   1
   1  -2  -3 709.575  60.488   3
   1  -2  -3 678.167  64.318   9
  -1   2   3 705.420  58.304   7
   1   2  -3 770.857  57.856   8
  -1   2   3 887.665  58.400   6
   1   2  -3 712.149  53.069  10
   1   2  -3 746.134  57.370   8
  -1   2   3 792.712  60.499   3
  -1   2   3 754.438  61.705   5
  -1   2   3 760.275  58.241   7
   1   2  -3 686.167  59.713   3
  -1   2   3 713.282  58.704   1
   1   2  -3 743.192  57.518   7
   1   2  -3 899.587  64.273   9
   1   2  -3 611.410  63.112   4
  -1   2   3 692.125  64.924   9
  -1   2   3 720.228  58.510   1
   1   2  -3 713.326  63.953   9
  -1   2   3 752.240  57.849   8
   1   2  -3 840.007  57.319   6
   1   2  -3 817.427  58.259   1
   0  -2   3 131.079  11.899   7
   0  -2   3 130.753  12.955   5
   0  -2   3 108.950  13.227   4
   0  -2  -3 129.918  12.037   7
   0  -2   3 156.567  12.793   1
   0  -2  -3 119.322  11.900   8
   0  -2  -3 129.793  14.822   9
   0  -2  -3 128.045  12.642   7
   0  -2   3 107.200  13.589   9
   0  -2   3 154.578  14.508   9
   0  -2   3 133.181  11.386   8
   0  -2  -3 129.054  12.710   1
   0  -2  -3 115.827  12.181   3
   0  -2   3 133.559  11.580   6
   0  -2   3 136.642  11.722   8
   0  -2  -3 131.601  11.901   6
   0  -2   3 113.132  11.662   3
   0  -2  -3 140.491  13.810   4
   0  -2  -3 114.224  12.747   1
   0   2   3 122.171  12.284   3
   0   2  -3 124.334  11.545   6
   0   2   3 108.460  14.004   9
   0   2  -3 121.494  12.585   1
   0   2   3 111.360  11.689   8
   0   2  -3 160.886  14.801   9
   0   2   3 109.667  14.442   9
   0   2  -3 130.036  14.058   4
   0   2   3 124.796  11.884   7
   0   2   3 151.277  12.781   1
   0   2  -3 139.937  11.947   8
   0   2  -3 113.486  10.520  10
   0   2   3 145.154  14.041   4
   0   2  -3 152.723  14.721   9
   0   2   3 123.103  13.114   1
   0   2  -3 108.581  11.627   7
   0   2  -3 142.999  12.717   1
   1  -2   3 1853.95  158.24   4
   1  -2   3 2187.35  151.02   3
  -1  -2  -3 1721.33  143.06   6
  -1  -2  -3 1735.22  133.04  10
   1  -2   3 1735.81  153.57   5
   1  -2   3 2149.05  145.09   1
   1  -2   3 2136.82  159.21   9
  -1  -2  -3 1721.64  144.67   7
   1  -2   3 1840.01  149.98   3
  -1  -2  -3 1991.32  159.42   9
  -1  -2  -3 1981.91  144.07   8
  -1  -2  -3 2012.14  144.18   7
   1  -2   3 1932.36  144.72   1
  -1  -2  -3 1876.31  145.18   1
   1  -2   3 1904.36  144.73   8
  -1  -2  -3 1928.44  159.68   9
  -1  -2  -3 1937.96  150.06   3
  -1  -2  -3 1978.91  144.84   1
   1  -2   3 1759.40  158.83   9
   1   2   3 1720.68  153.25   5
   1   2   3 1924.18  159.20   9
  -1   2  -3 1815.94  144.08   7
   1   2   3 1947.60  144.21   8
   1   2   3 1950.58  144.59   1
  -1   2  -3 1831.00  144.33   8
   1   2   3 2062.34  150.26   3
   1   2   3 1703.72  132.99  10
  -1   2  -3 1701.31  158.27   4
  -1   2  -3 1644.30  158.74   9
   1   2   3 2026.58  158.31   4
   1   2   3 2069.80  144.32   7
   1   2   3 1838.26  159.35   9
  -1   2  -3 2088.09  143.35   6
  -1   2  -3 1993.09  145.05   1
  -2  -2  -3 550.427  47.075   9
  -2  -2  -3 472.802  40.470   8
   2  -2   3 395.136  46.037   9
   2  -2   3 550.674  42.589   1
  -2  -2  -3 460.453  41.206   7
  -2  -2  -3 506.747  38.426  10
  -2  -2  -3 537.509  47.656   9
   2  -2   3 462.104  44.463   5
  -2  -2  -3 518.856  42.944   1
   2  -2   3 455.054  43.633   3
  -2  -2  -3 566.528  41.167   6
  -2  -2  -3 477.620  41.621   2
   2  -2   3 537.100  41.890   8
  -2  -2  -3 474.666  42.233   7
  -2  -2  -3 549.733  42.352   1
   2  -2   3 577.821  47.165   9
   2  -2   3 498.485  41.209   6
  -2  -2  -3 611.529  46.174   4
   2  -2   3 559.495  46.304   4
   2   2   3 520.483  47.001   9
   2   2   3 579.613  46.230   4
   2   2   3 584.067  41.227   8
   2   2   3 503.752  44.112   5
   2   2   3 490.096  41.202   6
  -2   2  -3 539.802  47.361   9
  -2   2  -3 560.909  38.483  10
  -2   2  -3 523.055  42.879   1
   2   2   3 490.406  38.024  10
  -2   2  -3 552.085  41.868   7
   2   2   3 517.162  42.073   1
  -2   2  -3 549.480  47.630   9
  -2   2  -3 509.441  42.662   1
   2   2   3 518.954  47.012   9
  -2   2  -3 549.025  41.350   8
  -2   2  -3 576.690  41.490   6
   2   2   3 487.387  42.990   3
  -3  -2  -3 1391.18   90.52  10
   3  -2   3 1140.94  104.16   5
   3  -2   3 1188.28  102.47   3
  -3  -2  -3 1486.17  110.24   9
  -3  -2  -3 1107.92   97.17   7
   3  -2   3 1195.96  107.55   4
  -3  -2  -3 1219.90  108.10   9
   3  -2   3 1301.14   98.85   1
  -3  -2  -3 1176.69  106.50   4
  -3  -2  -3 1301.29   96.59   6
  -3  -2  -3 1297.88   99.07   2
  -3  -2  -3 1322.51   98.84   7
   3  -2   3 1445.08  109.25   9
   3  -2   3 1499.82   98.76   8
   3  -2   3 1350.31  109.37   9
  -3  -2  -3 1196.93   98.82   1
  -3   2  -3 1326.94   98.17   7
  -3   2  -3 1028.24  108.25   9
  -3   2  -3 1169.65   98.80   1
  -3   2  -3 1258.34   90.20  10
   3   2   3 1267.41   98.20   1
  -3   2  -3 1274.80   99.02   1
  -3   2  -3 1217.28  107.64   4
  -3   2  -3 1202.78   96.64   6
  -3   2  -3 1326.98  109.22   9
   3   2   3 1364.88  108.90   9
   3   2   3 1299.59  101.58   3
   3   2   3 1242.11  108.47   9
  -3   2  -3 1182.34   96.96   8
   3   2   3 1136.67  107.03   4
   3   2   3 1503.26  104.19   5
  -4  -2  -3 876.739  66.625   7
  -4  -2  -3 832.056  66.871   1
  -4  -2  -3 737.021  72.722   9
  -4  -2  -3 972.160  66.570   2
  -4  -2  -3 917.181  60.788  10
   4  -2   3 848.478  69.216   3
   4  -2   3 790.395  69.917   5
   4  -2   3 781.959  65.771   8
  -4  -2  -3 762.979  64.808   7
  -4  -2  -3 804.388  63.991   6
  -4  -2  -3 922.601  75.122   9
   4   2   3 780.673  68.891   5
  -4   2  -3 784.186  64.423   6
  -4   2  -3 873.539  60.721  10
   4   2   3 886.105  67.988   3
  -4   2  -3 735.276  73.223   9
  -4   2  -3 900.472  68.017   2
  -4   2  -3 833.219  74.386   9
  -4   2  -3 753.693  65.426   7
  -4   2  -3 779.788  66.867   1
  -5  -2  -3 260.301  24.523   2
  -5  -2  -3 299.939  23.081  10
   5  -2   3 289.230  25.011   8
  -5  -2  -3 264.152  22.499   6
  -5  -2  -3 251.604  23.971   7
  -5  -2  -3 241.462  27.839   9
  -5  -2  -3 245.375  29.159   9
  -5  -2  -3 274.929  25.745   1
  -5   2  -3 258.367  26.175   1
  -5   2  -3 271.088  25.851   2
  -5   2  -3 290.279  23.902   6
  -5   2  -3 243.405  24.298   7
  -5   2  -3 272.657  23.308  10
  -5   2  -3 230.093  28.791   9
  -6  -2  -3 14.5493  6.2864  10
  -6  -2  -3 11.3770  7.5465   1
  -6  -2  -3 9.92449 4.50109   6
   6  -2   3 9.20143 7.21218   8
  -6  -2  -3 9.58080 5.95757   7
  -6  -2  -3 12.2628  9.5796   9
  -6   2  -3 4.75665 6.69249   2
  -6   2  -3 6.33967 7.59143   1
  -6   2  -3 11.0904  5.9238   6
  -6   2  -3 10.5654  6.5462   7
  -7  -2  -3 65.3178 15.0977   9
  -7  -2  -3 74.4122 10.9434  10
  -7  -2  -3 87.7862 13.2965   1
  -7  -2  -3 60.0632 10.4204   7
  -7   2  -3 42.9083 12.6567   1
  -7   2  -3 68.3778  9.6771   6
  -7   2  -3 69.9319 13.6026   2
  -9  -3   3 27.7806 10.8988   2
  -9   3   3 40.0413 11.6985   2
   9   3  -3 17.4693  7.2191   4
  -9   3   3 26.9430  5.9909  10
  -9   3   3 28.0326 10.0137   9
  -8  -3   3 127.843  15.862   2
  -8   3   3 89.7149 15.1608   9
  -8   3   3 98.2598 16.2860   9
  -8   3   3 96.3519 10.0352   1
  -8   3   3 88.1140 14.5287   2
  -8   3   3 94.5055  9.9831   1
   8   3  -3 101.587  11.723   4
  -8   3   3 93.5044 10.5203  10
  -7  -3   3 52.4055 10.0599   2
  -7   3   3 35.6864  6.5363  10
  -7   3   3 46.7481 10.3224   2
  -7   3   3 45.6785  7.1410   1
  -7   3   3 48.0400 10.3048   5
  -7   3   3 21.7476  9.8608   9
  -7   3   3 58.0226 11.9829   9
  -7   3   3 41.1851  6.6283   1
  -7   3   3 45.4017  5.8213   7
   6  -3  -3 191.129  22.932   4
   6  -3  -3 227.979  21.347   3
   6  -3  -3 215.290  19.019   8
  -6  -3   3 243.299  22.227   2
   6  -3  -3 242.094  21.357   7
  -6   3   3 232.003  19.476   7
  -6   3   3 177.578  21.603   2
  -6   3   3 227.612  18.644  10
  -6   3   3 233.039  23.212   5
  -6   3   3 238.365  19.838   1
  -6   3   3 229.619  24.973   9
  -6   3   3 227.732  26.040   9
  -6   3   3 238.598  20.476   1
   5  -3  -3 117.719  11.231   5
   5  -3  -3 113.081  11.961   7
   5  -3  -3 123.243  12.179   3
   5  -3  -3 110.604  14.702   1
   5  -3  -3 107.651  12.649   4
   5  -3  -3 104.654  10.109   8
  -5  -3   3 109.150  12.592   2
  -5   3   3 97.5582 14.3886   9
  -5   3   3 93.0746 10.5853   7
  -5   3   3 107.540  11.588   1
  -5   3   3 88.1701 11.1327   1
  -5   3   3 94.6357 12.2465   2
  -5   3   3 103.087  12.438   5
  -5   3   3 99.6743 15.8757   9
  -5   3   3 95.5589 10.0944  10
   4  -3  -3 111.079  11.594   7
  -4  -3   3 110.559   9.932   9
  -4  -3   3 96.7014  9.8697   9
   4  -3  -3 95.8698 12.2238   5
   4  -3  -3 103.442  12.150   3
   4  -3  -3 111.697  12.556   4
   4  -3  -3 121.160  10.509   8
  -4  -3   3 111.488   9.573   5
   4  -3  -3 125.806  14.004   1
   4   3  -3 114.703   8.776   7
  -4   3   3 105.510   9.464   3
  -4   3   3 102.900  14.551   9
  -4   3   3 113.660  10.925   7
  -4   3   3 114.243  12.309   5
  -4   3   3 99.1422 12.1335   1
  -4   3   3 121.085  10.482  10
  -4   3   3 92.3214 11.2550   1
  -4   3   3 92.5650 11.6475   2
  -4   3   3 94.4028 10.2758   6
  -3  -3   3 14.6978  3.5036   9
   3  -3  -3 12.4175  5.5557   6
   3  -3  -3 18.9453  7.3518   5
   3  -3  -3 17.0966  6.8166   9
  -3  -3   3 16.6601  2.5151   1
  -3  -3   3 16.7585  2.7465   1
   3  -3  -3 14.5680  5.2548   1
  -3  -3   3 19.9316  3.8590   9
  -3  -3   3 16.5262  3.1460   5
   3  -3  -3 19.5466  4.8745   7
   3  -3  -3 10.5202  4.3979   8
   3  -3  -3 19.0581  5.6860   3
   3  -3  -3 16.7940  4.8129   7
   3   3  -3 21.8464  2.7656   3
   3   3  -3 18.3531  2.5241   3
   3   3  -3 22.1412  3.7269   9
  -3   3   3 19.7839  4.1974   3
   3   3  -3 18.3208  2.7559   7
  -3   3   3 10.8667  5.0828   6
   3   3  -3 18.2843  3.1498   1
  -3   3   3 25.5031  6.6592   1
  -3   3   3 12.8678  5.4400   7
  -3   3   3 16.2593  6.8668   9
  -3   3   3 26.0583  4.3871  10
  -3   3   3 17.0992  4.3933   7
  -3   3   3 19.5551  5.2603   2
  -3   3   3 13.3661  4.4582   5
  -2  -3   3 987.524  99.755   9
   2  -3  -3 1188.27   96.54   3
   2  -3  -3 1137.44   92.27   8
   2  -3  -3 1221.77  103.08   9
  -2  -3   3 1212.19   97.03   5
   2  -3  -3 1043.28   91.85   7
   2  -3  -3 1151.98   84.95  10
  -2  -3   3 1289.78   90.57   7
  -2  -3   3 1235.57   89.94   6
  -2  -3   3 1144.81   90.88   1
   2  -3  -3 1318.33  101.80   9
   2  -3  -3 1071.87   92.69   1
  -2  -3   3 1300.40  100.17   9
   2  -3  -3 1237.65   92.49   6
  -2  -3   3 1133.47   90.20   6
   2  -3  -3 1164.68  100.58   5
   2  -3  -3 1346.26   92.71   7
  -2  -3   3 1108.41   90.69   1
  -2   3   3 1074.48   97.27   5
   2   3  -3 1305.28  100.14   9
   2   3  -3 1071.45   89.99   6
  -2   3   3 1311.95   92.86   1
   2   3  -3 1150.80   90.98   1
   2   3  -3 1154.54   90.75   7
  -2   3   3 1207.64   92.41   7
  -2   3   3 1301.48   93.96   2
   2   3  -3 1287.35   94.45   3
   2   3  -3 1026.82   99.26   4
   2   3  -3 1267.22   94.75   3
  -2   3   3 1338.38  103.15   9
   2   3  -3 1233.49   83.78  10
  -2   3   3 1188.94   84.85  10
   2   3  -3 1270.26  100.24   9
  -2   3   3 1334.82   96.77   3
  -2   3   3 1133.31   92.61   6
  -2   3   3 1276.95   92.24   7
  -2   3   3 1249.30   91.06   8
   1  -3  -3 209.379  17.623   8
   1  -3  -3 212.963  17.942   7
   1  -3  -3 205.063  16.876   2
  -1  -3   3 166.835  16.894   3
  -1  -3   3 191.349  19.085   9
   1  -3  -3 213.457  20.561   4
  -1  -3   3 188.486  16.906   1
   1  -3  -3 224.421  18.518   3
  -1  -3   3 184.747  18.094   5
   1  -3  -3 166.832  17.067   7
  -1  -3   3 193.223  16.582   6
   1  -3  -3 229.986  17.970   6
  -1  -3   3 194.073  19.046   9
  -1  -3   3 170.817  15.985   6
  -1  -3   3 173.333  16.521   3
   1  -3  -3 221.187  16.252  10
   1  -3  -3 195.217  21.325   9
   1   3  -3 186.295  18.440   4
   1   3  -3 211.649  19.317   9
   1   3  -3 197.008  16.573   7
   1   3  -3 208.632  16.943   8
  -1   3   3 163.974  17.748   3
  -1   3   3 244.572  18.915   1
  -1   3   3 217.754  18.374   1
   1   3  -3 201.950  17.473   3
   1   3  -3 200.091  17.090   1
  -1   3   3 166.979  17.329   7
  -1   3   3 198.136  17.619   7
   1   3  -3 222.277  16.292   8
  -1   3   3 188.615  17.017   8
  -1   3   3 163.701  20.339   9
   1   3  -3 186.733  18.921   9
  -1   3   3 192.916  15.793  10
  -1   3   3 197.959  17.804   6
   1   3  -3 220.107  16.449   6
  -1   3   3 193.196  18.024   5
   0  -3  -3 6586.15  467.41   7
   0  -3  -3 6900.21  475.23   2
   0  -3  -3 5450.08  512.16   9
   0  -3   3 5844.60  463.55   6
   0  -3   3 6273.27  466.23   7
   0  -3   3 5952.37  467.78   8
   0  -3  -3 5892.98  486.36   3
   0  -3  -3 5629.29  466.45   7
   0  -3  -3 5603.61  468.13   8
   0  -3  -3 5639.96  467.36   1
   0  -3   3 6815.52  468.41   8
   0  -3  -3 7308.57  512.12   4
   0  -3  -3 6361.31  464.28   6
   0  -3  -3 6051.43  512.95   9
   0  -3   3 6084.18  511.80   9
   0  -3   3 6596.13  486.08   3
   0  -3   3 6174.60  464.10   6
   0  -3   3 6065.88  486.36   3
   0  -3   3 6707.26  511.37   4
   0  -3  -3 5681.62  431.13  10
   0  -3  -3 6316.10  467.13   1
   0  -3   3 6375.16  466.57   1
   0  -3   3 5807.19  466.47   1
   0   3  -3 5814.27  463.54   6
   0   3  -3 6226.50  466.77   1
   0   3  -3 5783.05  511.79   9
   0   3  -3 6779.08  511.72   4
   0   3   3 6238.97  466.91   1
   0   3  -3 6991.71  466.55   7
   0   3   3 6674.75  496.82   5
   0   3   3 6227.03  431.30  10
   0   3  -3 6154.23  468.24   8
   0   3  -3 5823.49  468.69   8
   0   3   3 6552.03  486.63   3
   0   3   3 6622.52  467.51   7
   0   3   3 5868.90  511.38   4
   0   3   3 6298.09  468.42   8
   0   3  -3 6489.86  512.09   9
  -1  -3  -3 619.431  59.749   9
   1  -3   3 639.356  53.411   1
  -1  -3  -3 707.489  52.696   6
   1  -3   3 756.291  53.135   7
   1  -3   3 571.479  54.919   3
   1  -3   3 722.747  53.573   1
  -1  -3  -3 616.578  52.702   7
   1  -3   3 726.956  52.597   8
   1  -3   3 644.944  59.007   9
   1  -3   3 705.101  52.953   8
   1  -3   3 702.341  53.115   6
  -1  -3  -3 716.356  48.964  10
  -1  -3  -3 696.997  53.885   7
   1  -3   3 581.899  57.895   4
  -1  -3  -3 658.616  53.472   1
  -1  -3  -3 688.225  54.843   3
   1  -3   3 738.514  59.645   9
  -1  -3  -3 665.352  59.509   9
  -1  -3  -3 662.385  54.071   1
  -1   3  -3 624.223  58.480   4
   1   3   3 633.482  59.447   9
  -1   3  -3 610.310  52.787   7
   1   3   3 745.677  53.736   1
   1   3   3 656.699  52.499   8
   1   3   3 681.838  59.578   9
   1   3   3 710.942  52.933   6
   1   3   3 673.705  58.469   4
  -1   3  -3 731.549  53.903   1
   1   3   3 630.162  56.073   5
   1   3   3 627.547  48.799  10
  -1   3  -3 676.515  59.435   9
  -1   3  -3 729.878  52.662   6
   1   3   3 658.121  52.826   7
  -1   3  -3 796.839  54.465   1
  -2  -3  -3 970.719  70.959   1
  -2  -3  -3 935.681  76.910   4
  -2  -3  -3 863.499  64.652  10
   2  -3   3 1032.06   77.96   4
  -2  -3  -3 773.599  78.218   9
  -2  -3  -3 927.779  78.522   9
  -2  -3  -3 931.814  70.018   7
   2  -3   3 912.416  78.256   9
   2  -3   3 896.822  73.523   3
  -2  -3  -3 935.133  71.528   1
  -2  -3  -3 760.995  70.451   7
  -2  -3  -3 844.824  70.121   2
   2  -3   3 1014.72   69.92   6
  -2  -3  -3 969.653  68.923   8
   2  -3   3 959.857  70.651   8
   2  -3   3 900.909  71.075   1
   2  -3   3 925.391  70.441   6
  -2  -3  -3 938.550  69.434   6
   2  -3   3 780.430  74.747   5
  -2   3  -3 938.813  70.595   7
  -2   3  -3 902.670  71.202   1
   2   3   3 812.140  76.747   4
  -2   3  -3 872.285  78.351   9
   2   3   3 972.767  74.647   5
  -2   3  -3 932.107  70.031   8
   2   3   3 767.259  77.671   9
   2   3   3 884.269  64.650  10
  -2   3  -3 897.260  78.718   9
   2   3   3 849.768  69.504   8
  -2   3  -3 1000.79   69.65   6
   2   3   3 959.724  70.893   1
   2   3   3 887.200  78.299   9
   2   3   3 795.552  72.515   3
  -2   3  -3 889.131  71.223   1
  -2   3  -3 946.314  77.710   4
   2   3   3 882.855  69.741   6
  -3  -3  -3 65.8202  9.8644   4
   3  -3   3 109.684  13.753   9
  -3  -3  -3 89.1250  9.1333   2
  -3  -3  -3 78.4652 12.0257   9
  -3  -3  -3 75.3484  9.2608   7
  -3  -3  -3 70.1826 10.1193   7
   3  -3   3 70.6216 10.1841   3
  -3  -3  -3 90.0767  9.3592  10
  -3  -3  -3 76.3005  8.8965   6
   3  -3   3 83.0926 11.2068   1
   3  -3   3 80.5787  9.8954   6
  -3  -3  -3 63.0974 12.5303   9
   3  -3   3 108.179  12.836   4
  -3  -3  -3 79.0484 11.1948   1
   3  -3   3 80.3845 11.1097   5
   3  -3   3 72.8308  9.9231   8
   3  -3   3 85.8413 12.9352   9
  -3   3  -3 81.7937  9.8282   8
  -3   3  -3 91.1956 11.7096   1
  -3   3  -3 90.7677  9.6713   6
  -3   3  -3 82.4424 10.1792   7
  -3   3  -3 68.3137 11.0740   1
   3   3   3 99.1818 13.0890   9
   3   3   3 73.0391  9.4954   3
  -3   3  -3 66.6242 10.4733   2
   3   3   3 82.4549 10.3799   1
  -3   3  -3 74.9345 12.7151   9
  -3   3  -3 92.0354 13.4963   9
   3   3   3 86.6517 10.0628   5
  -3   3  -3 76.1322 11.4378   4
   3   3   3 77.3880 11.2594   4
  -4  -3  -3 953.845  76.969   6
   4  -3   3 1096.35   79.65   8
  -4  -3  -3 906.990  79.471   1
  -4  -3  -3 1002.68   87.62   9
   4  -3   3 1084.32   83.23   3
   4  -3   3 1169.25   85.16   5
  -4  -3  -3 986.777  78.304   7
  -4  -3  -3 1024.45   89.15   9
  -4  -3  -3 980.643  79.092   2
  -4  -3  -3 919.246  72.441  10
   4   3   3 1033.69   82.98   5
  -4   3  -3 1019.58   78.04   6
   4   3   3 968.630  81.499   3
  -4   3  -3 1000.90   81.24   2
  -4   3  -3 945.205  88.380   9
  -4   3  -3 1026.88   72.77  10
  -4   3  -3 910.387  78.832   7
  -4   3  -3 1116.38   89.95   9
  -4   3  -3 914.471  80.168   1
  -4   3  -3 1045.55   76.76   8
  -5  -3  -3 163.525  20.168   9
  -5  -3  -3 145.444  15.346  10
  -5  -3  -3 160.456  17.961   1
  -5  -3  -3 143.310  15.771   7
  -5  -3  -3 175.197  22.104   9
  -5  -3  -3 162.713  16.364   2
  -5  -3  -3 148.661  14.460   6
   5  -3   3 194.138  18.349   8
  -5   3  -3 153.186  16.148   6
  -5   3  -3 164.389  16.175  10
  -5   3  -3 150.728  18.714   1
  -5   3  -3 181.358  18.933   2
  -5   3  -3 163.384  21.432   9
  -5   3  -3 150.911  16.858   7
  -6  -3  -3 1089.55   83.05   6
  -6  -3  -3 1260.56   80.25  10
  -6  -3  -3 1132.71   96.85   9
  -6  -3  -3 1092.39   87.60   1
  -6  -3  -3 1090.87   85.36   7
  -6   3  -3 982.401  88.986   2
  -6   3  -3 997.531  84.699   6
  -6   3  -3 1120.01   88.94   1
  -6   3  -3 1061.24   87.02   7
  -7  -3  -3 145.587  17.856   1
  -7  -3  -3 121.568  21.343   9
  -7  -3  -3 158.820  16.100  10
  -7   3  -3 142.731  15.565   6
  -7   3  -3 145.612  19.537   2
  -7   3  -3 143.441  19.897   1
  -9  -4   3 62.2016 12.8282   2
   9   4  -3 44.6130  8.8225   4
  -9   4   3 67.8459  7.2377   1
  -9   4   3 59.8267 14.1139   2
  -9   4   3 53.4521  8.7624  10
  -8  -4   3 82.8659 13.3064   2
  -8   4   3 78.8348  9.6397   1
  -8   4   3 63.7936 14.8140   9
  -8   4   3 81.3699 10.0857  10
  -8   4   3 78.6725 13.8916   2
  -8   4   3 83.7544 15.5562   9
   7  -4  -3 61.3026  8.4572   8
  -7  -4   3 39.7405 10.0482   2
  -7   4   3 63.5971  8.4477  10
  -7   4   3 42.6530 13.4573   9
  -7   4   3 62.2885 12.1850   5
  -7   4   3 78.1652  9.0854   1
  -7   4   3 66.9917  8.3189   7
  -7   4   3 45.0036 10.5252   2
  -7   4   3 61.8226 13.5531   9
  -6  -4   3 619.524  49.871   2
   6  -4  -3 551.170  53.433   4
   6  -4  -3 602.415  47.053   8
   6  -4  -3 539.781  48.361   7
  -6   4   3 544.936  47.580   1
  -6   4   3 564.386  56.407   9
  -6   4   3 687.211  48.910   1
  -6   4   3 612.573  47.325   7
  -6   4   3 531.767  43.859  10
  -6   4   3 576.253  50.153   2
  -6   4   3 642.200  52.577   5
  -6   4   3 639.042  55.833   9
   5  -4  -3 1593.99  124.52   5
   5  -4  -3 1604.58  116.84   8
   5  -4  -3 1557.49  129.19   4
   5  -4  -3 1378.41  119.89   1
   5  -4  -3 1522.30  122.70   3
   5  -4  -3 1475.24  117.90   7
  -5   4   3 1623.44  108.56  10
  -5   4   3 1522.59  132.11   9
  -5   4   3 1510.32  117.92   1
  -5   4   3 1331.59  124.66   5
  -5   4   3 1631.27  118.13   1
  -5   4   3 1731.58  117.37   7
  -5   4   3 1233.55  130.14   9
  -5   4   3 1581.00  115.47   6
   4  -4  -3 199.762  19.972   7
   4  -4  -3 197.982  21.275   6
   4  -4  -3 226.985  19.024   8
   4  -4  -3 263.374  22.070   3
  -4  -4   3 205.845  18.791   9
   4  -4  -3 208.104  22.213   5
   4  -4  -3 229.046  22.684   1
  -4  -4   3 251.806  18.695   5
  -4  -4   3 206.148  19.310   9
   4  -4  -3 251.437  22.288   4
  -4   4   3 206.865  19.493   6
  -4   4   3 227.169  20.430   1
  -4   4   3 189.174  19.229   7
  -4   4   3 190.861  20.205   2
  -4   4   3 206.659  24.273   9
  -4   4   3 203.679  21.103   1
  -4   4   3 201.751  20.706   5
  -4   4   3 227.969  18.244  10
  -4   4   3 196.575  23.579   9
   4   4  -3 229.804  17.206   7
   3  -4  -3 14.7198  4.8896   8
   3  -4  -3 20.3324  8.0111   9
  -3  -4   3 16.1989  3.7470   9
   3  -4  -3 18.9473  6.2520   3
   3  -4  -3 22.1430  5.6681   7
  -3  -4   3 14.9626  3.4670   5
   3  -4  -3 22.1175  6.6031   1
   3  -4  -3 23.7730  6.6854   6
  -3  -4   3 13.5774  3.3732   1
  -3  -4   3 16.6257  2.5145   1
   3  -4  -3 4.73337 4.05577   4
   3  -4  -3 11.2644  6.9282   5
  -3  -4   3 15.3342  4.0485   9
   3   4  -3 16.1652  2.4773   3
  -3   4   3 20.0967  4.5812  10
  -3   4   3 19.8049  5.0330   7
  -3   4   3 11.0346  4.0915   3
   3   4  -3 17.7661  3.2100   3
   3   4  -3 16.8465  3.0998   4
  -3   4   3 15.4607  5.7002   7
  -3   4   3 23.4870  5.4781   5
  -3   4   3 8.48808 4.11866   2
  -3   4   3 19.0849  6.2006   6
   3   4  -3 12.4621  2.8146   7
  -3   4   3 12.2934  6.2668   1
  -3   4   3 14.8334  7.4479   9
   3   4  -3 22.9925  3.4581   1
   2  -4  -3 542.069  37.557  10
   2  -4  -3 475.195  40.342   8
   2  -4  -3 469.706  40.610   7
   2  -4  -3 452.984  41.324   1
  -2  -4   3 499.094  38.099   6
   2  -4  -3 512.824  41.633   6
  -2  -4   3 539.071  39.098   1
  -2  -4   3 528.382  43.455   9
   2  -4  -3 439.629  43.965   4
  -2  -4   3 517.354  42.030   5
   2  -4  -3 459.766  46.212   9
   2  -4  -3 513.625  46.329   5
  -2  -4   3 478.928  39.124   1
   2  -4  -3 524.099  40.840   7
  -2  -4   3 582.186  38.742   7
  -2  -4   3 426.799  43.167   9
  -2  -4   3 452.508  38.792   6
   2  -4  -3 546.151  43.348   3
   2   4  -3 512.808  38.981   7
   2   4  -3 521.983  39.322   1
  -2   4   3 513.210  42.132   6
   2   4  -3 491.155  43.273   9
  -2   4   3 453.134  42.300   5
  -2   4   3 523.120  41.323   7
   2   4  -3 509.029  43.529   9
  -2   4   3 450.527  42.371   3
   2   4  -3 512.341  38.633   8
  -2   4   3 469.275  37.005  10
   2   4  -3 491.277  40.701   3
  -2   4   3 544.390  40.869   2
  -2   4   3 483.681  39.230   8
   2   4  -3 547.632  42.805   4
  -2   4   3 451.818  41.112   1
   2   4  -3 514.443  38.129   8
  -1  -4   3 2245.98  185.16   9
   1  -4  -3 2317.85  168.95   6
  -1  -4   3 1870.19  175.11   3
  -1  -4   3 2050.12  185.09   9
   1  -4  -3 2093.80  169.43   7
   1  -4  -3 2287.87  169.52   8
   1  -4  -3 2458.71  170.07   1
  -1  -4   3 2534.71  180.03   5
   1  -4  -3 2116.49  186.02   4
  -1  -4   3 2111.52  168.36   1
   1  -4  -3 2202.18  187.56   9
  -1  -4   3 2148.90  167.96   7
  -1  -4   3 2157.01  166.93   6
  -1  -4   3 2094.65  167.59   6
   1  -4  -3 2063.76  171.15   2
  -1  -4   3 2041.34  174.68   3
   1  -4  -3 2084.84  170.17   1
   1   4  -3 2228.78  185.23   9
   1   4  -3 2353.19  185.42   9
   1   4  -3 2473.58  168.59   8
  -1   4   3 2147.02  179.55   5
   1   4  -3 2303.63  169.31   8
   1   4  -3 2339.72  168.41   7
   1   4  -3 2142.76  167.10   6
  -1   4   3 2316.34  171.79   2
   1   4  -3 2512.58  184.86   4
   1   4  -3 2233.14  175.69   3
  -1   4   3 2188.03  169.01   6
  -1   4   3 2264.72  170.04   1
  -1   4   3 2007.63  176.20   3
  -1   4   3 2479.21  169.95   7
  -1   4   3 2134.10  169.78   1
  -1   4   3 2389.92  156.39  10
  -1   4   3 2496.03  188.26   9
   1   4  -3 2131.22  168.50   1
  -1   4   3 2393.66  169.40   8
   0  -4   3 539.223  52.184   5
   0  -4  -3 665.609  54.336   4
   0  -4   3 741.840  54.978   9
   0  -4   3 649.074  49.349   1
   0  -4   3 567.326  47.849   6
   0  -4   3 679.507  48.343   8
   0  -4  -3 670.554  45.527  10
   0  -4   3 637.269  47.886   8
   0  -4   3 553.185  49.064   1
   0  -4  -3 632.878  49.919   1
   0  -4  -3 632.245  49.794   7
   0  -4   3 641.047  50.967   3
   0  -4  -3 605.938  49.152   7
   0  -4  -3 697.365  50.733   1
   0  -4  -3 628.511  48.439   8
   0  -4  -3 585.904  50.771   3
   0  -4  -3 690.402  56.599   9
   0  -4  -3 676.797  48.454   2
   0  -4   3 517.166  48.156   7
   0  -4  -3 513.131  54.498   9
   0  -4   3 718.339  55.188   9
   0  -4   3 589.398  48.569   6
   0   4   3 594.364  50.947   3
   0   4  -3 677.273  49.514   1
   0   4   3 588.879  49.764   1
   0   4  -3 595.316  51.162   3
   0   4   3 528.720  49.777   1
   0   4  -3 718.362  54.378   4
   0   4   3 610.809  51.866   5
   0   4   3 655.970  49.306   6
   0   4   3 625.552  45.518  10
   0   4  -3 589.140  54.273   9
   0   4  -3 542.915  48.561   7
   0   4  -3 546.516  47.973   6
   0   4   3 624.259  49.884   7
   0   4   3 664.679  49.604   7
   0   4   3 592.460  48.548   8
   0   4  -3 675.684  48.653   8
   0   4  -3 635.772  54.555   9
   0   4  -3 621.141  49.157   8
  -1  -4  -3 3128.43  221.60   6
   1  -4   3 3059.50  238.04   5
  -1  -4  -3 2980.28  246.43   9
   1  -4   3 2874.30  221.86   6
   1  -4   3 2724.52  232.24   3
  -1  -4  -3 2716.28  223.87   1
   1  -4   3 3339.53  244.60   4
  -1  -4  -3 3324.56  223.70   1
  -1  -4  -3 3250.77  223.90   7
   1  -4   3 2813.78  223.16   1
   1  -4   3 3311.99  245.58   9
   1  -4   3 2751.60  222.42   7
   1  -4   3 3065.63  221.36   6
  -1  -4  -3 3038.70  231.88   3
   1  -4   3 2649.43  223.26   8
   1  -4   3 2938.17  222.94   8
   1  -4   3 3331.27  245.96   9
  -1  -4  -3 2984.71  225.50   2
  -1  -4  -3 3118.43  246.06   9
   1  -4   3 2710.42  223.30   1
  -1  -4  -3 2888.15  205.98  10
  -1  -4  -3 2924.69  244.15   4
  -1   4  -3 2671.21  223.23   8
   1   4   3 2829.01  205.87  10
  -1   4  -3 3291.51  221.41   6
   1   4   3 2650.81  231.83   3
   1   4   3 2986.49  223.28   1
   1   4   3 3186.50  246.34   9
   1   4   3 2940.39  236.88   5
   1   4   3 2807.39  244.28   4
  -1   4  -3 2784.06  223.27   1
   1   4   3 3366.49  223.30   8
  -1   4  -3 2431.76  244.68   9
   1   4   3 2744.20  223.57   7
  -1   4  -3 2991.65  224.00   8
   1   4   3 2743.57  221.59   6
   2  -4   3 -4.6924  2.3394   6
  -2  -4  -3 3.86471 2.31682   2
  -2  -4  -3 1.18716 3.76845   1
  -2  -4  -3 -1.9571  3.2975   7
   2  -4   3 1.71003 4.92477   9
   2  -4   3 -1.7098  3.8539   1
   2  -4   3 1.51793 4.93531   4
   2  -4   3 3.33150 3.95642   8
  -2  -4  -3 4.65164 3.34063   6
  -2  -4  -3 -8.8130  3.9060   9
  -2  -4  -3 9.58866 5.80094   9
   2  -4   3 -0.8332  3.5214   6
   2  -4   3 -0.1637  3.9193   5
  -2  -4  -3 -3.6714  2.9695  10
   2  -4   3 -0.7055  2.8488   3
  -2  -4  -3 0.40397 2.93250   8
  -2  -4  -3 2.90213 3.53418   7
  -2  -4  -3 -2.7794  4.1288   4
  -2  -4  -3 -0.5242  4.3889   1
   2   4   3 1.28451 3.58045   5
  -2   4  -3 0.48418 2.79161   6
  -2   4  -3 -3.1367  4.3600   1
   2   4   3 -1.4116  5.1024   9
  -2   4  -3 4.51205 4.44191   1
  -2   4  -3 0.40676 5.12337   8
   2   4   3 5.43709 4.80891   4
  -2   4  -3 -2.6856  4.6824   9
  -2   4  -3 -2.8243  4.0037   9
   2   4   3 4.15433 3.44166  10
   2   4   3 4.08714 3.23384   3
  -2   4  -3 0.61391 4.92390   4
   2   4   3 3.13370 4.07196   1
  -2   4  -3 2.11278 3.49577   7
  -3  -4  -3 120.312  13.514   7
  -3  -4  -3 132.280  17.689   9
  -3  -4  -3 163.534  13.541  10
  -3  -4  -3 162.427  13.125   2
   3  -4   3 147.067  18.751   9
   3  -4   3 166.855  19.261   9
   3  -4   3 131.457  16.982   4
  -3  -4  -3 118.612  15.399   1
   3  -4   3 101.626  13.979   8
  -3  -4  -3 143.393  18.882   9
   3  -4   3 166.933  16.945   1
   3  -4   3 154.760  15.425   6
   3  -4   3 140.077  16.313   5
  -3  -4  -3 154.820  15.318   7
   3  -4   3 180.088  16.325   3
  -3  -4  -3 167.387  14.096   6
   3   4   3 135.266  16.208   4
  -3   4  -3 152.799  17.588   4
  -3   4  -3 133.688  18.076   9
   3   4   3 140.582  17.230   9
  -3   4  -3 120.032  17.503   9
  -3   4  -3 170.976  14.985   6
  -3   4  -3 138.977  16.010   1
  -3   4  -3 123.834  14.660   7
  -3   4  -3 114.685  15.437   2
  -3   4  -3 129.916  14.516   8
   3   4   3 120.929  14.146   3
   3   4   3 162.845  15.246   5
   3   4   3 155.452  15.278   1
  -4  -4  -3 294.486  24.954   6
  -4  -4  -3 278.264  25.762   7
   4  -4   3 360.304  29.242   3
   4  -4   3 276.465  26.774   8
  -4  -4  -3 266.826  27.538   1
  -4  -4  -3 326.648  32.775   9
  -4  -4  -3 315.066  30.758   9
  -4  -4  -3 314.203  25.327   2
   4  -4   3 285.573  29.074   5
  -4  -4  -3 325.974  24.660  10
  -4   4  -3 312.147  28.853   1
  -4   4  -3 296.040  28.414   2
  -4   4  -3 294.958  27.165   7
  -4   4  -3 291.766  24.999   8
  -4   4  -3 318.707  32.021   9
   4   4   3 282.046  26.956   3
  -4   4  -3 271.892  25.906   6
  -5  -4  -3 1144.88  100.66   9
  -5  -4  -3 1258.64   83.56  10
  -5  -4  -3 1154.18   89.26   7
  -5  -4  -3 1104.01   87.51   6
  -5  -4  -3 1234.77   92.16   1
   5  -4   3 1168.42   91.40   8
  -5   4  -3 1064.05   92.46   1
  -5   4  -3 1107.46   90.98   7
  -5   4  -3 1021.62   93.09   2
  -5   4  -3 1234.55   89.61   6
  -6  -4  -3 166.812  17.474  10
  -6  -4  -3 191.378  20.620   1
  -6  -4  -3 206.897  23.868   9
  -6  -4  -3 169.612  15.796   6
  -6  -4  -3 191.109  18.484   7
  -6   4  -3 196.697  22.657   1
  -6   4  -3 216.138  22.421   2
  -6   4  -3 181.056  19.161   6
  -6   4  -3 171.469  20.429   7
  -8  -5   3 64.7678 12.0500   2
  -8   5   3 49.4998  8.5567  10
  -8   5   3 61.0930 14.5458   9
  -8   5   3 42.5672  8.5951   1
  -8   5   3 51.5241 12.1931   2
  -7  -5   3 187.973  20.339   2
   7  -5  -3 191.494  18.378   8
  -7   5   3 193.348  17.466  10
  -7   5   3 169.983  25.078   9
  -7   5   3 215.078  23.098   5
  -7   5   3 203.072  18.447   7
  -7   5   3 185.950  21.211   2
  -7   5   3 168.646  18.472   1
  -7   5   3 172.794  24.379   9
   6  -5  -3 1483.16  101.76   8
   6  -5  -3 1320.26  102.94   7
  -6   5   3 1305.67  101.55   7
  -6   5   3 1342.34  115.22   9
  -6   5   3 1182.87  109.18   5
  -6   5   3 1357.12  105.31   2
  -6   5   3 1217.30  115.94   9
  -6   5   3 1252.66  102.21   1
  -6   5   3 1298.33   94.17  10
  -5  -5   3 1130.92   91.63   5
   5  -5  -3 1047.65   93.26   3
  -5  -5   3 1243.29   92.18   5
   5  -5  -3 1113.75   89.84   7
   5  -5  -3 1128.22   95.21   5
   5  -5  -3 1166.88   98.55   4
   5  -5  -3 1016.77   88.20   8
  -5   5   3 1020.96   91.05   2
  -5   5   3 1171.48   87.84   6
  -5   5   3 1168.24   82.45  10
  -5   5   3 1209.48   90.57   1
  -5   5   3 990.847 100.650   9
  -5   5   3 1263.09   90.78   3
  -5   5   3 1329.00   95.78   5
  -5   5   3 959.771  99.857   9
  -5   5   3 1237.95   90.52   1
  -5   5   3 1121.56   88.91   7
  -4  -5   3 219.372  19.379   5
   4  -5  -3 220.475  22.328   3
   4  -5  -3 212.296  22.531   6
  -4  -5   3 229.360  19.583   9
  -4  -5   3 236.139  20.632   9
   4  -5  -3 233.578  24.122   5
   4  -5  -3 215.260  20.839   7
   4  -5  -3 225.110  22.827   4
   4  -5  -3 232.740  23.742   1
   4  -5  -3 206.488  26.252   9
   4  -5  -3 191.505  19.568   8
  -4   5   3 233.865  21.013   6
  -4   5   3 211.125  21.505   5
  -4   5   3 234.211  26.118   9
  -4   5   3 199.080  18.449  10
  -4   5   3 238.338  25.566   9
  -4   5   3 211.182  19.734   3
  -4   5   3 225.630  20.426   7
   4   5  -3 222.445  18.097   3
  -4   5   3 187.034  21.646   1
   4   5  -3 219.659  17.636   3
   4   5  -3 231.447  17.883   7
  -4   5   3 181.352  20.138   2
  -3  -5   3 1838.41  130.25   1
   3  -5  -3 1437.43  144.82   4
   3  -5  -3 1576.87  132.78   7
   3  -5  -3 1915.32  140.35   3
  -3  -5   3 1767.94  143.68   9
   3  -5  -3 1656.29  144.67   5
   3  -5  -3 1723.59  132.72   8
  -3  -5   3 1762.00  144.16   9
   3  -5  -3 1574.56  133.68   6
  -3  -5   3 1894.66  129.95   7
  -3  -5   3 1794.35  130.48   7
   3  -5  -3 1663.55  134.60   1
  -3  -5   3 1829.11  131.10   1
  -3   5   3 1634.43  132.63   7
  -3   5   3 1792.36  133.71   6
   3   5  -3 1752.88  130.77   1
   3   5  -3 1846.61  130.85   7
   3   5  -3 1560.94  142.76   4
  -3   5   3 1860.32  134.48   7
  -3   5   3 1758.86  138.50   3
  -3   5   3 1845.74  131.04   8
  -3   5   3 1847.80  141.17   5
  -3   5   3 1624.45  122.39  10
  -3   5   3 1590.60  134.09   1
   3   5  -3 1692.24  136.62   3
  -3   5   3 1675.86  134.80   2
   2  -5  -3 2.59831 4.18377   1
  -2  -5   3 0.55000 3.42677   9
   2  -5  -3 2.75071 4.87105   8
   2  -5  -3 6.09127 4.48065   4
   2  -5  -3 3.67154 4.62230   3
  -2  -5   3 2.54951 2.07811   7
  -2  -5   3 1.26326 3.23175   5
  -2  -5   3 -1.5827  3.0186   6
  -2  -5   3 4.24504 3.16610   1
   2  -5  -3 5.39528 6.46030   5
  -2  -5   3 -1.0498  3.6829   9
  -2  -5   3 -0.0410  2.5590   1
   2  -5  -3 14.6973  8.0061   9
   2  -5  -3 -2.8588  3.7753   7
  -2  -5   3 1.87472 1.95158   6
   2  -5  -3 4.04880 4.70252   6
  -2   5   3 3.40402 4.42878   7
   2   5  -3 2.69942 2.65651   7
  -2   5   3 5.78182 3.97111   7
  -2   5   3 6.76139 3.50929  10
   2   5  -3 5.83263 3.02244   1
   2   5  -3 0.14160 3.30997   8
   2   5  -3 0.82728 2.23641   8
  -2   5   3 1.71245 3.88819   5
   2   5  -3 4.15250 2.92301   3
  -2   5   3 3.05751 3.41005   2
  -2   5   3 1.98221 4.06650   1
   2   5  -3 2.44757 3.47985   9
  -2   5   3 8.43466 4.81422   3
  -2   5   3 3.32270 5.97415   9
  -2   5   3 3.19194 4.86021   1
   2   5  -3 4.60439 4.51010   9
  -2   5   3 2.39473 3.54310   8
  -2   5   3 -6.6211  3.2863   6
   2   5  -3 17.0438  4.3861   4
  -1  -5   3 24.6687  5.2111   6
   1  -5  -3 15.1304  6.0582   1
   1  -5  -3 36.7612  7.6315   1
   1  -5  -3 34.0809  6.3795   7
   1  -5  -3 40.2802  6.3506   8
   1  -5  -3 30.9052  4.3060   2
  -1  -5   3 28.7988  4.1107   3
  -1  -5   3 33.2534  5.6184   1
   1  -5  -3 33.7311  8.4744   4
   1  -5  -3 24.1055  6.2403   6
  -1  -5   3 27.5947  6.0086   5
  -1  -5   3 24.9329  4.8067   3
   1  -5  -3 34.7427  9.4949   9
  -1  -5   3 28.3171  4.2920   6
  -1  -5   3 39.5323  7.1937   9
  -1  -5   3 30.7444  4.5475   7
   1  -5  -3 30.0588  6.2305   4
   1  -5  -3 30.5054  6.5174   3
   1  -5  -3 29.5305  6.2126   7
  -1  -5   3 35.0368  7.0029   9
   1   5  -3 29.8874  5.4074   1
   1   5  -3 34.7118  5.3495   7
   1   5  -3 31.2381  6.3593   9
   1   5  -3 30.9077  6.2616   4
  -1   5   3 35.8764  5.8050   8
  -1   5   3 23.9837  5.4601  10
   1   5  -3 31.9237  5.5779   3
  -1   5   3 24.8122  6.7419   1
  -1   5   3 37.1480  6.1870   5
   1   5  -3 23.4426  4.9057   8
  -1   5   3 28.3091  6.9291   1
   1   5  -3 40.2539  6.1101   8
  -1   5   3 35.3011  5.1465   2
   1   5  -3 34.5820  5.4302   6
  -1   5   3 29.0022  6.3400   7
   1   5  -3 22.1115  6.3732   9
  -1   5   3 26.2432  6.2083   3
  -1   5   3 29.0266  6.2108   7
   1   5  -3 28.9282  4.4445   6
  -1   5   3 22.8541  8.5456   9
   0  -5   3 1168.12   88.04   9
   0  -5  -3 853.629  87.608   9
   0  -5   3 970.461  77.697   6
   0  -5   3 1049.43   78.87   6
   0  -5   3 1022.82   78.11   8
   0  -5  -3 954.846  78.911   6
   0  -5   3 1039.86   77.77   8
   0  -5  -3 1155.04   90.24   9
   0  -5  -3 892.384  86.762   4
   0  -5   3 1040.84   79.31   1
   0  -5  -3 1081.25   87.02   4
   0  -5  -3 936.286  73.018  10
   0  -5  -3 1099.84   82.46   3
   0  -5  -3 1038.37   80.16   1
   0  -5   3 971.409  79.091   1
   0  -5   3 862.850  86.825   9
   0  -5   3 986.346  82.054   3
   0  -5  -3 1089.89   80.99   1
   0  -5   3 1142.23   84.94   5
   0  -5  -3 1072.60   79.94   7
   0  -5  -3 1055.19   79.34   7
   0  -5  -3 1065.29   78.55   2
   0  -5   3 946.813  78.382   7
   0  -5  -3 1086.12   78.54   8
   0   5   3 1064.03   79.69   6
   0   5  -3 1216.54   88.43   9
   0   5   3 1075.39   82.50   3
   0   5  -3 907.101  78.556   7
   0   5  -3 952.662  79.055   1
   0   5   3 934.301  83.627   5
   0   5   3 960.977  80.065   1
   0   5   3 979.717  73.109  10
   0   5   3 1042.06   78.82   8
   0   5  -3 983.190  77.770   6
   0   5  -3 990.463  79.295   8
   0   5  -3 1029.11   82.56   3
   0   5  -3 1025.51   86.84   4
   0   5  -3 977.762  78.508   8
   0   5  -3 1180.57   87.77   9
  -1  -5  -3 337.343  27.351   6
   1  -5   3 283.689  29.815   5
   1  -5   3 339.728  28.401   1
   1  -5   3 341.759  28.960   3
  -1  -5  -3 309.494  28.208   7
   1  -5   3 414.734  32.878   9
  -1  -5  -3 335.582  30.385   4
  -1  -5  -3 308.674  27.415   7
   1  -5   3 419.416  28.369   7
  -1  -5  -3 342.706  26.315   8
   1  -5   3 305.511  26.821   6
   1  -5   3 341.996  27.215   8
  -1  -5  -3 304.058  28.834   1
  -1  -5  -3 352.213  33.346   9
  -1  -5  -3 319.142  28.158   1
  -1  -5  -3 326.150  26.838   8
   1  -5   3 357.237  31.873   9
   1  -5   3 343.205  26.746   8
   1  -5   3 321.226  28.120   1
   1  -5   3 352.111  27.985   6
  -1  -5  -3 299.729  32.139   9
  -1  -5  -3 326.207  25.605  10
  -1  -5  -3 350.976  28.335   3
  -1   5  -3 321.529  26.904   6
  -1   5  -3 363.724  28.836   1
   1   5   3 301.991  28.763   5
  -1   5  -3 328.975  27.761   7
   1   5   3 316.533  28.461   3
  -1   5  -3 295.077  30.516   4
   1   5   3 313.224  30.586   4
   1   5   3 304.496  25.477  10
  -1   5  -3 291.628  27.112   8
   1   5   3 266.847  31.772   9
   1   5   3 318.056  28.571   7
  -1   5  -3 349.677  31.835   9
   1   5   3 318.820  27.697   6
  -1   5  -3 295.036  29.092   3
   1   5   3 311.670  28.267   1
  -2  -5  -3 104.545  12.272   4
   2  -5   3 113.867  11.887   8
   2  -5   3 83.4258 13.5281   9
  -2  -5  -3 118.534  13.303   1
   2  -5   3 83.5558 11.3764   6
  -2  -5  -3 110.021  10.823  10
   2  -5   3 105.346  12.170   3
  -2  -5  -3 83.3631 10.5589   6
   2  -5   3 127.021  14.049   5
  -2  -5  -3 106.434  12.145   1
  -2  -5  -3 100.233  14.499   9
  -2  -5  -3 95.1653 10.8603   7
  -2  -5  -3 112.925  15.962   9
  -2  -5  -3 123.971  12.731   7
   2  -5   3 92.2918 12.3325   1
   2  -5   3 121.145  13.964   4
  -2   5  -3 103.158  12.039   7
   2   5   3 108.546  12.048   5
  -2   5  -3 143.131  13.847   1
  -2   5  -3 77.0956 11.5234   8
  -2   5  -3 85.2856 13.7177   9
  -2   5  -3 110.532  11.325   6
   2   5   3 111.671  12.446   1
   2   5   3 100.134  13.024   4
   2   5   3 128.920  15.621   9
   2   5   3 104.942  11.558   3
  -2   5  -3 101.716  14.754   9
  -2   5  -3 111.339  14.329   4
  -2   5  -3 86.8060 12.4126   2
   3  -5   3 18.3625  7.0090   5
  -3  -5  -3 28.3331  6.1160  10
   3  -5   3 41.2900  7.5611   8
  -3  -5  -3 42.2163 10.5533   9
  -3  -5  -3 31.1086  5.7845   6
  -3  -5  -3 43.1116  7.7257   7
  -3  -5  -3 37.2865  4.2697   2
  -3  -5  -3 27.2180  7.9961   1
  -3  -5  -3 37.1875  6.4031   7
   3  -5   3 25.8485  8.4250   9
   3  -5   3 27.2807  8.7271   9
  -3  -5  -3 35.3463 10.1109   9
   3  -5   3 26.9217  7.6647   1
   3  -5   3 37.4232  7.6223   3
  -3   5  -3 28.4672  6.6272   6
   3   5   3 29.0575  6.4161   5
  -3   5  -3 32.0427  8.3849   2
  -3   5  -3 39.5942  8.2183   8
   3   5   3 28.5474  8.8994   9
  -3   5  -3 33.6494  8.3390   1
   3   5   3 31.2579  6.4348   3
  -3   5  -3 53.2289 10.9966   9
  -3   5  -3 51.8598 11.3243   9
  -3   5  -3 27.6975  7.0782   7
   3   5   3 26.1519  7.7932   4
  -4  -5  -3 28.5663  6.8299  10
  -4  -5  -3 25.4271  6.1317   7
  -4  -5  -3 40.0152  9.0564   1
   4  -5   3 28.3250  8.1872   5
  -4  -5  -3 24.8373  9.3911   9
   4  -5   3 40.0170  7.7788   8
  -4  -5  -3 23.2147  5.1893   6
  -4  -5  -3 27.0156 10.1775   9
  -4   5  -3 10.7482  9.4845   9
  -4   5  -3 18.4994  6.8273   7
  -4   5  -3 10.2265  7.2535   1
  -4   5  -3 17.8625  7.4046   2
  -4   5  -3 31.5058  7.0978   6
   4   5   3 23.5604  6.2872   3
  -4   5  -3 30.8048  6.6703   8
  -5  -5  -3 204.604  18.909  10
  -5  -5  -3 236.982  22.178   1
   5  -5   3 215.098  21.403   8
  -5  -5  -3 195.893  23.540   9
   5  -5   3 197.044  22.505   5
  -5  -5  -3 191.866  18.989   7
  -5  -5  -3 187.660  17.242   6
  -5   5  -3 204.745  23.062   1
  -5   5  -3 207.198  22.853   2
  -5   5  -3 191.490  19.799   6
  -5   5  -3 191.640  21.291   7
  -6  -5  -3 407.829  30.690   6
  -6  -5  -3 424.395  33.806   7
  -6  -5  -3 405.279  39.969   9
  -6  -5  -3 345.457  31.944  10
  -6  -5  -3 365.601  35.447   1
  -6   5  -3 436.499  39.008   1
  -6   5  -3 350.733  33.976   6
  -6   5  -3 395.864  37.396   2
   8  -6  -3 11.9370  7.7421   8
  -8   6   3 16.2099  9.3004   2
  -8   6   3 15.5784  7.1846   7
  -8   6   3 -4.4651 10.4969   9
  -8   6   3 28.7433  7.4186  10
  -8   6   3 13.3055  6.7632   1
   7  -6  -3 883.308  72.346   8
  -7   6   3 1007.31   85.08   9
  -7   6   3 897.932  75.868   2
  -7   6   3 973.929  73.228   1
  -7   6   3 907.020  67.490  10
  -7   6   3 894.513  72.517   7
  -7   6   3 840.490  79.496   5
  -6  -6   3 13.4994  4.1800   5
   6  -6  -3 22.9634  7.2063   7
   6  -6  -3 12.5396  5.8197   8
  -6   6   3 10.6622  7.9459   5
  -6   6   3 12.0972  5.7338  10
  -6   6   3 6.58855 9.29125   9
  -6   6   3 12.3243  5.9114   7
  -6   6   3 16.7908 11.8643   9
  -6   6   3 14.0681  7.0209   1
  -6   6   3 14.7681  6.7216   2
   5  -6  -3 696.186  59.964   5
  -5  -6   3 660.965  56.292   9
   5  -6  -3 669.183  55.682   7
  -5  -6   3 706.315  55.939   5
   5  -6  -3 702.828  54.396   8
   5  -6  -3 676.364  58.243   3
  -5   6   3 656.366  54.860   7
  -5   6   3 696.912  56.278   2
  -5   6   3 704.610  64.902   9
  -5   6   3 676.845  58.801   5
  -5   6   3 703.702  50.975  10
  -5   6   3 647.772  63.475   9
  -5   6   3 600.149  53.800   6
  -5   6   3 662.747  56.521   1
   4  -6  -3 387.965  33.892   6
   4  -6  -3 338.310  33.386   1
   4  -6  -3 379.101  38.227   9
  -4  -6   3 306.321  30.626   5
   4  -6  -3 353.730  31.486   7
   4  -6  -3 325.493  30.070   8
   4  -6  -3 333.656  33.850   4
   4  -6  -3 378.862  36.307   5
   4  -6  -3 395.663  34.044   3
   4   6  -3 399.495  29.888   3
   4   6  -3 350.849  30.421   4
   4   6  -3 375.732  28.709   7
  -4   6   3 378.102  31.436   3
  -4   6   3 385.751  37.838   9
  -4   6   3 372.053  37.608   9
  -4   6   3 356.926  33.173   1
  -4   6   3 353.749  28.560  10
  -4   6   3 333.130  32.436   5
  -4   6   3 340.617  31.420   6
  -4   6   3 355.672  31.112   2
  -4   6   3 294.320  30.287   7
  -3  -6   3 467.992  45.758   9
  -3  -6   3 462.024  45.229   9
   3  -6  -3 621.821  46.620   1
   3  -6  -3 553.998  47.685   4
   3  -6  -3 570.809  45.854   6
  -3  -6   3 534.662  40.797   7
  -3  -6   3 539.490  39.962   7
  -3  -6   3 483.274  44.272   5
   3  -6  -3 555.249  51.864   9
   3  -6  -3 622.724  47.275   3
   3  -6  -3 456.489  42.383   8
   3  -6  -3 581.374  50.643   5
   3  -6  -3 433.917  42.903   7
  -3  -6   3 481.940  40.293   1
   3   6  -3 593.420  41.308   1
   3   6  -3 481.964  43.087   3
  -3   6   3 537.851  41.208   8
  -3   6   3 506.248  50.575   9
  -3   6   3 560.633  45.517   1
  -3   6   3 571.750  45.579   3
  -3   6   3 572.907  45.058   7
  -3   6   3 465.329  39.529  10
   3   6  -3 528.908  41.170   7
  -3   6   3 600.417  45.413   6
   3   6  -3 518.790  44.823   4
  -3   6   3 539.520  44.585   1
  -3   6   3 468.851  45.012   5
  -3   6   3 516.234  43.150   2
  -3   6   3 561.128  43.697   7
  -2  -6   3 784.813  66.865   9
   2  -6  -3 878.318  64.338   1
  -2  -6   3 778.613  64.771   5
  -2  -6   3 741.927  58.822   6
  -2  -6   3 718.209  60.471   1
   2  -6  -3 900.051  68.344   4
   2  -6  -3 864.681  66.084   3
  -2  -6   3 762.400  60.555   6
   2  -6  -3 715.459  62.250   7
  -2  -6   3 806.280  59.590   7
   2  -6  -3 932.211  71.702   5
  -2  -6   3 715.889  60.063   1
  -2  -6   3 710.288  66.933   9
   2  -6  -3 856.980  71.896   9
   2  -6  -3 697.469  61.113   8
   2  -6  -3 708.955  63.258   6
  -2  -6   3 740.345  60.526   7
  -2   6   3 717.121  64.793   3
  -2   6   3 792.373  71.467   9
  -2   6   3 774.604  60.755   8
   2   6  -3 687.883  62.996   3
  -2   6   3 923.731  57.646  10
   2   6  -3 822.943  60.413   1
   2   6  -3 733.114  59.274   8
  -2   6   3 755.926  62.748   7
   2   6  -3 773.791  60.251   7
  -2   6   3 867.036  63.598   1
   2   6  -3 757.260  60.514   8
  -2   6   3 804.191  63.477   1
  -2   6   3 735.045  61.526   2
   2   6  -3 841.216  67.744   9
   2   6  -3 791.115  66.055   4
  -2   6   3 811.979  64.050   6
  -2   6   3 769.760  65.278   5
   1  -6  -3 42.7859 11.0549   5
   1  -6  -3 27.3115  5.9481   8
  -1  -6   3 24.0350  6.3045   5
   1  -6  -3 36.0257  7.8072   6
  -1  -6   3 26.5413  6.9323   9
  -1  -6   3 40.3203  5.3407   7
   1  -6  -3 36.3744  4.4324   2
   1  -6  -3 28.8902  7.0573   3
  -1  -6   3 23.8862  5.3495   1
   1  -6  -3 20.1209  6.2080   7
   1  -6  -3 30.0808  7.9198   1
  -1  -6   3 33.7298  4.6192   6
   1  -6  -3 56.5202 11.4814   9
  -1  -6   3 27.7775  4.2025   3
  -1  -6   3 27.1363  7.1111   9
  -1  -6   3 30.1164  6.0431   6
  -1  -6   3 35.7546  5.8208   3
   1  -6  -3 19.8961  6.2936   4
   1   6  -3 20.8639  6.0628   4
  -1   6   3 20.2051  5.6652  10
   1   6  -3 41.5516  8.2073   9
   1   6  -3 30.8143  4.7347   6
   1   6  -3 43.3651  7.2712   9
   1   6  -3 21.1946  5.0152   8
  -1   6   3 31.5458 10.0938   9
   1   6  -3 21.8325  6.2013   8
  -1   6   3 33.4452  7.1112   7
   1   6  -3 32.2728  5.5421   7
   1   6  -3 35.3961  6.2490   3
   1   6  -3 21.8039  5.3238   1
  -1   6   3 24.9234  6.7549   3
  -1   6   3 17.8415  6.6240   1
  -1   6   3 25.3060  5.6838   8
  -1   6   3 30.0824  6.2908   5
  -1   6   3 40.5814  5.5346   2
   0  -6   3 169.186  14.403   8
   0  -6   3 128.837  15.298   1
   0  -6  -3 175.060  17.746   1
   0  -6  -3 145.681  14.638  10
   0  -6  -3 136.461  20.399   9
   0  -6  -3 164.009  15.696   8
   0  -6   3 146.793  18.244   9
   0  -6  -3 170.031  19.731   9
   0  -6   3 173.568  16.379   6
   0  -6  -3 162.510  17.126   1
   0  -6   3 164.589  14.763   6
   0  -6   3 191.930  16.828   3
   0  -6  -3 177.364  13.547   2
   0  -6  -3 165.404  15.010   8
   0  -6   3 177.308  15.511   7
   0  -6  -3 186.478  16.908   6
   0  -6   3 177.457  14.136   8
   0  -6  -3 152.032  16.170   7
   0  -6  -3 188.065  16.876   7
   0  -6   3 131.955  18.065   9
   0  -6   3 147.953  15.779   1
   0  -6   3 137.315  17.250   5
   0  -6  -3 134.348  15.714   3
   0   6  -3 194.046  15.347   6
   0   6  -3 168.821  18.760   9
   0   6   3 138.174  16.384   7
   0   6   3 187.091  17.351   6
   0   6  -3 165.549  16.397   1
   0   6  -3 160.467  15.698   7
   0   6   3 185.957  17.746   1
   0   6   3 166.225  14.984  10
   0   6  -3 172.889  16.796   3
   0   6  -3 174.882  18.504   9
   0   6   3 155.301  21.032   9
   0   6  -3 163.413  15.471   8
   0   6   3 183.896  17.125   5
   0   6  -3 171.894  16.166   6
   0   6  -3 177.209  18.127   4
   0   6   3 137.347  16.197   3
   1  -6   3 32.7410  5.0738   8
   1  -6   3 25.4567  6.9858   5
   1  -6   3 23.0903  6.0751   1
  -1  -6  -3 29.3317  7.3611   1
  -1  -6  -3 11.3990  7.2540   9
  -1  -6  -3 25.8137  4.5168   8
   1  -6   3 33.2752  6.4292   3
   1  -6   3 20.2721  7.3960   9
  -1  -6  -3 30.2697  6.5654   4
  -1  -6  -3 26.1890  5.9237   7
  -1  -6  -3 28.3272  8.7381   9
  -1  -6  -3 26.0959  5.4855   3
   1  -6   3 22.2733  5.5171   8
  -1  -6  -3 28.9896  5.8235  10
  -1  -6  -3 20.6516  5.2954   6
  -1  -6  -3 34.8968  5.3810   8
   1  -6   3 26.3508  5.2633   6
   1  -6   3 27.5310  6.2578   1
   1  -6   3 25.5248  7.3848   9
  -1  -6  -3 25.0415  5.9441   7
   1  -6   3 6.43167 4.78989   6
  -1  -6  -3 33.5178  7.2664   1
   1   6   3 43.5631 10.1823   9
  -1   6  -3 20.7415  6.0526   8
  -1   6  -3 32.3825  5.9533   6
   1   6   3 23.4068  5.7458   3
   1   6   3 32.2953  6.3183   5
  -1   6  -3 19.3627  6.4366   1
  -1   6  -3 26.3688  6.5638   3
  -1   6  -3 21.5207  7.5868   9
   1   6   3 30.2614  6.6418   6
   1   6   3 32.0720  7.3867   1
  -1   6  -3 21.2003  5.7326   7
   1   6   3 30.6505  6.0350  10
  -1   6  -3 27.5440  7.7373   4
   1   6   3 26.1790  7.2348   7
  -2  -6  -3 495.004  40.486   7
  -2  -6  -3 485.835  42.377   1
   2  -6   3 518.168  41.517   6
  -2  -6  -3 476.003  47.757   9
  -2  -6  -3 528.178  37.976  10
  -2  -6  -3 494.539  40.022   6
   2  -6   3 517.778  47.309   9
  -2  -6  -3 466.062  41.158   7
  -2  -6  -3 478.971  47.363   9
   2  -6   3 496.526  44.753   5
   2  -6   3 484.482  42.904   3
   2  -6   3 435.810  46.051   9
  -2  -6  -3 524.926  44.402   4
   2  -6   3 438.253  40.375   8
   2  -6   3 511.139  41.992   1
  -2   6  -3 566.481  44.043   3
   2   6   3 483.315  42.189   7
   2   6   3 516.059  45.247   4
  -2   6  -3 515.179  41.392   7
   2   6   3 480.664  46.789   9
  -2   6  -3 494.932  42.720   2
  -2   6  -3 464.568  45.675   4
   2   6   3 540.974  42.188   1
  -2   6  -3 553.639  40.831   6
   2   6   3 442.106  41.884   3
  -2   6  -3 551.548  41.454   8
  -2   6  -3 513.402  42.241   1
  -2   6  -3 532.638  47.070   9
  -2   6  -3 474.212  47.006   9
   2   6   3 446.362  42.583   5
   3  -6   3 1.05775 5.30952   5
  -3  -6  -3 5.77489 3.85020   6
  -3  -6  -3 -0.7992  5.6203   1
   3  -6   3 -0.2541  5.1791   1
  -3  -6  -3 5.87976 7.02414   9
  -3  -6  -3 5.66849 4.78651  10
  -3  -6  -3 2.47841 3.91108   7
  -3  -6  -3 7.48174 4.45433   7
   3  -6   3 3.72256 5.38947   8
  -3  -6  -3 7.70735 7.66138   9
  -3   6  -3 1.76761 7.12252   8
   3   6   3 5.57700 4.35001   3
  -3   6  -3 9.34188 6.61287   1
  -3   6  -3 4.42025 5.03519   6
  -3   6  -3 0.79289 4.65524   7
  -3   6  -3 -3.0475  5.2421   2
   3   6   3 10.2266  4.7804   5
  -3   6  -3 4.30343 7.01672   9
  -4  -6  -3 737.745  55.319  10
  -4  -6  -3 793.557  67.924   9
   4  -6   3 694.517  60.062   8
  -4  -6  -3 825.561  59.166   7
  -4  -6  -3 739.923  57.638   6
  -4  -6  -3 683.480  60.882   1
   4  -6   3 773.319  65.279   5
  -4  -6  -3 735.667  69.241   9
  -4   6  -3 740.562  58.812   8
  -4   6  -3 668.985  61.901   2
  -4   6  -3 804.195  62.630   1
  -4   6  -3 716.977  60.817   7
  -4   6  -3 719.171  59.242   6
  -5  -6  -3 30.0813  5.2990   6
   5  -6   3 24.7819  8.1680   8
  -5  -6  -3 36.3634  9.6923   1
  -5  -6  -3 28.5156  6.9092   7
   5  -6   3 24.7196  9.6326   5
  -5  -6  -3 35.7896 10.5195   9
  -5  -6  -3 38.6164  7.9061  10
  -5   6  -3 27.1108  9.1255   7
  -5   6  -3 29.5035  7.9166   6
  -5   6  -3 19.4546  8.3707   2
  -5   6  -3 24.0472  9.0022   1
  -6  -6  -3 73.2721 14.1994   9
  -6  -6  -3 79.3680  9.7977   7
  -6  -6  -3 71.6239 10.6339  10
  -6  -6  -3 35.8252 10.2872   1
  -6   6  -3 47.3038 10.1836   6
  -6   6  -3 52.6416 12.4051   2
  -6   6  -3 55.9005 14.2527   1
  -8   7   3 666.905  50.351   1
  -8   7   3 676.247  49.918   7
   8   7  -3 597.335  50.681   4
   8   7  -3 517.756  49.444   4
  -8   7   3 545.615  52.192   2
   7  -7  -3 833.513  63.461   8
  -7   7   3 869.559  63.985   7
  -7   7   3 624.885  63.239   1
  -7   7   3 800.200  59.132  10
  -7   7   3 804.892  74.800   9
  -7   7   3 718.044  65.613   2
  -7   7   3 816.755  70.470   5
   6  -7  -3 179.813  19.057   7
   6  -7  -3 168.289  17.029   8
  -6  -7   3 185.089  15.714   5
  -6   7   3 125.867  15.310  10
   6   7  -3 157.391  13.312   3
   6   7  -3 143.361  13.993   4
  -6   7   3 129.769  22.510   9
  -6   7   3 195.850  20.177   1
  -6   7   3 156.414  17.347   7
  -6   7   3 142.444  19.074   5
  -6   7   3 145.879  17.735   2
   6   7  -3 136.475  14.102   4
   5  -7  -3 79.7004 12.4675   3
  -5  -7   3 86.7136  9.6671   5
  -5  -7   3 55.5259  8.0247   9
   5  -7  -3 74.5502 10.4454   8
   5  -7  -3 70.7037 11.4611   7
   5  -7  -3 58.4269 13.0469   5
  -5   7   3 52.9789 10.3319   7
  -5   7   3 91.5491 10.6730  10
  -5   7   3 72.9052 11.0661   2
  -5   7   3 87.0632 12.6597   5
   5   7  -3 64.0398  7.7623   3
  -5   7   3 78.5039 11.3378   6
  -5   7   3 63.6260 15.6284   9
  -5   7   3 93.6902 13.9659   1
   5   7  -3 71.6825  8.3587   4
  -5   7   3 109.729  18.739   9
   4  -7  -3 681.704  62.820   5
  -4  -7   3 788.364  58.112   5
  -4  -7   3 765.416  58.660   9
   4  -7  -3 649.805  56.117   7
   4  -7  -3 669.799  61.495   4
   4  -7  -3 640.040  54.727   8
   4  -7  -3 613.798  58.744   3
   4  -7  -3 587.589  57.882   1
  -4   7   3 809.486  57.726   6
  -4   7   3 717.394  57.642   3
  -4   7   3 548.496  58.112   5
  -4   7   3 683.236  51.510  10
  -4   7   3 733.182  52.207   8
   4   7  -3 647.448  53.618   7
   4   7  -3 629.079  55.556   3
  -4   7   3 755.585  66.109   9
   4   7  -3 680.523  57.837   4
  -4   7   3 686.133  64.382   9
  -4   7   3 644.255  55.781   7
  -4   7   3 738.955  56.466   2
  -4   7   3 618.773  57.446   1
   3  -7  -3 78.4934 10.2379   8
  -3  -7   3 80.1276  8.8490   5
  -3  -7   3 67.8429  8.8952   1
  -3  -7   3 58.4119 10.2160   9
  -3  -7   3 66.3540  7.4708   1
  -3  -7   3 80.7534  8.4112   7
   3  -7  -3 69.6337 10.9924   7
  -3  -7   3 64.0379  9.7229   9
   3  -7  -3 69.9885 15.3284   5
   3  -7  -3 93.9386 12.9382   3
   3  -7  -3 72.7705 11.7336   4
  -3  -7   3 65.1389  9.7860   5
   3  -7  -3 56.7214 12.0036   1
   3  -7  -3 70.2879 12.4928   6
   3  -7  -3 107.084  17.320   9
  -3   7   3 93.0194  9.2307   8
  -3   7   3 74.0139 11.1662   3
  -3   7   3 72.9571 14.0932   9
  -3   7   3 103.518  13.614   6
  -3   7   3 51.3409 13.6595   9
  -3   7   3 65.6576 10.4837   5
  -3   7   3 66.1670 12.4906   1
   3   7  -3 65.7485  9.2406   4
   3   7  -3 78.1813  6.8847   8
  -3   7   3 96.2753 12.5718   1
   3   7  -3 67.8479  9.2329   3
   3   7  -3 83.3229  7.2355   8
  -3   7   3 51.3664  9.8972   7
   3   7  -3 48.4130  7.9754   7
  -3   7   3 81.5177  9.8159   2
  -3   7   3 54.2827  9.1741  10
   2  -7  -3 346.760  39.775   5
  -2  -7   3 328.508  35.268   9
  -2  -7   3 376.903  32.221   6
  -2  -7   3 355.176  35.933   9
  -2  -7   3 459.024  31.322   7
  -2  -7   3 401.691  32.572   7
  -2  -7   3 367.278  34.600   5
   2  -7  -3 352.972  32.538   8
   2  -7  -3 351.133  35.027   6
   2  -7  -3 471.078  36.858   3
  -2  -7   3 397.343  30.350   6
  -2  -7   3 369.881  32.602   1
   2  -7  -3 379.240  35.494   1
   2  -7  -3 458.119  35.249   7
  -2  -7   3 376.897  31.529   1
   2  -7  -3 326.523  39.222   9
   2  -7  -3 404.042  37.116   4
   2   7  -3 376.469  34.893   4
  -2   7   3 413.782  31.119  10
  -2   7   3 380.269  34.828   1
  -2   7   3 365.505  40.557   9
  -2   7   3 405.548  34.952   5
   2   7  -3 409.436  37.329   9
  -2   7   3 429.987  36.116   6
   2   7  -3 338.572  31.651   7
   2   7  -3 421.224  32.474   8
   2   7  -3 373.729  31.999   1
   2   7  -3 374.291  33.680   3
  -2   7   3 433.892  32.738   2
   2   7  -3 368.027  30.682   8
  -2   7   3 417.637  34.321   7
  -2   7   3 420.706  35.923   3
  -2   7   3 350.170  34.871   1
  -1  -7   3 1402.40  117.79   3
  -1  -7   3 1497.69  112.83   6
  -1  -7   3 1621.61  114.69   1
  -1  -7   3 1308.54  114.31   6
   1  -7  -3 1583.52  116.90   6
  -1  -7   3 1502.74  126.64   9
   1  -7  -3 1615.31  115.38   2
  -1  -7   3 1547.38  127.02   9
   1  -7  -3 1407.12  116.30   7
  -1  -7   3 1650.85  123.22   5
   1  -7  -3 1575.96  121.36   3
  -1  -7   3 1604.84  119.45   3
  -1  -7   3 1519.66  114.02   7
   1  -7  -3 1453.87  129.78   9
   1  -7  -3 1635.00  128.25   5
   1  -7  -3 1319.49  116.73   1
   1  -7  -3 1317.50  114.53   8
  -1   7   3 1605.77  107.44  10
   1   7  -3 1637.80  114.93   1
   1   7  -3 1596.14  115.96   8
   1   7  -3 1525.95  120.13   3
   1   7  -3 1534.02  113.37   6
   1   7  -3 1526.14  114.61   7
  -1   7   3 1307.58  121.91   5
  -1   7   3 1231.51  115.42   7
  -1   7   3 1668.69  116.09   2
   1   7  -3 1603.20  127.81   9
   1   7  -3 1382.58  125.42   4
  -1   7   3 1308.65  120.70   3
   1   7  -3 1313.33  125.77   9
   1   7  -3 1512.09  114.09   8
   0  -7   3 189.488  17.318   3
   0  -7  -3 132.347  16.711   6
   0  -7  -3 181.466  18.828   1
   0  -7   3 177.805  16.128   7
   0  -7  -3 174.738  22.503   9
   0  -7   3 171.434  17.161   6
   0  -7   3 142.267  14.750   6
   0  -7  -3 151.966  15.743   8
   0  -7  -3 204.095  17.711   3
   0  -7  -3 170.476  18.481   1
   0  -7   3 168.213  16.558   1
   0  -7   3 169.458  14.607   8
   0  -7  -3 188.879  17.617   7
   0  -7   3 200.550  17.427   1
   0  -7   3 163.974  18.179   5
   0  -7   3 180.842  19.732   9
   0  -7   3 176.087  14.216   8
   0  -7   3 153.522  19.484   9
   0  -7  -3 179.871  15.355   8
   0  -7  -3 146.144  15.139  10
   0   7  -3 175.052  19.329   9
   0   7  -3 164.534  17.239   3
   0   7   3 132.046  17.259   6
   0   7  -3 141.330  15.121   6
   0   7   3 167.674  17.652   7
   0   7   3 174.062  15.986  10
   0   7  -3 189.262  16.790   7
   0   7   3 184.075  23.155   9
   0   7  -3 126.674  15.823   8
   0   7   3 142.214  17.380   1
   0   7   3 160.580  17.296   3
   0   7  -3 157.276  16.440   1
   0   7  -3 164.533  18.680   4
   0   7  -3 179.291  20.596   9
   0   7   3 171.088  17.437   5
   1  -7   3 14.4398  5.0345   8
   1  -7   3 9.80713 5.51955   1
   1  -7   3 10.8940  7.0017   9
   1  -7   3 15.4599  4.5589   6
  -1  -7  -3 26.2181  6.7547   7
  -1  -7  -3 14.8223  6.6341   1
  -1  -7  -3 12.2215  5.7852   8
  -1  -7  -3 16.2472  6.3715   1
   1  -7   3 17.2708  5.6410   1
  -1  -7  -3 11.5167  5.1984  10
  -1  -7  -3 12.9139  8.4144   9
   1  -7   3 11.9103  6.3908   5
  -1  -7  -3 19.2513  5.5387   6
  -1  -7  -3 7.61829 4.54518   3
  -1  -7  -3 16.5421  6.4570   4
   1  -7   3 13.4103  5.2915   3
  -1  -7  -3 21.1318  8.8638   9
  -1  -7  -3 6.41951 3.71571   8
  -1  -7  -3 16.4369  5.4311   7
   1  -7   3 11.6737  5.5906   6
   1  -7   3 10.8572  6.7683   9
  -1   7  -3 23.1415  5.7032   6
   1   7   3 22.3059  9.5553   9
   1   7   3 13.2897  6.0921   1
   1   7   3 15.6792  5.2701   3
  -1   7  -3 18.3236  6.2250   3
  -1   7  -3 36.3558  9.4090   9
  -1   7  -3 34.8276  8.4520   4
  -1   7  -3 8.40691 6.20751   9
  -1   7  -3 15.8738  5.9102   7
  -1   7  -3 20.3867  6.7242   8
   1   7   3 10.6343  5.9815   7
   1   7   3 5.84910 4.71685  10
   1   7   3 19.7400  5.9951   5
  -1   7  -3 18.7685  6.2255   1
   2  -7   3 303.541  27.787   6
  -2  -7  -3 381.659  29.697   7
  -2  -7  -3 308.767  29.863   1
   2  -7   3 249.192  30.862   5
   2  -7   3 366.812  28.571   8
  -2  -7  -3 340.078  26.671  10
   2  -7   3 333.029  30.033   1
   2  -7   3 373.564  34.602   9
   2  -7   3 331.715  34.118   9
  -2  -7  -3 312.931  33.939   9
  -2  -7  -3 337.746  28.281   7
   2  -7   3 358.382  30.077   6
  -2  -7  -3 326.038  27.683   6
   2   7   3 374.295  30.035   5
   2   7   3 289.684  28.970   3
  -2   7  -3 340.775  29.364   7
  -2   7  -3 323.614  30.142   2
  -2   7  -3 307.382  29.706   1
   2   7   3 308.310  29.793   1
   2   7   3 336.889  34.184   9
  -2   7  -3 351.278  34.474   9
  -2   7  -3 332.593  33.179   4
  -2   7  -3 281.317  27.656   6
   2   7   3 300.419  29.691   7
  -2   7  -3 341.281  33.888   9
  -2   7  -3 278.283  30.274   3
  -3  -7  -3 33.9634 11.1038   9
   3  -7   3 49.9958 10.1524   1
  -3  -7  -3 42.3548  7.5825  10
  -3  -7  -3 41.4499  7.4247   7
   3  -7   3 40.0528 10.3379   5
  -3  -7  -3 31.2789  6.3411   6
   3  -7   3 34.2118  7.8973   8
  -3  -7  -3 47.1345 10.1869   1
  -3  -7  -3 22.0805  9.5704   9
  -3   7  -3 47.0241  9.2902   7
  -3   7  -3 32.8734  9.0965   2
  -3   7  -3 46.2389  9.8843   8
   3   7   3 42.4730  7.9816   5
  -3   7  -3 44.6200 10.2549   1
  -3   7  -3 36.0013  7.4859   6
   3   7   3 33.6797  7.4268   3
  -4  -7  -3 64.4785  9.4792   7
  -4  -7  -3 85.1434 10.4458  10
   4  -7   3 75.3229 11.1290   8
   4  -7   3 63.4950 12.6882   5
  -4  -7  -3 75.6084 12.5939   1
  -4  -7  -3 72.2231  8.5770   6
  -4  -7  -3 75.1803 14.3862   9
  -4   7  -3 66.6004 12.1735   2
  -4   7  -3 68.1291 13.2720   1
  -4   7  -3 59.9379 10.0915   8
  -4   7  -3 64.8603 11.9883   7
  -5  -7  -3 67.9138 13.8236   9
  -5  -7  -3 60.0951  7.2411   6
  -5  -7  -3 65.7483  9.4671   7
   5  -7   3 46.4219 11.9444   5
  -5  -7  -3 59.9596  9.9620  10
  -5  -7  -3 79.0159 12.3375   1
  -5   7  -3 47.4624 12.4240   1
  -5   7  -3 54.2456 11.8976   7
  -5   7  -3 52.0524 12.3437   2
  -6  -7  -3 15.6693  7.3752  10
  -6  -7  -3 -6.2683  8.7018   9
  -6  -7  -3 5.71122 7.73290   1
  -6   7  -3 12.6240  8.4482   2
  -6   7  -3 0.04652 8.90086   1
  -8   8   3 0.82889 7.35263   2
  -8   8   3 2.49601 7.58824   1
   8   8  -3 1.59702 4.35731   4
  -7   8   3 97.4688 20.4672   9
   7   8  -3 87.0385 10.7335   4
  -7   8   3 66.8215 12.4625   7
  -7   8   3 102.592  15.063   2
  -7   8   3 81.2947 16.5225   5
  -7   8   3 63.1871 13.7481   1
   6  -8  -3 114.874  15.299   8
  -6  -8   3 161.801  15.288   5
   6  -8  -3 145.018  17.763   7
  -6   8   3 123.375  15.369   6
  -6   8   3 133.699  18.970   5
  -6   8   3 139.013  18.890   1
   6   8  -3 122.168  14.143   4
  -6   8   3 155.660  17.450   2
  -6   8   3 107.899  15.713   7
  -6   8   3 141.029  23.362   9
   6   8  -3 141.700  13.253   3
   5  -8  -3 111.765  16.280   3
  -5  -8   3 124.370  13.646   5
   5  -8  -3 131.637  18.799   5
  -5  -8   3 118.418  12.369   9
   5  -8  -3 116.859  14.129   8
   5  -8  -3 121.885  15.618   7
  -5   8   3 101.585  15.172   5
  -5   8   3 89.2843 19.4394   9
  -5   8   3 122.522  13.720  10
  -5   8   3 94.7837 13.5724   2
  -5   8   3 99.1473 14.5504   6
  -5   8   3 121.344  15.115   7
  -5   8   3 118.052  16.834   1
   5   8  -3 124.674  12.581   3
   5   8  -3 87.3400 11.9944   4
   4  -8  -3 723.988  58.214   1
  -4  -8   3 670.918  56.375   5
   4  -8  -3 634.532  61.315   5
   4  -8  -3 599.789  53.184   8
   4  -8  -3 717.153  55.417   7
   4  -8  -3 614.911  57.291   3
  -4  -8   3 656.954  56.868   9
   4   8  -3 645.334  56.418   4
   4   8  -3 686.241  54.425   3
  -4   8   3 672.264  56.833   1
  -4   8   3 709.294  64.855   9
  -4   8   3 618.647  49.971  10
  -4   8   3 723.857  56.708   3
  -4   8   3 689.462  55.839   6
  -4   8   3 623.347  50.943   8
  -4   8   3 599.000  62.189   9
  -4   8   3 584.635  56.866   5
  -4   8   3 646.002  54.467   7
  -4   8   3 681.805  54.469   2
  -3  -8   3 2779.75  201.84   7
  -3  -8   3 2796.17  222.29   9
   3  -8  -3 2444.06  203.94   8
   3  -8  -3 3077.87  223.20   5
  -3  -8   3 2729.76  202.48   1
   3  -8  -3 2667.15  207.25   1
  -3  -8   3 2292.19  222.43   9
   3  -8  -3 3243.24  207.41   6
   3  -8  -3 2929.30  214.83   3
   3  -8  -3 2878.90  224.50   4
   3  -8  -3 2222.38  203.89   7
   3  -8  -3 2718.57  228.31   9
  -3  -8   3 2426.28  201.15   1
  -3  -8   3 2675.53  216.64   5
  -3   8   3 2419.43  216.22   5
  -3   8   3 2489.60  204.60   6
  -3   8   3 2440.47  227.44   9
   3   8  -3 2773.83  202.70   7
   3   8  -3 2852.86  221.65   4
   3   8  -3 2991.55  211.94   3
   3   8  -3 2592.18  202.04   8
   3   8  -3 2473.37  201.34   8
  -3   8   3 2739.37  188.95  10
  -3   8   3 2779.65  206.16   1
  -3   8   3 3022.97  227.74   9
  -3   8   3 2764.67  213.64   3
  -3   8   3 2750.18  206.92   2
  -3   8   3 2204.74  203.90   7
   2  -8  -3 832.318  60.826   4
  -2  -8   3 651.549  52.616   6
   2  -8  -3 604.101  61.906   5
  -2  -8   3 679.098  53.278   7
  -2  -8   3 642.793  50.564   6
   2  -8  -3 643.846  53.167   8
   2  -8  -3 690.218  64.097   9
  -2  -8   3 661.653  51.845   3
  -2  -8   3 674.177  57.199   5
  -2  -8   3 562.026  51.710   1
  -2  -8   3 570.869  58.637   9
  -2  -8   3 622.715  53.494   1
   2  -8  -3 719.265  57.752   3
  -2  -8   3 757.661  51.961   7
  -2  -8   3 612.438  58.347   9
   2  -8  -3 654.961  56.477   6
   2  -8  -3 610.827  56.171   1
   2  -8  -3 668.936  55.329   7
  -2   8   3 677.856  50.315  10
  -2   8   3 684.246  64.488   9
  -2   8   3 623.958  54.561   7
   2   8  -3 723.714  58.202   4
  -2   8   3 647.727  53.192   2
  -2   8   3 644.394  55.838   1
   2   8  -3 653.199  52.843   1
  -2   8   3 696.669  56.973   5
   2   8  -3 615.126  55.254   3
  -2   8   3 737.310  57.043   6
   2   8  -3 703.346  53.342   8
   2   8  -3 614.707  52.606   7
  -2   8   3 677.138  57.254   3
   2   8  -3 626.531  51.500   8
   1  -8  -3 609.263  49.317   1
  -1  -8   3 453.905  50.325   9
  -1  -8   3 481.550  50.691   9
  -1  -8   3 550.930  46.498   6
  -1  -8   3 528.992  46.892   3
   1  -8  -3 503.628  53.614   5
   1  -8  -3 622.356  55.891   9
  -1  -8   3 482.981  45.065   1
   1  -8  -3 634.257  45.557   8
  -1  -8   3 650.310  46.651   7
   1  -8  -3 671.191  44.988   2
   1  -8  -3 589.237  48.663   6
   1  -8  -3 508.258  47.441   7
  -1  -8   3 596.306  49.679   5
  -1  -8   3 539.292  43.874   6
  -1  -8   3 612.443  45.079   7
   1  -8  -3 568.940  49.140   3
  -1   8   3 544.088  48.445   5
   1   8  -3 567.330  45.993   1
   1   8  -3 518.872  45.559   7
  -1   8   3 621.152  45.273   2
  -1   8   3 632.845  48.174   7
  -1   8   3 563.341  49.487   3
   1   8  -3 552.406  50.416   4
   1   8  -3 575.559  44.724   6
   1   8  -3 481.624  44.532   8
  -1   8   3 519.162  47.826   1
  -1   8   3 553.686  43.542  10
   1   8  -3 506.682  51.542   9
   1   8  -3 549.851  48.207   3
   0  -8   3 37.7514  9.7432   9
   0  -8   3 16.9160  6.9656   6
   0  -8  -3 31.0565  5.9394   8
   0  -8   3 44.5033  8.1515   3
   0  -8  -3 21.2876  8.3407   1
   0  -8   3 27.9381  7.7928   1
   0  -8  -3 58.4187 13.3005   9
   0  -8  -3 38.2074  8.6406   7
   0  -8   3 48.3729  8.1638   1
   0  -8  -3 38.4405  9.6729   1
   0  -8   3 43.3599  6.2144   6
   0  -8   3 39.8250  6.8864   7
   0  -8   3 37.1950  5.3647   8
   0  -8  -3 44.0143  9.1751   6
   0  -8  -3 37.1662  7.2222  10
   0  -8  -3 49.6712 13.7282   5
   0  -8   3 20.6306  7.6112   5
   0  -8   3 28.1144  9.1725   9
   0  -8   3 31.6157  4.7696   8
   0   8   3 40.9680 13.2982   9
   0   8  -3 27.7835  9.5669   9
   0   8  -3 41.3938  8.1948   1
   0   8   3 44.5165  9.4494   7
   0   8  -3 43.5447  7.0808   6
   0   8  -3 39.3340  9.1413   4
   0   8   3 31.3084  7.9695   3
   0   8  -3 35.2255  7.5659   7
   0   8   3 50.1306 10.4282   6
   0   8  -3 37.1148  9.4322   9
   0   8   3 33.7540  7.3415   5
   0   8  -3 32.2816  7.6369   8
   0   8   3 38.4535  7.7331  10
   0   8  -3 41.5419  8.6462   3
   0   8   3 36.1179  9.4640   1
  -1  -8  -3 301.915  23.325   8
   1  -8   3 271.666  26.516   1
  -1  -8  -3 293.020  28.448   4
  -1  -8  -3 271.223  26.137   7
  -1  -8  -3 284.480  31.872   9
   1  -8   3 285.921  24.801   8
  -1  -8  -3 271.657  25.743   6
   1  -8   3 273.436  28.736   5
  -1  -8  -3 295.329  24.442  10
   1  -8   3 283.579  30.450   9
  -1  -8  -3 293.295  32.595   9
  -1  -8  -3 255.473  23.940   8
  -1  -8  -3 253.292  27.273   1
   1  -8   3 294.014  24.948   6
   1  -8   3 315.125  27.365   6
  -1   8  -3 303.535  25.426   6
  -1   8  -3 325.913  26.930   7
  -1   8  -3 239.711  25.749   8
   1   8   3 277.800  26.797   5
   1   8   3 298.242  28.082   7
   1   8   3 295.670  27.254   3
  -1   8  -3 280.312  27.948   3
  -1   8  -3 344.698  30.673   4
  -1   8  -3 328.966  27.748   1
   1   8   3 266.389  32.050   9
   1   8   3 295.827  27.431   1
  -1   8  -3 265.916  29.902   9
   2  -8   3 5.20659 5.41648   8
   2  -8   3 6.89619 6.27938   1
  -2  -8  -3 12.6620  5.4488  10
  -2  -8  -3  8.3296 10.0503   9
  -2  -8  -3 6.81429 8.32299   9
  -2  -8  -3 1.66687 4.29348   7
   2  -8   3 8.18820 6.89731   5
   2  -8   3 41.3390  9.1197   6
  -2  -8  -3 7.89051 4.69377   6
  -2  -8  -3 4.23192 6.41714   1
  -2   8  -3 7.18845 6.58422   2
  -2   8  -3 8.20720 7.56775   4
   2   8   3 22.8061  6.6047   3
  -2   8  -3 10.5663  7.0247   8
  -2   8  -3 2.65452 6.40419   1
  -2   8  -3 -8.3963  4.3701   3
   2   8   3 1.22278 4.48601   5
   2   8   3 0.32716 5.48333   7
  -2   8  -3 4.17964 5.67044   7
   3  -8   3 1704.62  132.36   1
   3  -8   3 1583.35  140.66   5
  -3  -8  -3 1813.39  132.60   1
   3  -8   3 1808.86  130.96   8
  -3  -8  -3 1657.38  129.56   7
  -3  -8  -3 1608.20  128.17   6
  -3  -8  -3 1711.05  146.01   9
  -3  -8  -3 1904.10  121.22  10
  -3   8  -3 1734.42  131.90   7
  -3   8  -3 1588.93  130.48   8
  -3   8  -3 1616.99  133.96   2
   3   8   3 1525.58  131.90   7
  -3   8  -3 1679.07  132.64   1
  -4  -8  -3 1.23213 6.65888   1
  -4  -8  -3 10.7343  5.3644   7
  -4  -8  -3 5.79393 9.32863   9
   4  -8   3 14.8244  8.5919   5
  -4  -8  -3 4.24574 5.74988  10
  -4  -8  -3 5.97943 4.38560   6
   4  -8   3 12.2933  7.2579   8
  -4   8  -3 12.6871  8.3418   1
  -4   8  -3 -1.6518  6.4093   2
  -4   8  -3 27.0776  8.1082   8
  -4   8  -3 0.61057 6.22034   7
   5  -8   3 64.1349 13.0481   5
  -5  -8  -3 43.6681  5.8998   6
  -5  -8  -3 55.0674 13.2730   9
  -5  -8  -3 56.5930  9.6433  10
  -5  -8  -3 39.9788  7.9930   7
  -5  -8  -3 31.6388  5.8802   6
  -5  -8  -3 39.2139 10.7953   1
  -5   8  -3 38.8178 12.6558   1
  -5   8  -3 72.6626 13.1309   2
   7   9  -3 111.645  14.033   4
  -7   9   3 97.7704 17.1147   1
  -7   9   3 117.859  17.180   2
  -6  -9   3 16.8702  6.4776   5
   6  -9  -3 26.1420  9.1984   7
  -6  -9   3 9.76262 5.08809   9
  -6  -9   3 14.0747  4.6183   9
   6  -9  -3 12.7442  7.4260   8
   6   9  -3 9.42264 5.87864   4
  -6   9   3 12.0924  7.2755   2
   6   9  -3 23.7370  5.8289   3
  -6   9   3 9.10912 7.54470   6
  -6   9   3 26.6869 11.3569   1
  -6   9   3 2.30985 6.75839   7
  -6   9   3 15.4404  9.5545   5
   5  -9  -3 136.608  16.811   7
   5  -9  -3 137.811  15.253   8
   5  -9  -3 63.4488 17.3625   5
  -5  -9   3 114.042  14.567   5
  -5  -9   3 115.225  13.716   9
  -5   9   3 148.718  15.928   2
  -5   9   3 133.468  16.913   6
   5   9  -3 122.616  13.647   3
  -5   9   3 110.542  16.767   5
  -5   9   3 131.945  18.826   1
  -5   9   3 142.754  16.471   7
  -5   9   3 87.2994 20.8120   9
   5   9  -3 101.690  13.592   4
  -4  -9   3 509.134  36.574   1
  -4  -9   3 488.620  42.826   5
   4  -9  -3 443.963  47.618   5
   4  -9  -3 474.662  40.372   8
  -4  -9   3 471.701  36.760   1
  -4  -9   3 410.563  42.190   9
   4  -9  -3 462.252  41.620   7
  -4   9   3 517.394  41.058   2
   4   9  -3 518.792  41.052   3
  -4   9   3 444.635  49.102   9
  -4   9   3 465.675  43.366   1
  -4   9   3 471.846  42.729   3
   4   9  -3 420.129  42.192   4
  -4   9   3 514.167  42.161   7
  -4   9   3 483.811  42.833   6
  -4   9   3 410.862  42.650   5
   3  -9  -3 2.29690 7.80721   1
  -3  -9   3 -2.7426  5.4560   5
   3  -9  -3 2.98855 6.38928   7
  -3  -9   3 4.69575 6.95297   9
  -3  -9   3 -2.0408  3.5665   1
  -3  -9   3 4.32901 5.78670   9
  -3  -9   3 2.43940 4.25222   7
   3  -9  -3 -1.0528  5.4848   8
  -3  -9   3 1.23505 1.49399   6
  -3  -9   3 3.21454 5.41191   1
   3  -9  -3 -3.1379  8.0944   5
   3   9  -3 2.03298 5.36803   4
   3   9  -3 4.98965 4.95427   8
  -3   9   3 -4.5075  5.9147   6
  -3   9   3 1.70210 5.69976   7
   3   9  -3 4.91388 4.91640   7
  -3   9   3 4.58303 5.06312   2
   3   9  -3 -0.1034  4.6976   3
  -3   9   3 33.0932 12.8364   9
  -3   9   3 1.08804 5.49353   5
  -3   9   3 14.5103  6.8026   3
  -3   9   3 11.1654  7.8467   1
   3   9  -3 -2.1458  4.8896   8
  -2  -9   3 1146.12   96.73   9
  -2  -9   3 1070.78   93.95   5
  -2  -9   3 1085.84   87.44   3
  -2  -9   3 1184.13   97.68   9
  -2  -9   3 1145.62   86.05   7
   2  -9  -3 1071.90   87.37   8
   2  -9  -3 1223.27  100.59   5
  -2  -9   3 1052.13   87.33   7
  -2  -9   3 1104.71   86.52   1
  -2  -9   3 1229.17   88.83   1
   2  -9  -3 1115.26   91.61   1
   2  -9  -3 1223.38   90.53   7
   2  -9  -3 1288.14   92.07   6
  -2  -9   3 1244.66   84.82   6
  -2  -9   3 1177.76   86.92   6
  -2   9   3 976.449  88.808   7
   2   9  -3 1004.09   91.22   3
   2   9  -3 1057.69   86.11   8
   2   9  -3 1062.56   95.65   4
  -2   9   3 1290.33   91.88   1
   2   9  -3 1047.99   87.32   7
  -2   9   3 967.605  92.241   3
  -2   9   3 1106.61   90.53   6
  -2   9   3 1191.13  103.28   9
  -2   9   3 1028.30   87.88   2
  -2   9   3 1128.12   93.38   5
  -1  -9   3 184.449  17.424   7
  -1  -9   3 175.642  19.627   6
   1  -9  -3 153.421  20.856   1
   1  -9  -3 204.527  26.995   9
  -1  -9   3 214.685  21.497   5
  -1  -9   3 198.442  22.135   9
   1  -9  -3 192.497  21.612   6
  -1  -9   3 166.636  18.721   7
  -1  -9   3 131.056  20.652   9
  -1  -9   3 205.736  18.833   1
   1  -9  -3 130.159  19.554   7
  -1  -9   3 188.874  18.420   3
  -1  -9   3 198.955  16.793   6
   1  -9  -3 132.130  24.671   5
   1  -9  -3 171.285  22.408   4
   1  -9  -3 165.764  17.274   8
  -1   9   3 184.379  19.606   5
   1   9  -3 186.047  23.640   9
   1   9  -3 199.746  20.296   3
  -1   9   3 185.486  20.356   7
  -1   9   3 196.879  21.886   1
   1   9  -3 200.229  18.968   7
   1   9  -3 185.846  18.043   8
  -1   9   3 214.240  21.564   3
   1   9  -3 211.599  21.561   4
  -1   9   3 217.889  17.464   2
   0  -9  -3 396.095  36.770   7
   0  -9   3 407.739  32.314   8
   0  -9   3 435.035  36.277   7
   0  -9   3 397.399  35.638   1
   0  -9  -3 462.337  44.800   5
   0  -9   3 389.108  33.666   6
   0  -9  -3 417.086  38.018   1
   0  -9   3 342.319  38.205   5
   0  -9  -3 447.421  33.553   8
   0  -9   3 432.671  40.965   9
   0  -9   3 394.859  36.429   6
   0  -9  -3 521.022  45.624   9
   0  -9   3 418.740  32.163   8
   0  -9  -3 434.885  37.243   6
   0   9  -3 388.363  34.772   8
   0   9   3 403.232  37.432   1
   0   9  -3 440.218  36.183   1
   0   9  -3 372.713  35.401   7
   0   9  -3 435.207  38.351   3
   0   9   3 410.984  38.448   3
   0   9   3 410.621  37.088   5
   0   9   3 387.042  37.109   7
   0   9  -3 385.502  39.390   4
   1  -9   3 427.391  40.239   1
  -1  -9  -3 441.484  39.418   6
  -1  -9  -3 464.827  36.984  10
   1  -9   3 469.504  38.056   8
   1  -9   3 500.852  46.253   9
   1  -9   3 460.693  40.875   6
  -1  -9  -3 531.088  48.465   9
  -1  -9  -3 463.818  36.404   8
   1  -9   3 466.803  44.075   5
  -1  -9  -3 503.292  42.522   1
   1  -9   3 470.426  38.508   6
  -1  -9  -3 497.376  40.678   7
   1   9   3 441.447  41.461   7
  -1   9  -3 496.800  45.558   4
  -1   9  -3 450.795  39.812   8
   1   9   3 479.018  41.553   1
   1   9   3 442.425  41.834   3
  -1   9  -3 528.807  43.609   3
  -1   9  -3 473.634  40.490   7
   1   9   3 432.977  41.150   5
  -1   9  -3 429.884  40.398   1
  -2  -9  -3 2890.84  202.37  10
  -2  -9  -3 2489.51  219.83   1
   2  -9   3 2710.99  218.53   8
   2  -9   3 3109.73  235.72   5
  -2  -9  -3 2975.26  216.82   6
  -2  -9  -3 2785.31  218.32   7
   2  -9   3 2614.97  219.74   1
  -2  -9  -3 3039.63  243.98   9
   2   9   3 2941.63  231.74   5
   2   9   3 2986.43  221.55   7
  -2   9  -3 2997.48  224.12   2
  -2   9  -3 2716.75  219.45   7
  -2   9  -3 2990.73  220.70   1
  -2   9  -3 2565.00  218.85   8
   2   9   3 3020.58  228.32   3
  -2   9  -3 3154.87  230.72   3
  -3  -9  -3 35.2085  9.9374   1
  -3  -9  -3 35.8119  7.1540   6
   3  -9   3 40.9392 10.8328   1
  -3  -9  -3 38.7000  8.0184   7
  -3  -9  -3 46.1477  8.6498  10
   3  -9   3 34.8232 10.9784   5
  -3  -9  -3 41.9716 14.5500   9
   3  -9   3 15.8953  7.9730   8
  -3   9  -3 47.5800 11.5405   1
  -3   9  -3 29.8975  9.5801   8
  -3   9  -3 29.2069  9.6309   7
  -3   9  -3 35.5064  9.3924   3
   3   9   3 28.0091  9.7634   7
  -3   9  -3 31.1696  9.0712   2
   4  -9   3 1046.91   81.19   5
  -4  -9  -3 879.556  73.736   1
  -4  -9  -3 917.831  69.265   6
  -4  -9  -3 973.456  83.103   9
  -4  -9  -3 976.835  71.080   7
  -4  -9  -3 828.760  66.456  10
   4  -9   3 723.172  71.362   8
  -4   9  -3 926.914  75.917   1
  -4   9  -3 871.834  71.501   8
  -4   9  -3 854.201  73.807   7
  -4   9  -3 895.610  75.193   2
  -5  -9  -3 71.7329  8.3844   6
  -5  -9  -3 84.4934 13.7525   1
  -5  -9  -3 71.6710  8.0535   6
  -5  -9  -3 98.6360 12.2995  10
  -5  -9  -3 87.6305 17.4849   9
  -5  -9  -3 81.4279 10.9282   7
  -5   9  -3 69.5701 16.5174   1
  -5   9  -3 75.2962 14.7134   2
  -7  10   3 44.1587 11.9379   2
   7  10  -3 57.0152 11.0262   4
  -7  10   3 47.3948 13.6841   1
  -6 -10   3 458.284  36.759   5
  -6 -10   3 335.787  34.649   9
   6 -10  -3 385.925  37.233   7
  -6 -10   3 391.045  35.786   9
  -6  10   3 390.245  36.727   7
  -6  10   3 383.373  36.667   2
  -6  10   3 384.395  39.672   1
  -6  10   3 368.482  39.018   5
   6  10  -3 438.797  37.520   4
  -5 -10   3 2.15296 5.10524   9
  -5 -10   3 6.73973 5.97123   5
   5 -10  -3 -0.7045  8.0629   5
   5 -10  -3 7.58790 7.77816   8
   5 -10  -3 -0.9469  6.0712   7
  -5  10   3 11.8972  7.9803   5
   5  10  -3 7.41362 6.67411   4
  -5  10   3 2.57842 6.63340   2
  -5  10   3 -2.5601  6.2749   7
  -5  10   3 -7.2756  7.5031   1
  -4 -10   3 2.13842 2.42503   7
   4 -10  -3 6.73858 9.75609   5
  -4 -10   3 4.78320 3.98130   1
  -4 -10   3 4.29173 3.13648   1
  -4 -10   3 4.65114 6.57401   5
  -4 -10   3 2.22285 5.62901   9
   4 -10  -3 2.99816 6.54472   7
   4 -10  -3 -0.8306  7.0522   8
   4  10  -3 7.41422 5.83179   3
  -4  10   3 0.04520 5.79700   2
   4  10  -3 6.27898 6.72693   4
  -4  10   3 -3.8508  6.8735   5
  -4  10   3 8.93153 9.85262   1
  -4  10   3 -2.1839  5.7533   7
  -3 -10   3 303.685  32.558   9
  -3 -10   3 378.674  29.003   7
  -3 -10   3 296.355  25.892   6
  -3 -10   3 363.558  30.247   1
  -3 -10   3 345.666  25.860   6
  -3 -10   3 313.840  27.927   1
   3 -10  -3 354.681  38.109   5
   3 -10  -3 374.389  32.804   7
   3 -10  -3 374.712  30.533   8
  -3 -10   3 362.725  33.586   5
   3 -10  -3 333.480  34.178   1
  -3  10   3 352.979  33.528   3
  -3  10   3 275.804  32.241   1
   3  10  -3 358.454  33.182   4
  -3  10   3 328.399  32.732   5
  -3  10   3 327.086  32.016   7
  -3  10   3 328.113  29.874   2
   3  10  -3 292.531  28.189   8
   3  10  -3 386.170  32.142   3
   2 -10  -3 993.768  85.188   7
   2 -10  -3 1187.33   88.33   1
  -2 -10   3 1159.19   82.27   6
  -2 -10   3 1107.60   83.43   7
  -2 -10   3 1152.76   92.38   9
  -2 -10   3 1001.92   92.40   9
  -2 -10   3 894.266  88.696   5
   2 -10  -3 985.900  82.267   8
  -2 -10   3 1052.44   79.87   6
  -2 -10   3 1035.28   81.95   1
  -2  10   3 966.151  85.441   1
   2  10  -3 1096.37   83.68   7
   2  10  -3 1095.71   81.74   8
  -2  10   3 1072.55   85.40   7
  -2  10   3 1179.79   89.11   3
  -2  10   3 906.469  87.761   5
  -2  10   3 1074.97   83.24   2
   2  10  -3 994.809  86.762   3
   2  10  -3 999.228  90.935   4
   1 -10  -3 992.678  81.411   8
   1 -10  -3 933.044  94.436   5
  -1 -10   3 1033.28   83.70   7
  -1 -10   3 1062.82   92.67   9
  -1 -10   3 1078.74   83.00   1
   1 -10  -3 944.363  85.078   7
  -1 -10   3 1072.45   93.09   9
   1 -10  -3 1077.10   85.93   6
  -1 -10   3 1213.61   90.58   5
  -1 -10   3 1166.67   84.73   6
   1 -10  -3 825.434  84.960   1
  -1 -10   3 962.036  80.400   6
   1  10  -3 1067.35   82.15   8
   1  10  -3 1178.42   88.35   3
  -1  10   3 1097.36   88.93   3
   1  10  -3 1031.42   91.62   4
  -1  10   3 1098.64   86.45   1
  -1  10   3 1002.94   84.94   7
   1  10  -3 975.694  83.187   7
  -1  10   3 1118.43   82.52   2
  -1  10   3 1066.21   88.18   5
   0 -10   3 91.3722 15.8565   5
   0 -10   3 147.489  17.383   6
   0 -10   3 132.723  18.595   9
   0 -10   3 106.418  14.306   1
   0 -10  -3 120.869  22.130   5
   0 -10  -3 115.391  16.338   6
   0 -10   3 132.684  12.839   6
   0 -10  -3 90.7625 15.1396   7
   0 -10   3 118.817  14.787   7
   0 -10  -3 100.823  16.634   1
   0 -10  -3 115.190  11.895   8
   0  10   3 121.305  16.692   7
   0  10  -3 124.246  17.195   4
   0  10  -3 128.898  15.033   8
   0  10   3 115.148  14.569   5
   0  10   3 105.258  16.252   3
   0  10   3 117.938  17.312   1
   0  10  -3 127.574  16.726   3
   0  10  -3 94.9110 14.2673   7
   1 -10   3 462.701  46.445   5
  -1 -10  -3 471.638  41.849   6
  -1 -10  -3 476.980  42.284   7
  -1 -10  -3 437.968  43.476   1
  -1 -10  -3 546.847  51.568   9
   1 -10   3 481.669  42.861   1
   1 -10   3 488.943  43.485   6
  -1 -10  -3 474.453  50.897   5
   1 -10   3 502.078  39.600   8
   1 -10   3 435.014  41.879   7
   1  10   3 470.674  43.278   5
  -1  10  -3 565.756  48.720   4
  -1  10  -3 441.610  44.623   3
   1  10   3 420.731  43.553   3
  -1  10  -3 551.693  43.281   7
  -1  10  -3 526.478  42.176   8
   1  10   3 560.352  45.195   7
   2 -10   3 209.121  21.593   8
   2 -10   3 262.309  25.669   1
  -2 -10  -3 202.345  21.408   6
  -2 -10  -3 220.457  25.096   1
  -2 -10  -3 245.121  21.680  10
  -2 -10  -3 242.375  23.147   7
   2 -10   3 225.520  27.003   5
  -2 -10  -3 279.293  32.176   9
  -2  10  -3 220.560  26.134   3
  -2  10  -3 220.446  23.934   7
  -2  10  -3 226.640  24.826   8
   2  10   3 227.545  25.963   7
  -2  10  -3 238.956  24.456   2
  -2  10  -3 225.529  25.026   1
  -3 -10  -3 270.216  25.072   7
  -3 -10  -3 283.619  24.365  10
   3 -10   3 250.698  27.841   1
  -3 -10  -3 273.052  33.985   9
   3 -10   3 258.900  30.613   5
  -3 -10  -3 247.204  27.463   1
   3 -10   3 281.008  25.718   8
  -3 -10  -3 247.028  23.711   6
  -3  10  -3 251.459  26.983   2
  -3  10  -3 289.389  26.553   8
  -3  10  -3 241.665  27.109   7
  -3  10  -3 313.672  30.603   3
  -3  10  -3 264.940  28.644   1
  -4 -10  -3 26.8643  6.1377   6
  -4 -10  -3 37.7166  8.2902   7
  -4 -10  -3 20.7234 10.1198   1
  -4 -10  -3 47.0279 14.6148   9
  -4 -10  -3 34.4156  8.6719  10
   4 -10   3 29.8628 13.2113   5
  -4 -10  -3 31.6508  6.3384   6
  -4  10  -3 32.2137 10.4902   2
  -4  10  -3 27.9785 11.5978   1
  -5 -10  -3 363.359  31.775   6
  -5 -10  -3 426.251  38.490   1
  -5 -10  -3 474.736  35.595   7
  -5 -10  -3 416.128  44.380   9
  -5 -10  -3 417.579  32.008   6
  -5  10  -3 409.648  41.669   1
  -5  10  -3 396.065  39.410   2
  -6 -11   3 1077.76   91.17   5
  -6 -11   3 1174.48   91.95   9
   6 -11  -3 1126.70   89.16   7
  -6  11   3 1074.54   94.53   5
  -6  11   3 1097.25   91.74   1
  -6  11   3 1017.99   88.75   2
   6  11  -3 972.727  92.992   4
  -5 -11   3 48.1361  9.7183   9
  -5 -11   3 55.6169 11.6174   5
   5 -11  -3 65.3636 17.2014   5
   5 -11  -3 37.1116 11.2861   7
  -5  11   3 53.2282 11.4434   2
  -5  11   3 70.4796 14.2368   5
  -5  11   3 51.2185 12.9033   7
   5  11  -3 56.5626 11.4296   4
  -5  11   3 44.3548 14.4145   1
   4 -11  -3 316.978  30.001   8
  -4 -11   3 314.636  32.179   5
  -4 -11   3 309.144  31.724   9
  -4 -11   3 312.122  26.328   1
  -4 -11   3 327.306  26.940   1
   4 -11  -3 344.314  31.912   7
   4 -11  -3 319.595  38.577   5
  -4  11   3 307.331  32.301   5
  -4  11   3 288.949  29.592   2
  -4  11   3 333.603  32.407   7
  -4  11   3 358.786  34.607   1
   4  11  -3 318.295  32.408   4
  -3 -11   3 161.426  17.051   1
   3 -11  -3 176.460  26.677   5
   3 -11  -3 214.982  22.378   7
  -3 -11   3 185.543  21.960   9
  -3 -11   3 179.268  22.062   5
   3 -11  -3 204.060  19.819   8
  -3 -11   3 167.851  14.995   6
   3 -11  -3 151.683  22.486   1
  -3 -11   3 185.908  17.861   7
  -3 -11   3 197.616  14.892   6
  -3  11   3 181.932  22.034   3
  -3  11   3 204.539  21.594   5
  -3  11   3 139.168  20.463   7
  -3  11   3 187.057  18.944   2
   3  11  -3 168.640  21.333   4
  -3  11   3 181.312  22.708   1
   3  11  -3 187.102  18.378   8
  -2 -11   3 19.8041  7.2614   7
  -2 -11   3 25.8484 10.3557   9
  -2 -11   3 12.4358  4.1272   6
  -2 -11   3 9.08302 5.79295   6
  -2 -11   3 12.0090  5.9891   1
   2 -11  -3 6.98306 7.40804   7
   2 -11  -3 7.94893 9.14760   1
  -2 -11   3 4.22371 7.28304   9
   2 -11  -3 14.4771 11.0984   5
   2 -11  -3 15.0000  6.8599   8
  -2 -11   3 20.9281  8.5842   5
  -2  11   3 1.74275 6.42054   5
   2  11  -3 1.72007 6.63480   7
   2  11  -3 3.38998 7.89706   4
  -2  11   3 3.27621 6.76882   7
  -2  11   3 15.4862  8.1587   3
  -2  11   3 5.22516 9.00326   1
  -2  11   3 12.6920  5.6571   2
   2  11  -3 8.33643 7.16352   8
  -1 -11   3 947.262  79.971   9
   1 -11  -3 862.875  82.206   5
  -1 -11   3 898.403  71.283   6
   1 -11  -3 842.228  72.672   7
  -1 -11   3 865.359  70.769   7
  -1 -11   3 826.639  67.377   6
  -1 -11   3 894.942  76.202   5
   1 -11  -3 799.280  73.351   1
  -1 -11   3 883.262  69.970   1
   1 -11  -3 798.979  67.891   8
  -1  11   3 799.535  72.605   1
  -1  11   3 868.614  72.489   7
   1  11  -3 978.686  71.887   7
   1  11  -3 806.283  69.372   8
   1  11  -3 838.527  77.521   4
  -1  11   3 991.828  76.140   3
  -1  11   3 900.674  74.367   5
   0 -11   3 418.889  41.735   9
   0 -11   3 343.395  39.098   5
   0 -11  -3 420.567  37.907   6
   0 -11  -3 385.423  32.297   8
   0 -11   3 406.067  33.455   6
   0 -11  -3 400.764  38.537   1
   0 -11  -3 319.125  36.241   7
   0 -11   3 384.704  37.724   6
   0 -11   3 362.628  35.300   1
   0 -11   3 382.599  36.396   7
   0 -11  -3 336.916  44.437   5
   0  11  -3 393.840  35.472   8
   0  11   3 494.570  38.078   5
   0  11  -3 417.350  40.961   4
   0  11   3 430.574  38.396   7
   0  11   3 400.793  38.830   3
   0  11  -3 450.794  37.149   7
   1 -11   3 78.5942 16.1145   5
   1 -11   3 63.0836 12.4354   7
   1 -11   3 94.5719 15.3000   6
  -1 -11  -3 83.9367 13.2601   7
  -1 -11  -3 55.2033  9.7554   6
  -1 -11  -3 87.0132 20.6289   5
  -1 -11  -3 63.8684 14.2143   1
  -1 -11  -3 91.0188 13.2007   6
   1 -11   3 108.914  14.600   1
   1  11   3 56.9777 13.7141   7
  -1  11  -3 64.4391 12.7128   2
  -1  11  -3 69.4068 13.7303   8
  -1  11  -3 76.6539 13.6665   7
   1  11   3 96.0564 12.5521   5
   2 -11   3 43.6683 11.9972   1
  -2 -11  -3 82.7512 20.0196   5
   2 -11   3 60.3829 11.9429   7
  -2 -11  -3 74.6027 14.2812   1
   2 -11   3 53.7896  9.8845   8
  -2 -11  -3 67.7630  9.7219   6
  -2 -11  -3 53.6079 11.1489   7
  -2 -11  -3 80.1684 10.9848   6
   2 -11   3 65.1779 14.9266   5
  -2  11  -3 80.0181 13.9552   7
  -2  11  -3 50.9347 11.7850   2
   2  11   3 66.4872 14.6312   7
  -2  11  -3 54.7972 12.8600   8
  -3 -11  -3 0.23969 4.62600   6
   3 -11   3 6.78759 7.50857   8
  -3 -11  -3 1.20343 7.43744   1
   3 -11   3 -5.7221  6.0060   7
  -3 -11  -3 -0.8855  4.7042   6
  -3 -11  -3 7.59461 6.46573   7
   3 -11   3 -5.0791  7.6948   5
   3 -11   3 -1.5745  8.7274   1
  -3  11  -3 5.85754 7.48822   3
  -3  11  -3 18.0849  8.5242   8
  -3  11  -3 2.58900 7.29842   2
  -3  11  -3 -0.8293  7.1540   7
  -4 -11  -3 46.7447 12.3729   1
  -4 -11  -3 35.9979  6.8692   6
   4 -11   3 45.9658 15.1442   5
  -4 -11  -3 53.5662  7.4506   6
  -4 -11  -3 40.5624  8.9349   7
  -4  11  -3 42.0038 15.2148   1
  -4  11  -3 32.6739 10.6275   2
  -6 -12   3 -3.3718  7.4037   5
  -6  12   3 9.48630 8.99072   2
  -6  12   3  3.5820 10.2762   5
  -6  12   3 -0.8637 10.6838   1
   5 -12  -3 624.245  57.987   7
  -5 -12   3 613.530  59.752   9
  -5 -12   3 843.231  61.857   5
  -5  12   3 611.681  60.864   5
  -5  12   3 712.570  58.040   2
   5  12  -3 609.657  60.961   4
  -5  12   3 720.667  61.918   1
   4 -12  -3 47.3749 15.7170   5
  -4 -12   3 17.4802  5.3296   1
   4 -12  -3 26.6164  9.1469   7
  -4 -12   3 27.2550  9.0801   9
  -4 -12   3 24.3539  9.8851   5
  -4  12   3 22.1283 10.1860   5
  -4  12   3 30.7485 13.0827   1
  -4  12   3 17.8031  8.9603   7
   4  12  -3 12.9976  9.5484   4
  -4  12   3 13.7664  7.9627   2
   3 -12  -3 103.441  13.118   8
   3 -12  -3 93.7225 15.1553   7
  -3 -12   3 80.7289  8.6390   6
   3 -12  -3 107.349  21.760   5
  -3 -12   3 101.709  11.933   7
  -3 -12   3 72.8593 14.3466   9
  -3 -12   3 81.2916 14.9296   5
  -3 -12   3 79.7608  8.2734   6
  -3 -12   3 97.5800 11.3183   1
  -3  12   3 78.5580 14.9898   7
  -3  12   3 102.095  16.018   3
   3  12  -3 79.7058 13.0064   8
  -3  12   3 94.7192 17.1691   1
   3  12  -3 70.3324 14.7280   4
  -3  12   3 105.724  12.979   2
  -3  12   3 118.023  15.713   5
   2 -12  -3 8.53707 7.53044   7
  -2 -12   3 26.9539  7.8501   7
   2 -12  -3 15.0597 10.0465   1
  -2 -12   3 5.02970 3.69587   6
   2 -12  -3 -5.8035 10.0773   5
  -2 -12   3 -2.7561  4.7532   6
  -2 -12   3 6.65895 5.54509   1
   2 -12  -3 18.0653  6.8186   8
  -2 -12   3 7.82425 7.23167   5
  -2  12   3 -5.3217  5.7887   7
   2  12  -3 7.71453 8.41410   4
  -2  12   3 3.12412 7.72875   1
  -2  12   3 -0.8487  7.1021   5
   2  12  -3 14.6734  9.3988   8
  -2  12   3 11.1486  6.9758   3
  -1 -12   3 285.868  30.243   5
  -1 -12   3 281.569  27.762   6
   1 -12  -3 320.963  30.263   7
   1 -12  -3 263.969  35.970   5
  -1 -12   3 272.580  24.217   6
  -1 -12   3 270.104  26.628   1
   1 -12  -3 254.214  30.142   1
  -1 -12   3 260.572  31.604   9
   1 -12  -3 268.119  24.323   8
  -1 -12   3 338.653  28.813   7
   1  12  -3 238.785  27.721   7
  -1  12   3 261.669  27.834   5
   1  12  -3 296.491  31.215   4
  -1  12   3 304.444  29.926   7
  -1  12   3 236.570  29.243   3
   1  12  -3 277.350  27.141   8
   0 -12   3 -4.3061  7.6821   6
   0 -12  -3 -6.8338  6.9055   1
   0 -12  -3 -5.3423 10.7538   5
   0 -12   3 -11.405   4.301   1
   0 -12   3 -1.0676  7.6689   5
   0 -12  -3 8.57808 7.89329   7
   0 -12   3 -2.6403  6.1107   7
   0  12   3 1.24186 6.37842   5
   0  12   3 16.1914  8.7051   7
   0  12  -3 -0.8874  8.1813   8
   0  12  -3 3.72705 7.50928   7
   0  12  -3 -9.5225  8.4070   4
  -1 -12  -3 3.78024 7.15589   6
   1 -12   3 -0.0171  5.9289   7
   1 -12   3 -1.4863  8.5294   5
  -1 -12  -3 3.24258 8.59430   1
  -1 -12  -3 5.81780 8.49380   7
   1 -12   3 -0.5288  7.2460   1
  -1 -12  -3  9.0728 11.2325   5
   1  12   3 -16.905   6.227   7
  -1  12  -3 -17.611   9.636   8
  -1  12  -3 -1.8020  8.1503   7
  -1  12  -3 -1.8849  8.2797   2
   2 -12   3 0.56095 7.76117   1
  -2 -12  -3 7.76761 5.92371   6
  -2 -12  -3 3.95708 5.75911   6
  -2 -12  -3 2.76645 7.81244   1
   2 -12   3 7.69880 9.80580   5
   2 -12   3 6.26511 7.29600   7
  -2 -12  -3 4.98461 7.21081   7
  -2 -12  -3 11.7326 12.4747   5
  -2  12  -3 -8.2495  6.3530   2
  -2  12  -3 5.57431 8.44250   7
  -3 -12  -3 550.986  47.099   6
   3 -12   3 630.222  58.659   5
  -3 -12  -3 595.343  52.285   1
   3 -12   3 604.673  48.827   8
  -3 -12  -3 573.070  60.776   5
  -3 -12  -3 548.045  46.806   6
  -3  12  -3 571.574  51.742   2
  -4 -12  -3 14.2698 13.5018   5
   4 -12   3  9.5607 12.2921   5
  -5 -13   3 18.9918  9.7796   5
  -5 -13   3 24.8915  9.7991   9
  -5  13   3 49.8556 15.9125   1
  -5  13   3 15.5301  8.9884   2
   5  13  -3 37.3897 11.7590   4
  -5  13   3 24.2169 11.6478   5
   4 -13  -3 367.467  42.187   5
  -4 -13   3 288.211  33.825   5
  -4 -13   3 310.792  28.150   1
   4 -13  -3 376.854  34.708   7
  -4  13   3 372.612  37.721   1
  -4  13   3 368.651  35.904   5
   4  13  -3 308.350  35.055   4
  -4  13   3 335.679  31.987   2
   3 -13  -3 315.406  38.302   5
  -3 -13   3 284.997  23.273   6
  -3 -13   3 292.115  26.509   1
   3 -13  -3 347.029  31.947   7
  -3 -13   3 311.521  32.219   5
  -3 -13   3 276.331  23.469   6
   3 -13  -3 322.793  28.416   8
  -3 -13   3 326.792  27.245   7
  -3  13   3 317.539  31.828   5
  -3  13   3 292.392  31.620   7
   3  13  -3 319.181  29.199   8
   3  13  -3 196.814  30.489   4
  -3  13   3 276.353  32.030   1
   2 -13  -3  7.2982 10.1624   1
  -2 -13   3 3.99978 5.27144   6
  -2 -13   3 3.03326 5.93748   7
  -2 -13   3 3.02813 5.88535   1
   2 -13  -3 7.83931 7.97623   7
   2 -13  -3 5.10086 6.90363   8
  -2 -13   3 4.61819 4.10157   6
  -2 -13   3 -1.3280  7.4370   5
   2 -13  -3 15.5522 12.2441   5
   2  13  -3 -21.537   8.770   8
  -2  13   3 -9.4698  6.6573   5
   2  13  -3 7.68798 9.71591   4
  -2  13   3 -2.4646  6.4164   7
  -1 -13   3 404.039  36.373   1
   1 -13  -3 380.910  39.844   1
  -1 -13   3 450.045  41.626   5
  -1 -13   3 408.992  37.346   7
  -1 -13   3 324.341  35.570   6
   1 -13  -3 397.414  46.164   5
  -1 -13   3 402.849  33.520   6
   1 -13  -3 416.683  39.331   7
  -1  13   3 408.940  38.146   5
   1  13  -3 376.660  41.596   4
   1  13  -3 417.035  36.638   8
  -1  13   3 382.552  38.731   7
   0 -13   3 280.949  30.805   5
   0 -13  -3 236.159  29.161   1
   0 -13  -3 261.201  28.797   7
   0 -13   3 238.528  26.377   1
   0 -13  -3 239.842  36.006   5
   0 -13   3 244.138  26.729   7
   0 -13   3 273.777  28.680   6
   0  13  -3 234.746  26.160   2
   0  13   3 282.539  27.706   5
   0  13   3 249.921  28.966   7
   0  13  -3 252.888  28.251   7
   1 -13   3 108.311  17.921   1
   1 -13   3 149.142  22.733   5
  -1 -13  -3 146.112  18.210   6
  -1 -13  -3 159.238  28.425   5
  -1 -13  -3 83.8294 17.5994   1
  -1  13  -3 156.042  21.076   7
   1  13   3 154.805  22.317   7
  -1  13  -3 124.696  17.305   2
  -2 -13  -3 10.2114  9.6099   1
   2 -13   3 27.2816 11.0958   1
  -2 -13  -3 26.2231 14.8675   5
   2 -13   3 31.7047 13.1025   5
  -2 -13  -3 20.8761  8.2119   6
  -2  13  -3 15.9105 10.6607   7
  -2  13  -3 25.1397 10.0148   2
   3 -13   3  2.0012 11.6133   5
  -3 -13  -3 -6.2237  5.1695   6
  -3 -13  -3 5.36893 8.22549   1
  -3 -13  -3 -16.642  11.133   5
  -3 -13  -3 2.40901 5.68815   6
  -3  13  -3 -3.4851  8.3907   2
  -4 -14   3 28.2152  6.6389   1
   4 -14  -3 10.3303 15.8258   5
  -4 -14   3 33.4179 12.1038   5
  -4  14   3 31.6950 12.2766   5
   4  14  -3 40.7815 12.2092   4
  -3 -14   3 230.343  21.872   7
   3 -14  -3 259.951  34.177   5
  -3 -14   3 193.297  17.711   6
  -3 -14   3 215.814  27.250   5
  -3 -14   3 241.785  21.811   1
   3  14  -3 259.344  28.841   4
  -3  14   3 206.549  26.082   5
  -2 -14   3 566.089  46.448   7
   2 -14  -3 444.075  49.338   1
  -2 -14   3 552.802  44.206   6
  -2 -14   3 514.276  42.609   6
  -2 -14   3 564.470  45.907   1
  -2 -14   3 565.968  52.278   5
   2 -14  -3 622.794  58.972   5
  -2  14   3 496.500  49.718   5
   2  14  -3 491.974  52.400   4
  -2  14   3 511.529  49.582   7
  -1 -14   3 503.197  43.955   1
  -1 -14   3 522.266  44.490   6
   1 -14  -3 463.491  53.304   5
  -1 -14   3 509.644  49.144   5
  -1 -14   3 470.636  40.684   6
   1 -14  -3 669.241  51.362   1
  -1  14   3 468.816  46.267   5
  -1  14   3 518.818  47.640   7
   1  14  -3 423.647  43.807   2
   0 -14  -3 140.691  22.376   1
   0 -14  -3 163.212  29.573   5
   0 -14   3 145.233  23.430   5
   0 -14   3 193.146  21.658   1
   0  14  -3 190.183  21.540   2
   0  14  -3 136.743  21.433   7
   0  14   3 194.207  24.399   7
   1 -14   3 250.449  35.086   5
  -1 -14  -3 309.150  33.277   1
   1 -14   3 314.104  31.960   1
  -1 -14  -3 269.047  40.359   5
  -1  14  -3 282.534  30.636   2
  -1  14  -3 359.606  33.927   7
   2 -14   3 71.9356 19.9399   5
  -2 -14  -3 89.2283 13.3189   6
  -2 -14  -3 92.5606 23.4981   5
  -2 -14  -3 83.5569 16.8980   1
   2 -14   3 76.5920 15.9647   1
  -2  14  -3 78.1579 14.3537   2
   2 -15  -3 526.451  54.677   1
  -2 -15   3 574.259  49.358   1
  -2 -15   3 596.315  46.151   6
  -2 -15   3 514.609  46.753   6
  -2 -15   3 592.958  56.214   5
   2 -15  -3 606.739  61.489   5
  -2  15   3 624.030  54.623   5
   1 -15  -3 119.218  20.368   1
  -1 -15   3 96.1209 18.9871   5
   1 -15  -3 81.3663 23.3457   5
  -1 -15   3 101.539  15.407   6
  -1 -15   3 91.0079 15.0230   1
   0 -15   3 159.698  21.298   1
   0 -15   3 123.329  23.298   5
   0 -15  -3 160.080  23.877   1
   0 -15  -3 197.483  31.645   5
   0  15  -3 203.510  21.724   2
  -9   0   4 4.69574 9.06473   2
  -8   0   4 1657.10  145.31   9
  -8   0   4 1796.76  145.02   9
   8   0  -4 1799.72  147.29   4
  -8   0   4 1739.25  139.95   2
  -7   0   4 -3.0022  4.8333   5
  -7   0   4 0.55800 1.99594  10
  -7   0   4 8.53295 6.77710   2
   7   0  -4 3.18956 4.46875   4
  -7   0   4 4.90567 4.97994   9
  -7   0   4 1.78599 4.14869   9
  -6   0   4 2220.35  149.23  10
  -6   0   4 1853.31  178.82   9
   6   0  -4 2389.17  169.45   3
  -6   0   4 2228.08  173.27   5
  -6   0   4 2127.13  168.63   2
  -6   0   4 2042.46  178.20   9
  -5   0   4 -1.0698  2.0097  10
   5   0  -4 1.18626 3.10170   3
   5   0  -4 -3.4610  2.0549   7
  -5   0   4 0.31931 3.14165   5
  -5   0   4 1.33747 3.76453   9
  -5   0   4 3.19584 4.69396   2
   4   0  -4 365.932  29.954   3
  -4   0   4 368.178  27.997   1
   4   0  -4 410.490  28.910   7
  -4   0   4 354.489  28.887   1
   4   0  -4 346.568  29.049   1
  -4   0   4 357.326  31.817   9
  -4   0   4 306.967  29.598   5
  -4   0   4 318.408  25.516  10
  -4   0   4 329.301  30.548   2
   4   0  -4 359.160  27.972   7
   3   0  -4 -1.5615  2.6633   9
  -3   0   4 4.65494 2.99160   1
   3   0  -4 2.47069 2.81262   3
  -3   0   4 0.03526 3.42196   6
   3   0  -4 1.92727 2.19106   8
  -3   0   4 -0.4082  1.9398  10
   3   0  -4 9.29880 3.64587   8
  -3   0   4 3.51309 3.67541   1
   3   0  -4 1.46485 2.40994   7
  -3   0   4 5.54397 3.03464   5
   3   0  -4 -1.8218  2.6133   7
   3   0  -4 -2.9279  3.6334   9
  -3   0   4 0.53491 3.62198   9
  -3   0   4 -4.8089  3.3101   9
  -3   0   4 1.34973 2.55286   7
   3   0  -4 1.53773 3.01807   1
   2   0  -4 4701.72  368.90   4
   2   0  -4 4854.01  310.42  10
   2   0  -4 4399.31  369.37   9
  -2   0   4 4588.35  310.46  10
  -2   0   4 4055.65  349.82   3
  -2   0   4 4281.82  350.16   3
   2   0  -4 4360.48  336.37   7
  -2   0   4 4732.15  336.30   1
  -2   0   4 4369.17  368.98   9
   2   0  -4 4318.53  336.53   1
   2   0  -4 4119.60  335.75   7
   2   0  -4 4391.77  337.44   8
  -2   0   4 4205.96  335.72   7
   2   0  -4 4837.17  334.49   6
  -2   0   4 4368.14  357.77   5
  -2   0   4 4727.18  369.51   9
   2   0  -4 4472.69  368.62   9
  -2   0   4 4869.58  334.54   6
  -1   0   4 6.65594 2.91942  10
  -1   0   4 1.05696 2.75846   8
  -1   0   4 -2.2077  3.9943   9
   1   0  -4 -0.4263  3.1460   1
   1   0  -4 0.14464 2.64958   3
  -1   0   4 -2.8191  3.0913   1
  -1   0   4 0.11211 2.46529   7
   1   0  -4 2.37586 2.61373  10
   1   0  -4 -0.3317  3.8863   4
  -1   0   4 4.79418 4.49788   9
   1   0  -4 2.19671 2.89802   7
   1   0  -4 -2.7700  3.4464   9
  -1   0   4 -6.5534  2.5437   1
   1   0  -4 4.58833 2.82891   6
  -1   0   4 1.34643 3.13005   5
  -1   0   4 2.92702 2.73380   8
   1   0  -4 3.65876 4.15385   9
  -1   0   4 -0.9004  2.7844   6
   1   0  -4 1.75197 3.42360   8
  -1   0   4 -2.2952  2.1070   3
   0   0  -4 745.775  53.739   7
   0   0  -4 715.024  54.969   1
   0   0  -4 693.350  59.509   4
   0   0   4 581.199  52.926   6
   0   0  -4 656.790  53.162   6
   0   0   4 698.834  57.342   5
   0   0   4 723.593  60.077   9
   0   0  -4 571.752  59.702   9
   0   0   4 737.592  54.793   1
   0   0   4 761.656  49.555  10
   0   0   4 647.842  55.445   3
   0   0  -4 677.121  53.335   8
   0   0   4 736.880  54.190   1
   0   0   4 608.931  53.258   8
   0   0   4 727.280  53.093   8
   0   0  -4 617.042  55.492   3
   0   0   4 697.982  53.545   7
   0   0   4 750.167  59.410   4
  -1   0  -4 1.64459 3.24057   7
   1   0   4 9.10135 4.42118   5
  -1   0  -4 3.25235 4.28085   1
  -1   0  -4 2.51805 4.69026   9
  -1   0  -4 2.06112 4.57724   9
   1   0   4 -2.5918  3.7792   9
  -1   0  -4 9.66630 4.80521   1
  -1   0  -4 5.03494 3.14331   6
  -1   0  -4 5.64045 5.00717   4
   1   0   4 0.32952 2.77388   3
  -1   0  -4 -0.6757  3.1226  10
  -1   0  -4 5.08729 3.93139   8
   1   0   4 -2.3014  3.3570   1
   1   0   4 -4.2258  3.7749   4
   2   0   4 13.3142  5.8642   9
   2   0   4 5.98579 4.14749   3
  -2   0  -4 5.49832 5.93263   9
  -2   0  -4 3.45780 4.97772   1
  -2   0  -4 6.05630 5.35828   9
   2   0   4 8.43987 4.13288   6
  -2   0  -4 4.45036 3.47296  10
   2   0   4 10.7592  5.0105   5
  -2   0  -4 10.4682  4.4057   7
  -2   0  -4 4.45245 4.70379   1
   2   0   4 14.0668  6.7296   9
  -2   0  -4 8.44832 3.97032   6
  -2   0  -4 5.10843 5.08417   8
   2   0   4 9.29783 5.13942   1
   2   0   4 3.46778 4.29753   4
   3   0   4 0.41673 4.71326   5
  -3   0  -4 -1.7165  5.6606   9
   3   0   4 0.49964 3.93182   3
  -3   0  -4 2.53550 3.56823  10
  -3   0  -4 -8.6903  4.5344   1
  -3   0  -4 1.58508 4.92675   2
  -3   0  -4 0.11825 4.30249   6
  -3   0  -4 0.79142 4.67950   9
  -3   0  -4 -8.6162  5.2146   8
  -3   0  -4 -0.4864  3.6502   7
   3   0   4 4.20511 4.54275   1
   4   0   4 123.364  14.662   3
  -4   0  -4 133.942  18.878   9
  -4   0  -4 141.647  17.455   1
  -4   0  -4 152.197  15.603   7
   4   0   4 145.898  16.435   5
  -4   0  -4 132.550  14.093  10
  -4   0  -4 141.422  14.214   6
  -4   0  -4 125.427  15.258   2
  -5   0  -4 7.81088 5.70067   7
  -5   0  -4 4.26159 4.83480   6
  -5   0  -4 2.42979 6.39849   1
  -5   0  -4 9.06018 6.02551   2
  -6   0  -4 181.384  21.991   1
  -6   0  -4 196.369  21.361   2
  -6   0  -4 176.842  18.152   6
  -9  -1   4 362.697  33.224   2
  -9   1   4 281.184  32.201   2
  -8  -1   4 2.99146 7.15307   2
  -8   1   4 6.37176 5.88342   9
  -8   1   4 -3.4921  5.3292   9
  -8   1   4 7.14773 3.03847  10
  -8   1   4 -0.1074  6.8188   2
   8   1  -4 7.48811 5.34400   4
   7  -1  -4 981.255  84.766   4
  -7  -1   4 1055.00   81.49   5
  -7  -1   4 899.595  80.893   2
  -7  -1   4 1138.01   82.47   9
  -7   1   4 972.044  69.998  10
  -7   1   4 844.297  84.671   9
  -7   1   4 1027.44   85.56   9
  -7   1   4 889.020  81.148   2
  -7   1   4 1025.79   83.05   5
  -6  -1   4 708.227  54.393   5
  -6  -1   4 677.925  56.068   9
   6  -1  -4 743.783  54.369   3
  -6  -1   4 746.912  55.821   2
  -6  -1   4 659.423  55.456   9
   6  -1  -4 685.009  51.550   7
  -6   1   4 604.588  55.162   5
   6   1  -4 643.435  52.542   3
  -6   1   4 573.626  57.196   9
  -6   1   4 589.141  46.755  10
  -6   1   4 616.334  55.074   2
  -6   1   4 645.855  58.922   9
  -5  -1   4 232.755  20.059   5
   5  -1  -4 227.336  19.614   7
  -5  -1   4 206.381  20.926   9
  -5  -1   4 232.576  22.259   2
   5  -1  -4 237.990  21.390   3
  -5  -1   4 228.254  16.864  10
   5   1  -4 203.439  19.738   3
   5   1  -4 263.213  18.667   7
  -5   1   4 210.032  21.971   2
  -5   1   4 255.384  17.758  10
  -5   1   4 243.897  21.321   5
  -5   1   4 236.144  19.218   1
   5   1  -4 215.815  19.217   7
  -5   1   4 216.353  19.009   1
  -5   1   4 217.834  22.639   9
  -4  -1   4 301.850  21.358  10
  -4  -1   4 288.006  26.090   2
   4  -1  -4 288.107  23.861   7
   4  -1  -4 265.681  22.760   8
   4  -1  -4 268.836  25.669   3
  -4  -1   4 276.218  23.516   1
   4  -1  -4 301.821  25.989   5
   4  -1  -4 281.364  26.212   9
  -4  -1   4 312.767  24.934   5
   4  -1  -4 363.294  26.129   1
  -4  -1   4 306.484  26.376   9
  -4  -1   4 293.924  22.815   1
   4   1  -4 271.865  23.998   1
  -4   1   4 279.293  25.101   1
   4   1  -4 289.776  23.187   7
  -4   1   4 302.667  21.894  10
  -4   1   4 236.126  27.081   9
  -4   1   4 296.821  22.662   6
  -4   1   4 304.065  26.300   2
  -4   1   4 269.878  25.272   5
  -4   1   4 286.634  23.950   1
   4   1  -4 323.868  23.872   7
   4   1  -4 275.825  24.472   3
   3  -1  -4 4200.74  272.49   7
  -3  -1   4 4169.71  289.75   5
  -3  -1   4 3577.09  271.78   7
  -3  -1   4 3574.48  269.81   6
   3  -1  -4 3883.05  273.71   8
  -3  -1   4 3375.23  298.68   9
   3  -1  -4 3499.86  284.38   3
   3  -1  -4 3629.13  271.27   6
  -3  -1   4 3301.77  271.96   1
   3  -1  -4 3615.36  298.61   9
   3  -1  -4 3539.76  273.20   1
  -3  -1   4 3681.40  251.14  10
  -3  -1   4 3967.32  272.04   1
   3  -1  -4 3924.05  272.97   7
   3  -1  -4 4053.67  300.56   9
   3  -1  -4 3026.77  291.39   5
  -3  -1   4 3257.18  270.42   6
  -3  -1   4 3887.21  298.78   9
  -3   1   4 3522.74  272.84   1
   3   1  -4 3258.72  272.13   1
  -3   1   4 3946.02  272.79   7
  -3   1   4 3118.36  271.44   6
   3   1  -4 3569.50  272.62   8
  -3   1   4 3610.14  251.45  10
  -3   1   4 3698.15  282.91   3
   3   1  -4 3505.41  298.77   9
  -3   1   4 3880.51  272.76   1
  -3   1   4 3903.40  289.96   5
   3   1  -4 3458.49  298.19   4
  -3   1   4 3412.79  278.91   2
   3   1  -4 3676.69  283.59   3
   3   1  -4 3530.28  272.14   7
   3   1  -4 3302.15  271.59   7
  -3   1   4 3631.45  299.77   9
   3   1  -4 3274.31  297.88   9
  -3   1   4 3973.00  283.31   3
   2  -1  -4 714.486  59.168   7
   2  -1  -4 713.166  59.679   7
   2  -1  -4 727.529  65.453   9
   2  -1  -4 789.367  54.825  10
  -2  -1   4 748.073  54.258  10
   2  -1  -4 779.997  66.616   9
  -2  -1   4 677.699  58.400   6
  -2  -1   4 745.621  60.793   3
   2  -1  -4 859.009  66.079   4
  -2  -1   4 900.684  65.849   9
   2  -1  -4 746.637  59.197   6
  -2  -1   4 719.979  62.864   5
   2  -1  -4 741.702  61.949   3
  -2  -1   4 704.273  59.030   1
  -2  -1   4 840.133  59.573   1
   2  -1  -4 747.385  60.000   1
   2  -1  -4 805.705  59.658   8
  -2  -1   4 754.508  65.700   9
  -2  -1   4 820.974  58.906   7
  -2   1   4 703.218  59.238   6
   2   1  -4 834.033  58.827   6
  -2   1   4 679.903  59.530   1
  -2   1   4 729.936  54.601  10
  -2   1   4 663.224  66.039   9
   2   1  -4 774.121  54.371  10
   2   1  -4 735.999  58.801   7
  -2   1   4 727.107  61.708   3
  -2   1   4 834.315  63.300   5
   2   1  -4 758.762  65.008   4
  -2   1   4 920.219  59.924   7
  -2   1   4 736.264  65.996   9
   2   1  -4 823.161  61.617   3
   2   1  -4 784.624  65.855   9
   2   1  -4 761.199  59.745   1
   2   1  -4 752.265  58.922   8
   2   1  -4 772.356  65.279   9
  -1  -1   4 1680.54  127.01   8
   1  -1  -4 1586.68  128.47   1
   1  -1  -4 1783.68  141.08   9
   1  -1  -4 1656.71  141.42   9
  -1  -1   4 1627.61  135.99   5
  -1  -1   4 1775.07  141.20   9
  -1  -1   4 1742.59  127.42   7
  -1  -1   4 1677.23  127.69   1
  -1  -1   4 1697.31  127.12   8
  -1  -1   4 1491.23  132.68   3
  -1  -1   4 1698.72  128.09   1
   1  -1  -4 1705.74  128.36   7
   1  -1  -4 1401.20  139.90   4
   1  -1  -4 1633.67  127.82   8
  -1  -1   4 1666.02  132.60   3
  -1  -1   4 1865.58  126.99   6
   1  -1  -4 1643.97  133.12   3
   1  -1  -4 1654.69  127.67   7
   1  -1  -4 1580.07  117.68  10
  -1  -1   4 1545.91  140.35   9
   1   1  -4 1672.27  128.30   1
  -1   1   4 1545.42  132.77   3
   1   1  -4 1743.59  140.21   4
   1   1  -4 1628.76  117.66  10
   1   1  -4 1618.55  140.88   9
  -1   1   4 1615.62  117.85  10
   1   1  -4 1728.88  126.84   6
  -1   1   4 1711.13  128.52   1
   1   1  -4 1664.75  140.59   9
  -1   1   4 1807.33  136.14   5
  -1   1   4 1609.50  127.47   8
  -1   1   4 1704.28  127.47   8
  -1   1   4 1676.87  141.01   9
   1   1  -4 1581.13  132.64   3
  -1   1   4 1658.03  127.93   1
   1   1  -4 1838.81  127.58   7
  -1   1   4 1859.81  127.82   7
  -1   1   4 1855.68  127.36   6
   1   1  -4 1722.39  127.63   8
  -1   1   4 1891.34  141.94   9
   0  -1  -4 52.8592  6.4103   8
   0  -1   4 46.2531  5.7407   8
   0  -1   4 46.1339  6.6438   3
   0  -1  -4 36.4450  6.0638   6
   0  -1   4 47.7171  7.4666   4
   0  -1  -4 42.6826  6.4098   7
   0  -1  -4 35.4185  6.7146   7
   0  -1  -4 55.6257  6.6766   3
   0  -1   4 44.9953  8.0965   9
   0  -1   4 47.0342  6.2840   8
   0  -1   4 34.6786  6.3869   1
   0  -1   4 53.3359  6.3087   6
   0  -1  -4 42.5246  7.6548   4
   0  -1   4 53.3396  7.4424   1
   0  -1  -4 30.9717  7.9208   9
   0  -1  -4 38.7630  7.2880   1
   0  -1   4 47.6351  9.0466   9
   0  -1   4 33.9323  5.7223   7
   0  -1   4 39.8970  5.9476   3
   0  -1   4 46.7471  7.1004   5
   0   1   4 47.2923  6.5205   6
   0   1   4 38.7274  6.6011   1
   0   1   4 45.3363  7.3576   1
   0   1  -4 44.6007  7.1709   1
   0   1   4 44.0199  6.3736   3
   0   1   4 40.3618  6.7958   5
   0   1   4 38.4032  8.4342   9
   0   1  -4 30.3196  5.6900   7
   0   1   4 37.7673  7.1427   4
   0   1  -4 49.5665  5.8227  10
   0   1  -4 53.2465  6.3755   6
   0   1  -4 41.7884  6.1818   8
   0   1  -4 44.2880  7.6362   4
   0   1   4 52.7603  6.1178  10
   0   1  -4 48.3735  8.3044   9
   0   1   4 32.1155  7.8390   9
   0   1  -4 35.0360  7.6158   9
   0   1   4 56.8853  6.2382   8
   0   1   4 34.6463  5.7979   7
   1  -1   4 85.6183 10.8753   4
  -1  -1  -4 66.7955 10.3055   1
  -1  -1  -4 86.7283 11.1214   4
  -1  -1  -4 87.9621  9.3736   6
   1  -1   4 92.9206 10.3798   1
  -1  -1  -4 67.6620  8.7543   8
  -1  -1  -4 81.7606  8.5548  10
  -1  -1  -4 79.9927 11.6080   9
   1  -1   4 77.6660  9.3604   3
   1  -1   4 88.0972 12.0943   9
   1  -1   4 71.8589 10.1417   5
   1  -1   4 56.7081 10.9172   9
  -1  -1  -4 107.023  11.433   7
   1  -1   4 100.503  10.467   3
   1  -1   4 75.1232  9.1278   8
  -1  -1  -4 92.3845 10.8011   1
  -1  -1  -4 71.5493 11.7626   9
  -1  -1  -4 78.9429  9.2305   7
  -1   1  -4 96.3864  9.4418   6
   1   1   4 85.5263 12.1943   9
  -1   1  -4 84.7206 12.2448   9
   1   1   4 95.5328  9.6503   6
   1   1   4 72.8457  9.2876   3
  -1   1  -4 92.2932 11.5974   4
   1   1   4 84.9993  8.6576  10
  -1   1  -4 71.8911 10.3606   1
   1   1   4 108.258  11.251   5
  -1   1  -4 80.6161  9.1694   8
   1   1   4 75.6635 10.4722   4
  -1   1  -4 67.2550  9.1423   7
   1   1   4 62.7599  9.2585   1
  -1   1  -4 67.3266 11.0692   9
  -2  -1  -4 1043.88   89.03   1
  -2  -1  -4 1030.89   97.99   9
   2  -1   4 1324.93   97.45   4
  -2  -1  -4 1024.60   88.47   1
  -2  -1  -4 1078.69   80.91  10
   2  -1   4 1182.45   87.37   6
   2  -1   4 1105.52   91.06   3
   2  -1   4 1023.16   93.40   5
  -2  -1  -4 1275.01   98.21   9
   2  -1   4 1214.90   98.09   9
  -2  -1  -4 1062.05   96.46   4
   2  -1   4 1120.26   97.84   9
  -2  -1  -4 1239.64   87.88   7
   2  -1   4 1339.20   92.74   3
  -2  -1  -4 1116.93   86.88   8
   2  -1   4 1105.47   88.01   8
  -2  -1  -4 1088.26   86.88   6
   2  -1   4 1145.60   88.62   1
  -2   1  -4 1195.42   81.27  10
  -2   1  -4 1218.71   88.92   1
  -2   1  -4 961.886  97.590   9
  -2   1  -4 995.039  97.156   9
  -2   1  -4 1166.42   88.01   7
  -2   1  -4 990.358  87.094   8
   2   1   4 1283.42   98.76   9
   2   1   4 1191.35   87.39   6
   2   1   4 1181.61   98.22   9
   2   1   4 975.287  87.795   1
   2   1   4 1183.22   96.64   4
  -2   1  -4 1141.50   89.19   1
   2   1   4 1039.12   90.98   3
   2   1   4 1293.81   93.92   5
  -2   1  -4 1096.10   86.86   6
  -3  -1  -4 928.567  68.384   6
   3  -1   4 858.556  72.760   3
  -3  -1  -4 843.339  70.722   1
   3  -1   4 982.024  74.206   5
  -3  -1  -4 851.242  78.103   9
   3  -1   4 811.514  69.209   8
  -3  -1  -4 870.011  69.927   2
  -3  -1  -4 980.023  64.314  10
   3  -1   4 923.994  70.496   1
  -3  -1  -4 830.021  67.181   8
  -3  -1  -4 836.030  69.003   7
  -3   1  -4 904.362  69.220   7
  -3   1  -4 982.931  64.407  10
   3   1   4 842.918  71.575   3
  -3   1  -4 909.554  71.038   2
   3   1   4 1011.85   74.05   5
  -3   1  -4 746.232  76.828   9
  -3   1  -4 890.215  68.084   8
  -3   1  -4 740.701  77.468   9
  -3   1  -4 745.174  67.844   6
  -3   1  -4 837.065  70.655   1
   3   1   4 911.287  70.044   1
  -4  -1  -4 13.0907  8.5482   9
   4  -1   4 16.6737  6.1290   3
  -4  -1  -4 21.4623  5.8628  10
   4  -1   4 6.44909 6.08442   8
  -4  -1  -4 15.8736  6.2053   7
   4  -1   4 21.0020  6.8500   5
  -4  -1  -4 14.8123  5.2644   6
  -4  -1  -4 17.3288  6.2910   2
  -4  -1  -4 10.7551  7.0541   1
  -4   1  -4 15.4980  5.8894   6
   4   1   4 17.5898  6.7541   5
  -4   1  -4 23.9798  8.5897   1
  -4   1  -4 19.9459  7.0523   7
  -4   1  -4 27.9004  8.0547   2
  -4   1  -4 33.5141 10.1126   9
  -4   1  -4 12.0990  5.7347  10
   4   1   4 20.5085  6.1528   3
  -5  -1  -4 151.733  16.320   7
  -5  -1  -4 131.039  17.571   1
  -5  -1  -4 132.335  14.492   6
   5  -1   4 167.954  17.207   8
  -5  -1  -4 130.291  15.724   2
  -5   1  -4 151.611  17.334   2
  -5   1  -4 125.728  17.919   1
  -5   1  -4 136.105  16.248   7
  -5   1  -4 120.556  14.508   6
  -6  -1  -4 15.9063  5.9504   6
  -6  -1  -4 3.85712 8.37182   1
  -6   1  -4 28.7128  7.3658   6
  -6   1  -4 23.9043  8.8825   2
  -6   1  -4 11.4530  9.2898   1
  -9  -2   4 15.8457  9.0595   2
   9   2  -4 2.41237 7.75387   4
  -9   2   4 10.1118  6.6362   9
  -9   2   4 1.45124 8.99527   2
  -9   2   4 5.66107 3.79569  10
  -8  -2   4 86.5914 14.1819   2
  -8   2   4 108.440  14.651   9
   8   2  -4 106.474  11.601   4
  -8   2   4 94.6259 14.5919   9
  -8   2   4 122.198  14.961   5
  -8   2   4 81.0736 14.7382   2
  -8   2   4 92.2968  9.6451  10
   7  -2  -4 505.564  46.204   4
  -7  -2   4 516.845  42.119   5
  -7  -2   4 474.933  44.333   2
  -7   2   4 517.160  45.176   2
  -7   2   4 526.414  45.511   5
  -7   2   4 491.584  38.748   1
  -7   2   4 483.678  47.482   9
  -7   2   4 512.121  47.003   9
  -7   2   4 522.445  37.302  10
   6  -2  -4 177.784  19.962   4
  -6  -2   4 182.433  20.282   2
   6  -2  -4 199.731  16.286   8
  -6  -2   4 206.833  17.463   5
   6  -2  -4 232.117  18.573   7
  -6   2   4 188.311  16.980   1
  -6   2   4 191.433  16.028  10
  -6   2   4 199.296  17.052   1
   6   2  -4 182.740  16.912   7
  -6   2   4 214.889  20.253   5
  -6   2   4 211.969  21.741   9
  -6   2   4 147.759  19.607   2
  -6   2   4 209.323  23.568   9
   5  -2  -4 17.5962  4.5123   7
  -5  -2   4 12.1859  3.0766   5
   5  -2  -4 8.08633 4.93763   3
   5  -2  -4 11.7806  3.3565   8
  -5  -2   4 13.5728  3.5023   9
  -5  -2   4 9.18025 5.47725   2
   5   2  -4 11.7069  3.0238   3
  -5   2   4 12.3142  5.7803   2
  -5   2   4 17.5280  5.4411   5
   5   2  -4 9.82756 3.07014   7
  -5   2   4 15.3687  6.2738   9
   5   2  -4 13.9058  2.6108   7
  -5   2   4 12.0710  4.2290   1
  -5   2   4 13.4633  3.7815  10
  -5   2   4 18.7478  5.0209   1
  -4  -2   4 0.14579 2.30543   5
   4  -2  -4 6.53768 4.46508   1
   4  -2  -4 3.78190 4.04860   9
  -4  -2   4 -0.4373  3.0634   9
  -4  -2   4 4.86428 3.26444   9
   4  -2  -4 1.89458 3.11715   8
   4  -2  -4 1.95919 2.99259   7
   4  -2  -4 3.60545 4.17060   3
   4  -2  -4 4.05140 4.97696   5
  -4   2   4 1.84812 3.79603   7
  -4   2   4 0.39453 3.80078   2
  -4   2   4 4.68434 3.13069  10
  -4   2   4 7.14302 5.33152   9
   4   2  -4 2.15867 1.88575   7
  -4   2   4 3.03459 3.64391   5
  -4   2   4 0.10878 2.71827   6
   4   2  -4 2.10508 2.29653   3
   4   2  -4 1.48781 2.30226   7
  -4   2   4 0.36979 4.40224   1
  -4   2   4 4.22469 3.26811   1
  -3  -2   4 1946.59  167.73   9
   3  -2  -4 1852.41  154.48   1
   3  -2  -4 2149.18  153.58   6
  -3  -2   4 2034.48  151.26   6
   3  -2  -4 1992.72  153.49   7
   3  -2  -4 1998.11  160.77   3
   3  -2  -4 2026.05  170.40   9
  -3  -2   4 1952.38  162.64   5
   3  -2  -4 1876.93  165.77   5
  -3  -2   4 1872.69  151.47   6
   3  -2  -4 1787.86  168.46   9
   3  -2  -4 2021.16  154.34   8
  -3  -2   4 2154.45  168.33   9
  -3  -2   4 2261.73  152.75   1
  -3  -2   4 2159.72  152.75   1
   3   2  -4 1985.15  153.21   1
  -3   2   4 1817.80  153.74   6
   3   2  -4 1813.38  158.91   3
  -3   2   4 2093.57  157.76   2
   3   2  -4 2347.76  167.78   9
   3   2  -4 2147.75  167.68   4
  -3   2   4 2102.67  154.34   1
   3   2  -4 2022.63  152.58   7
  -3   2   4 1777.00  169.47   9
  -3   2   4 2387.14  154.55   1
  -3   2   4 2101.93  154.20   7
  -3   2   4 2096.04  163.33   5
  -3   2   4 1909.81  141.52  10
   2  -2  -4 31.2071  5.5991   6
   2  -2  -4 19.2150  6.8008   4
   2  -2  -4 30.7052  5.7743   3
   2  -2  -4 27.8595  4.5745  10
   2  -2  -4 39.2807  6.2631   7
   2  -2  -4 28.7074  5.1101   7
   2  -2  -4 11.9978  5.4280   9
  -2  -2   4 31.5597  6.5228   9
   2  -2  -4 26.5157  6.2523   1
   2  -2  -4 38.5174  8.1801   9
  -2  -2   4 31.9359  4.3470   7
  -2  -2   4 25.0318  3.8180   3
  -2  -2   4 26.3575  5.7793   9
  -2  -2   4 28.9566  4.3048   6
  -2  -2   4 29.9485  4.3689   6
  -2  -2   4 23.6792  4.8563   5
  -2  -2   4 33.4689  4.9962   1
  -2  -2   4 34.9682  5.0533   1
   2  -2  -4 27.8319  6.0358   8
   2   2  -4 26.7648  4.5163   8
  -2   2   4 24.0481  5.9271   1
   2   2  -4 18.8124  5.1803   4
  -2   2   4 25.8602  5.1740   5
  -2   2   4 28.6230  3.6859   8
  -2   2   4 22.6973  5.5666   6
   2   2  -4 22.5021  3.8163  10
  -2   2   4 28.9736  3.6320   8
  -2   2   4 33.4890  5.5634   7
   2   2  -4 27.8234  4.5250   8
  -2   2   4 20.1802  5.1292   1
   2   2  -4 22.2662  4.7252   1
   2   2  -4 32.9686  6.1989   9
  -2   2   4 36.0015  7.9264   9
   2   2  -4 34.3295  6.1239   9
   2   2  -4 27.5121  4.4686   3
  -2   2   4 18.7862  5.1770   3
   2   2  -4 23.6567  4.1586   7
   2   2  -4 29.8332  4.5227   6
  -2   2   4 26.2838  4.4114  10
   1  -2  -4 117.806  11.619   7
   1  -2  -4 104.861  13.612   9
   1  -2  -4 111.980  12.800   4
   1  -2  -4 101.540  12.785   9
  -1  -2   4 93.4147 11.2920   5
  -1  -2   4 100.517  12.589   9
  -1  -2   4 93.2220 10.2153   3
  -1  -2   4 96.9922 10.8174   1
  -1  -2   4 93.6926  9.0317   8
  -1  -2   4 103.125   8.949   8
  -1  -2   4 110.869  10.281   7
   1  -2  -4 96.5060 10.6822   6
   1  -2  -4 89.1643 10.3457   7
   1  -2  -4 94.7453  9.5615  10
  -1  -2   4 101.933  10.817   1
   1  -2  -4 106.091  11.868   1
  -1  -2   4 107.313  12.333   9
  -1  -2   4 106.311  10.141   3
   1  -2  -4 91.5650 10.6545   8
  -1  -2   4 97.3956  9.9332   6
  -1   2   4 108.140   9.866  10
  -1   2   4 102.541  10.306   8
   1   2  -4 101.943  10.128   7
   1   2  -4 106.783   9.359  10
   1   2  -4 103.289  10.773   8
  -1   2   4 103.528  13.620   9
  -1   2   4 93.4757 10.6342   3
  -1   2   4 122.450  11.399   6
   1   2  -4 90.2194 12.0741   9
  -1   2   4 113.483  11.713   5
   1   2  -4 112.889  12.579   4
   1   2  -4 119.837  10.758   3
  -1   2   4 122.427  11.215   7
   1   2  -4 116.773  10.204   6
   1   2  -4 103.898  12.317   9
   1   2  -4 112.675  10.294   8
   1   2  -4 84.0848 10.5918   1
  -1   2   4 114.606  13.407   9
  -1   2   4 94.0464 10.9203   1
  -1   2   4 96.9178 11.5081   1
   0  -2  -4 961.076  78.670   3
   0  -2   4 933.209  74.826   6
   0  -2   4 973.890  80.874   5
   0  -2   4 849.921  78.100   3
   0  -2  -4 1120.10   75.75   6
   0  -2  -4 1168.25   77.06   1
   0  -2   4 916.590  75.808   1
   0  -2  -4 849.665  82.977   4
   0  -2  -4 1136.38   85.60   9
   0  -2   4 986.973  74.910   8
   0  -2   4 1026.83   76.42   1
   0  -2  -4 1040.27   75.42   8
   0  -2   4 899.397  75.157   7
   0  -2  -4 938.493  76.499   7
   0  -2   4 989.367  78.883   3
   0  -2   4 921.067  83.758   9
   0  -2  -4 1005.55   77.02   1
   0  -2   4 859.670  83.532   9
   0  -2   4 1068.22   75.39   8
   0   2   4 1073.69   77.19   1
   0   2  -4 951.344  83.860   9
   0   2   4 1082.69   76.42   1
   0   2   4 1000.23   83.39   4
   0   2   4 989.664  70.040  10
   0   2  -4 882.682  75.341   7
   0   2  -4 1036.84   76.68   1
   0   2   4 890.747  83.944   9
   0   2  -4 1046.30   69.86  10
   0   2  -4 984.253  75.299   8
   0   2   4 982.170  78.736   3
   0   2  -4 846.226  83.845   9
   0   2   4 949.186  84.789   9
   0   2   4 1033.41   75.69   7
   0   2  -4 1050.37   83.65   4
   0   2   4 1034.78   75.48   8
   0   2  -4 863.807  74.694   6
   0   2   4 905.282  80.419   5
  -1  -2  -4 1125.50  103.51   9
   1  -2   4 1326.06  103.99   9
   1  -2   4 1282.91   97.82   3
  -1  -2  -4 1383.57   94.99   7
   1  -2   4 1156.87   93.76   1
   1  -2   4 1104.08   99.40   5
   1  -2   4 1189.93   93.37   8
  -1  -2  -4 1261.69   92.83   8
   1  -2   4 1348.94   97.08   3
   1  -2   4 1170.90  103.40   9
  -1  -2  -4 1272.02   94.92   1
  -1  -2  -4 1267.27   94.29   1
  -1  -2  -4 1053.23   92.90   7
  -1  -2  -4 1236.85   86.27  10
  -1  -2  -4 1180.09  104.29   9
  -1  -2  -4 1153.16   92.46   6
   1   2   4 1154.37   93.64   1
   1   2   4 1091.93   85.92  10
  -1   2  -4 1288.38  104.24   9
   1   2   4 1206.14  102.62   4
  -1   2  -4 1297.78   93.20   8
  -1   2  -4 1194.66   94.30   1
   1   2   4 1297.22   93.08   6
   1   2   4 1062.50  103.20   9
  -1   2  -4 1283.94  103.95   9
  -1   2  -4 1236.02   92.49   6
  -1   2  -4 1114.88   93.10   7
  -1   2  -4 1162.45  102.88   4
   2  -2   4 587.959  56.717   9
  -2  -2  -4 656.695  49.367   8
   2  -2   4 619.112  53.220   3
  -2  -2  -4 632.563  50.345   7
  -2  -2  -4 753.465  56.364   4
  -2  -2  -4 664.517  58.081   9
  -2  -2  -4 594.571  56.487   9
   2  -2   4 614.299  54.233   5
  -2  -2  -4 570.814  51.740   1
  -2  -2  -4 662.280  50.848   2
   2  -2   4 593.673  49.970   6
   2  -2   4 640.800  52.331   3
   2  -2   4 601.936  56.044   4
  -2  -2  -4 644.865  49.861   6
  -2  -2  -4 626.048  46.768  10
  -2  -2  -4 681.445  51.700   1
   2  -2   4 698.585  50.945   8
   2  -2   4 581.639  51.117   1
   2   2   4 600.694  52.210   3
  -2   2  -4 670.955  50.150   6
   2   2   4 608.706  53.619   5
  -2   2  -4 603.742  46.539  10
  -2   2  -4 680.561  52.056   1
  -2   2  -4 578.081  56.997   9
   2   2   4 748.358  58.026   9
   2   2   4 618.829  57.147   9
   2   2   4 650.291  56.061   4
   2   2   4 679.188  51.409   1
  -2   2  -4 492.093  56.037   9
  -2   2  -4 581.321  49.889   8
   2   2   4 683.859  50.512   6
  -2   2  -4 606.692  51.828   1
  -2   2  -4 567.098  50.108   7
   3  -2   4 1222.95  102.45   8
   3  -2   4 1262.82  103.35   1
  -3  -2  -4 1352.44  115.02   9
   3  -2   4 1382.08  107.78   3
  -3  -2  -4 1451.62  114.36   9
  -3  -2  -4 1400.99  101.25   6
  -3  -2  -4 1245.99  103.70   1
  -3  -2  -4 1370.45  103.44   2
  -3  -2  -4 1280.84   94.49  10
  -3  -2  -4 1118.90  101.61   7
   3  -2   4 1322.01  109.47   5
   3  -2   4 1354.09  106.45   3
  -3   2  -4 1396.04  101.33   6
  -3   2  -4 1309.81  101.51   8
  -3   2  -4 1294.49   94.61  10
  -3   2  -4 1311.76  102.64   7
  -3   2  -4 1196.09  113.82   9
   3   2   4 1321.11  106.34   3
   3   2   4 1458.33  108.88   5
  -3   2  -4 1190.56  104.59   2
  -3   2  -4 1424.21  104.41   1
   3   2   4 1353.69  103.06   1
   4  -2   4 242.999  24.736   3
  -4  -2  -4 252.985  23.968   7
  -4  -2  -4 253.182  25.540   1
   4  -2   4 244.521  25.847   5
  -4  -2  -4 274.225  22.611  10
  -4  -2  -4 261.581  23.238   6
  -4  -2  -4 269.991  24.100   2
   4  -2   4 257.408  24.465   8
  -4  -2  -4 323.720  30.093   9
  -4   2  -4 258.013  26.051   1
  -4   2  -4 246.797  25.305   2
  -4   2  -4 265.993  29.721   9
  -4   2  -4 278.477  23.619   6
  -4   2  -4 239.203  24.189   7
  -5  -2  -4 177.165  21.091   1
  -5  -2  -4 205.074  24.249   9
  -5  -2  -4 169.218  18.792   7
  -5  -2  -4 177.878  17.519   6
   5  -2   4 189.915  20.047   8
  -5   2  -4 189.984  19.685   7
  -5   2  -4 177.122  20.660   2
  -5   2  -4 164.104  18.259   6
  -5   2  -4 241.621  23.206   1
  -6  -2  -4 355.007  29.583   6
  -6  -2  -4 365.310  34.110   1
  -6   2  -4 347.394  30.530   6
  -6   2  -4 313.423  34.367   1
  -6   2  -4 346.129  33.767   2
  -9  -3   4 88.0930 15.4717   2
  -9   3   4 88.2195 15.9441   2
   9   3  -4 76.8392 12.2067   4
  -9   3   4 89.3961 14.1433   9
  -9   3   4 97.6523  9.8333  10
  -8  -3   4 145.333  19.049   2
  -8   3   4 160.370  13.037   1
  -8   3   4 140.358  19.548   2
  -8   3   4 160.066  19.521   5
  -8   3   4 165.211  14.219  10
  -8   3   4 163.929  21.085   9
  -8   3   4 133.884  19.772   9
  -7  -3   4 300.694  32.719   2
  -7   3   4 296.601  33.048   2
  -7   3   4 387.392  34.735   5
  -7   3   4 395.932  27.974  10
  -7   3   4 346.359  37.304   9
  -7   3   4 364.909  29.301   1
  -7   3   4 382.635  29.694   1
   6  -3  -4 411.202  44.100   4
  -6  -3   4 501.016  39.988   5
   6  -3  -4 516.107  40.731   7
   6  -3  -4 511.797  39.129   8
  -6  -3   4 599.721  43.595   2
  -6   3   4 521.006  39.122   7
  -6   3   4 437.496  39.472   1
  -6   3   4 429.832  47.166   9
  -6   3   4 521.325  36.736  10
  -6   3   4 543.743  40.022   1
  -6   3   4 484.706  46.345   9
  -6   3   4 460.830  43.425   5
  -6   3   4 420.111  42.214   2
  -5  -3   4 121.769  11.542   9
   5  -3  -4 123.048  14.633   3
   5  -3  -4 130.883  13.147   7
   5  -3  -4 116.801  13.397   5
  -5  -3   4 138.600  11.404   5
   5  -3  -4 147.093  12.391   8
   5  -3  -4 90.4309 13.6842   4
  -5   3   4 131.455  11.785  10
  -5   3   4 124.737  14.144   5
  -5   3   4 129.656  14.679   2
  -5   3   4 113.397  16.381   9
  -5   3   4 114.851  12.395   7
  -5   3   4 114.979  12.770   1
  -5   3   4 93.2437 13.0755   1
   5   3  -4 120.988  10.689   7
  -5   3   4 131.130  11.201   6
   5   3  -4 130.352  10.378   7
   4  -3  -4 17.4600  5.5705   9
   4  -3  -4 25.7244  5.2085   8
  -4  -3   4 13.8768  3.3753   5
   4  -3  -4 13.4756  5.5872   3
   4  -3  -4 22.1103  5.1270   7
  -4  -3   4 16.3376  4.2283   9
  -4  -3   4 19.9381  4.1297   9
   4  -3  -4 1.82171 5.66741   5
   4  -3  -4 21.4369  6.2452   1
  -4   3   4 13.6592  6.6499   9
  -4   3   4 8.93761 6.24691   1
  -4   3   4 20.4199  4.4534  10
  -4   3   4 8.39542 5.15347   7
   4   3  -4 14.8710  2.9587   3
  -4   3   4 9.07233 4.62304   6
   4   3  -4 17.7164  2.8888   3
  -4   3   4 11.3753  4.4564   1
  -4   3   4 8.29999 4.18478   7
  -4   3   4 17.8147  5.2078   5
  -4   3   4 12.5727  2.9271   3
  -4   3   4 17.1314  5.6154   2
   4   3  -4 12.1950  2.7879   7
   3  -3  -4 13.6945  4.4495   7
   3  -3  -4 -2.7701  4.9841   5
  -3  -3   4 21.5053  3.7926   1
   3  -3  -4 28.1875  6.3884   6
  -3  -3   4 20.1611  4.8909   9
  -3  -3   4 23.1619  4.1822   5
  -3  -3   4 20.1269  3.7306   1
  -3  -3   4 19.0136  4.7071   9
   3  -3  -4 18.4582  4.5792  10
   3  -3  -4 15.4779  7.1557   9
   3  -3  -4 17.1034  5.3991   3
   3  -3  -4 10.5315  5.3613   8
   3  -3  -4 25.0643  6.2919   9
   3  -3  -4 22.8068  6.4538   1
  -3   3   4 12.6935  6.3295   9
   3   3  -4 19.0256  3.6172   3
   3   3  -4 16.4499  3.3297   7
  -3   3   4 11.4653  5.5168   1
  -3   3   4 24.8461  4.5157  10
   3   3  -4 13.6543  4.2067   4
  -3   3   4 7.90153 3.87147   3
  -3   3   4 18.0517  5.5860   2
   3   3  -4 25.5329  4.3799   1
  -3   3   4 18.8335  5.3664   7
   3   3  -4 21.6451  4.7456   9
  -3   3   4 22.4861  5.0811   7
   3   3  -4 16.3222  3.3569   3
  -3   3   4 22.5416  5.1003   5
  -3   3   4 20.3525  6.2134   6
  -2  -3   4 143.837  12.630   3
   2  -3  -4 161.457  14.968   6
   2  -3  -4 149.663  14.741   8
   2  -3  -4 140.092  13.939   7
  -2  -3   4 153.467  14.543   5
  -2  -3   4 148.758  12.730   6
   2  -3  -4 129.263  14.833   3
  -2  -3   4 127.794  12.683   3
   2  -3  -4 164.982  17.594   4
   2  -3  -4 146.981  13.083  10
  -2  -3   4 168.889  15.834   9
  -2  -3   4 157.054  13.052   6
  -2  -3   4 141.941  15.130   9
  -2  -3   4 136.888  13.196   1
   2  -3  -4 132.798  17.636   9
   2  -3  -4 156.106  16.757   9
   2  -3  -4 197.537  16.248   1
  -2  -3   4 149.822  13.312   1
  -2  -3   4 153.816  12.851   7
  -2   3   4 123.228  14.633   6
  -2   3   4 170.537  13.312  10
  -2   3   4 119.025  14.198   5
   2   3  -4 140.047  12.805   6
   2   3  -4 153.340  13.968   1
  -2   3   4 150.727  12.900   8
  -2   3   4 129.913  14.769   1
   2   3  -4 143.451  14.885   4
  -2   3   4 140.940  14.377   7
   2   3  -4 140.167  13.058   8
   2   3  -4 140.985  13.359   3
   2   3  -4 145.217  13.053   7
  -2   3   4 142.552  14.477   2
  -2   3   4 168.994  14.696   7
   2   3  -4 142.093  15.291   9
  -2   3   4 172.438  15.592   1
  -2   3   4 145.677  17.302   9
  -2   3   4 143.166  14.988   3
   2   3  -4 134.698  15.030   9
   2   3  -4 139.191  13.708   3
   2   3  -4 143.407  12.693   8
  -1  -3   4 30.9569  3.3920   8
   1  -3  -4 41.9241  7.8201   4
  -1  -3   4 28.4543  6.7744   9
   1  -3  -4 26.9415  5.5924   8
  -1  -3   4 35.6074  5.3785   6
   1  -3  -4 29.2801  5.3983  10
  -1  -3   4 31.1395  4.6097   3
  -1  -3   4 29.6328  4.7867   6
  -1  -3   4 25.6142  5.6880   5
   1  -3  -4 34.7964  7.1991   1
   1  -3  -4 24.7574  7.0205   9
   1  -3  -4 19.0872  5.4049   6
   1  -3  -4 29.4735  5.6044   3
  -1  -3   4 29.7983  6.5428   9
  -1  -3   4 26.9813  5.5325   1
  -1  -3   4 34.7757  5.1584   3
   1  -3  -4 33.5169  5.9837   7
  -1  -3   4 21.1242  4.4927   7
   1  -3  -4 27.5584  8.3965   9
  -1   3   4 25.7977  5.3542   3
  -1   3   4 41.6741  7.2700   1
   1   3  -4 29.7317  6.6526   9
  -1   3   4 30.5996  5.8440   5
   1   3  -4 35.7823  5.0940   6
   1   3  -4 31.0966  6.2605   4
  -1   3   4 34.8654  6.6438   1
   1   3  -4 30.4729  5.6611   8
  -1   3   4 44.7789  6.6649   7
   1   3  -4 43.1343  7.8295   9
  -1   3   4 33.6895  5.2450  10
  -1   3   4 36.4708  5.8101   8
   1   3  -4 33.0785  5.1713   8
   1   3  -4 35.3049  6.1633   1
  -1   3   4 25.0584  5.7706   6
   1   3  -4 25.8745  5.0033   7
  -1   3   4 30.7075  8.4108   9
   1   3  -4 35.2330  4.8464  10
   0  -3   4 296.802  25.718   8
   0  -3   4 319.327  27.345   3
   0  -3  -4 332.166  27.044   6
   0  -3  -4 250.611  29.416   4
   0  -3   4 309.386  27.264   1
   0  -3   4 373.385  26.962   7
   0  -3  -4 320.728  31.850   9
   0  -3   4 374.872  30.933   9
   0  -3  -4 330.083  26.412   2
   0  -3   4 255.013  29.958   9
   0  -3  -4 327.759  26.437   8
   0  -3   4 336.642  27.495   1
   0  -3   4 252.561  28.419   5
   0  -3   4 365.370  28.195   3
   0  -3  -4 362.761  28.446   1
   0  -3   4 313.420  26.273   6
   0  -3  -4 302.605  28.286   1
   0  -3  -4 360.349  31.844   9
   0  -3   4 296.420  26.071   8
   0  -3  -4 303.320  26.942   7
   0  -3  -4 386.974  28.588   3
   0  -3   4 311.314  26.793   6
   0   3   4 301.916  27.333   1
   0   3  -4 340.984  24.688  10
   0   3   4 297.486  26.334   8
   0   3   4 318.120  31.291   9
   0   3   4 320.118  25.111  10
   0   3   4 267.258  28.247   5
   0   3  -4 318.676  30.091   4
   0   3   4 341.881  31.920   9
   0   3  -4 319.262  26.521   8
   0   3  -4 311.772  26.845   7
   0   3  -4 335.662  30.844   9
   0   3  -4 299.534  30.414   9
   0   3   4 383.023  30.865   4
   0   3  -4 349.156  26.572   6
   0   3   4 343.478  28.199   3
   0   3  -4 313.521  27.581   1
  -1  -3  -4 1197.50  100.55   6
  -1  -3  -4 1184.67  112.49   9
  -1  -3  -4 1283.64  100.71   8
  -1  -3  -4 1297.66  102.36   1
   1  -3   4 1480.27  113.18   9
  -1  -3  -4 1181.39  102.43   1
   1  -3   4 1471.13  108.93   5
   1  -3   4 1390.03  100.78   6
  -1  -3  -4 1245.46  113.28   9
   1  -3   4 1267.77  105.81   3
   1  -3   4 1315.55  102.08   1
  -1  -3  -4 1241.92  101.23   7
   1  -3   4 1315.67  112.23   9
   1  -3   4 1364.87  101.44   8
  -1  -3  -4 1400.44  105.53   3
  -1  -3  -4 1463.64   93.94  10
   1  -3   4 1408.78  105.45   3
  -1   3  -4 1510.62  112.41   4
   1   3   4 1271.62   93.72  10
  -1   3  -4 1375.54  102.64   1
  -1   3  -4 1400.61  113.06   9
   1   3   4 1145.85  112.76   9
  -1   3  -4 1260.06  101.21   7
  -1   3  -4 1200.77  100.37   6
   1   3   4 1367.06  111.82   4
  -1   3  -4 1177.72  101.06   8
   1   3   4 1318.37  107.92   5
   1   3   4 1211.12  105.27   3
   1   3   4 1315.93  113.06   9
   1   3   4 1439.23  102.26   1
   1   3   4 1374.49  101.22   6
  -2  -3  -4 46.5616  9.2172   4
  -2  -3  -4 50.5065 11.4950   9
  -2  -3  -4 69.0834  7.6204   8
  -2  -3  -4 53.3890  7.1257   2
  -2  -3  -4 62.6016  7.9352   6
   2  -3   4 51.9356  8.5239   3
  -2  -3  -4 47.8157  9.4210   1
  -2  -3  -4 49.4696  8.8405   1
  -2  -3  -4 41.8438  7.4495   7
   2  -3   4 51.2533  7.8391   3
  -2  -3  -4 42.7570  7.1603  10
   2  -3   4 72.3592 10.8954   4
  -2  -3  -4 61.5941 11.2292   9
   2  -3   4 58.8127 10.8203   9
   2  -3   4 55.0776  9.2395   1
   2  -3   4 59.6933  8.4680   8
   2  -3   4 38.8190  8.6242   5
  -2   3  -4 41.0957  7.8945   7
  -2   3  -4 39.7115  9.1541   4
   2   3   4 60.1445  8.8408   5
  -2   3  -4 49.5659 10.6432   9
  -2   3  -4 53.5443  9.6196   1
  -2   3  -4 46.6707  7.0612  10
  -2   3  -4 63.9027  8.1296   6
  -2   3  -4 42.9483 10.4928   9
   2   3   4 55.0665  8.8229   1
   2   3   4 63.8260 11.7002   9
   2   3   4 37.6460 10.0804   9
  -2   3  -4 51.6782  8.4289   8
   2   3   4 61.3228  9.6045   4
   2   3   4 52.6783  7.7249   3
   2   3   4 63.0673  7.7093  10
  -3  -3  -4 504.743  42.620   1
   3  -3   4 510.066  41.201   8
   3  -3   4 459.375  41.753   1
  -3  -3  -4 558.516  38.186  10
  -3  -3  -4 482.066  39.679   6
  -3  -3  -4 498.470  40.026   2
  -3  -3  -4 512.318  40.495   7
   3  -3   4 438.517  43.694   5
  -3  -3  -4 506.641  46.691   9
  -3  -3  -4 485.457  47.726   9
  -3   3  -4 427.239  39.610   8
   3   3   4 468.280  41.877   3
  -3   3  -4 495.082  37.603  10
  -3   3  -4 575.134  43.611   1
  -3   3  -4 554.691  40.488   6
   3   3   4 466.605  42.729   5
  -3   3  -4 486.084  41.148   7
  -3   3  -4 490.098  46.868   9
  -3   3  -4 412.297  41.678   2
  -4  -3  -4 31.4323 10.8509   9
  -4  -3  -4 38.1767  7.8149  10
  -4  -3  -4 26.5767  8.9781   1
  -4  -3  -4 30.1427  6.7397   6
   4  -3   4 25.3325  7.9086   8
  -4  -3  -4 27.3901  6.5017   2
   4  -3   4 39.9489  9.3817   5
  -4  -3  -4 24.5252  7.1317   7
  -4   3  -4 36.3622  9.9380   1
  -4   3  -4 43.7257  8.0698   6
  -4   3  -4 21.0840  8.3020   2
  -4   3  -4 29.2535  8.1405   7
  -5  -3  -4 974.051  75.706   1
  -5  -3  -4 1042.19   73.55   7
  -5  -3  -4 718.539  80.902   9
  -5  -3  -4 834.875  70.950   6
  -5   3  -4 896.556  76.302   2
  -5   3  -4 924.494  76.291   1
  -5   3  -4 957.805  72.741   6
  -5   3  -4 1013.79   74.80   7
  -6  -3  -4 5.52571 5.04405   6
  -6  -3  -4 11.1539  8.3423   1
  -6   3  -4 8.91978 6.56310   6
  -6   3  -4 27.0358 11.2301   1
  -6   3  -4 -0.6715  8.3656   2
  -9  -4   4 65.4695 13.6190   2
  -9   4   4 66.7378 13.9305   9
  -9   4   4 39.6477 12.2259   2
  -9   4   4 48.6476  8.0374  10
  -8  -4   4 21.8493  9.3891   2
  -8   4   4 34.1739 12.3752   9
  -8   4   4 21.2258  5.5124   1
  -8   4   4 25.7683  6.0774  10
  -8   4   4 21.9865  9.4000   5
  -8   4   4 18.5146 10.5721   9
  -8   4   4 28.0354  9.9119   2
   7  -4  -4 73.8837  9.2563   8
  -7   4   4 66.2126  8.6500  10
  -7   4   4 78.7741 12.8687   5
  -7   4   4 71.7435 16.2735   9
  -7   4   4 55.8070 11.4859   2
  -7   4   4 66.4049  8.4637   7
  -7   4   4 64.3289 13.9999   9
  -7   4   4 58.4589  8.7633   1
   6  -4  -4 118.196  13.862   7
   6  -4  -4 124.825  15.964   4
   6  -4  -4 119.068  12.799   8
  -6   4   4 139.736  12.616  10
  -6   4   4 120.068  19.600   9
  -6   4   4 115.585  13.676   1
  -6   4   4 151.632  13.218   7
  -6   4   4 116.876  13.328   1
  -6   4   4 106.703  17.350   9
  -6   4   4 97.2848 14.5380   5
  -6   4   4 116.546  15.476   2
   5  -4  -4 147.923  16.879   4
   5  -4  -4 146.423  15.007   7
   5  -4  -4 143.018  14.077   8
  -5  -4   4 148.892  12.750   5
   5  -4  -4 154.171  16.510   5
  -5  -4   4 119.806  12.764   9
  -5  -4   4 145.691  13.167   9
   5  -4  -4 145.546  16.599   3
   5   4  -4 131.869  11.558   7
  -5   4   4 147.969  13.448   6
  -5   4   4 130.625  19.248   9
  -5   4   4 98.9189 17.5889   9
  -5   4   4 138.298  13.107  10
  -5   4   4 154.509  14.457   7
  -5   4   4 128.503  15.796   2
  -5   4   4 167.335  16.757   1
  -5   4   4 133.849  14.682   1
  -5   4   4 152.714  16.391   5
  -4  -4   4 665.691  55.888   9
   4  -4  -4 678.379  54.906   1
   4  -4  -4 700.423  58.955   5
   4  -4  -4 688.529  56.317   3
   4  -4  -4 602.797  51.997   8
  -4  -4   4 658.096  55.671   9
   4  -4  -4 682.916  58.413   9
  -4  -4   4 683.927  53.954   5
   4  -4  -4 590.874  52.501   7
   4  -4  -4 660.293  57.992   4
   4   4  -4 631.208  50.298   7
   4   4  -4 620.540  52.307   3
  -4   4   4 723.722  54.133   7
  -4   4   4 734.334  56.224   5
  -4   4   4 561.216  53.566   2
  -4   4   4 667.397  52.845   6
  -4   4   4 666.243  54.478   1
   4   4  -4 661.683  55.106   4
   4   4  -4 650.713  52.210   3
  -4   4   4 701.736  53.257   1
  -4   4   4 757.549  61.153   9
  -4   4   4 639.524  48.221  10
  -4   4   4 582.666  52.056   7
   3  -4  -4 141.155  16.063   3
  -3  -4   4 134.247  14.875   9
  -3  -4   4 149.039  14.755   9
   3  -4  -4 138.897  14.511   7
   3  -4  -4 154.597  15.449   8
  -3  -4   4 130.592  12.629   1
   3  -4  -4 174.554  17.452   9
   3  -4  -4 134.670  16.152   1
   3  -4  -4 141.617  13.602  10
  -3  -4   4 140.258  12.932   1
   3  -4  -4 158.554  18.967   9
   3  -4  -4 139.143  15.467   6
   3  -4  -4 176.054  20.109   5
  -3  -4   4 191.851  14.781   5
  -3   4   4 138.586  13.293  10
  -3   4   4 142.446  15.839   1
  -3   4   4 159.939  18.967   9
   3   4  -4 153.867  13.490   1
  -3   4   4 150.742  15.239   2
   3   4  -4 132.077  12.762   7
  -3   4   4 107.886  14.249   3
  -3   4   4 159.787  15.839   7
   3   4  -4 146.243  13.043   3
  -3   4   4 137.530  15.005   5
   3   4  -4 158.332  14.442   4
   3   4  -4 129.062  13.103   3
  -3   4   4 145.228  16.324   6
  -3   4   4 163.427  15.001   7
   2  -4  -4 388.074  36.777   3
  -2  -4   4 339.972  37.275   9
   2  -4  -4 514.928  39.963   9
  -2  -4   4 445.998  33.880   3
  -2  -4   4 419.033  32.869   6
   2  -4  -4 436.591  35.060   8
   2  -4  -4 419.781  35.394   6
  -2  -4   4 401.900  33.413   6
  -2  -4   4 407.377  34.086   3
   2  -4  -4 422.243  41.121   9
   2  -4  -4 453.783  32.375  10
  -2  -4   4 474.655  34.232   1
   2  -4  -4 468.193  35.267   7
  -2  -4   4 418.073  33.231   7
   2  -4  -4 353.272  35.833   1
  -2  -4   4 459.638  33.924   1
  -2  -4   4 464.771  37.917   9
   2   4  -4 428.351  33.846   8
  -2   4   4 318.233  35.925   3
   2   4  -4 380.439  33.842   1
  -2   4   4 496.341  36.660   6
  -2   4   4 440.426  36.806   5
   2   4  -4 446.161  33.066   8
   2   4  -4 463.321  38.230   9
  -2   4   4 385.365  35.062   2
  -2   4   4 400.104  35.737   1
   2   4  -4 409.383  37.578   9
  -2   4   4 382.964  34.820   7
   2   4  -4 419.774  33.664   7
  -2   4   4 421.315  33.693   8
   2   4  -4 437.479  37.163   4
  -2   4   4 419.362  40.619   9
   2   4  -4 365.026  34.879   3
  -2   4   4 418.291  35.695   1
  -2   4   4 449.707  32.091  10
  -2   4   4 413.901  35.107   7
  -1  -4   4 1306.05   85.89   7
  -1  -4   4 1055.30   88.66   3
  -1  -4   4 1013.54   84.75   6
   1  -4  -4 1222.18   88.35   1
   1  -4  -4 1200.73   90.57   3
   1  -4  -4 1074.40   86.56   7
  -1  -4   4 1247.40   95.32   9
   1  -4  -4 973.050  95.308   4
   1  -4  -4 1043.53   86.36   6
   1  -4  -4 1276.92   80.28  10
  -1  -4   4 1058.74   91.77   5
  -1  -4   4 1013.15   85.26   6
   1  -4  -4 1198.08   87.08   2
   1  -4  -4 1152.00   97.65   9
  -1  -4   4 1094.52   89.23   3
  -1  -4   4 971.304  94.746   9
   1  -4  -4 1095.15   86.24   8
  -1  -4   4 1066.74   86.02   1
   1   4  -4 1099.56   86.32   1
   1   4  -4 957.468  94.529   9
   1   4  -4 1246.94   95.59   9
  -1   4   4 1077.09   87.05   7
  -1   4   4 1138.63   91.80   5
  -1   4   4 1248.59   86.44   8
   1   4  -4 1261.72   79.15  10
   1   4  -4 1171.23   86.52   8
   1   4  -4 1207.85   94.66   4
  -1   4   4 982.037  89.892   3
  -1   4   4 1067.31   97.19   9
   1   4  -4 1034.73   85.40   8
  -1   4   4 1203.06   87.87   1
  -1   4   4 1040.49   79.86  10
  -1   4   4 1137.86   86.95   6
   1   4  -4 1191.37   85.25   6
   1   4  -4 1194.07   85.89   7
  -1   4   4 1064.04   86.71   7
   1   4  -4 977.443  89.567   3
   0  -4   4 1458.67  115.32   3
   0  -4  -4 1324.84  111.44   1
   0  -4   4 1308.46  109.96   6
   0  -4  -4 1382.66  112.39   1
   0  -4   4 1465.06  111.16   1
   0  -4   4 1550.08  109.81   6
   0  -4  -4 1378.19  121.72   4
   0  -4   4 1485.89  114.68   3
   0  -4  -4 1402.78  110.41   8
   0  -4   4 1372.62  118.08   5
   0  -4   4 1370.46  110.89   1
   0  -4   4 1647.35  110.62   7
   0  -4  -4 1402.92  122.99   9
   0  -4   4 1390.13  110.02   8
   0  -4  -4 1524.28  124.44   9
   0  -4   4 1703.41  123.00   9
   0  -4   4 1595.82  123.10   9
   0  -4  -4 1519.31  102.69  10
   0  -4  -4 1301.08  110.61   7
   0  -4  -4 1646.81  115.91   3
   0  -4   4 1605.85  109.87   8
   0  -4  -4 1385.70  111.42   2
   0   4  -4 1291.56  121.54   4
   0   4  -4 1455.34  110.55   7
   0   4  -4 1284.49  109.44   6
   0   4  -4 1639.05  123.27   9
   0   4  -4 1237.21  121.86   9
   0   4  -4 1402.20  111.15   1
   0   4   4 1343.32  102.36  10
   0   4   4 1650.72  115.96   3
   0   4   4 1391.84  111.48   1
   0   4  -4 1323.18  110.28   8
   0   4  -4 1461.92  101.78  10
  -1  -4  -4 235.726  19.236   2
   1  -4   4 230.421  21.701   3
  -1  -4  -4 195.624  24.498   9
   1  -4   4 206.121  22.428   5
   1  -4   4 242.260  21.309   6
  -1  -4  -4 227.551  24.902   9
   1  -4   4 213.972  23.924   9
  -1  -4  -4 205.308  20.766   3
  -1  -4  -4 222.344  22.437   1
   1  -4   4 224.361  20.131   6
   1  -4   4 225.106  24.554   9
   1  -4   4 211.181  21.174   1
   1  -4   4 223.452  20.378   8
  -1  -4  -4 228.715  20.518   6
   1  -4   4 270.424  22.225   1
  -1  -4  -4 231.738  19.719   8
   1  -4   4 228.412  20.986   3
  -1  -4  -4 221.116  19.328  10
  -1  -4  -4 228.845  20.700   7
  -1  -4  -4 246.832  22.024   1
  -1   4  -4 207.252  23.472   4
  -1   4  -4 224.839  20.227   6
  -1   4  -4 211.476  20.840   7
   1   4   4 246.415  23.844   4
  -1   4  -4 268.663  21.068   8
   1   4   4 249.902  21.697   3
  -1   4  -4 239.909  24.651   9
   1   4   4 232.277  21.965   5
   1   4   4 202.861  21.065   1
   1   4   4 251.331  25.561   9
   1   4   4 223.867  20.796   6
  -1   4  -4 234.016  21.845   1
   1   4   4 267.202  19.825  10
  -2  -4  -4 1135.23   94.79   9
  -2  -4  -4 1032.96   83.86   7
  -2  -4  -4 1183.75   83.60   6
   2  -4   4 975.025  83.840   8
   2  -4   4 1080.26   88.08   3
   2  -4   4 1104.66   84.47   6
  -2  -4  -4 1097.47   82.52   8
  -2  -4  -4 1024.04   85.77   1
   2  -4   4 1090.57   90.38   5
   2  -4   4 879.256  92.807   9
   2  -4   4 1155.19   85.45   1
  -2  -4  -4 1209.08   78.16  10
  -2  -4  -4 1118.29   95.60   9
  -2  -4  -4 1121.33   92.40   4
  -2  -4  -4 1057.82   83.71   2
  -2   4  -4 1254.73   95.57   9
  -2   4  -4 1158.09   93.57   4
   2   4   4 1146.42   94.76   9
   2   4   4 910.311  84.275   1
  -2   4  -4 1047.81   85.48   1
  -2   4  -4 1324.60   95.65   9
  -2   4  -4 1020.31   83.08   6
  -2   4  -4 1090.94   84.59   7
   2   4   4 1079.93   89.22   5
  -2   4  -4 950.682  77.129  10
   2   4   4 1082.59   87.32   3
  -2   4  -4 945.298  83.556   8
   2   4   4 1079.36   92.86   4
   3  -4   4 39.8617  9.5215   5
  -3  -4  -4 33.3382 11.2814   9
   3  -4   4 46.5482  8.8381   8
  -3  -4  -4 47.9603  8.1185  10
  -3  -4  -4 55.2181  6.7854   2
  -3  -4  -4 50.8431  8.2497   7
  -3  -4  -4 65.2135  8.4612   6
   3  -4   4 35.6005  9.2411   1
  -3  -4  -4 68.0544 11.4847   1
  -3  -4  -4 43.4557 11.6989   9
  -3   4  -4 63.9968  9.0640   6
  -3   4  -4 48.8826 12.0820   9
   3   4   4 56.7975  8.9649   5
   3   4   4 62.5176  8.9135   3
  -3   4  -4 56.4208 10.8942   1
  -3   4  -4 45.5377  9.7245   2
  -3   4  -4 45.7473  9.0245   7
  -4  -4  -4 2.66301 4.44006   6
  -4  -4  -4 4.58923 6.73304   1
   4  -4   4 -2.0222  5.5297   8
  -4  -4  -4 2.28915 5.42170  10
  -4  -4  -4 16.4687  8.0276   9
  -4  -4  -4 2.75384 4.85933   7
   4  -4   4 2.08977 5.84984   5
  -4   4  -4 -2.0578  5.1760   6
  -4   4  -4 6.47154 6.28198   7
  -4   4  -4 1.69887 7.06195   1
  -4   4  -4 -1.5986  5.8657   2
  -5  -4  -4 60.9737 13.5233   9
  -5  -4  -4 52.3710 11.6659   1
  -5  -4  -4 45.5577  7.6735   6
  -5  -4  -4 39.7013  8.7780   7
  -5   4  -4 48.2438 12.6357   1
  -5   4  -4 50.2646 12.1534   2
  -5   4  -4 38.4863  9.0655   6
  -5   4  -4 38.0591  9.8814   7
  -6  -4  -4 980.826  72.998   6
  -6  -4  -4 916.217  77.851   1
  -6   4  -4 971.845  80.020   1
  -6   4  -4 900.232  75.024   6
  -6   4  -4 933.634  79.389   2
  -8   5   4 115.502  17.070   2
  -8   5   4 119.474  18.381   5
  -8   5   4 115.928  12.807   1
  -8   5   4 125.538  21.691   9
  -8   5   4 110.717  12.660  10
   7  -5  -4 90.4884 10.7062   8
  -7   5   4 50.8583 12.5594   5
  -7   5   4 68.2976 10.0268   1
  -7   5   4 74.8248 17.9819   9
  -7   5   4 68.1321 12.2077   2
  -7   5   4 36.0358 13.2969   9
  -7   5   4 80.8333  9.9937   7
  -7   5   4 66.7188  9.5156  10
   6  -5  -4 297.011  24.301   8
   6  -5  -4 266.542  25.297   7
  -6   5   4 256.777  26.928   5
  -6   5   4 261.446  25.604   1
  -6   5   4 279.754  22.995  10
  -6   5   4 261.783  30.395   9
  -6   5   4 256.979  26.396   2
  -6   5   4 247.909  31.543   9
  -6   5   4 274.884  24.288   7
   5  -5  -4 2390.82  160.38   8
  -5  -5   4 1959.59  172.45   9
   5  -5  -4 1995.85  171.33   5
  -5  -5   4 2115.46  167.39   5
   5  -5  -4 2237.61  160.54   7
  -5  -5   4 2005.21  171.92   9
   5  -5  -4 1863.71  167.61   3
   5  -5  -4 2314.94  176.43   4
  -5   5   4 1977.58  178.07   9
  -5   5   4 1961.60  147.28  10
  -5   5   4 2172.05  170.49   5
   5   5  -4 2107.41  163.30   3
  -5   5   4 2074.62  159.62   7
   5   5  -4 2046.24  163.63   3
  -5   5   4 2062.61  164.13   3
  -5   5   4 1944.87  178.36   9
  -5   5   4 2237.63  160.98   1
  -5   5   4 2308.37  158.78   6
  -5   5   4 1903.44  163.47   2
  -5   5   4 2112.10  161.44   1
  -4  -5   4 811.005  69.856   9
   4  -5  -4 964.925  73.198   4
   4  -5  -4 783.204  65.490   8
   4  -5  -4 781.996  66.068   7
   4  -5  -4 911.247  70.713   3
   4  -5  -4 774.513  67.217   6
   4  -5  -4 930.152  74.129   5
  -4  -5   4 863.024  68.066   5
   4  -5  -4 852.033  68.753   1
  -4  -5   4 701.615  70.176   9
   4   5  -4 818.940  65.813   3
  -4   5   4 728.683  74.689   9
  -4   5   4 965.030  68.655   1
  -4   5   4 916.138  67.958   3
  -4   5   4 849.530  67.352   7
  -4   5   4 751.324  69.827   5
   4   5  -4 802.385  63.550   7
  -4   5   4 816.202  60.619  10
  -4   5   4 890.253  66.813   6
   4   5  -4 808.397  66.228   3
   4   5  -4 887.497  69.547   4
  -4   5   4 869.550  66.135   7
  -4   5   4 728.922  67.023   2
   3  -5  -4 664.880  49.597   7
   3  -5  -4 472.962  49.521   1
   3  -5  -4 625.015  53.685   4
   3  -5  -4 576.031  55.438   5
   3  -5  -4 590.442  48.836   8
   3  -5  -4 715.752  52.951   3
  -3  -5   4 559.651  51.800   9
  -3  -5   4 511.493  51.858   9
   3  -5  -4 653.885  57.105   9
   3  -5  -4 532.308  53.848   9
  -3  -5   4 654.530  46.897   7
   3  -5  -4 616.395  50.155   6
  -3  -5   4 631.550  47.026   1
  -3  -5   4 515.551  46.240   1
  -3  -5   4 642.951  50.443   5
  -3   5   4 571.552  50.167   6
  -3   5   4 668.078  46.475   8
   3   5  -4 660.574  51.494   4
  -3   5   4 619.095  49.758   7
  -3   5   4 527.001  51.114   5
  -3   5   4 501.719  48.923   2
  -3   5   4 616.644  44.918  10
  -3   5   4 614.757  50.902   3
   3   5  -4 613.061  45.750   8
   3   5  -4 638.863  47.295   1
   3   5  -4 579.341  46.836   7
  -3   5   4 610.836  48.963   7
  -3   5   4 695.252  51.011   1
  -3   5   4 611.905  49.616   1
   3   5  -4 625.951  48.975   3
  -3   5   4 478.542  54.910   9
   2  -5  -4 133.432  12.839  10
  -2  -5   4 120.917  10.932   3
  -2  -5   4 139.559  11.822   7
   2  -5  -4 102.433  14.424   4
  -2  -5   4 133.832  11.607   3
  -2  -5   4 137.327  14.793   9
   2  -5  -4 114.208  15.095   1
   2  -5  -4 142.241  14.072   8
  -2  -5   4 122.132  11.183   6
  -2  -5   4 125.657  12.553   1
   2  -5  -4 141.249  18.840   9
  -2  -5   4 123.182  14.191   9
  -2  -5   4 135.537  13.737   5
   2  -5  -4 119.908  14.962   3
  -2  -5   4 114.231  12.085   1
   2  -5  -4 130.548  13.788   7
  -2  -5   4 106.277  11.947   6
   2  -5  -4 107.384  17.785   5
   2  -5  -4 102.219  13.877   6
   2  -5  -4 147.103  16.421   9
  -2   5   4 124.906  14.435   1
  -2   5   4 113.678  12.049  10
   2   5  -4 121.673  14.537   9
   2   5  -4 129.172  12.705   3
   2   5  -4 156.989  13.231   1
  -2   5   4 138.172  14.473   5
  -2   5   4 111.428  14.167   1
   2   5  -4 129.125  12.909   8
  -2   5   4 114.210  13.743   7
  -2   5   4 156.056  16.227   6
   2   5  -4 136.382  12.385   7
  -2   5   4 147.831  15.183   3
   2   5  -4 131.439  11.528   8
  -2   5   4 119.719  12.541   8
  -2   5   4 113.775  17.388   9
  -2   5   4 155.275  14.647   7
   2   5  -4 95.6594 13.3141   4
  -2   5   4 122.911  13.141   2
  -1  -5   4 244.176  23.894   5
  -1  -5   4 257.140  25.125   9
  -1  -5   4 292.040  21.652   7
   1  -5  -4 288.274  23.764   6
  -1  -5   4 265.588  21.843   3
   1  -5  -4 264.195  22.967   7
   1  -5  -4 236.887  22.038   8
  -1  -5   4 242.681  21.870   6
   1  -5  -4 252.978  26.517   4
   1  -5  -4 253.648  25.467   4
   1  -5  -4 228.799  21.106   2
  -1  -5   4 226.398  21.968   1
  -1  -5   4 265.211  25.608   9
  -1  -5   4 265.637  21.247   6
   1  -5  -4 260.077  24.549   1
   1  -5  -4 267.237  28.527   9
  -1  -5   4 216.422  22.250   3
   1   5  -4 233.973  21.185   8
   1   5  -4 256.213  22.421   1
  -1   5   4 254.279  24.125   1
   1   5  -4 275.739  21.630   6
   1   5  -4 253.341  22.496   8
   1   5  -4 246.048  21.954   7
   1   5  -4 281.234  25.745   9
   1   5  -4 237.628  24.590   4
  -1   5   4 245.871  23.409   6
   1   5  -4 242.139  22.978   3
   1   5  -4 245.469  25.123   9
  -1   5   4 336.756  25.328   1
  -1   5   4 260.590  23.827   3
  -1   5   4 222.633  27.212   9
  -1   5   4 238.418  23.187   7
  -1   5   4 225.049  23.406   5
  -1   5   4 273.513  21.136  10
   0  -5   4 9.24786 4.56828   1
   0  -5  -4 19.4999  6.5391   1
   0  -5   4 22.5098  5.9529   1
   0  -5  -4 21.4587  7.8550   9
   0  -5   4 8.98975 3.33702   8
   0  -5   4 13.0320  4.0829   6
   0  -5  -4 11.1111  2.9861   2
   0  -5   4 12.7349  4.2975   8
   0  -5   4 11.2024  4.7796   6
   0  -5   4 9.62490 6.13352   9
   0  -5  -4 13.3054  7.3831   9
   0  -5   4 12.7501  4.7197   3
   0  -5  -4 10.4025  4.7599   7
   0  -5   4 8.83486 5.44706   9
   0  -5  -4 11.6177  5.6852   4
   0  -5  -4 15.8777  4.9372  10
   0  -5   4 11.8400  5.5936   5
   0  -5  -4 14.0538  4.8938   3
   0  -5   4 11.5134  4.0555   7
   0  -5  -4 7.85759 4.75469   6
   0  -5  -4 15.1743  4.8745   8
   0  -5  -4 17.5691  6.7532   1
   0  -5   4 14.7414  4.1648   3
   0   5  -4 12.2775  4.7994   7
   0   5  -4 17.0252  5.2380   3
   0   5  -4 12.8431  6.0061   4
   0   5  -4 13.3064  4.0728   6
   0   5   4 11.2531  4.7411   3
   0   5  -4 4.70468 5.24778   9
   0   5   4 17.9436  5.7520   5
   0   5   4 9.44654 5.75626   1
   0   5  -4 12.5622  5.5239   8
   0   5  -4 15.5251  6.3963   9
   0   5   4 11.0457  5.3493   7
   0   5   4 6.41893 3.99856  10
   0   5  -4 27.1357  6.2853   1
   0   5   4 11.4138  5.0355   6
   1  -5   4 1094.90   93.40   1
   1  -5   4 1157.09   91.95   6
   1  -5   4 1278.60  100.05   5
  -1  -5  -4 1299.57   92.44   2
  -1  -5  -4 1216.31   95.02   1
   1  -5   4 1142.60   92.52   8
  -1  -5  -4 1122.24   91.73   8
   1  -5   4 1235.15   93.15   6
  -1  -5  -4 1161.10   96.36   3
  -1  -5  -4 1074.09  101.93   4
   1  -5   4 1306.58  104.19   9
  -1  -5  -4 1153.78   92.36   6
   1  -5   4 1353.15   94.38   1
  -1  -5  -4 1169.09  105.02   9
  -1  -5  -4 1227.34   93.23   7
  -1  -5  -4 1100.88   85.94  10
   1  -5   4 1045.78  102.90   9
  -1  -5  -4 1233.97   94.21   1
  -1  -5  -4 1148.65  103.93   9
   1  -5   4 1165.62   97.00   3
   1   5   4 1136.54   93.81   1
  -1   5  -4 1234.46  102.86   4
  -1   5  -4 1283.69  104.25   9
   1   5   4 1274.27   86.51  10
   1   5   4 1284.87  105.06   9
   1   5   4 1276.91   97.10   3
  -1   5  -4 1223.24   92.03   6
  -1   5  -4 1245.05   93.14   8
   1   5   4 1212.16   93.10   6
  -1   5  -4 1077.81   93.49   1
   1   5   4 1388.17  103.26   4
   1   5   4 1181.28   98.70   5
  -1   5  -4 1097.34   92.97   7
  -2  -5  -4 1983.69  153.60   8
  -2  -5  -4 2074.86  173.54   9
   2  -5   4 1986.49  156.11   1
  -2  -5  -4 1906.76  154.61   7
  -2  -5  -4 1946.75  153.21   8
   2  -5   4 1946.08  155.31   8
   2  -5   4 1950.88  165.78   5
  -2  -5  -4 2307.52  154.25   6
  -2  -5  -4 1870.49  171.86   9
  -2  -5  -4 2088.61  157.32   1
  -2  -5  -4 2331.19  144.20  10
   2  -5   4 2335.72  173.14   9
   2  -5   4 2048.62  155.07   6
  -2  -5  -4 2036.54  155.39   2
  -2   5  -4 1887.16  171.73   9
   2   5   4 1961.11  161.30   3
   2   5   4 1984.41  155.78   1
  -2   5  -4 2235.99  171.76   4
  -2   5  -4 1904.47  156.13   1
  -2   5  -4 1805.37  155.03   7
  -2   5  -4 2113.95  153.94   6
  -2   5  -4 1941.69  155.10   8
   2   5   4 2050.85  164.69   5
   3  -5   4 1.33278 6.15295   8
  -3  -5  -4 17.4250  8.3253   9
  -3  -5  -4 10.3288  4.8423   6
  -3  -5  -4 8.89524 5.30974   7
  -3  -5  -4 15.8808  6.0238  10
  -3  -5  -4 13.3820  7.3779   1
   3  -5   4 0.63581 6.74324   1
   3  -5   4 11.5710  7.1871   5
  -3   5  -4 1.99221 7.07062   8
  -3   5  -4 8.53165 5.61902   7
   3   5   4 12.4596  5.8131   5
   3   5   4 6.43150 5.36003   3
  -3   5  -4 6.48580 5.91206   6
  -3   5  -4 3.68748 6.33697   2
  -3   5  -4 23.1244  7.9569   1
   4  -5   4 33.1183  8.4831   8
  -4  -5  -4 21.6380  6.2701   6
   4  -5   4 40.7588 10.0420   5
  -4  -5  -4 39.2923 10.0046   1
  -4  -5  -4 35.4180  8.1016  10
  -4  -5  -4 6.92793 7.71231   9
  -4  -5  -4 25.0985  7.0300   7
  -4   5  -4 18.4171  9.3020   1
  -4   5  -4 36.3743 10.1312   2
  -4   5  -4 34.3454  8.9197   7
  -5  -5  -4 50.1345 12.3266   1
  -5  -5  -4 57.1116  9.6672   7
  -5  -5  -4 53.2465 13.6318   9
  -5  -5  -4 56.1342  8.1133   6
  -5   5  -4 46.2030 13.1026   1
  -5   5  -4 46.6439 12.4524   2
  -6  -5  -4 61.8317  8.3341   6
  -6   5  -4 75.6614 14.0336   2
   8  -6  -4 713.990  53.109   8
  -8   6   4 548.084  58.230   5
  -8   6   4 580.638  51.770   1
  -8   6   4 676.562  56.770   2
  -8   6   4 666.075  49.022  10
  -8   6   4 632.888  62.574   9
   7  -6  -4 64.4842 10.0104   8
  -7   6   4 38.3027 13.6867   9
  -7   6   4 61.4645  9.4642  10
  -7   6   4 56.9767 12.7980   5
  -7   6   4 51.9124 11.1894   2
  -7   6   4 51.6936 10.6726   1
  -7   6   4 60.6242  9.8017   7
   6  -6  -4 991.708  82.744   8
   6  -6  -4 1041.81   84.01   7
  -6  -6   4 1149.21   84.94   5
  -6   6   4 983.382  85.565   2
  -6   6   4 1039.09   81.27   6
  -6   6   4 1007.98   89.24   5
  -6   6   4 991.956  82.753   7
  -6   6   4 1140.85   77.32  10
  -6   6   4 1064.37   96.68   9
  -6   6   4 1064.64   84.66   1
  -5  -6   4 382.829  30.874   5
  -5  -6   4 371.287  31.284   9
   5  -6  -4 394.803  35.033   3
   5  -6  -4 321.162  35.009   5
   5  -6  -4 328.529  31.962   7
   5  -6  -4 355.809  31.398   8
   5   6  -4 363.211  29.971   3
  -5   6   4 350.721  31.501   6
   5   6  -4 323.270  30.941   4
  -5   6   4 393.118  34.489   5
  -5   6   4 461.562  41.022   9
  -5   6   4 350.703  31.586   7
  -5   6   4 361.789  29.426  10
  -5   6   4 349.884  38.494   9
  -5   6   4 343.284  33.645   1
  -5   6   4 388.521  32.992   2
  -4  -6   4 2234.21  193.79   9
  -4  -6   4 2033.82  188.21   5
   4  -6  -4 2262.16  179.50   7
   4  -6  -4 2432.23  182.58   1
   4  -6  -4 2202.35  193.68   5
   4  -6  -4 2164.63  179.25   8
  -4  -6   4 2292.03  194.57   9
   4  -6  -4 2483.21  188.63   3
  -4   6   4 2370.63  179.45   6
  -4   6   4 2343.58  190.48   5
  -4   6   4 2458.84  179.49   7
   4   6  -4 2442.25  193.42   4
  -4   6   4 2656.37  186.49   3
  -4   6   4 2130.37  182.32   2
  -4   6   4 2601.80  165.70  10
   4   6  -4 2380.97  176.75   7
   4   6  -4 2307.57  184.36   3
  -4   6   4 2333.73  180.85   1
  -4   6   4 2501.42  200.59   9
  -3  -6   4 670.069  55.901   5
   3  -6  -4 606.654  54.190   7
  -3  -6   4 701.498  57.620   9
   3  -6  -4 653.993  53.828   8
   3  -6  -4 768.615  58.324   3
  -3  -6   4 768.619  52.504   1
  -3  -6   4 645.670  51.426   1
   3  -6  -4 682.087  56.558   1
  -3  -6   4 622.293  58.071   9
   3  -6  -4 663.748  63.254   9
   3  -6  -4 636.988  55.561   6
   3  -6  -4 571.436  58.635   4
   3  -6  -4 789.493  63.426   5
  -3  -6   4 610.008  51.804   7
   3   6  -4 687.241  50.867   8
  -3   6   4 533.335  53.367   7
  -3   6   4 549.396  53.804   2
  -3   6   4 704.532  56.013   6
  -3   6   4 716.839  55.505   7
  -3   6   4 627.339  55.362   1
   3   6  -4 683.088  54.423   3
   3   6  -4 674.681  51.884   8
   3   6  -4 719.956  52.181   7
  -3   6   4 683.954  57.259   5
  -3   6   4 643.994  55.135   1
  -3   6   4 656.552  56.341   3
  -3   6   4 659.603  62.612   9
  -3   6   4 620.440  49.485  10
   3   6  -4 694.175  57.095   4
  -3   6   4 714.005  51.940   8
  -2  -6   4 1783.98  145.68   3
   2  -6  -4 1815.60  143.06   8
  -2  -6   4 1774.90  141.34   1
  -2  -6   4 1831.48  140.84   7
  -2  -6   4 1926.11  141.14   6
   2  -6  -4 1747.35  159.53   9
  -2  -6   4 1816.07  139.73   6
   2  -6  -4 1895.58  145.15   1
   2  -6  -4 1910.39  150.48   3
   2  -6  -4 1995.43  157.17   5
  -2  -6   4 1983.06  146.29   3
  -2  -6   4 1754.42  156.03   9
   2  -6  -4 1793.25  157.98   9
  -2  -6   4 1636.92  155.44   9
  -2  -6   4 1871.82  141.70   1
   2  -6  -4 2014.67  143.71   7
   2  -6  -4 1696.53  143.32   6
   2  -6  -4 2114.88  157.34   4
  -2  -6   4 2021.75  151.61   5
  -2   6   4 1740.79  143.28   7
   2   6  -4 1712.03  141.03   8
  -2   6   4 2110.81  145.30   2
   2   6  -4 1948.54  141.74   7
   2   6  -4 1739.70  155.29   4
  -2   6   4 1980.08  144.57   1
   2   6  -4 1903.86  141.93   1
  -2   6   4 1851.39  144.42   6
  -2   6   4 1895.36  142.37   8
  -2   6   4 1752.47  149.63   3
   2   6  -4 1706.40  147.51   3
   2   6  -4 1962.79  142.74   8
  -2   6   4 2076.17  161.24   9
  -2   6   4 1734.41  143.98   1
  -2   6   4 2176.64  132.92  10
  -2   6   4 1614.22  151.26   5
   2   6  -4 1895.31  156.51   9
   1  -6  -4 169.896  15.834   8
  -1  -6   4 171.833  15.943   3
  -1  -6   4 161.869  14.800   7
   1  -6  -4 188.523  18.693   4
  -1  -6   4 168.899  17.483   5
  -1  -6   4 150.804  17.883   9
   1  -6  -4 189.506  17.992   3
   1  -6  -4 153.085  16.565   7
   1  -6  -4 131.046  16.754   6
  -1  -6   4 173.012  14.916   3
  -1  -6   4 174.401  18.681   9
   1  -6  -4 149.236  14.385   2
   1  -6  -4 173.555  20.140   4
  -1  -6   4 169.305  14.663   6
   1  -6  -4 195.815  22.789   9
  -1  -6   4 172.566  16.070   6
   1  -6  -4 157.353  18.178   1
  -1  -6   4 136.368  15.437   1
  -1   6   4 129.272  16.500   7
   1   6  -4 154.448  17.704   4
  -1   6   4 145.463  17.683   1
   1   6  -4 165.862  16.429   3
   1   6  -4 178.869  15.198   6
   1   6  -4 154.218  16.124   1
   1   6  -4 171.824  19.057   9
  -1   6   4 149.757  21.344   9
   1   6  -4 136.672  14.918   8
   1   6  -4 159.133  15.466   7
  -1   6   4 163.781  15.199  10
  -1   6   4 145.682  17.154   3
  -1   6   4 161.587  17.213   5
   1   6  -4 165.638  18.556   9
   0  -6   4 532.406  39.795   8
   0  -6   4 493.679  42.203   3
   0  -6   4 469.271  46.796   9
   0  -6  -4 483.008  46.325   4
   0  -6   4 552.097  41.404   7
   0  -6   4 497.364  41.802   6
   0  -6  -4 532.030  44.281   1
   0  -6  -4 450.406  40.628   8
   0  -6  -4 539.957  39.955   2
   0  -6  -4 494.210  43.441   3
   0  -6  -4 540.716  43.827   1
   0  -6   4 487.960  40.069   8
   0  -6   4 480.885  43.069   3
   0  -6  -4 506.143  42.263   6
   0  -6   4 427.613  46.090   9
   0  -6   4 537.974  40.753   6
   0  -6  -4 517.279  49.964   9
   0  -6  -4 507.990  48.377   9
   0  -6  -4 456.663  38.572  10
   0  -6   4 590.568  42.923   1
   0  -6   4 541.915  45.363   5
   0  -6   4 567.110  42.510   1
   0  -6  -4 476.857  42.173   7
   0   6  -4 513.351  47.252   9
   0   6  -4 520.646  41.293   8
   0   6   4 529.186  43.383   7
   0   6   4 530.515  39.315  10
   0   6  -4 532.209  44.265   3
   0   6  -4 480.525  40.643   6
   0   6  -4 533.421  42.622   1
   0   6   4 483.520  43.180   1
   0   6   4 542.802  43.873   3
   0   6   4 477.464  44.099   5
   0   6  -4 445.897  46.691   9
   0   6   4 527.390  43.001   6
   0   6  -4 493.152  41.652   7
   0   6  -4 517.924  46.479   4
   1  -6   4 -3.0219  5.4671   9
   1  -6   4 -4.5414  4.9661   5
   1  -6   4 5.80456 6.70380   9
  -1  -6  -4 -2.8118  4.0506   8
  -1  -6  -4 1.65660 4.20833  10
  -1  -6  -4 -2.7108  5.1430   1
  -1  -6  -4 -5.9200  5.0775   4
  -1  -6  -4 3.59836 4.39989   6
  -1  -6  -4 2.57639 7.14339   9
  -1  -6  -4 -1.1071  3.7868   7
   1  -6   4 -3.5573  5.0411   1
   1  -6   4 -1.8946  4.6174   8
   1  -6   4 2.24507 4.44909   6
   1  -6   4 4.10291 4.08085   6
  -1  -6  -4 -2.3575  6.1177   9
   1   6   4 -3.2353  3.8256   5
  -1   6  -4 7.07455 6.19532   9
   1   6   4 3.93563 5.40515   1
  -1   6  -4 7.33930 6.28007   9
  -1   6  -4 3.43982 5.88171   4
   1   6   4 8.64262 5.42068   7
  -1   6  -4 20.3904  5.2277   6
   1   6   4 6.45357 4.76082   3
  -1   6  -4 -4.3312  3.6938   7
  -1   6  -4 3.21879 5.61908   1
   1   6   4 -2.0628  6.6128   9
  -1   6  -4 -5.3901  5.5266   8
  -2  -6  -4 146.278  19.659   9
   2  -6   4 140.735  15.568   6
  -2  -6  -4 148.850  17.352   1
  -2  -6  -4 129.830  11.459   8
   2  -6   4 128.365  16.106   5
   2  -6   4 110.565  13.432   8
  -2  -6  -4 98.2542 18.3244   9
   2  -6   4 130.503  15.718   1
  -2  -6  -4 125.225  13.573   6
  -2  -6  -4 125.035  13.985   7
  -2  -6  -4 111.722  13.153  10
   2   6   4 160.471  15.581   5
   2   6   4 108.723  13.914   3
  -2   6  -4 107.353  15.241   1
  -2   6  -4 123.064  14.779   7
  -2   6  -4 122.078  17.239   4
  -3  -6  -4 79.9118 10.3053   6
  -3  -6  -4 75.9545 15.7574   9
   3  -6   4 74.4048 12.8512   5
   3  -6   4 72.1288 12.5077   1
  -3  -6  -4 86.0803 10.8015   7
   3  -6   4 70.3486 11.2967   8
  -3  -6  -4 82.9338 10.6014  10
  -3  -6  -4 88.0950 13.8921   1
   3   6   4 76.4251 10.9387   5
  -3   6  -4 87.7990 12.2343   7
  -3   6  -4 67.3099 12.3955   2
  -3   6  -4 70.5759 11.9472   8
  -3   6  -4 79.7950 13.0144   1
  -4  -6  -4 1.45480 8.54961   9
  -4  -6  -4 8.31112 8.10987   1
  -4  -6  -4 0.53930 5.41611   7
   4  -6   4 1.00724 6.36173   8
   4  -6   4 4.22414 7.02615   5
  -4  -6  -4 2.37127 5.94531  10
  -4  -6  -4 -5.1371  4.0893   6
  -4   6  -4 26.3791 10.0336   1
  -4   6  -4 2.33626 6.86940   2
  -4   6  -4 5.64988 6.62783   7
  -5  -6  -4 102.368  11.501   6
  -5  -6  -4 104.721  16.488   1
  -5  -6  -4 105.240  13.514   7
  -5   6  -4 103.741  16.434   2
  -5   6  -4 105.888  17.986   1
  -8   7   4 144.412  19.652   2
  -8   7   4 139.455  23.735   9
  -8   7   4 101.137  20.476   5
  -8   7   4 180.919  17.636   7
  -8   7   4 139.669  16.608   1
   7  -7  -4 1166.26   97.58   8
  -7   7   4 1134.33  105.54   5
  -7   7   4 1417.06   98.10   7
  -7   7   4 1198.57  101.01   2
  -7   7   4 1318.35   90.90  10
  -7   7   4 1187.40   98.69   1
   6  -7  -4 35.2681  9.0960   7
   6  -7  -4 31.5390  7.9170   8
  -6  -7   4 42.0863  5.7266   5
  -6   7   4 28.1951  7.4657   6
  -6   7   4 30.5025  9.8704   5
  -6   7   4 44.4379  8.5805  10
  -6   7   4 43.4602  8.9998   7
   6   7  -4 36.5855  5.5514   3
   6   7  -4 24.2861  5.1027   4
  -6   7   4 46.8431 10.8229   1
  -6   7   4 33.2501  9.5850   2
  -6   7   4 35.5727 14.2600   9
   5  -7  -4 174.482  20.381   7
   5  -7  -4 203.939  19.787   8
   5  -7  -4 193.025  24.063   5
  -5  -7   4 213.031  18.684   5
   5  -7  -4 227.354  23.209   3
  -5  -7   4 197.117  18.468   9
  -5   7   4 218.705  20.903   2
  -5   7   4 202.634  26.798   9
   5   7  -4 187.068  17.849   3
   5   7  -4 196.207  18.346   4
  -5   7   4 195.659  20.655   6
  -5   7   4 196.691  22.080   1
  -5   7   4 219.026  27.404   9
  -5   7   4 166.413  19.581   7
  -5   7   4 175.791  18.434  10
  -5   7   4 170.266  20.780   5
   4  -7  -4 113.930  14.305   7
   4  -7  -4 165.398  18.105   3
   4  -7  -4 72.7310 16.8706   5
  -4  -7   4 110.450  13.027   9
  -4  -7   4 109.866  13.859   9
   4  -7  -4 109.279  16.951   1
  -4  -7   4 125.364  13.096   5
   4  -7  -4 113.500  14.043   8
  -4  -7   4 119.250   9.642   1
  -4   7   4 113.581  13.072  10
  -4   7   4 127.211  14.269   3
   4   7  -4 108.806  12.044   3
  -4   7   4 94.1978 18.7899   9
   4   7  -4 104.339  12.595   4
  -4   7   4 132.506  16.713   1
  -4   7   4 127.520  15.290   5
  -4   7   4 108.318  13.611   2
   4   7  -4 129.806  12.014   7
  -4   7   4 89.3471 14.2909   6
  -4   7   4 93.2257 13.6688   7
  -3  -7   4 889.536  70.793   1
  -3  -7   4 883.288  79.604   9
   3  -7  -4 901.923  82.909   5
   3  -7  -4 1007.86   86.22   9
  -3  -7   4 862.076  71.359   7
  -3  -7   4 881.992  71.825   1
   3  -7  -4 876.962  74.124   7
  -3  -7   4 865.733  78.746   9
  -3  -7   4 915.528  76.689   5
   3  -7  -4 935.365  77.913   3
   3  -7  -4 827.906  80.282   4
   3  -7  -4 977.099  73.492   8
   3  -7  -4 1064.17   77.37   1
   3  -7  -4 896.111  75.240   6
  -3   7   4 1083.23   76.54   1
  -3   7   4 1057.55   86.14   9
  -3   7   4 994.450  68.218  10
  -3   7   4 839.442  77.369   5
  -3   7   4 740.272  72.966   7
  -3   7   4 932.577  76.855   3
   3   7  -4 874.198  71.350   7
  -3   7   4 1108.62   76.42   6
   3   7  -4 987.800  71.844   8
   3   7  -4 1003.49   75.06   3
  -3   7   4 978.555  74.208   2
  -3   7   4 906.540  71.466   8
   3   7  -4 857.880  78.303   4
   3   7  -4 901.526  70.310   8
  -2  -7   4 414.685  39.634   5
   2  -7  -4 480.742  46.168   9
  -2  -7   4 414.939  35.694   7
   2  -7  -4 460.680  45.712   5
  -2  -7   4 414.964  41.677   9
  -2  -7   4 488.494  36.410   3
   2  -7  -4 429.024  42.143   4
   2  -7  -4 452.716  37.837   8
  -2  -7   4 439.620  35.190   6
  -2  -7   4 478.046  37.286   6
   2  -7  -4 442.090  38.791   7
  -2  -7   4 414.328  36.997   1
  -2  -7   4 445.933  36.577   1
   2  -7  -4 419.084  40.838   3
   2  -7  -4 487.693  40.515   6
  -2  -7   4 481.167  35.891   3
  -2  -7   4 529.560  42.069   9
   2   7  -4 413.703  36.922   1
   2   7  -4 506.125  38.340   8
  -2   7   4 488.896  41.076   6
  -2   7   4 429.569  37.607   2
  -2   7   4 493.068  46.915   9
  -2   7   4 453.195  40.001   1
   2   7  -4 393.032  40.196   4
  -2   7   4 452.177  38.882   7
   2   7  -4 410.814  35.617   8
   2   7  -4 433.647  36.652   7
  -2   7   4 445.867  35.665  10
  -2   7   4 437.169  40.043   5
   2   7  -4 384.551  41.514   9
  -2   7   4 451.809  40.731   3
   2   7  -4 511.554  39.121   3
  -1  -7   4 1319.66  124.85   9
   1  -7  -4 1529.92  126.61   4
  -1  -7   4 1575.78  112.31   7
  -1  -7   4 1446.24  120.84   5
   1  -7  -4 1603.04  115.20   6
   1  -7  -4 1627.79  115.04   7
  -1  -7   4 1359.70  112.80   1
   1  -7  -4 1326.46  112.69   8
  -1  -7   4 1482.80  112.87   6
   1  -7  -4 1360.92  128.09   9
  -1  -7   4 1403.74  115.97   3
  -1  -7   4 1379.07  124.55   9
   1  -7  -4 1396.89  126.56   9
  -1  -7   4 1454.06  111.17   6
  -1  -7   4 1687.73  117.72   3
   1  -7  -4 1522.77  116.21   1
   1  -7  -4 1567.56  119.69   3
   1  -7  -4 1302.17  113.01   2
  -1   7   4 1398.66  105.03  10
   1   7  -4 1621.25  125.98   9
   1   7  -4 1472.74  112.91   7
  -1   7   4 1487.86  115.02   1
   1   7  -4 1444.11  118.00   3
  -1   7   4 1515.65  114.97   7
   1   7  -4 1378.73  111.38   6
   1   7  -4 1453.03  113.34   1
  -1   7   4 1453.93  129.20   9
  -1   7   4 1419.08  120.43   5
   1   7  -4 1586.59  112.58   8
  -1   7   4 1579.82  119.62   3
   1   7  -4 1390.29  123.92   4
   0  -7  -4 1706.97  128.26   2
   0  -7  -4 1718.35  129.40   6
   0  -7  -4 1530.95  143.42   9
   0  -7   4 1765.35  129.03   6
   0  -7   4 1699.97  142.64   9
   0  -7   4 1721.46  126.91   8
   0  -7   4 1713.52  127.17   8
   0  -7  -4 1827.90  146.44   9
   0  -7   4 1711.49  143.21   9
   0  -7  -4 1803.72  119.97  10
   0  -7   4 1740.55  138.20   5
   0  -7   4 1664.57  133.06   3
   0  -7   4 1580.86  129.24   1
   0  -7  -4 1512.83  127.88   8
   0  -7  -4 1782.19  131.77   1
   0  -7  -4 1361.03  128.89   7
   0  -7   4 1801.09  127.33   6
   0   7  -4 1811.60  135.35   3
   0   7   4 1581.80  129.72   6
   0   7  -4 1678.83  143.13   9
   0   7  -4 1768.70  142.94   9
   0   7  -4 1606.82  128.71   7
   0   7  -4 1855.79  142.28   4
   0   7   4 1499.42  144.94   9
   0   7   4 1590.96  134.77   3
   0   7   4 1664.40  137.08   5
   0   7   4 1565.14  130.31   7
   0   7   4 1634.09  130.60   1
   0   7   4 1619.63  119.71  10
   0   7  -4 1654.06  129.42   1
   0   7  -4 1708.86  128.77   8
  -1  -7  -4 18.6481  7.8839   1
   1  -7   4 22.8824  6.0995   8
   1  -7   4 21.9560  5.8170   6
  -1  -7  -4 27.8996  6.3853   8
  -1  -7  -4 26.3735  6.8624   7
  -1  -7  -4 24.4046 11.0158   9
  -1  -7  -4 26.4858  6.8597  10
   1  -7   4 21.8218  7.2582   1
   1  -7   4 27.4489  8.0458   5
  -1  -7  -4 28.8694 10.3473   9
   1  -7   4 23.1397  9.0310   9
  -1  -7  -4 19.3346  5.4246   8
   1  -7   4 19.7202  7.0984   6
  -1  -7  -4 29.5196  7.1359   6
   1   7   4 21.8156  7.8118   1
   1   7   4 26.5567  6.7179   3
  -1   7  -4 13.7104  7.0850   8
   1   7   4 22.9746  7.0520   5
  -1   7  -4 36.4265  7.5471   7
  -1   7  -4 24.8368  7.8369   3
  -1   7  -4 22.5040  7.2922   1
  -1   7  -4 26.7399  8.6609   4
   1   7   4 30.8985  8.7538   7
   2  -7   4 7.78584 6.97803   1
  -2  -7  -4 30.9193  9.7694   1
   2  -7   4 11.8917  6.9087   5
  -2  -7  -4 21.8696  6.4919   6
  -2  -7  -4 24.1113  6.9772   7
   2  -7   4 13.4279  6.2885   8
  -2  -7  -4 18.6678 10.1572   9
  -2  -7  -4 12.3415  6.2412  10
  -2   7  -4 -0.1767  6.7280   2
  -2   7  -4 29.3971  8.0786   7
   2   7   4 12.2172  6.1411   5
  -2   7  -4 18.6844  8.0603   1
   2   7   4 29.4139  6.9873   3
  -2   7  -4 28.3034  8.8471   8
  -3  -7  -4 258.781  22.144  10
  -3  -7  -4 240.244  21.683   6
   3  -7   4 181.487  24.811   5
   3  -7   4 228.300  22.847   8
  -3  -7  -4 197.951  27.453   9
  -3  -7  -4 295.698  26.710   1
   3  -7   4 253.921  26.115   1
  -3  -7  -4 265.186  22.987   7
  -3   7  -4 270.447  24.558   8
  -3   7  -4 191.240  24.366   2
  -3   7  -4 249.994  25.842   1
  -3   7  -4 221.289  23.450   7
  -4  -7  -4 171.911  15.625   6
  -4  -7  -4 116.295  18.500   1
  -4  -7  -4 147.734  16.248   7
  -4  -7  -4 162.216  22.486   9
   4  -7   4 143.147  19.960   5
  -4   7  -4 129.191  17.912   7
  -4   7  -4 150.886  19.326   2
  -4   7  -4 160.453  20.623   1
  -5  -7  -4 45.7138  9.0523   7
  -5  -7  -4 30.4123 10.3796   1
  -5  -7  -4 33.7379  6.5894   6
  -5   7  -4 34.9027 11.0028   2
  -5   7  -4 28.2612 12.4952   1
  -8   8   4 409.878  41.886   5
  -8   8   4 398.524  36.495   1
  -8   8   4 375.744  38.392   2
  -7   8   4 148.033  17.766   2
  -7   8   4 125.508  18.712   5
   7   8  -4 104.816  12.328   4
  -7   8   4 117.740  17.127   1
  -7   8   4 107.246  21.951   9
  -7   8   4 111.484  14.923   7
   6  -8  -4 14.0575  6.9961   8
   6  -8  -4 0.78139 6.90499   7
  -6  -8   4 -1.8210  2.6214   9
  -6  -8   4 4.37898 3.87635   5
  -6   8   4 -9.6061  9.7156   9
  -6   8   4 3.84975 7.71621   5
  -6   8   4 1.75911 6.06965   2
  -6   8   4 -2.3725  5.9288   7
  -6   8   4 11.3051  8.7219   1
   6   8  -4 2.90003 4.29478   3
  -6   8   4 0.51337 5.73541   6
   6   8  -4 1.01225 4.18355   4
  -5  -8   4 17.2660  5.2193   9
   5  -8  -4 16.1326  8.0286   7
  -5  -8   4 20.4013  5.5532   5
   5  -8  -4 22.0408  7.4703   8
   5  -8  -4 15.2921 10.1357   5
   5  -8  -4 15.9050  7.9144   3
  -5   8   4 28.5905 13.4046   9
  -5   8   4 36.2031  9.3459   6
   5   8  -4 21.7177  5.7884   4
  -5   8   4 16.0309  7.2534   7
   5   8  -4 18.9912  5.5656   3
  -5   8   4 11.3574  9.3522   1
  -5   8   4 6.73699 6.14864   2
  -5   8   4 -2.1172  6.3944   5
  -4  -8   4 21.2782  6.4690   9
  -4  -8   4 22.6832  3.6994   1
  -4  -8   4 27.1330  7.9381   9
   4  -8  -4 26.7543  8.7984   3
   4  -8  -4 16.7285  7.5013   8
  -4  -8   4 20.4754  6.1451   5
   4  -8  -4 30.9724  8.5017   7
  -4  -8   4 22.7567  4.6842   1
   4  -8  -4 24.9238 10.4397   5
  -4   8   4 19.1729  8.9796   6
  -4   8   4 32.6152  9.1816   5
  -4   8   4  9.7914 10.3383   9
  -4   8   4 19.7442  7.5123   7
  -4   8   4 24.2261  7.2609   2
  -4   8   4 33.3886  8.3266   3
   4   8  -4 22.8624  5.9629   3
  -4   8   4 35.5755  8.0439  10
   4   8  -4 22.4744  6.5083   4
  -4   8   4 36.2150 10.7316   1
  -3  -8   4 65.4740  9.9087   1
  -3  -8   4 61.4231  7.9499   1
  -3  -8   4 62.1840  9.8826   5
   3  -8  -4 63.2627 15.9143   5
  -3  -8   4 56.1481  8.6206   7
   3  -8  -4 51.5834 10.8869   7
   3  -8  -4 78.3287 12.7336   3
   3  -8  -4 54.8032 10.4465   8
  -3  -8   4 67.4173  6.0677   6
  -3  -8   4 79.2811 11.0128   9
  -3  -8   4 69.6766 11.7770   9
   3  -8  -4 78.4037 14.4187   1
  -3   8   4 61.1646 12.6508   1
   3   8  -4 63.9477 10.0834   4
   3   8  -4 69.2534  9.9501   8
   3   8  -4 67.6677  7.7647   8
  -3   8   4 68.3763 12.4895   6
  -3   8   4 69.7499 10.1485   2
   3   8  -4 57.3494  9.1963   3
  -3   8   4 93.5403 12.5233   3
   3   8  -4 92.0753  9.7998   7
  -3   8   4 56.5671  9.6840  10
  -3   8   4 48.0980 10.3495   7
  -3   8   4 65.3850 16.4961   9
  -3   8   4 59.8241 10.8072   5
  -2  -8   4 1646.09  125.21   6
   2  -8  -4 1601.11  129.78   7
  -2  -8   4 1493.44  127.05   6
  -2  -8   4 1630.23  136.50   5
  -2  -8   4 1752.15  130.12   3
  -2  -8   4 1514.27  140.87   9
  -2  -8   4 1716.44  127.88   7
  -2  -8   4 1627.52  130.40   3
  -2  -8   4 1704.97  128.04   1
   2  -8  -4 1858.87  143.81   5
   2  -8  -4 1422.19  127.96   8
  -2  -8   4 1972.67  141.63   9
  -2  -8   4 1729.72  126.49   7
   2  -8  -4 1744.09  132.04   1
   2  -8  -4 1682.11  130.71   6
  -2  -8   4 1678.88  127.17   1
  -2   8   4 1542.39  130.47   1
  -2   8   4 1588.17  129.54   7
  -2   8   4 1768.17  130.08   2
   2   8  -4 1759.83  126.92   8
  -2   8   4 1470.28  130.30   6
  -2   8   4 1792.63  135.88   3
   2   8  -4 1826.92  140.31   4
   2   8  -4 1511.19  127.18   7
   2   8  -4 1523.23  133.05   3
  -2   8   4 1647.24  136.60   5
  -2   8   4 1667.53  146.35   9
  -1  -8   4 115.660  14.722   6
  -1  -8   4 148.182  15.135   1
  -1  -8   4 113.353  15.814   5
   1  -8  -4 117.325  21.335   5
   1  -8  -4 149.341  16.890   7
  -1  -8   4 154.232  13.209   6
   1  -8  -4 127.768  14.115  10
  -1  -8   4 169.224  18.826   9
  -1  -8   4 122.108  12.695   3
  -1  -8   4 131.999  13.568   7
   1  -8  -4 132.853  19.077   4
  -1  -8   4 103.912  16.158   9
   1  -8  -4 137.740  18.159   1
   1  -8  -4 155.550  20.413   9
   1  -8  -4 118.898  16.847   6
   1  -8  -4 138.998  14.392   8
   1   8  -4 131.401  15.253   3
   1   8  -4 120.900  16.234   4
  -1   8   4 141.649  16.605   7
   1   8  -4 135.813  18.720   9
   1   8  -4 131.652  14.549   7
  -1   8   4 106.907  16.083   3
  -1   8   4 119.966  17.029   1
  -1   8   4 149.116  16.528   5
   1   8  -4 130.877  14.278   8
   0  -8  -4 7.50469 9.37572   9
   0  -8   4 24.1672  9.0776   9
   0  -8   4 15.8015  6.5754   6
   0  -8   4 10.1655  3.4019   8
   0  -8   4 8.56819 6.59347   5
   0  -8  -4 3.45382 5.71964   7
   0  -8   4 9.38619 6.18918   1
   0  -8  -4 12.9158  5.2553   8
   0  -8  -4 13.0285  6.3428   6
   0  -8   4 16.1776  4.2457   8
   0  -8   4 6.88448 4.30746   6
   0  -8  -4 17.4505  8.1134   1
   0  -8  -4 7.59336 5.35972  10
   0  -8   4 7.41316 7.86133   9
   0   8  -4 12.3380  6.2254   8
   0   8   4 12.3544  6.2817   7
   0   8  -4 9.75801 7.53701   4
   0   8   4 5.95529 6.33144   1
   0   8  -4 6.59329 5.47689   7
   0   8  -4 0.44038 5.12842   3
   0   8  -4 6.57004 6.11533   1
   0   8   4 2.82092 5.14824   3
   0   8   4 -2.2716  5.1358   5
   1  -8   4 380.003  34.075   1
  -1  -8  -4 396.981  30.460   8
   1  -8   4 358.937  31.374   8
  -1  -8  -4 340.092  32.941   7
  -1  -8  -4 357.894  32.749   6
  -1  -8  -4 318.515  30.084  10
  -1  -8  -4 294.818  34.269   1
  -1  -8  -4 429.724  41.218   9
   1  -8   4 392.817  33.928   6
   1  -8   4 346.574  35.901   5
   1  -8   4 400.579  39.179   9
   1   8   4 351.354  34.269   3
  -1   8  -4 449.723  35.382   1
  -1   8  -4 409.811  33.121   8
   1   8   4 410.604  34.914   5
  -1   8  -4 371.306  37.469   4
  -1   8  -4 347.932  35.184   3
   1   8   4 366.005  34.561   1
  -1   8  -4 380.081  33.473   7
   1   8   4 440.069  35.892   7
  -2  -8  -4 183.379  17.776  10
  -2  -8  -4 184.594  24.726   9
  -2  -8  -4 189.719  17.980   6
  -2  -8  -4 170.496  20.734   1
   2  -8   4 183.752  20.651   1
   2  -8   4 173.950  17.777   8
   2  -8   4 170.890  21.581   5
  -2  -8  -4 145.875  17.838   7
   2   8   4 205.501  19.453   3
   2   8   4 194.450  19.691   5
  -2   8  -4 146.930  18.274   8
  -2   8  -4 177.248  20.533   1
   2   8   4 164.150  20.295   7
  -2   8  -4 135.619  18.131   7
  -2   8  -4 165.322  20.077   2
   3  -8   4 326.886  31.197   5
  -3  -8  -4 274.653  32.142   9
  -3  -8  -4 310.999  29.134   1
  -3  -8  -4 227.402  24.102   6
   3  -8   4 264.247  25.846   8
   3  -8   4 291.414  28.693   1
  -3   8  -4 263.649  27.008   7
  -3   8  -4 248.834  27.843   2
  -3   8  -4 295.748  27.747   8
  -3   8  -4 286.302  29.304   1
  -4  -8  -4 1543.46  119.37   1
  -4  -8  -4 1436.86  114.16   6
  -4  -8  -4 1583.97  116.33   7
   4  -8   4 1331.49  125.73   5
  -4   8  -4 1465.28  118.56   7
  -4   8  -4 1608.73  120.70   1
  -4   8  -4 1486.67  120.89   2
  -5  -8  -4 4.42748 4.44428   6
  -5  -8  -4 0.38153 8.76395   1
  -5   8  -4 3.35517 8.89705   2
  -5   8  -4 12.3585 10.4147   1
  -7   9   4 245.022  28.228   2
  -7   9   4 308.423  31.933   5
   7   9  -4 263.293  25.787   4
  -7   9   4 273.750  29.238   1
  -6  -9   4 228.955  22.515   9
  -6  -9   4 270.354  23.746   5
  -6   9   4 239.032  26.029   2
   6   9  -4 292.017  23.577   3
  -6   9   4 205.652  24.891   7
   6   9  -4 236.335  24.094   4
  -6   9   4 232.475  27.455   1
  -6   9   4 293.758  28.995   5
  -5  -9   4 255.687  25.730   5
  -5  -9   4 290.629  26.294   9
   5  -9  -4 250.496  31.666   5
   5  -9  -4 320.206  28.704   7
   5  -9  -4 281.263  26.521   8
   5   9  -4 258.735  25.174   3
  -5   9   4 251.547  28.285   5
  -5   9   4 274.370  29.414   1
  -5   9   4 302.233  27.527   2
   5   9  -4 278.847  26.424   4
  -5   9   4 252.972  27.570   6
  -5   9   4 253.846  26.955   7
   4  -9  -4 117.326  14.735   8
  -4  -9   4 95.3453 13.5491   9
  -4  -9   4 106.669  10.313   1
   4  -9  -4 94.8690 15.1156   7
   4  -9  -4 118.474  20.325   5
  -4  -9   4 95.7955 15.2521   9
  -4  -9   4 125.849  14.418   5
  -4  -9   4 111.825  11.490   1
  -4   9   4 115.834  15.540   5
   4   9  -4 96.3608 12.6190   3
  -4   9   4 121.835  14.488   2
  -4   9   4 137.726  16.462   7
   4   9  -4 111.012  13.828   4
  -4   9   4 140.116  17.999   1
   3  -9  -4 76.1857 15.3281   1
  -3  -9   4 58.0142 11.6028   9
  -3  -9   4 56.5010  9.9411   5
  -3  -9   4 62.8995  6.0879   6
   3  -9  -4 53.9695 11.2095   7
   3  -9  -4 50.3991 15.2671   5
   3  -9  -4 51.8030 10.2034   8
  -3  -9   4 55.6286  7.6387   1
  -3  -9   4 59.9328  8.5326   7
  -3  -9   4 36.1574  9.2404   9
  -3  -9   4 56.2777  5.4696   6
  -3  -9   4 46.1644  9.2979   1
  -3   9   4 50.0224  9.2794   2
   3   9  -4 50.7451  9.8418   4
  -3   9   4 56.1125 11.5850   3
  -3   9   4 36.0153 11.9814   1
  -3   9   4 46.8022 10.1066   5
   3   9  -4 45.9805  7.6519   8
   3   9  -4 54.3285  9.2052   3
   3   9  -4 43.5289  8.3156   7
  -3   9   4 58.4672 10.9584   7
  -2  -9   4 25.5141  8.3821   9
  -2  -9   4 30.0190  9.9557   9
  -2  -9   4 23.3995  3.5827   3
  -2  -9   4 20.7639  6.8566   6
   2  -9  -4 32.1466 13.2048   5
   2  -9  -4 25.5969  8.5978   7
  -2  -9   4 20.0717  6.3927   1
  -2  -9   4 28.6673  5.0079   6
  -2  -9   4 32.7471  8.5211   5
  -2  -9   4 22.3418  7.1799   7
   2  -9  -4 35.8318  8.1513   8
   2  -9  -4 17.2824  9.0489   1
   2   9  -4 19.4060  6.9159   3
  -2   9   4 31.5674 10.7451   1
   2   9  -4 16.1148  7.8541   4
  -2   9   4 15.7778  7.3718   3
  -2   9   4 20.5258  7.2359   5
  -2   9   4 -2.3096  5.4057   7
   2   9  -4 23.9592  6.8964   7
  -2   9   4 20.4119  6.1526   2
   2   9  -4 14.0571  7.1257   8
  -1  -9   4 375.096  36.371   9
   1  -9  -4 304.293  32.259   7
  -1  -9   4 391.567  32.553   6
  -1  -9   4 379.488  34.335   5
   1  -9  -4 376.091  35.107   1
  -1  -9   4 352.992  31.452   7
   1  -9  -4 384.124  34.261   6
   1  -9  -4 335.568  30.064   8
  -1  -9   4 314.688  28.756   6
   1  -9  -4 358.060  39.880   5
  -1  -9   4 350.919  31.080   1
  -1   9   4 343.188  32.914   5
   1   9  -4 347.266  31.028   7
  -1   9   4 341.347  34.244   3
   1   9  -4 368.481  30.770   8
  -1   9   4 382.726  34.960   1
  -1   9   4 354.338  33.214   7
   1   9  -4 348.045  32.812   3
   1   9  -4 312.833  34.391   4
   0  -9   4 82.8454 15.0721   9
   0  -9   4 72.1488  9.3918   6
   0  -9   4 78.5881 12.2214   6
   0  -9  -4 86.5760  9.6242   8
   0  -9  -4 65.0999 12.2158   6
   0  -9   4 63.3114 11.0463   1
   0  -9  -4 64.1763 11.6793   7
   0  -9  -4 68.2392 16.8876   5
   0  -9   4 75.9923 13.2289   5
   0  -9  -4 60.5123 13.0816   1
   0   9  -4 58.9763 10.6937   8
   0   9   4 86.6600 13.4842   7
   0   9   4 76.0896 11.5269   5
   0   9   4 52.4135 12.6772   1
   0   9  -4 73.3654 12.2234   3
   0   9  -4 99.7919 14.5022   4
   0   9   4 70.9042 12.5682   3
   0   9  -4 73.8139 11.5627   7
   1  -9   4 90.8925 11.3934   8
  -1  -9  -4 97.1646 13.5301   6
  -1  -9  -4 109.695  14.474   7
   1  -9   4 103.687  14.670   1
   1  -9   4 101.670  14.503   6
  -1  -9  -4 95.5744 15.5888   1
   1  -9   4 119.819  16.759   5
   1   9   4 107.452  16.020   7
   1   9   4 99.3338 14.3037   3
  -1   9  -4 117.715  16.068   3
  -1   9  -4 93.2583 16.7977   4
  -1   9  -4 112.168  14.474   7
   1   9   4 110.951  14.301   5
  -2  -9  -4 149.867  17.293   7
  -2  -9  -4 162.474  20.259   1
   2  -9   4 165.751  19.960   1
   2  -9   4 161.814  16.894   8
  -2  -9  -4 160.397  16.911   6
   2  -9   4 113.290  19.198   5
  -2   9  -4 158.168  18.483   8
  -2   9  -4 173.940  20.683   3
  -2   9  -4 158.033  20.084   1
  -2   9  -4 150.286  18.477   7
   2   9   4 154.638  20.241   7
  -2   9  -4 146.809  19.194   2
   3  -9   4 944.186  69.720   8
  -3  -9  -4 826.289  68.913   7
   3  -9   4 759.261  71.499   1
  -3  -9  -4 1020.50   73.63   1
  -3  -9  -4 864.943  67.992   6
   3  -9   4 712.303  75.213   5
  -3   9  -4 851.715  71.250   7
  -3   9  -4 900.872  72.769   2
  -3   9  -4 906.951  73.240   1
  -3   9  -4 807.390  69.710   8
  -4  -9  -4 15.8738  8.7864   1
   4  -9   4 -0.7403  9.2122   5
  -4  -9  -4 4.70010 6.60682   7
  -4  -9  -4 0.66398 4.96415   6
  -4   9  -4 19.6024  9.3265   2
  -4   9  -4 14.8303  9.5615   1
  -7  10   4 14.2535 10.3373   1
  -7  10   4 3.58704 8.34433   2
  -7  10   4 -1.9983  9.6038   5
  -6 -10   4 -1.9446  4.1107   9
  -6 -10   4 -1.8842  5.3418   5
   6  10  -4 7.43891 6.99916   4
  -6  10   4 30.3128  9.1766   2
  -6  10   4 -5.6600  8.6736   1
  -6  10   4 -1.2629  7.7451   5
   5 -10  -4 61.5357 11.5168   8
  -5 -10   4 63.5646 10.2842   5
  -5 -10   4 66.1963  9.7946   9
   5 -10  -4 48.2427 11.2573   7
   5  10  -4 41.5191  9.7933   4
  -5  10   4 47.9586 13.2582   1
  -5  10   4 35.9308 11.3191   7
  -5  10   4 60.4902 11.5952   2
  -5  10   4 56.4536 12.9749   5
   4 -10  -4 72.3957 11.8847   8
  -4 -10   4 89.2345 12.0828   5
   4 -10  -4 64.9129 17.3051   5
  -4 -10   4 61.9502  7.6202   1
   4 -10  -4 74.5838 13.1601   7
  -4 -10   4 79.6838  8.8782   1
  -4  10   4 60.6833 11.1930   2
  -4  10   4 79.1571 15.0179   1
  -4  10   4 61.1010 12.3353   7
   4  10  -4 48.0798 11.0640   4
  -4  10   4 61.3529 12.8602   5
  -3 -10   4 64.6378 12.7727   9
   3 -10  -4 83.3285 17.2354   1
   3 -10  -4 82.7596 18.9683   5
   3 -10  -4 98.7057 14.6643   7
  -3 -10   4 113.404  16.208   9
  -3 -10   4 70.7146  8.1443   6
  -3 -10   4 92.0234 11.0478   7
  -3 -10   4 73.4297  9.9736   1
  -3 -10   4 77.0657  7.6666   6
  -3 -10   4 108.218  13.933   5
   3 -10  -4 106.089  13.188   8
   3  10  -4 73.4372 11.0280   8
  -3  10   4 86.9313 14.4659   7
   3  10  -4 93.8589 13.6267   4
  -3  10   4 86.7917 14.0391   3
  -3  10   4 105.113  14.565   5
  -3  10   4 100.301  12.238   2
  -3  10   4 102.308  16.587   1
  -2 -10   4 108.015  17.953   9
   2 -10  -4 85.7827 17.8972   1
   2 -10  -4 120.364  17.267   7
  -2 -10   4 118.804  16.719   5
  -2 -10   4 133.615  18.250   9
  -2 -10   4 150.623  12.879   6
   2 -10  -4 130.043  14.787   8
  -2 -10   4 146.782  15.738   7
   2 -10  -4 114.920  22.852   5
  -2 -10   4 123.918  14.956   6
  -2 -10   4 134.033  14.492   1
  -2  10   4 118.954  16.010   5
  -2  10   4 95.0127 16.0677   7
   2  10  -4 116.026  14.492   8
  -2  10   4 133.341  17.588   3
   2  10  -4 121.576  17.245   4
   2  10  -4 169.277  16.599   7
  -2  10   4 138.220  14.834   2
  -2  10   4 127.522  19.070   1
  -1 -10   4 1274.07   93.17   6
   1 -10  -4 1239.54  109.29   5
  -1 -10   4 1093.55   94.93   1
   1 -10  -4 1420.46   99.25   7
   1 -10  -4 1115.77   98.84   1
  -1 -10   4 1175.53  102.75   5
   1 -10  -4 1255.99   94.51   8
  -1 -10   4 1133.80   96.11   6
  -1 -10   4 1240.73   96.21   7
  -1 -10   4 1232.55  106.91   9
   1  10  -4 1173.94   94.59   8
  -1  10   4 1187.28   98.67   1
   1  10  -4 1401.58  106.46   4
  -1  10   4 1123.78   97.64   7
  -1  10   4 973.430 100.459   3
   1  10  -4 1373.83   96.67   7
   0 -10   4 33.3235 11.6348   9
   0 -10   4 24.8974  9.5177   5
   0 -10  -4 9.13133 8.13324   7
   0 -10  -4 19.4583  6.2586   8
   0 -10  -4 21.4630  9.2420   1
   0 -10  -4 16.1883 13.6819   5
   0 -10  -4 30.0254  9.3835   6
   0 -10   4 20.3428  7.9179   7
   0 -10   4 30.7705  6.6050   6
   0 -10   4 36.2993 10.1137   6
   0 -10   4 30.6864  8.4102   1
   0  10   4 36.9756  8.7841   5
   0  10  -4 12.8119  8.9405   8
   0  10  -4 10.2929  9.6241   4
   0  10  -4 28.4658  8.3599   7
   0  10   4 22.1597  9.5937   7
   0  10   4 39.2790 10.4939   3
   1 -10   4 247.781  27.314   1
  -1 -10  -4 255.469  26.309   6
   1 -10   4 276.009  30.117   5
  -1 -10  -4 292.580  27.876   7
  -1 -10  -4 307.958  30.658   1
  -1  10  -4 258.686  27.146   7
   1  10   4 298.768  30.025   7
  -1  10  -4 253.683  27.223   8
   1  10   4 321.743  28.479   5
   2 -10   4 196.506  20.178   8
  -2 -10  -4 171.797  23.122   1
   2 -10   4 206.316  25.600   5
  -2 -10  -4 191.653  20.237   6
   2 -10   4 191.351  23.002   1
  -2 -10  -4 196.657  21.331   7
  -2  10  -4 209.654  23.547   2
  -2  10  -4 184.885  22.335   8
   2  10   4 224.026  25.153   7
  -2  10  -4 217.667  23.150   7
  -3 -10  -4 5.15358 5.56837   6
   3 -10   4 5.41617 8.21622   8
   3 -10   4 -21.950   7.822   5
  -3 -10  -4 5.15890 6.23253   7
  -3 -10  -4 8.74873 8.36343   1
  -3  10  -4 0.19797 7.06905   7
  -3  10  -4 5.52204 7.98947   2
  -3  10  -4 9.64724 9.10190   8
   4 -10   4 568.919  55.796   5
  -4 -10  -4 548.297  46.589   6
  -4 -10  -4 633.389  52.897   1
  -4  10  -4 567.149  52.058   2
  -6 -11   4 47.3342  9.4612   5
   6  11  -4 23.1679  9.8933   4
  -6  11   4 56.1112 15.4844   1
  -6  11   4 48.7182 13.8705   5
  -6  11   4 34.7523 10.9361   2
  -5 -11   4 1417.66  104.21   5
   5 -11  -4 1260.99  100.57   7
  -5  11   4 1259.50  106.14   5
   5  11  -4 1091.73  106.22   4
  -5  11   4 1379.09  102.88   1
  -5  11   4 1077.86   99.59   7
  -5  11   4 1224.35  100.65   2
   4 -11  -4 55.7586 16.3445   5
  -4 -11   4 55.7088 11.3120   9
   4 -11  -4 66.4487 13.0273   7
   4 -11  -4 80.2278 12.5369   8
  -4 -11   4 64.1685 11.3685   5
  -4 -11   4 50.4061  7.2081   1
  -4  11   4 57.5870 12.8995   7
  -4  11   4 75.1935 15.8544   1
  -4  11   4 50.7799 10.6190   2
   4  11  -4 37.9483 10.9056   4
  -4  11   4 62.0933 12.9419   5
  -3 -11   4 123.712  11.005   6
   3 -11  -4 142.980  18.521   7
   3 -11  -4 110.330  22.745   5
   3 -11  -4 134.029  15.888   8
  -3 -11   4 136.529  19.537   9
  -3 -11   4 114.834  13.620   1
  -3 -11   4 142.645  17.811   5
  -3 -11   4 111.980  17.104   9
  -3 -11   4 115.984  11.324   6
  -3 -11   4 140.921  14.734   7
  -3  11   4 107.715  14.557   2
   3  11  -4 148.518  15.118   8
  -3  11   4 111.671  17.012   5
   3  11  -4 133.557  18.062   4
  -3  11   4 160.408  19.275   3
  -3  11   4 162.571  19.386   7
  -3  11   4 131.311  19.668   1
  -2 -11   4 121.498  15.020   6
   2 -11  -4 115.353  14.858   8
  -2 -11   4 115.040  12.553   6
  -2 -11   4 129.095  17.977   5
  -2 -11   4 127.445  19.754   9
   2 -11  -4 127.153  20.464   1
   2 -11  -4 125.923  24.742   5
  -2 -11   4 120.735  15.703   7
   2 -11  -4 141.791  18.772   7
  -2 -11   4 138.283  14.980   1
  -2  11   4 130.836  16.859   5
  -2  11   4 124.119  17.787   7
  -2  11   4 126.575  20.029   1
  -2  11   4 157.358  19.009   3
   2  11  -4 159.809  19.682   4
   2  11  -4 147.615  15.356   8
   1 -11  -4 180.618  29.515   5
   1 -11  -4 198.461  18.956   8
  -1 -11   4 203.731  25.506   9
   1 -11  -4 171.825  24.105   1
  -1 -11   4 170.689  21.512   6
   1 -11  -4 205.443  23.336   7
  -1 -11   4 202.053  21.604   7
  -1 -11   4 164.881  19.518   1
  -1 -11   4 196.045  18.001   6
  -1 -11   4 197.100  23.480   5
   1  11  -4 200.076  20.201   8
  -1  11   4 186.071  22.946   7
   1  11  -4 160.776  20.565   7
  -1  11   4 208.334  21.903   5
  -1  11   4 206.468  23.877   3
   1  11  -4 186.233  23.647   4
   0 -11   4 698.729  68.070   5
   0 -11  -4 792.542  64.984   7
   0 -11   4 833.648  63.531   1
   0 -11  -4 693.342  73.380   5
   0 -11   4 836.917  64.214   7
   0 -11   4 757.482  64.410   6
   0 -11  -4 636.577  65.152   1
   0  11  -4 765.097  70.757   4
   0  11   4 766.769  66.237   5
   0  11  -4 768.504  62.652   8
   0  11   4 723.378  65.375   7
   0  11  -4 803.055  63.974   7
   1 -11   4 1219.29   87.67   1
  -1 -11  -4 938.095  97.666   5
  -1 -11  -4 1265.66   90.72   1
  -1 -11  -4 1009.92   86.86   7
  -1 -11  -4 968.459  85.196   6
   1 -11   4 1166.14   87.31   7
   1 -11   4 1105.60   93.96   5
  -1  11  -4 1092.28   87.04   7
  -1  11  -4 994.676  88.144   2
  -1  11  -4 944.810  85.218   8
   1  11   4 1099.80   90.35   5
   1  11   4 1042.04   89.03   7
   2 -11   4 -6.1888  6.7607   1
  -2 -11  -4 1.91709 7.01691   7
   2 -11   4 -11.151   6.959   5
  -2 -11  -4 7.50396 8.71115   1
  -2 -11  -4 0.98543 5.89959   6
  -2  11  -4 14.5004  8.5407   7
  -2  11  -4 4.23409 7.15606   2
   2  11   4 9.98986 9.64346   7
  -3 -11  -4 11.3031  6.6066   6
   3 -11   4 10.7632  8.1326   8
   3 -11   4 -4.1527  9.9364   5
  -3 -11  -4 3.52646 9.60889   1
  -3  11  -4 6.01112 7.46807   2
   5 -12  -4 12.0973  9.0866   7
  -5 -12   4 6.01098 7.24255   9
  -5 -12   4 16.2998  8.5127   5
  -5  12   4 -10.661  10.211   1
   5  12  -4 6.05270 9.17353   4
  -5  12   4 0.12436 7.60572   5
  -5  12   4 15.6157  9.0542   2
   4 -12  -4 2164.15  180.62   7
  -4 -12   4 2165.11  189.52   5
   4 -12  -4 2508.54  197.46   5
  -4 -12   4 2209.96  174.84   1
   4  12  -4 2327.52  195.64   4
  -4  12   4 2238.38  190.88   5
  -4  12   4 2532.14  182.01   2
  -4  12   4 2439.95  182.93   1
  -3 -12   4 0.86479 2.98758   6
  -3 -12   4 -0.3092  4.8965   1
  -3 -12   4 3.37594 2.86529   6
  -3 -12   4 6.07819 5.49353   7
   3 -12  -4  3.6613 10.4345   5
   3 -12  -4 15.0142  7.9566   8
  -3 -12   4 -1.5545  6.8848   5
   3 -12  -4 13.7696  7.9146   7
  -3  12   4  6.7548 10.2114   1
   3  12  -4 2.68546 7.57474   8
  -3  12   4 -0.5963  8.0873   7
   3  12  -4 1.65392 8.74110   4
  -3  12   4 6.10053 8.03214   5
  -2 -12   4 118.639  14.730   6
   2 -12  -4 135.102  25.412   5
   2 -12  -4 148.536  15.427   8
  -2 -12   4 115.932  18.243   5
   2 -12  -4 117.313  18.258   7
  -2 -12   4 114.484  14.995   1
  -2 -12   4 132.292  13.156   6
   2 -12  -4 117.239  21.217   1
  -2 -12   4 154.994  17.181   7
  -2 -12   4 126.865  20.168   9
  -2  12   4 144.235  18.113   5
   2  12  -4 114.460  15.323   8
  -2  12   4 154.504  19.984   7
  -2  12   4 127.767  18.876   3
   2  12  -4 113.183  18.795   4
   1 -12  -4 10.7167  6.6218   8
  -1 -12   4 16.8356  5.8730   6
  -1 -12   4 2.78205 6.48195   1
   1 -12  -4 -5.5010  8.3582   1
  -1 -12   4 25.5698  9.5947   6
   1 -12  -4 21.6874 10.0585   7
   1 -12  -4 45.5186 18.0019   5
  -1 -12   4 20.9699  9.3886   5
  -1 -12   4 4.58838 7.04526   7
   1  12  -4 6.50559 9.83671   8
   1  12  -4 2.97298 7.96443   7
  -1  12   4 23.6689 10.0689   7
  -1  12   4 15.9620  8.3016   5
   1  12  -4 -8.6407  8.9763   4
   0 -12   4 445.552  41.821   6
   0 -12  -4 525.461  45.142   1
   0 -12  -4 512.088  52.259   5
   0 -12   4 423.690  44.019   5
   0 -12  -4 431.605  41.526   7
   0 -12   4 422.107  39.517   1
   0 -12   4 394.430  39.850   7
   0  12   4 409.017  41.965   7
   0  12   4 460.215  41.172   5
   0  12  -4 409.830  40.551   7
  -1 -12  -4 19.7518 14.6594   5
   1 -12   4 -2.2341  8.2406   5
   1 -12   4 7.43826 8.42076   1
  -1 -12  -4 -0.5979  8.5911   1
  -1  12  -4 12.2132 10.0382   7
   1  12   4 19.0663 10.4610   7
  -1  12  -4 11.7365  9.0588   2
  -2 -12  -4 42.0478 18.1591   5
  -2 -12  -4 57.2499 11.1187   6
   2 -12   4 54.8062 15.5286   5
   2 -12   4 82.8607 15.3683   1
  -2 -12  -4 87.6936 17.0390   1
  -2  12  -4 58.8272 15.0520   7
  -2  12  -4 98.2534 15.5881   2
  -3 -12  -4  9.3130 10.3749   1
   3 -12   4 0.14896 9.79888   5
  -3 -12  -4 13.0291  7.0123   6
  -3  12  -4 14.4870 10.2808   2
  -5 -13   4 1062.84   81.29   5
   5  13  -4 852.173  83.409   4
  -5  13   4 919.634  83.075   5
  -5  13   4 860.380  79.680   1
  -4 -13   4 0.52445 4.79053   1
  -4 -13   4 13.4577  8.5481   5
   4 -13  -4 -16.560  10.565   5
  -4  13   4  6.9642 11.7599   1
  -4  13   4 -16.490   8.648   5
   4  13  -4 11.6864  9.6555   4
  -3 -13   4 267.942  20.839   6
  -3 -13   4 270.762  24.689   7
  -3 -13   4 234.567  20.828   6
   3 -13  -4 237.004  35.122   5
  -3 -13   4 284.989  24.985   1
  -3 -13   4 333.855  30.744   5
  -3  13   4 253.633  28.577   5
   3  13  -4 284.063  26.469   8
   3  13  -4 199.132  28.779   4
  -2 -13   4 37.8564  9.9196   7
   2 -13  -4 31.8663  8.3813   8
  -2 -13   4 48.1758 13.4415   9
   2 -13  -4 15.0852 13.3274   1
  -2 -13   4 28.9658 10.8994   5
  -2 -13   4 31.6315  8.7114   1
  -2 -13   4 26.4858  8.2898   6
   2 -13  -4 28.7235 15.5935   5
  -2 -13   4 40.1793  6.9399   6
  -2  13   4 24.7039 10.8530   7
  -2  13   4 30.4675 10.6226   5
   2  13  -4 20.0259 11.8521   4
  -1 -13   4 173.127  19.810   1
  -1 -13   4 215.452  22.249   7
  -1 -13   4 162.331  17.258   6
   1 -13  -4 162.823  24.090   1
  -1 -13   4 155.728  23.253   5
   1 -13  -4 141.341  28.545   5
  -1 -13   4 170.911  21.708   6
  -1  13   4 193.297  23.972   7
   1  13  -4 179.793  25.241   4
  -1  13   4 158.541  20.948   5
   0 -13  -4 343.492  49.143   5
   0 -13   4 504.946  40.249   1
   0 -13   4 414.944  43.799   5
   0 -13   4 377.476  40.973   6
   0 -13  -4 400.899  42.890   1
   0  13   4 469.766  43.075   7
   0  13  -4 433.638  41.591   7
   1 -13   4 699.505  74.518   5
  -1 -13  -4 780.332  71.825   1
  -1 -13  -4 865.106  82.439   5
   1 -13   4 809.900  69.534   1
  -1  13  -4 852.796  71.036   7
   1  13   4 945.300  74.545   7
  -1  13  -4 819.214  70.331   2
   2 -13   4  1.3958 11.1364   5
  -2 -13  -4  9.6081 10.4360   1
  -2 -13  -4 13.5824  7.4684   6
   2 -13   4 16.3444 11.7604   1
  -2 -13  -4 21.5175 15.9135   5
  -2  13  -4 29.0205 10.8659   2
  -3 -14   4 39.9144  9.2675   7
   3 -14  -4 21.4509 14.9140   5
  -3 -14   4 47.9835 13.5476   5
  -3 -14   4 46.7242  5.2878   6
  -3 -14   4 42.5278  9.3437   1
   3  14  -4 54.3519 14.8641   4
  -3  14   4 32.1385 12.2225   5
  -2 -14   4 111.714  13.239   6
  -2 -14   4 103.505  18.124   5
  -2 -14   4 88.3438 13.6635   1
  -2 -14   4 95.9350 11.2514   6
   2 -14  -4 97.5899 23.9869   5
  -2  14   4 86.5507 16.2159   5
   1 -14  -4 1058.93   92.34   5
   1 -14  -4 979.636  81.958   1
  -1 -14   4 910.137  76.911   6
  -1 -14   4 999.622  76.851   1
  -1 -14   4 794.618  82.756   5
  -1  14   4 907.460  81.156   5
   0 -14   4 109.484  16.340   1
   0 -14  -4 83.7976 23.3512   5
   0 -14  -4 120.717  19.667   1
   0 -14   4 78.8743 18.5297   5
   0  14  -4 58.2419 14.4900   2
  -9   0   5 62.7379 14.2453   2
  -8   0   5 -1.1370  6.3952   5
  -8   0   5 0.14462 4.10807   9
  -8   0   5 -2.4613  4.1472   9
   8   0  -5 2.84886 5.25391   4
  -8   0   5 -1.3200  7.1667   2
  -7   0   5 984.116  88.559   9
  -7   0   5 1180.28   85.90   5
  -7   0   5 983.340  84.868   2
  -7   0   5 1085.08   87.72   9
  -7   0   5 952.376  72.345  10
  -6   0   5 9.05702 4.81068   9
  -6   0   5 0.52714 5.52274   2
  -6   0   5 -1.7162  2.4305  10
  -6   0   5 3.70076 4.19656   5
  -5   0   5 218.713  22.224   2
  -5   0   5 203.456  22.046   9
   5   0  -5 216.289  18.978   7
  -5   0   5 233.529  19.479   1
   5   0  -5 226.067  20.576   3
  -5   0   5 215.491  17.289  10
  -5   0   5 248.090  18.812   1
  -5   0   5 214.195  20.507   5
  -4   0   5 1.64285 2.58723  10
  -4   0   5 5.96262 4.48730   1
  -4   0   5 1.93952 2.69535   6
   4   0  -5 3.62182 4.18398   8
  -4   0   5 5.05164 3.53060   5
  -4   0   5 -1.1298  3.0543   7
   4   0  -5 0.10718 3.10488   3
  -4   0   5 3.37622 3.23492   1
   4   0  -5 2.03421 4.70542   5
   4   0  -5 8.19236 4.17698   1
  -4   0   5 -3.2185  4.3170   9
   4   0  -5 1.41813 2.80237   7
  -3   0   5 470.708  36.309   6
  -3   0   5 379.079  36.323   3
  -3   0   5 530.194  36.781   1
  -3   0   5 453.570  32.934  10
   3   0  -5 455.481  39.725   9
  -3   0   5 422.544  37.958   5
   3   0  -5 413.576  35.555   7
  -3   0   5 519.740  41.155   9
   3   0  -5 417.813  35.910   8
   3   0  -5 408.325  39.925   4
  -3   0   5 429.112  35.803   7
  -3   0   5 480.331  41.020   9
   3   0  -5 468.965  36.909   1
  -3   0   5 387.153  36.017   1
  -3   0   5 442.518  35.886   3
   3   0  -5 493.081  37.698   3
   2   0  -5 4.04469 4.17687   9
  -2   0   5 -1.4195  2.2586   3
  -2   0   5 1.25618 3.12957  10
   2   0  -5 1.87205 2.92725   3
   2   0  -5 5.68099 4.29264   1
  -2   0   5 8.58364 3.46566   3
  -2   0   5 3.96641 3.49097   6
  -2   0   5 1.93953 3.02037   7
  -2   0   5 1.14596 4.61967   9
   2   0  -5 2.01757 3.36560   6
   2   0  -5 2.39909 4.65151   4
  -2   0   5 2.33321 5.62960   9
   2   0  -5 4.28407 4.12166   8
   2   0  -5 0.60912 2.75882  10
  -2   0   5 0.42935 3.38562   1
   2   0  -5 1.54050 4.07932   9
   2   0  -5 -2.6492  2.5837   7
  -2   0   5 1.77309 3.43057   5
  -1   0   5 7825.35  554.63  10
   1   0  -5 8781.63  597.66   6
   1   0  -5 8405.60  659.07   9
  -1   0   5 7484.56  639.34   5
   1   0  -5 8735.00  555.08  10
   1   0  -5 8309.04  626.12   3
   1   0  -5 7128.61  602.66   8
   1   0  -5 7884.84  659.74   9
   1   0  -5 8118.21  658.59   4
   1   0  -5 8155.38  601.72   1
  -1   0   5 7703.38  601.07   1
  -1   0   5 7803.35  602.18   8
  -1   0   5 8102.77  625.86   3
  -1   0   5 7928.00  659.39   9
  -1   0   5 7886.39  602.41   8
   0   0   5 -0.2329  3.1269   3
   0   0   5 -2.7789  4.2178   9
   0   0   5 2.63628 4.05355   1
   0   0  -5 3.92298 4.27517   8
   0   0  -5 4.91044 3.32588  10
   0   0   5 3.98160 4.34722   1
   0   0  -5 2.37499 5.49419   4
   0   0   5 -0.8294  3.0279   6
   0   0   5 -2.5212  4.7832   9
   0   0  -5 2.67195 3.90849   7
   0   0  -5 6.44657 5.64036   9
   0   0   5 5.15864 4.17213   8
   0   0   5 0.12615 3.87115   5
   0   0  -5 -4.9083  3.8418   1
   0   0  -5 3.23869 3.70755   6
   1   0   5 574.928  46.248   8
   1   0   5 631.488  53.079   9
   1   0   5 569.521  46.922   1
  -1   0  -5 569.596  52.643   9
   1   0   5 491.023  47.520   3
  -1   0  -5 645.987  43.199  10
  -1   0  -5 523.971  45.628   8
   1   0   5 518.102  52.492   9
   1   0   5 581.189  49.805   5
  -1   0  -5 543.460  52.904   9
  -1   0  -5 553.364  45.778   6
  -1   0  -5 592.130  46.415   7
  -1   0  -5 637.712  52.348   4
  -1   0  -5 593.850  48.422   1
  -2   0  -5 -4.5221  6.1377   9
  -2   0  -5 -4.1121  4.2075   7
   2   0   5 -3.1375  4.5828   5
  -2   0  -5 1.95013 4.26329   6
  -2   0  -5 -4.9275  6.0521   8
   2   0   5 3.17952 5.40315   1
   2   0   5 3.32017 5.24525   8
   2   0   5 1.59646 4.18404   3
  -2   0  -5 1.12870 6.18341   1
  -3   0  -5 177.872  18.863   2
  -3   0  -5 167.954  18.190   7
  -3   0  -5 173.542  17.850   6
  -3   0  -5 155.434  17.406   8
  -3   0  -5 141.865  19.611   1
   3   0   5 198.308  20.185   5
   3   0   5 214.523  19.318   3
  -4   0  -5 5.69621 5.58658   6
  -4   0  -5 6.94962 6.42400   2
   4   0   5 8.35141 7.55075   5
  -4   0  -5 -12.609   5.441   1
  -4   0  -5 2.52419 5.71554   7
   4   0   5 4.76722 7.11499   8
  -5   0  -5 1203.49   93.78   1
  -5   0  -5 1074.29   88.59   6
  -5   0  -5 1152.18   92.27   2
  -9  -1   5 35.1862 10.9586   2
  -9   1   5 25.4229 10.9939   2
  -8  -1   5 3.60336 7.69892   2
  -8  -1   5 3.87663 5.72999   5
  -8   1   5 8.53953 7.22044   5
  -8   1   5 9.09721 3.09379  10
  -8   1   5 8.70652 5.82101   9
  -8   1   5 6.95915 6.57856   9
  -8   1   5 10.6660  7.9687   2
  -7  -1   5 182.992  15.685   5
  -7  -1   5 141.360  14.196   9
  -7  -1   5 148.347  15.309   9
  -7  -1   5 144.472  17.790   2
  -7   1   5 147.915  16.528   5
  -7   1   5 128.562  17.419   2
  -7   1   5 126.972  11.893  10
  -7   1   5 164.346  18.938   9
  -7   1   5 128.329  16.140   9
  -6  -1   5 1126.94   80.02  10
  -6  -1   5 1133.03   96.26   9
  -6  -1   5 1125.60   92.75   2
  -6  -1   5 1201.95   93.36   5
  -6   1   5 1098.33   86.91   1
  -6   1   5 1258.55   87.08   1
  -6   1   5 1054.16   80.74  10
  -6   1   5 1097.20   94.22   5
  -6   1   5 1222.31   98.13   9
  -5  -1   5 1641.69  115.19  10
   5  -1  -5 1562.26  125.40   7
  -5  -1   5 1647.61  124.33   1
  -5  -1   5 1609.02  133.12   5
  -5  -1   5 1564.13  137.81   9
   5  -1  -5 1536.51  125.20   8
   5  -1  -5 1713.50  132.05   3
  -5  -1   5 1658.32  124.01   1
  -5   1   5 1672.90  125.43   1
  -5   1   5 1814.16  115.88  10
  -5   1   5 1669.05  126.29   1
   5   1  -5 1772.06  124.92   7
  -5   1   5 1669.89  133.90   5
   5   1  -5 1653.11  130.66   3
  -5   1   5 1708.69  130.84   2
  -5   1   5 1508.62  138.83   9
   4  -1  -5 283.899  25.298   8
  -4  -1   5 266.448  27.937   9
  -4  -1   5 334.815  28.585   9
  -4  -1   5 300.406  22.442  10
   4  -1  -5 324.743  26.772   1
  -4  -1   5 307.020  26.241   5
   4  -1  -5 343.780  27.136   3
  -4  -1   5 281.513  24.880   1
   4  -1  -5 254.733  28.409   5
   4  -1  -5 272.269  24.798   7
  -4  -1   5 326.847  24.651   1
  -4   1   5 276.606  25.167   1
   4   1  -5 347.702  26.132   3
   4   1  -5 297.311  23.609   8
  -4   1   5 338.672  23.052  10
   4   1  -5 264.925  27.449   4
  -4   1   5 271.114  26.985   2
  -4   1   5 283.437  28.895   9
  -4   1   5 294.503  25.606   7
   4   1  -5 276.805  24.323   7
  -4   1   5 284.875  24.915   6
  -4   1   5 265.041  25.674   1
   4   1  -5 320.040  24.339   8
  -4   1   5 296.546  26.512   5
   3  -1  -5 3.92034 4.59336   8
  -3  -1   5 1.80562 3.67654   1
  -3  -1   5 5.83882 2.21527   3
  -3  -1   5 5.61939 1.81955   3
   3  -1  -5 1.15335 2.79044   7
   3  -1  -5 4.80042 5.47296   4
  -3  -1   5 -0.1773  2.3691  10
   3  -1  -5 8.02655 4.14551   3
  -3  -1   5 8.79517 3.82682   1
  -3  -1   5 7.70608 4.87340   9
   3  -1  -5 5.03055 3.70288   6
  -3  -1   5 2.79308 3.47403   6
  -3  -1   5 4.49954 3.42821   5
  -3  -1   5 1.88106 4.53310   9
  -3  -1   5 5.49660 3.17019   7
   3  -1  -5 -1.0699  4.0179   1
   3  -1  -5 7.14604 4.70116   9
   3   1  -5 -2.6869  3.9372   8
   3   1  -5 -3.2615  3.5101   1
   3   1  -5 2.29597 2.95257   3
  -3   1   5 4.79142 3.80838   5
  -3   1   5 7.50480 5.66433   9
  -3   1   5 15.2925  5.2838   6
  -3   1   5 0.59338 3.35145   1
   3   1  -5 7.43596 5.07672   4
   3   1  -5 0.31497 3.78320   9
  -3   1   5 -0.2809  2.6533  10
  -3   1   5 -2.2881  3.7062   1
  -3   1   5 4.44187 3.79477   7
   3   1  -5 1.52715 2.90766   7
  -3   1   5 4.41465 2.70687   3
   3   1  -5 4.73842 3.41317   8
   2  -1  -5 1266.53   94.89   6
  -2  -1   5 1255.34   87.35  10
   2  -1  -5 1444.94  105.59   4
  -2  -1   5 1320.43  105.29   9
  -2  -1   5 1236.21   94.53   7
  -2  -1   5 1467.19   94.70   6
  -2  -1   5 1073.54  100.74   5
   2  -1  -5 1370.63  106.72   9
   2  -1  -5 1272.20   95.22   8
  -2  -1   5 1260.13   98.28   3
   2  -1  -5 1304.36   95.25   7
  -2  -1   5 1107.76   94.81   1
  -2  -1   5 1215.60  105.33   9
  -2  -1   5 1214.40   98.23   3
   2  -1  -5 1391.79   99.63   3
   2  -1  -5 1166.94  104.89   9
   2  -1  -5 1077.93   87.35  10
   2  -1  -5 1316.00   96.40   1
  -2   1   5 1282.91   93.38   8
  -2   1   5 1264.57   95.94   1
   2   1  -5 1136.60   95.64   1
  -2   1   5 1390.08   95.79   1
   2   1  -5 1299.65  105.72   9
   2   1  -5 1175.38   94.22   6
  -2   1   5 1197.46   94.76   6
   2   1  -5 1085.61   94.48   7
  -2   1   5 1285.79   95.18   7
   2   1  -5 1119.92  104.48   9
  -2   1   5 1195.47   87.66  10
   2   1  -5 1329.12   94.93   8
  -2   1   5 1166.53   98.83   3
  -2   1   5 1122.70  100.93   5
  -2   1   5 1098.88  105.04   9
   2   1  -5 1173.69   98.70   3
  -2   1   5 1445.30  106.81   9
   2   1  -5 1081.27  103.98   4
  -1  -1   5 3.97821 5.22055   9
  -1  -1   5 9.19135 4.84025   1
   1  -1  -5 10.7830  4.8636   8
  -1  -1   5 11.4330  4.0310   3
  -1  -1   5 13.1458  3.4259   8
   1  -1  -5 18.3059  4.9714   7
   1  -1  -5 13.8246  3.9038  10
  -1  -1   5 16.7697  5.3094   1
  -1  -1   5 15.4331  3.7766   8
   1  -1  -5 16.8519  7.0020   9
  -1  -1   5 14.3327  4.4972   6
   1  -1  -5 9.49910 4.19783   6
  -1  -1   5 15.8565  5.9210   9
  -1  -1   5 7.19552 4.63195   5
   1  -1  -5 6.66137 5.66811   4
  -1  -1   5 11.7682  4.0878   3
   1  -1  -5 20.0748  6.6483   9
   1  -1  -5 14.5801  5.4080   1
   1  -1  -5 19.0373  4.9856   3
  -1  -1   5 14.8987  4.3392   7
   1   1  -5 11.4013  4.7929   8
  -1   1   5 9.50274 3.89956   8
   1   1  -5 15.1131  4.6726   7
  -1   1   5 17.3900  5.2118   1
  -1   1   5 7.70887 3.81193   8
   1   1  -5 8.68625 5.93000   4
  -1   1   5 16.6379  5.4588   5
   1   1  -5 10.1768  4.0033   3
   1   1  -5 8.68420 4.27180   6
   1   1  -5 5.97633 5.50574   9
  -1   1   5 11.0662  4.3224   3
   1   1  -5 20.9075  6.0654   1
   1   1  -5 12.5263  6.0618   9
  -1   1   5 9.37302 4.29410   6
  -1   1   5 4.01029 3.45146  10
  -1   1   5 9.58458 5.40407   9
  -1   1   5 13.9477  4.2792   7
   1   1  -5 12.0590  4.1472  10
  -1   1   5 17.3002  7.4999   9
  -1   1   5 20.7869  5.6099   1
   0  -1   5 1068.90  100.70   9
   0  -1  -5 1256.02   94.46   3
   0  -1  -5 1304.83   92.59   1
   0  -1  -5 1298.00  100.65   4
   0  -1   5 1040.85   94.28   3
   0  -1  -5 1070.15   90.01   8
   0  -1  -5 1074.25  101.11   9
   0  -1   5 1249.26   91.13   1
   0  -1   5 1195.52   90.29   8
   0  -1   5 985.147  93.401   3
   0  -1   5 1100.92   89.56   8
   0  -1  -5 998.652  90.174   7
   0  -1   5 1287.24   91.93   1
   0  -1  -5 1173.88   90.07   6
   0  -1   5 1359.49  101.49   9
   0  -1   5 1243.43   90.04   6
   0   1   5 1313.56   90.67   6
   0   1   5 1126.97   83.40  10
   0   1   5 1151.75   96.47   5
   0   1  -5 1041.73   90.08   7
   0   1  -5 974.247  89.722   8
   0   1  -5 1331.53  100.28   4
   0   1  -5 1075.41   91.59   1
   0   1  -5 1202.88  101.24   9
   0   1   5 1204.69   91.29   1
   0   1   5 1123.50  100.93   9
   0   1   5 1114.66   94.01   3
   0   1  -5 1354.22  101.18   9
   0   1  -5 1276.83   90.04   6
   0   1   5 1303.59  101.83   9
  -1  -1  -5 129.476  12.953   8
   1  -1   5 118.053  16.145   9
  -1  -1  -5 109.346  11.806  10
  -1  -1  -5 118.574  14.696   1
  -1  -1  -5 87.9300 14.1870   4
  -1  -1  -5 125.876  12.587   6
  -1  -1  -5 89.2871 14.8264   9
   1  -1   5 91.9615 13.1558   5
   1  -1   5 125.657  12.929   3
   1  -1   5 117.809  13.677   3
  -1  -1  -5 122.607  17.007   9
  -1  -1  -5 114.817  12.709   7
   1  -1   5 108.233  13.129   1
   1  -1   5 110.303  15.827   9
   1  -1   5 110.637  12.483   8
  -1   1  -5 99.6384 15.3521   9
   1   1   5 130.068  13.178   3
   1   1   5 129.232  14.084   5
  -1   1  -5 107.863  14.101   1
  -1   1  -5 122.780  15.334   4
  -1   1  -5 113.403  12.654   8
   1   1   5 111.368  14.602   4
   1   1   5 120.278  13.515   1
  -1   1  -5 110.027  12.665   7
  -1   1  -5 115.260  15.633   9
  -1   1  -5 116.791  12.464   6
   1   1   5 115.234  15.990   9
  -2  -1  -5 308.422  34.460   9
  -2  -1  -5 360.627  29.914   7
   2  -1   5 359.521  32.381   5
   2  -1   5 322.140  29.525   8
   2  -1   5 337.872  30.645   3
   2  -1   5 329.105  30.718   1
  -2  -1  -5 376.030  27.940  10
  -2  -1  -5 344.953  29.062   8
  -2  -1  -5 356.537  29.429   6
  -2  -1  -5 394.733  32.649   1
  -2   1  -5 309.636  29.063   6
  -2   1  -5 344.521  30.139   7
  -2   1  -5 333.845  31.601   1
   2   1   5 317.955  30.554   3
   2   1   5 342.330  31.806   5
  -2   1  -5 344.242  29.486   8
   2   1   5 321.588  30.442   1
  -3  -1  -5 883.583  65.520   6
  -3  -1  -5 815.821  66.772   2
   3  -1   5 737.280  65.802   8
   3  -1   5 728.861  70.139   5
  -3  -1  -5 773.742  66.084   7
   3  -1   5 822.472  68.536   3
  -3  -1  -5 974.322  69.311   1
  -3   1  -5 851.835  65.538   6
  -3   1  -5 886.733  69.013   1
   3   1   5 901.606  70.834   5
  -3   1  -5 874.153  66.452   7
  -3   1  -5 785.373  64.856   8
  -3   1  -5 761.604  67.529   2
   3   1   5 792.916  68.527   3
  -4  -1  -5 666.956  52.053   6
  -4  -1  -5 594.993  54.758   1
  -4  -1  -5 609.825  53.209   2
   4  -1   5 649.639  56.717   5
   4  -1   5 587.994  52.933   8
  -4  -1  -5 695.550  53.354   7
  -4   1  -5 674.445  53.790   7
  -4   1  -5 585.706  53.887   2
  -4   1  -5 711.343  56.508   1
  -4   1  -5 624.194  51.692   6
  -5  -1  -5 61.7633  9.9763   6
  -5  -1  -5 87.7595 15.0671   1
  -5   1  -5 64.0298 14.6767   1
  -5   1  -5 62.6449 11.0746   6
  -5   1  -5 68.4340 12.6116   2
  -9  -2   5 467.259  45.370   2
   9   2  -5 468.011  43.544   4
  -9   2   5 553.964  45.870   5
  -9   2   5 487.410  35.417  10
  -9   2   5 459.520  45.471   2
  -8  -2   5 62.1694 12.5889   2
  -8   2   5 47.0756 11.4753   5
  -8   2   5 65.0399 13.5044   2
  -8   2   5 69.6084 11.7597   9
  -8   2   5 71.8018 13.2156   9
  -8   2   5 65.1398  7.1698  10
  -7  -2   5 453.186  34.705   5
  -7  -2   5 468.620  37.889   2
   7  -2  -5 437.366  38.191   4
  -7   2   5 393.894  30.008  10
  -7   2   5 354.263  39.702   9
  -7   2   5 428.661  31.489   1
  -7   2   5 334.239  37.577   9
  -7   2   5 370.732  31.200   1
  -7   2   5 374.455  36.567   5
  -7   2   5 405.392  37.614   2
  -6  -2   5 723.549  66.579   9
   6  -2  -5 815.787  61.438   8
  -6  -2   5 835.274  64.836   5
  -6   2   5 847.925  70.392   9
  -6   2   5 733.988  61.483   1
  -6   2   5 836.561  61.716   1
  -6   2   5 801.325  66.798   5
  -6   2   5 791.936  66.197   2
  -6   2   5 760.768  56.825  10
   5  -2  -5 90.2684  9.3049   7
  -5  -2   5 73.3100  9.3428   9
   5  -2  -5 62.1264  9.8955   3
   5  -2  -5 70.4933  8.6376   8
  -5  -2   5 67.1949  8.0924   5
  -5   2   5 56.8577  9.7733   1
  -5   2   5 73.6050  6.8494   6
  -5   2   5 76.6553  9.0785   1
   5   2  -5 72.0559  7.5336   7
  -5   2   5 64.1548  7.5334  10
  -5   2   5 61.3488 11.1663   9
  -5   2   5 48.5909 10.1996   2
  -5   2   5 62.8862  9.3432   5
   5   2  -5 72.9577  8.1954   3
  -5   2   5 83.2181  9.5048   7
  -4  -2   5 748.415  67.313   9
   4  -2  -5 858.846  63.696   1
  -4  -2   5 756.069  60.116   1
   4  -2  -5 894.224  65.449   3
  -4  -2   5 763.800  60.670   1
  -4  -2   5 871.460  67.601   9
   4  -2  -5 612.635  67.030   5
   4  -2  -5 765.802  61.334   7
   4  -2  -5 775.491  67.659   9
  -4  -2   5 863.133  64.755   5
   4  -2  -5 848.758  62.224   8
  -4  -2   5 855.254  60.320   7
  -4   2   5 756.276  64.205   2
  -4   2   5 705.510  68.832   9
  -4   2   5 916.059  62.815   7
  -4   2   5 732.785  61.897   3
  -4   2   5 705.060  61.824   3
   4   2  -5 847.742  60.585   7
   4   2  -5 732.907  66.728   4
  -4   2   5 758.778  65.238   5
   4   2  -5 849.456  63.299   3
  -4   2   5 775.633  61.705   6
  -4   2   5 681.876  61.499   1
  -4   2   5 769.935  56.504  10
  -3  -2   5 90.7650  8.4099   6
  -3  -2   5 82.5635  8.8332   6
   3  -2  -5 77.6885 12.1672   4
   3  -2  -5 84.7455 13.4839   9
  -3  -2   5 84.6871 10.9033   9
  -3  -2   5 87.3778  9.3021   1
   3  -2  -5 81.4245  9.4491   7
  -3  -2   5 79.8284  8.7005   7
  -3  -2   5 84.8901  9.2400   1
  -3  -2   5 72.1604 11.0003   9
   3  -2  -5 77.6251 10.9330   1
   3  -2  -5 113.840  12.387   9
   3  -2  -5 90.4498 10.6733   8
   3  -2  -5 64.7483  9.7076   6
   3  -2  -5 73.4384 10.1600   3
  -3  -2   5 91.7524 10.2017   5
   3   2  -5 92.6851  9.4948   8
   3   2  -5 73.2631  8.9248   3
   3   2  -5 80.8517  9.8447   1
  -3   2   5 82.6921  8.5793  10
  -3   2   5 90.5729 10.2708   3
  -3   2   5 103.023  13.579   9
   3   2  -5 84.6035 10.7141   4
   3   2  -5 91.9720  9.0214   8
  -3   2   5 95.1760 10.2460   7
  -3   2   5 72.6610  9.9374   5
   3   2  -5 77.6728 10.5398   9
  -3   2   5 83.7129 10.7433   1
   3   2  -5 75.5715  8.6728   7
  -3   2   5 53.6864  9.8873   6
   2  -2  -5 174.843  15.517   6
   2  -2  -5 178.006  19.504   9
   2  -2  -5 173.107  16.814   1
  -2  -2   5 155.812  14.778   1
  -2  -2   5 161.013  14.186   7
  -2  -2   5 160.585  14.342   3
  -2  -2   5 150.855  15.628   5
   2  -2  -5 161.689  18.126   4
  -2  -2   5 141.153  16.722   9
  -2  -2   5 141.742  14.082   3
   2  -2  -5 145.815  13.772  10
  -2  -2   5 178.114  14.444   6
   2  -2  -5 131.808  14.835   8
   2  -2  -5 142.039  15.329   3
   2  -2  -5 153.187  14.791   7
   2  -2  -5 139.900  17.044   9
  -2  -2   5 155.800  17.584   9
   2   2  -5 152.620  14.611   8
  -2   2   5 152.414  15.725   1
   2   2  -5 158.861  15.518   1
  -2   2   5 150.769  15.128   7
  -2   2   5 158.558  18.524   9
   2   2  -5 168.453  17.028   4
  -2   2   5 156.603  13.903  10
  -2   2   5 157.941  13.369   8
  -2   2   5 137.671  15.443   5
  -2   2   5 162.787  13.276   8
   2   2  -5 134.010  14.140   7
   2   2  -5 132.037  13.974   8
  -2   2   5 136.390  15.247   3
   2   2  -5 133.306  16.482   9
   2   2  -5 159.059  14.753   3
   2   2  -5 183.221  14.649   6
  -2   2   5 157.154  15.504   6
   2   2  -5 151.938  17.267   9
  -2   2   5 159.466  16.052   1
  -1  -2   5 363.594  29.241   3
   1  -2  -5 375.001  34.499   9
  -1  -2   5 364.203  29.029   1
  -1  -2   5 328.091  32.983   9
  -1  -2   5 387.406  28.595   7
  -1  -2   5 333.426  29.446   3
  -1  -2   5 336.777  28.122   6
   1  -2  -5 362.801  26.670  10
   1  -2  -5 310.585  29.797   3
  -1  -2   5 328.704  32.613   9
  -1  -2   5 321.153  27.019   8
   1  -2  -5 362.533  33.319   9
  -1  -2   5 352.505  30.929   5
   1  -2  -5 326.912  28.335   8
  -1  -2   5 315.625  26.839   8
   1  -2  -5 359.421  32.565   4
   1  -2  -5 361.711  29.035   6
  -1  -2   5 390.066  29.883   1
   1  -2  -5 316.858  28.800   7
  -1   2   5 379.165  29.137   7
  -1   2   5 340.233  33.333   9
  -1   2   5 363.294  30.452   1
   1   2  -5 381.679  32.596   4
  -1   2   5 343.241  26.678  10
  -1   2   5 349.775  28.119   8
   1   2  -5 291.805  32.315   9
  -1   2   5 292.898  28.883   1
  -1   2   5 358.723  30.045   3
   1   2  -5 312.647  29.234   1
  -1   2   5 377.330  30.965   5
   1   2  -5 299.409  27.919   8
   1   2  -5 345.407  28.274   6
  -1   2   5 328.111  33.686   9
  -1   2   5 326.366  28.829   6
   1   2  -5 337.460  26.232  10
   1   2  -5 300.924  31.983   9
   0  -2  -5 206.215  17.210   6
   0  -2   5 189.763  17.515   3
   0  -2   5 188.752  18.468   5
   0  -2   5 178.468  15.554   8
   0  -2   5 170.976  16.673   3
   0  -2   5 151.597  19.238   9
   0  -2  -5 168.010  16.963   3
   0  -2   5 186.341  16.333   6
   0  -2  -5 178.964  16.890   7
   0  -2   5 150.165  18.958   9
   0  -2   5 153.339  15.677   8
   0  -2   5 156.561  16.955   1
   0  -2  -5 167.562  19.258   4
   0  -2   5 163.740  17.569   1
   0  -2  -5 165.788  16.192   8
   0  -2  -5 217.912  21.742   9
   0  -2  -5 206.476  18.877   1
   0   2  -5 174.847  17.876   1
   0   2   5 208.131  17.566   3
   0   2  -5 175.628  20.228   9
   0   2   5 209.898  17.295   6
   0   2   5 168.959  17.329   1
   0   2   5 153.346  20.329   9
   0   2  -5 142.542  16.060   7
   0   2  -5 180.592  20.126   9
   0   2   5 147.843  17.632   5
   0   2  -5 146.904  15.921   8
   0   2   5 141.662  19.370   9
   0   2   5 174.011  15.522  10
   0   2  -5 174.756  16.289   6
   0   2  -5 191.270  19.689   4
   0   2  -5 174.662  15.114  10
  -1  -2  -5 52.8024  8.0851   7
  -1  -2  -5 32.4747  7.2823   8
   1  -2   5 45.7511  7.5699   3
  -1  -2  -5 67.9482 11.9560   9
  -1  -2  -5 40.0055  9.1429   4
   1  -2   5 35.2450  7.2915   8
   1  -2   5 63.5040  8.2404   6
  -1  -2  -5 46.2116  7.4709   6
  -1  -2  -5 48.9806  9.7100   1
   1  -2   5 52.6789  8.9998   1
   1  -2   5 35.6813  8.5042   5
   1  -2   5 53.8705 10.4439   9
  -1  -2  -5 66.8644 12.4583   9
  -1  -2  -5 48.7174  7.3700  10
   1  -2   5 43.7576 10.4404   9
   1   2   5 47.7839  8.7326   1
   1   2   5 45.5608  7.8295   3
   1   2   5 78.6632 12.2404   9
  -1   2  -5 40.1717 10.2927   9
  -1   2  -5 52.1446 10.4420   4
  -1   2  -5 55.0553  8.5554   7
   1   2   5 44.5143  9.3487   4
   1   2   5 35.5641  7.9041   5
  -1   2  -5 57.0659  8.0421   6
  -1   2  -5 55.9932  9.6751   1
  -1   2  -5 37.2404  8.1048   8
   1   2   5 46.0893  7.7724   6
   1   2   5 40.9304  6.8256  10
  -2  -2  -5 456.244  37.880   1
  -2  -2  -5 393.379  32.692  10
   2  -2   5 364.214  37.778   5
   2  -2   5 438.474  36.717   1
  -2  -2  -5 364.893  35.171   2
  -2  -2  -5 437.410  34.492   8
  -2  -2  -5 373.203  34.959   7
  -2  -2  -5 404.661  40.631   9
   2  -2   5 435.396  35.639   8
   2  -2   5 454.313  36.791   3
  -2  -2  -5 434.381  35.089   6
   2   2   5 447.495  36.681   1
   2   2   5 410.299  37.565   5
  -2   2  -5 382.447  34.867   8
  -2   2  -5 481.531  35.605   6
   2   2   5 422.124  36.613   3
  -2   2  -5 413.979  35.427   7
  -2   2  -5 404.907  37.226   1
   3  -2   5 10.0967  7.1269   8
   3  -2   5 12.3327  6.3884   3
  -3  -2  -5 11.8769  7.4996   1
  -3  -2  -5 15.5694  6.0455   2
   3  -2   5 26.6099  8.0450   5
  -3  -2  -5 23.7398  6.4819   6
  -3  -2  -5 15.0141  6.1219   7
   3   2   5 18.1095  6.9314   5
  -3   2  -5 13.3417  6.5154   7
  -3   2  -5 19.2650  7.4550   2
  -3   2  -5 19.5928  6.8471   6
  -3   2  -5 -0.0567  7.9356   8
  -3   2  -5 10.3609  7.4541   1
   3   2   5 22.3837  6.3906   3
  -4  -2  -5 456.944  37.481   1
  -4  -2  -5 371.842  33.517   7
  -4  -2  -5 358.435  32.563   6
   4  -2   5 373.968  34.273   8
   4  -2   5 401.730  36.859   5
  -4   2  -5 375.492  35.212   2
  -4   2  -5 336.740  35.907   1
  -4   2  -5 382.390  34.537   7
  -5  -2  -5 230.347  28.309   1
  -5  -2  -5 295.409  25.730   6
  -5   2  -5 277.064  30.085   1
  -5   2  -5 294.757  28.942   2
  -9  -3   5 16.7890  9.4786   2
  -9   3   5 13.9120  9.8292   2
   9   3  -5 13.8547  5.3715   4
  -9   3   5 7.63860 4.59726  10
  -9   3   5 22.3489  9.7727   5
  -8  -3   5 368.707  34.554   2
  -8   3   5 390.369  38.437   9
  -8   3   5 303.341  34.169   2
  -8   3   5 351.421  27.650  10
  -8   3   5 351.143  36.116   9
  -8   3   5 393.036  35.848   5
  -7  -3   5 7.66773 3.48113   5
  -7   3   5 7.66352 7.16146   5
  -7   3   5 1.12245 3.58681  10
  -7   3   5 0.63234 6.24789   9
  -7   3   5 4.06417 4.20247   1
  -7   3   5 -2.0481  6.4563   2
  -7   3   5 2.77763 4.05111   1
  -7   3   5 8.47606 8.85289   9
  -6  -3   5 39.3706  5.2617   9
  -6  -3   5 42.4349  5.6021   5
   6  -3  -5 29.8169  6.5229   8
  -6   3   5 41.6427  8.6175   5
  -6   3   5 39.6431  7.6393   1
  -6   3   5 44.4364 10.7727   9
  -6   3   5 46.9396  6.5532  10
  -6   3   5 34.0853  9.3639   2
  -6   3   5 37.0643  6.8807   1
  -5  -3   5 492.682  43.648   5
   5  -3  -5 540.141  42.630   8
   5  -3  -5 533.582  42.813   7
  -5  -3   5 580.069  45.592   9
  -5  -3   5 562.226  45.907   9
   5  -3  -5 572.675  46.225   3
  -5   3   5 503.819  41.386   6
  -5   3   5 521.651  45.261   2
  -5   3   5 471.927  45.509   5
  -5   3   5 531.664  43.139   1
   5   3  -5 490.454  40.793   7
  -5   3   5 578.817  39.253  10
  -5   3   5 527.748  44.147   1
   5   3  -5 565.931  42.855   3
  -5   3   5 528.818  43.428   7
  -5   3   5 505.016  49.056   9
   5   3  -5 453.859  44.944   4
  -4  -3   5 792.889  69.284   9
   4  -3  -5 858.804  70.956   9
  -4  -3   5 846.997  66.914   5
  -4  -3   5 795.678  62.403   1
  -4  -3   5 876.301  61.900   7
   4  -3  -5 732.273  65.320   1
  -4  -3   5 822.602  62.139   1
   4  -3  -5 819.682  64.511   8
   4  -3  -5 759.972  67.327   3
   4  -3  -5 783.715  70.987   5
  -4  -3   5 932.067  69.803   9
   4  -3  -5 877.960  64.058   7
   4   3  -5 770.314  64.972   3
  -4   3   5 758.198  66.088   2
  -4   3   5 842.686  68.078   5
  -4   3   5 722.710  64.717   1
  -4   3   5 849.040  58.799  10
  -4   3   5 688.834  71.481   9
  -4   3   5 873.297  64.802   6
  -4   3   5 749.992  64.981   3
  -4   3   5 822.250  64.532   1
   4   3  -5 814.559  62.413   7
  -4   3   5 885.280  65.118   7
   4   3  -5 732.359  68.587   4
  -3  -3   5 435.694  31.471   1
   3  -3  -5 339.014  32.614   8
  -3  -3   5 418.431  33.741   5
  -3  -3   5 360.348  30.271   6
   3  -3  -5 313.975  36.769   5
   3  -3  -5 374.551  37.232   4
  -3  -3   5 380.776  30.736   7
  -3  -3   5 373.215  30.451   6
   3  -3  -5 389.689  36.271   9
   3  -3  -5 358.164  33.645   1
   3  -3  -5 368.793  34.321   3
   3  -3  -5 334.278  37.780   9
  -3  -3   5 382.576  35.143   9
  -3  -3   5 401.375  35.633   9
   3  -3  -5 390.026  32.229   7
  -3  -3   5 344.568  31.051   1
  -3   3   5 342.896  32.788   1
   3   3  -5 379.843  31.074   7
  -3   3   5 423.610  33.991   6
   3   3  -5 389.076  30.737   8
   3   3  -5 404.775  34.815   4
  -3   3   5 400.153  29.783  10
   3   3  -5 419.583  31.059   8
  -3   3   5 365.792  37.384   9
   3   3  -5 409.719  32.506   3
  -3   3   5 351.922  33.537   3
  -3   3   5 374.977  32.558   7
  -3   3   5 434.605  34.382   5
   3   3  -5 437.581  32.423   1
   2  -3  -5 349.110  26.153  10
  -2  -3   5 344.168  27.215   6
   2  -3  -5 335.978  29.838   3
  -2  -3   5 376.951  28.181   3
  -2  -3   5 349.668  27.889   1
   2  -3  -5 266.678  27.973   8
   2  -3  -5 284.788  28.161   6
  -2  -3   5 318.025  31.324   9
  -2  -3   5 277.754  29.366   5
  -2  -3   5 320.196  27.222   6
  -2  -3   5 292.373  31.163   9
   2  -3  -5 348.695  33.863   9
   2  -3  -5 292.452  29.521   1
   2  -3  -5 370.791  28.787   7
   2  -3  -5 301.641  32.299   4
   2  -3  -5 313.648  31.871   9
  -2  -3   5 364.155  27.456   7
  -2  -3   5 338.452  28.028   1
  -2   3   5 372.857  30.216   1
  -2   3   5 330.530  29.617   1
  -2   3   5 399.842  29.324   7
   2   3  -5 322.184  27.213   6
   2   3  -5 292.259  26.908   8
   2   3  -5 340.780  27.804   8
   2   3  -5 337.756  27.527   7
  -2   3   5 335.362  26.960   8
  -2   3   5 377.727  29.574   6
   2   3  -5 305.654  28.338   3
  -2   3   5 300.960  29.712   5
  -2   3   5 321.098  26.776   8
  -2   3   5 341.918  29.845   3
   2   3  -5 372.965  28.876   1
  -2   3   5 327.069  33.556   9
   2   3  -5 373.936  31.491   4
  -2   3   5 343.645  26.236  10
   2   3  -5 331.303  31.307   9
   1  -3  -5 0.59042 3.96688   7
  -1  -3   5 5.14521 5.10505   9
   1  -3  -5 1.48854 3.98423   3
  -1  -3   5 0.02410 3.80628   1
  -1  -3   5 -3.0118  3.8701   9
   1  -3  -5 4.74454 5.13067   1
  -1  -3   5 -2.7324  3.1140   6
  -1  -3   5 2.34035 2.27922   8
  -1  -3   5 5.52075 3.52635   3
  -1  -3   5 0.06404 3.58628   1
   1  -3  -5 2.73191 3.51499   6
  -1  -3   5 3.60341 3.40662   7
   1  -3  -5 8.25359 5.98226   9
   1  -3  -5 7.19110 3.96184  10
   1  -3  -5 7.54314 4.71869   8
   1  -3  -5 0.57654 5.47010   9
  -1  -3   5 2.73713 2.63768   8
   1  -3  -5 1.72799 5.14910   4
  -1  -3   5 4.39398 4.11125   5
  -1  -3   5 6.41936 3.35469   6
  -1  -3   5 2.14499 3.04258   3
   1   3  -5 -0.8307  3.0159  10
  -1   3   5 8.92544 4.19390  10
  -1   3   5 7.72989 4.97677   1
  -1   3   5 8.20653 6.58352   9
   1   3  -5 4.40027 4.46383   1
   1   3  -5 0.15942 5.13594   9
   1   3  -5 -3.2548  2.6958   6
  -1   3   5 -1.6847  3.7531   8
  -1   3   5 2.54137 3.68618   3
  -1   3   5 3.23512 4.16872   5
  -1   3   5 1.42116 3.77733   6
   1   3  -5 -1.7401  3.2772   7
   1   3  -5 -2.3033  3.9860   8
  -1   3   5 15.4709  5.9340   1
   1   3  -5 0.10279 4.64918   9
   1   3  -5 3.71933 4.68625   4
   0  -3  -5 341.926  30.030   6
   0  -3   5 317.032  32.347   5
   0  -3   5 393.300  28.921   8
   0  -3   5 362.861  31.298   3
   0  -3   5 364.075  35.083   9
   0  -3   5 380.472  29.716   6
   0  -3  -5 411.512  36.976   9
   0  -3   5 316.825  33.898   9
   0  -3   5 341.468  29.159   8
   0  -3  -5 370.662  31.399   3
   0  -3  -5 375.099  30.540   7
   0  -3  -5 354.522  31.939   1
   0  -3   5 371.717  30.404   6
   0  -3   5 362.210  30.690   1
   0  -3  -5 332.570  33.705   4
   0  -3   5 471.340  32.091   1
   0  -3  -5 319.794  29.324   8
   0  -3  -5 382.106  35.755   9
   0  -3   5 344.706  30.610   3
   0   3  -5 364.526  27.816  10
   0   3  -5 349.604  33.661   4
   0   3  -5 376.268  35.248   9
   0   3  -5 316.334  31.036   1
   0   3   5 349.124  28.089  10
   0   3   5 330.481  34.997   9
   0   3  -5 308.594  34.021   9
   0   3  -5 327.382  29.433   8
   0   3  -5 335.260  30.106   7
   0   3  -5 337.376  29.447   6
   0   3   5 359.728  30.945   1
   0   3   5 378.208  32.462   5
   0   3   5 328.667  31.121   3
   0   3   5 347.974  36.049   9
  -1  -3  -5 625.107  53.432   8
   1  -3   5 624.162  61.083   9
   1  -3   5 680.902  56.203   3
   1  -3   5 690.733  54.018   6
  -1  -3  -5 583.506  61.882   9
  -1  -3  -5 723.407  56.763   1
   1  -3   5 664.646  58.568   5
  -1  -3  -5 691.426  50.323  10
   1  -3   5 758.775  62.355   9
   1  -3   5 710.445  55.564   1
  -1  -3  -5 684.084  54.143   6
   1  -3   5 601.313  53.653   8
  -1  -3  -5 611.635  54.254   7
  -1  -3  -5 646.556  61.716   9
   1   3   5 604.306  56.211   3
  -1   3  -5 676.306  62.216   9
   1   3   5 731.326  54.896   6
  -1   3  -5 651.526  54.292   7
  -1   3  -5 707.299  54.420   8
  -1   3  -5 659.622  53.815   6
  -1   3  -5 738.103  61.328   4
   1   3   5 656.339  57.893   5
   1   3   5 760.499  55.868   1
   1   3   5 784.201  63.144   9
   1   3   5 773.838  61.311   4
  -1   3  -5 654.469  55.775   1
  -2  -3  -5 411.838  39.118   7
  -2  -3  -5 447.527  38.975   2
  -2  -3  -5 461.226  38.257   8
   2  -3   5 485.799  43.128   5
  -2  -3  -5 518.400  42.336   1
   2  -3   5 526.231  41.319   3
  -2  -3  -5 500.448  39.182   6
  -2  -3  -5 528.285  46.616   9
   2  -3   5 437.904  39.309   8
  -2  -3  -5 494.715  36.972  10
   2  -3   5 454.079  40.777   1
   2   3   5 413.043  40.208   1
  -2   3  -5 395.872  39.255   7
   2   3   5 480.882  42.158   5
  -2   3  -5 477.535  39.345   6
   2   3   5 476.645  40.975   3
  -2   3  -5 530.793  42.352   1
  -2   3  -5 508.701  39.592   8
   3  -3   5 281.843  26.739   3
   3  -3   5 281.402  28.812   5
   3  -3   5 246.969  25.658   8
  -3  -3  -5 328.022  28.841   1
  -3  -3  -5 246.729  25.199   7
  -3  -3  -5 288.278  24.873   2
  -3  -3  -5 312.706  25.768   6
  -3   3  -5 305.823  26.206   8
  -3   3  -5 236.958  27.427   1
   3   3   5 271.529  27.305   5
  -3   3  -5 263.302  27.403   2
  -3   3  -5 283.954  26.606   7
   4  -3   5 4.94616 6.24279   5
  -4  -3  -5 3.66430 6.01256   7
  -4  -3  -5 2.97404 5.56882   6
  -4  -3  -5 3.91331 7.22020   1
  -4   3  -5 10.3272  6.9693   7
  -4   3  -5 -5.5447  7.9876   1
  -4   3  -5 -0.5706  6.9473   2
  -5  -3  -5 -1.6391  7.9394   1
  -5  -3  -5 1.84121 5.26528   6
  -5   3  -5 5.05510 8.10237   1
  -5   3  -5 10.2879  9.0005   2
  -8   4   5 248.463  27.516   5
  -8   4   5 223.390  26.682   2
  -8   4   5 239.578  28.282   9
  -8   4   5 251.913  20.788  10
  -8   4   5 242.562  20.970   1
  -8   4   5 230.472  29.907   9
   7  -4  -5 1.52769 5.56512   8
  -7   4   5 3.38330 7.14711   2
  -7   4   5 17.9232  9.2124   9
  -7   4   5 13.6296  5.1544  10
  -7   4   5 6.13632 7.23017   5
  -7   4   5 14.3952 10.4017   9
  -7   4   5 -0.0018  4.5494   1
  -6  -4   5 714.299  58.890   5
   6  -4  -5 746.656  57.713   8
  -6   4   5 703.669  53.212  10
  -6   4   5 803.523  68.635   9
  -6   4   5 826.941  62.755   5
  -6   4   5 609.478  60.361   2
  -6   4   5 621.164  65.411   9
   6   4  -5 747.846  57.519   3
  -6   4   5 780.089  57.479   7
  -6   4   5 648.367  57.986   1
   5  -4  -5 238.012  20.623   8
   5  -4  -5 213.647  20.394   7
  -5  -4   5 226.498  19.489   5
  -5  -4   5 197.893  20.097   9
  -5  -4   5 221.793  20.319   9
   5  -4  -5 240.059  22.660   3
  -5   4   5 238.508  22.345   1
  -5   4   5 232.212  22.068   5
  -5   4   5 221.179  19.946   7
  -5   4   5 208.075  17.526   3
  -5   4   5 198.678  20.412   1
  -5   4   5 206.971  18.435  10
  -5   4   5 209.969  19.504   6
   5   4  -5 206.709  19.894   4
  -5   4   5 229.329  25.223   9
  -5   4   5 191.232  21.446   2
   5   4  -5 190.880  18.351   3
   4  -4  -5 240.785  22.965   8
  -4  -4   5 246.529  19.315   7
  -4  -4   5 240.895  23.268   9
   4  -4  -5 258.389  25.426   9
  -4  -4   5 257.221  19.930   1
  -4  -4   5 249.731  20.077   1
  -4  -4   5 227.437  22.931   9
   4  -4  -5 229.825  21.844   7
   4  -4  -5 253.478  24.414   3
   4  -4  -5 250.506  24.648   1
  -4  -4   5 245.048  22.046   5
   4  -4  -5 219.002  26.675   5
  -4   4   5 252.218  24.127   1
   4   4  -5 234.693  22.565   4
   4   4  -5 257.968  21.088   3
  -4   4   5 228.883  22.016   7
  -4   4   5 231.145  23.319   5
  -4   4   5 199.922  22.579   6
   4   4  -5 229.899  21.170   3
  -4   4   5 216.617  26.553   9
  -4   4   5 242.917  23.375   7
  -4   4   5 254.740  20.238  10
   4   4  -5 245.414  20.413   7
  -4   4   5 236.712  23.500   2
  -4   4   5 250.901  22.913   1
  -3  -4   5 836.791  68.336   1
   3  -4  -5 918.990  72.091   1
   3  -4  -5 889.071  70.718   8
  -3  -4   5 891.242  67.541   6
  -3  -4   5 905.546  76.099   9
   3  -4  -5 831.627  77.850   5
  -3  -4   5 902.417  68.011   7
   3  -4  -5 903.331  70.540   6
   3  -4  -5 844.119  73.781   3
   3  -4  -5 881.344  79.932   9
  -3  -4   5 957.644  73.514   5
   3  -4  -5 787.822  69.530   7
   3  -4  -5 983.468  78.430   9
  -3  -4   5 922.123  67.343   6
  -3  -4   5 969.968  68.943   1
  -3  -4   5 873.078  76.290   9
  -3   4   5 944.777  71.188   1
  -3   4   5 908.077  73.372   3
  -3   4   5 1038.49   80.35   9
   3   4  -5 744.513  71.225   3
  -3   4   5 877.464  70.223   7
   3   4  -5 846.889  68.580   7
   3   4  -5 959.222  71.400   3
  -3   4   5 753.424  73.624   5
   3   4  -5 812.239  68.431   8
  -3   4   5 1034.83   64.91  10
  -3   4   5 957.746  70.889   7
  -3   4   5 1002.20   72.20   2
   3   4  -5 779.827  75.315   4
  -3   4   5 771.483  70.766   6
   3   4  -5 870.098  68.020   8
  -3   4   5 893.947  70.921   1
   3   4  -5 865.423  69.217   1
  -2  -4   5 7.14148 3.94509   6
   2  -4  -5 8.31459 4.43402   3
   2  -4  -5 7.58528 6.13568   1
  -2  -4   5 8.85776 3.60541   6
  -2  -4   5 12.3126  5.3144   9
  -2  -4   5 11.4110  3.7626   7
   2  -4  -5 7.65714 6.08384   9
   2  -4  -5 7.23798 5.83986   8
  -2  -4   5 3.56276 3.90229   1
   2  -4  -5 4.27258 6.86573   9
  -2  -4   5 6.11577 4.25366   1
   2  -4  -5 9.34866 5.56819   6
  -2  -4   5 17.2216  5.3133   5
  -2  -4   5 8.15312 3.41918   3
   2  -4  -5 13.5990  4.8990   7
  -2  -4   5 11.3205  5.8508   9
   2  -4  -5 3.00487 3.56625  10
   2  -4  -5 3.29243 6.47685   4
  -2   4   5 5.00792 4.80880   3
  -2   4   5 10.8629  4.3458  10
  -2   4   5 6.53300 6.75353   9
   2   4  -5 14.5810  4.3045   8
   2   4  -5 10.3088  4.7349   8
   2   4  -5 5.06180 5.93312   9
  -2   4   5 4.95861 4.52965   5
  -2   4   5 5.35364 4.56334   1
   2   4  -5 15.6505  4.6942   7
   2   4  -5 2.35628 4.10830   1
  -2   4   5 18.5453  6.4629   6
  -2   4   5 12.3403  4.1636   8
   2   4  -5 6.64366 5.18704   4
  -2   4   5 12.5002  5.6639   1
  -2   4   5 3.94399 4.47428   7
   1  -4  -5 296.925  29.313   1
  -1  -4   5 326.912  27.411   1
  -1  -4   5 319.792  26.526   7
   1  -4  -5 312.314  33.355   9
  -1  -4   5 329.575  27.089   6
  -1  -4   5 311.102  29.177   5
   1  -4  -5 304.323  27.016   8
   1  -4  -5 286.627  27.372   7
  -1  -4   5 303.857  27.481   1
  -1  -4   5 323.611  27.161   3
  -1  -4   5 348.961  26.458   6
   1  -4  -5 307.764  31.390   4
  -1  -4   5 341.497  30.934   9
  -1  -4   5 328.443  31.265   9
  -1  -4   5 316.585  27.744   3
   1  -4  -5 311.043  25.325  10
   1  -4  -5 314.011  28.823   3
  -1   4   5 329.043  25.623  10
   1   4  -5 281.183  26.187   8
   1   4  -5 329.022  31.291   9
  -1   4   5 309.023  29.140   5
  -1   4   5 321.562  28.677   1
  -1   4   5 316.183  29.647   1
   1   4  -5 332.089  26.748   6
  -1   4   5 281.329  27.827   6
   1   4  -5 316.267  28.067   1
  -1   4   5 335.282  28.791   3
   1   4  -5 310.961  31.057   9
   1   4  -5 267.747  26.519   7
   1   4  -5 334.146  30.630   4
  -1   4   5 340.331  33.641   9
   0  -4   5 56.9388  9.1728   5
   0  -4  -5 46.6261 10.9457   9
   0  -4  -5 41.6089  9.7815   1
   0  -4  -5 51.5680  8.3286   3
   0  -4   5 62.1449  6.5319   8
   0  -4   5 42.4214  8.1372   1
   0  -4   5 64.9340 10.6636   9
   0  -4  -5 30.2933  8.6613   4
   0  -4  -5 62.4442 12.9483   9
   0  -4   5 45.2604  6.7754   8
   0  -4  -5 35.7551  7.3393   8
   0  -4  -5 43.9144  7.3122  10
   0  -4   5 44.3413  7.6356   6
   0  -4  -5 42.1277  7.9043   7
   0  -4   5 53.3568  8.7607   1
   0  -4   5 24.5420  8.4431   9
   0  -4   5 44.3206  6.8149   6
   0  -4  -5 44.8564  7.8243   6
   0  -4   5 45.5717  6.9230   3
   0   4   5 41.1840  8.4398   1
   0   4  -5 48.1724  6.6825  10
   0   4  -5 30.1961  8.9388   9
   0   4  -5 29.4870  7.4600   8
   0   4  -5 47.7683  7.7491   7
   0   4  -5 44.6022  9.9238   9
   0   4   5 39.7058  7.6631   3
   0   4   5 30.7567  7.4762   5
   0   4   5 25.3447  9.3365   9
   0   4  -5 50.6971  7.2961   6
   0   4  -5 51.8157  9.3341   1
   0   4  -5 50.3191  9.8146   4
   0   4   5 55.9561  7.9361  10
  -1  -4  -5 396.419  33.518   6
   1  -4   5 483.427  34.948   6
   1  -4   5 361.942  34.078   3
   1  -4   5 433.514  39.943   9
   1  -4   5 450.352  33.747   6
  -1  -4  -5 419.233  40.033   9
   1  -4   5 407.096  36.954   5
   1  -4   5 421.314  33.366   8
  -1  -4  -5 370.077  32.621   8
   1  -4   5 449.389  35.290   1
  -1  -4  -5 386.877  31.413  10
  -1  -4  -5 401.769  33.903   7
  -1  -4  -5 324.765  35.008   1
  -1   4  -5 416.474  38.628   4
  -1   4  -5 307.005  33.113   7
  -1   4  -5 401.170  33.615   8
   1   4   5 344.746  34.542   3
  -1   4  -5 369.763  34.998   1
   1   4   5 380.636  35.792   5
   1   4   5 434.750  35.266   1
  -2  -4  -5 32.2469  7.5945   8
  -2  -4  -5 34.2612  7.7889   7
  -2  -4  -5 52.8409 12.2417   9
  -2  -4  -5 41.7100  7.6575   6
   2  -4   5 41.8181  9.8538   5
  -2  -4  -5 55.7942  6.9801   2
  -2  -4  -5 55.9775 11.4544   1
   2  -4   5 43.8090  8.5005   3
   2  -4   5 46.5296 10.0718   1
   2  -4   5 36.5579  7.8018   8
   2   4   5 43.0124  8.6518   5
  -2   4  -5 37.6856  9.0972   8
  -2   4  -5 46.2040  9.0755   7
   2   4   5 51.6013  9.6423   1
  -2   4  -5 29.0063  9.2530   1
   2   4   5 40.2615  8.2022   3
  -3  -4  -5 80.4482 12.6554   7
   3  -4   5 152.477  15.173   8
  -3  -4  -5 135.226  17.241   1
   3  -4   5 115.191  14.485   3
   3  -4   5 100.604  15.669   5
  -3  -4  -5 150.151  14.408   6
  -3   4  -5 91.3828 15.9027   1
   3   4   5 131.180  15.298   5
  -3   4  -5 94.2945 15.3571   2
  -3   4  -5 111.017  14.232   8
  -3   4  -5 138.549  15.769   7
  -4  -4  -5 332.766  36.844   1
   4  -4   5 404.453  38.794   5
  -4  -4  -5 445.503  35.745   7
  -4  -4  -5 346.001  33.382   6
  -4   4  -5 422.653  36.498   7
  -4   4  -5 409.152  37.164   2
  -4   4  -5 412.380  38.261   1
  -5  -4  -5 -4.9022  5.4151   6
  -5  -4  -5 9.66883 9.18176   1
  -5   4  -5 2.11546 7.59328   2
  -5   4  -5 -7.0464  9.1607   1
  -8   5   5 91.7172 11.5907   1
  -8   5   5 117.500  12.228  10
  -8   5   5 101.653  17.994   9
  -8   5   5 104.233  16.995   5
  -8   5   5 99.6156 15.9820   2
   7  -5  -5 3.44278 6.35969   8
  -7   5   5 8.87515 5.59437  10
  -7   5   5 -7.3093  7.6049   9
  -7   5   5 8.65210 5.85862   1
  -7   5   5 11.1596  7.0532   2
  -7   5   5 0.94470 9.29257   9
  -7   5   5 -3.1869  6.2586   5
  -7   5   5 9.46753 5.50299   7
  -6  -5   5 33.6748  5.4630   5
   6  -5  -5 50.3357  8.7389   8
   6   5  -5 28.1015  5.3158   4
  -6   5   5 39.6524  6.3924   6
  -6   5   5 37.8806  8.9487   1
   6   5  -5 40.0480  5.0372   3
  -6   5   5 58.6878 10.3913   5
  -6   5   5 51.5306 13.1320   9
  -6   5   5 39.0606 10.3195   2
  -6   5   5 38.1018  7.3326  10
  -6   5   5 29.3914 10.6242   9
  -6   5   5 47.6803  8.1426   7
  -5  -5   5 1114.86   85.74   5
   5  -5  -5 1008.99   82.71   8
  -5  -5   5 1098.02   88.35   9
  -5  -5   5 1086.99   88.73   9
   5  -5  -5 1100.54   83.47   7
   5  -5  -5 1180.25   88.50   3
  -5   5   5 1117.34   84.58   1
  -5   5   5 949.743  82.255   7
  -5   5   5 1052.38   76.33  10
  -5   5   5 956.116  88.037   5
   5   5  -5 1046.09   83.54   3
  -5   5   5 962.961  85.106   2
  -5   5   5 1047.67   82.27   6
  -5   5   5 1203.61   95.11   9
   5   5  -5 925.865  87.619   4
  -4  -5   5 1977.59  142.38   7
  -4  -5   5 2095.89  153.08   5
  -4  -5   5 1633.80  142.28   1
   4  -5  -5 1872.81  158.58   5
   4  -5  -5 1876.17  146.14   8
   4  -5  -5 1732.50  159.58   9
   4  -5  -5 1950.47  152.94   3
  -4  -5   5 2010.49  158.14   9
  -4  -5   5 1947.62  142.09   7
  -4  -5   5 1959.11  157.71   9
  -4  -5   5 1939.11  142.74   1
   4  -5  -5 1937.64  145.48   7
  -4   5   5 1633.97  154.10   5
   4   5  -5 1963.06  149.13   3
  -4   5   5 2128.10  134.39  10
  -4   5   5 1820.76  148.51   2
  -4   5   5 1854.53  145.76   6
   4   5  -5 1815.10  157.16   4
  -4   5   5 2048.62  151.13   3
  -4   5   5 1877.12  146.94   1
  -4   5   5 1635.73  161.37   9
  -4   5   5 1794.26  145.20   7
  -4   5   5 1918.47  146.68   7
   4   5  -5 1879.27  149.35   3
   4   5  -5 1898.52  143.13   7
  -3  -5   5 88.2187  9.9029   1
   3  -5  -5 101.443  14.583   9
  -3  -5   5 85.1862  9.4343   6
   3  -5  -5 91.3388 13.3281   3
   3  -5  -5 88.6206 12.5153   8
  -3  -5   5 90.5019  9.3566   7
   3  -5  -5 88.7814 16.4193   5
  -3  -5   5 76.4823  8.6642   6
   3  -5  -5 97.8483 14.1124   1
  -3  -5   5 92.5065 11.9541   9
   3  -5  -5 75.4263 15.7467   9
  -3  -5   5 102.951  10.834   1
   3  -5  -5 105.480  12.151   7
  -3  -5   5 90.7242 11.2195   5
   3  -5  -5 98.5007 13.2935   6
  -3  -5   5 109.818  13.049   9
  -3   5   5 100.650  12.324   7
   3   5  -5 102.267   9.912   8
  -3   5   5 94.8101 12.5195   3
  -3   5   5 82.3948 12.8283   1
  -3   5   5 97.7477 14.1417   6
  -3   5   5 101.419  12.739   5
  -3   5   5 122.257  12.987   2
  -3   5   5 105.215  10.741  10
   3   5  -5 108.586  11.058   8
   3   5  -5 89.5108 10.5409   3
   3   5  -5 93.0009 11.4212   4
  -3   5   5 90.5269 12.3896   7
  -3   5   5 98.2963 12.9205   1
   3   5  -5 106.559  10.375   7
  -3   5   5 88.5651  9.0871   8
  -3   5   5 66.0634 15.0326   9
  -2  -5   5 570.875  43.430   6
  -2  -5   5 622.730  44.629   6
  -2  -5   5 525.683  44.692   1
   2  -5  -5 621.982  53.003   4
  -2  -5   5 478.697  49.112   9
   2  -5  -5 526.809  53.000   9
   2  -5  -5 490.478  45.766   6
  -2  -5   5 484.889  49.615   9
   2  -5  -5 593.652  42.398  10
   2  -5  -5 572.635  48.055   1
   2  -5  -5 571.365  45.810   8
  -2  -5   5 525.513  44.306   1
  -2  -5   5 567.687  45.235   3
   2  -5  -5 524.468  45.482   7
  -2  -5   5 516.046  43.773   7
   2  -5  -5 587.045  52.106   9
  -2  -5   5 552.609  47.791   5
  -2   5   5 524.702  46.676   6
   2   5  -5 504.249  44.865   1
  -2   5   5 661.304  48.012   1
  -2   5   5 551.469  46.148   7
   2   5  -5 567.896  49.384   4
  -2   5   5 545.995  47.996   3
   2   5  -5 527.087  49.659   9
  -2   5   5 571.300  44.475   8
  -2   5   5 549.118  53.210   9
   2   5  -5 672.296  47.437   3
   2   5  -5 487.302  43.532   8
  -2   5   5 540.830  48.159   5
   2   5  -5 594.055  44.524   7
  -2   5   5 514.713  41.816  10
  -2   5   5 684.798  48.245   1
  -1  -5   5 5.41277 3.65210   6
   1  -5  -5 2.89548 6.12691   1
  -1  -5   5 4.02480 3.85221   3
  -1  -5   5 6.82422 4.33657   6
   1  -5  -5 1.99267 6.72370   4
  -1  -5   5 7.01813 4.66019   5
   1  -5  -5 4.54173 4.67037   7
  -1  -5   5 4.67594 4.76396   1
  -1  -5   5 3.05961 5.22063   9
  -1  -5   5 8.34344 6.18628   9
   1  -5  -5 8.31520 5.67076   6
  -1  -5   5 8.92126 3.87764   7
  -1  -5   5 7.21252 3.62962   3
   1  -5  -5 5.97116 5.24626   8
   1  -5  -5 0.50337 4.68673   3
   1  -5  -5 1.54769 6.91103   9
   1   5  -5 9.65592 6.61522   9
  -1   5   5 -2.0685  5.8069   1
  -1   5   5 7.74260 4.86022   3
   1   5  -5 3.35646 5.92184   4
   1   5  -5 8.63325 4.96930   1
   1   5  -5 2.28542 4.50581   8
  -1   5   5 2.80149 5.24331   6
   1   5  -5 1.29064 3.99708   7
  -1   5   5 1.76543 4.58518   5
   1   5  -5 6.09001 3.87079   6
   1   5  -5 8.42441 6.17583   9
  -1   5   5 6.72449 4.91000  10
  -1   5   5 9.29153 7.74788   9
   0  -5  -5 594.896  51.135   9
   0  -5  -5 576.648  49.295   4
   0  -5   5 551.464  41.583   8
   0  -5   5 540.835  44.071   1
   0  -5  -5 507.320  40.320  10
   0  -5   5 465.593  43.021   6
   0  -5  -5 476.082  43.528   7
   0  -5  -5 514.693  45.686   1
   0  -5   5 537.152  49.688   9
   0  -5  -5 489.384  51.012   9
   0  -5   5 515.956  46.609   5
   0  -5   5 559.468  42.038   8
   0  -5   5 547.627  49.085   9
   0  -5   5 543.066  44.337   3
   0  -5  -5 509.994  43.577   6
   0  -5   5 533.434  42.646   6
   0  -5  -5 485.190  42.528   8
   0   5   5 500.687  46.124   5
   0   5  -5 485.949  43.330   7
   0   5   5 535.038  45.499   3
   0   5   5 560.719  40.949  10
   0   5  -5 635.454  50.375   9
   0   5   5 534.348  44.981   1
   0   5  -5 482.944  44.145   1
   0   5  -5 588.855  49.093   4
   0   5  -5 488.040  48.904   9
   0   5  -5 519.901  43.038   8
  -1  -5  -5 30.1260  7.5045   7
  -1  -5  -5 34.7294  7.2141  10
   1  -5   5 46.1480  9.4778   5
   1  -5   5 35.1793  6.8024   3
   1  -5   5 49.2565  8.7132   6
  -1  -5  -5 49.5706  8.4459   6
   1  -5   5 43.1843  7.5358   8
  -1  -5  -5 45.3582  7.1960   8
   1  -5   5 29.6246  8.2486   1
  -1  -5  -5 42.5345 10.3161   1
  -1  -5  -5 35.9352 11.3617   9
   1  -5   5 21.2032  9.7266   9
  -1   5  -5 30.2754  8.6082   8
  -1   5  -5 35.0972  9.2110   1
  -1   5  -5 36.4346 10.4939   4
   1   5   5 32.8386  7.5484   3
  -1   5  -5 35.9835  8.0360   7
   1   5   5 32.1376  8.5544   1
   1   5   5 40.5186  8.1879   5
   2  -5   5 1431.67  109.69   8
  -2  -5  -5 1425.37  108.75   6
  -2  -5  -5 1354.19  107.50   8
   2  -5   5 1417.80  111.07   1
   2  -5   5 1380.22  117.68   5
  -2  -5  -5 1402.18  112.40   1
   2  -5   5 1416.96  113.80   3
  -2  -5  -5 1184.04  108.98   7
  -2  -5  -5 1473.36  123.62   9
   2   5   5 1569.30  114.65   3
  -2   5  -5 1466.06  110.43   7
  -2   5  -5 1272.58  109.11   8
   2   5   5 1453.13  116.53   5
  -2   5  -5 1528.32  112.29   1
  -3  -5  -5 518.887  40.317   6
  -3  -5  -5 467.004  40.391   7
   3  -5   5 512.057  45.412   5
   3  -5   5 407.961  40.248   8
  -3  -5  -5 455.048  43.414   1
   3  -5   5 542.643  42.857   3
  -3   5  -5 431.529  41.151   7
  -3   5  -5 467.900  40.548   8
  -3   5  -5 512.937  44.070   1
  -3   5  -5 448.204  43.095   2
  -4  -5  -5 53.1449  9.2827   6
  -4  -5  -5 63.0698 10.6566   7
   4  -5   5 73.9087 14.0347   5
  -4  -5  -5 63.3924 13.7034   1
  -4   5  -5 50.1361 11.7304   7
  -4   5  -5 32.9421 11.6737   2
  -4   5  -5 83.3130 15.1964   1
  -5  -5  -5 -9.8186  8.0206   1
  -5  -5  -5 0.09451 5.16046   6
  -5   5  -5 8.30323 9.18129   1
  -5   5  -5 9.29281 9.06003   2
   8  -6  -5 213.485  22.264   8
  -8   6   5 224.046  25.950   5
  -8   6   5 195.491  27.222   9
  -8   6   5 202.751  19.586  10
  -8   6   5 202.988  20.797   1
  -8   6   5 236.103  25.779   2
   7  -6  -5 101.410  13.094   8
  -7   6   5 107.250  12.360  10
  -7   6   5 91.7347 12.4548   7
  -7   6   5 97.0561 13.6883   1
  -7   6   5 70.7459 17.2738   9
  -7   6   5 100.789  15.879   2
  -7   6   5 99.0388 15.3944   5
  -6  -6   5 382.195  30.863   5
   6  -6  -5 439.762  32.732   8
   6   6  -5 376.607  31.542   4
  -6   6   5 325.316  33.148   1
   6   6  -5 364.650  30.009   3
  -6   6   5 332.582  31.559   7
  -6   6   5 335.828  29.253  10
  -6   6   5 435.655  40.911   9
  -6   6   5 280.066  32.803   2
  -6   6   5 332.519  30.376   6
  -6   6   5 369.593  35.173   5
   5  -6  -5 427.549  40.745   8
   5  -6  -5 447.868  41.457   7
  -5  -6   5 458.378  42.380   9
  -5  -6   5 550.070  41.515   5
  -5  -6   5 523.957  43.445   9
   5  -6  -5 552.487  45.153   3
  -5   6   5 487.749  49.001   9
  -5   6   5 463.282  43.881   5
  -5   6   5 532.163  38.441  10
  -5   6   5 441.742  40.915   7
   5   6  -5 461.665  39.980   3
  -5   6   5 493.875  42.862   2
   5   6  -5 448.847  42.160   4
  -5   6   5 492.897  41.535   6
  -5   6   5 554.715  43.769   1
  -4  -6   5 9.85710 2.48091   7
   4  -6  -5 15.8097  7.3260   8
   4  -6  -5 12.4567  9.1774   5
  -4  -6   5 4.56995 2.99200   7
   4  -6  -5 13.6053  7.2070   3
  -4  -6   5 8.59722 4.10966   1
  -4  -6   5 11.2343  3.4511   1
  -4  -6   5 14.2800  5.7173   9
  -4  -6   5 15.3728  6.1634   9
  -4  -6   5 13.9070  5.0852   5
   4  -6  -5 15.4141  6.3955   7
  -4   6   5 2.15463 7.41190   1
   4   6  -5 6.67903 3.69199   3
  -4   6   5 11.3046  5.7277   7
  -4   6   5 11.8683  5.4081  10
  -4   6   5 6.99053 6.33744   5
   4   6  -5 17.8699  3.5872   8
  -4   6   5 7.75460 5.58979   3
  -4   6   5 12.2679  7.1176   6
  -4   6   5 15.5446  6.7806   2
   4   6  -5 8.05084 5.19511   4
  -4   6   5 17.0383  9.3293   9
  -3  -6   5 1543.06  130.12   5
  -3  -6   5 1480.06  120.38   6
  -3  -6   5 1444.80  119.48   6
   3  -6  -5 1828.47  131.43   3
  -3  -6   5 1661.93  134.92   9
   3  -6  -5 1612.82  136.19   5
   3  -6  -5 1427.25  123.32   7
  -3  -6   5 1637.25  120.84   7
   3  -6  -5 1607.80  124.24   8
  -3  -6   5 1508.49  121.24   1
  -3  -6   5 1673.88  121.87   1
  -3  -6   5 1674.62  134.34   9
   3  -6  -5 1659.82  126.39   1
  -3   6   5 1681.89  131.61   5
   3   6  -5 1595.37  121.18   8
  -3   6   5 1401.74  124.34   1
  -3   6   5 1615.04  113.92  10
  -3   6   5 1705.87  129.66   3
  -3   6   5 1592.93  125.82   2
   3   6  -5 1624.05  127.18   3
  -3   6   5 1402.53  123.48   7
   3   6  -5 1710.54  122.67   8
   3   6  -5 1773.27  122.21   7
  -3   6   5 1590.89  121.44   8
   3   6  -5 1509.37  133.61   4
  -3   6   5 1479.29  124.86   6
  -3   6   5 1702.28  139.72   9
  -2  -6   5 899.166  67.632   3
  -2  -6   5 809.930  65.945   1
   2  -6  -5 774.451  66.895   8
   2  -6  -5 834.167  67.490   7
   2  -6  -5 900.623  71.739   3
   2  -6  -5 853.071  76.347   4
  -2  -6   5 811.324  73.678   9
  -2  -6   5 989.761  71.611   5
  -2  -6   5 882.138  66.903   3
  -2  -6   5 896.446  73.595   9
  -2  -6   5 755.291  64.349   6
   2  -6  -5 743.168  67.633   6
   2  -6  -5 817.706  77.688   9
   2  -6  -5 698.784  74.377   9
   2  -6  -5 794.361  69.175   1
  -2  -6   5 816.398  65.627   6
  -2  -6   5 829.120  66.331   1
  -2  -6   5 919.967  65.474   7
   2  -6  -5 850.472  74.588   4
  -2   6   5 804.488  70.702   3
  -2   6   5 705.782  67.998   6
  -2   6   5 969.367  68.728   7
  -2   6   5 759.742  67.952   1
  -2   6   5 804.228  61.913  10
   2   6  -5 810.755  73.666   9
   2   6  -5 843.477  72.949   4
   2   6  -5 877.545  66.263   7
   2   6  -5 798.884  69.023   3
   2   6  -5 951.481  65.456   8
  -2   6   5 789.330  70.917   5
  -2   6   5 966.241  78.611   9
   1  -6  -5 1484.87  126.06   4
  -1  -6   5 1480.30  112.12   7
  -1  -6   5 1315.54  120.17   5
  -1  -6   5 1442.77  116.07   3
  -1  -6   5 1515.55  113.06   1
   1  -6  -5 1264.45  112.48   8
  -1  -6   5 1408.43  112.24   6
  -1  -6   5 1468.45  111.23   6
   1  -6  -5 1554.02  114.18   6
  -1  -6   5 1684.44  125.97   9
   1  -6  -5 1391.00  113.71   7
  -1  -6   5 1472.99  124.66   9
   1  -6  -5 1646.77  116.74   1
  -1   6   5 1487.84  115.00   1
   1   6  -5 1440.56  117.93   3
   1   6  -5 1286.70  111.92   8
  -1   6   5 1510.22  128.51   9
  -1   6   5 1477.22  120.38   5
  -1   6   5 1449.27  105.05  10
  -1   6   5 1697.64  119.45   3
   1   6  -5 1533.63  113.01   7
  -1   6   5 1579.93  114.78   6
  -1   6   5 1265.33  113.77   7
   1   6  -5 1542.35  113.60   1
   1   6  -5 1454.00  124.06   4
   1   6  -5 1291.52  124.47   9
   0  -6   5 983.600  78.236   9
   0  -6   5 867.894  68.167   6
   0  -6   5 700.804  73.430   5
   0  -6  -5 848.607  69.689   7
   0  -6   5 1023.91   79.02   9
   0  -6   5 809.095  68.935   6
   0  -6   5 921.155  67.168   8
   0  -6  -5 861.510  69.690   6
   0  -6  -5 730.521  71.249   1
   0  -6   5 984.510  70.409   1
   0  -6  -5 840.642  68.308   8
   0  -6   5 853.552  70.965   3
   0  -6   5 897.312  67.531   8
   0  -6  -5 969.628  79.559   9
   0   6   5 873.113  71.236   1
   0   6  -5 871.956  70.142   1
   0   6   5 921.150  74.115   5
   0   6  -5 843.265  69.410   7
   0   6  -5 838.582  76.687   4
   0   6   5 944.106  72.769   3
   0   6  -5 776.046  68.581   8
   1  -6   5 1119.93   95.26   6
  -1  -6  -5 1345.95   99.13   1
  -1  -6  -5 1259.49   94.18   8
   1  -6   5 1158.55   96.23   1
  -1  -6  -5 1335.79   95.77   6
   1  -6   5 1200.28   94.64   8
   1  -6   5 1243.23  102.78   5
  -1  -6  -5 1116.77   95.52   7
   1  -6   5 1336.30   99.13   3
  -1   6  -5 1342.71  106.56   4
  -1   6  -5 1218.68   96.06   7
  -1   6  -5 1194.81   96.93   1
  -1   6  -5 1054.74   95.04   8
   1   6   5 1219.06   99.80   3
   1   6   5 1225.37   97.26   1
   1   6   5 1200.02  101.62   5
  -2  -6  -5 6.06742 4.99815   6
   2  -6   5 14.2177  7.1082   5
   2  -6   5 -3.2769  5.7824   8
   2  -6   5 3.81262 4.96358   3
  -2  -6  -5 -0.0683  5.3787   7
  -2  -6  -5 3.68057 6.90638   1
   2  -6   5 5.62661 6.96963   1
   2   6   5 0.22384 4.78639   5
  -2   6  -5 -8.1713  7.7351   8
  -2   6  -5 4.52405 5.73533   7
   2   6   5 0.24697 5.10210   3
  -2   6  -5 28.0365  8.7077   1
   3  -6   5 502.991  47.521   8
  -3  -6  -5 586.884  48.027   7
  -3  -6  -5 579.208  47.000   6
   3  -6   5 674.043  54.057   5
  -3  -6  -5 536.307  50.495   1
  -3   6  -5 523.616  50.374   2
  -3   6  -5 585.896  51.048   1
  -3   6  -5 597.800  49.108   7
  -3   6  -5 566.430  47.781   8
  -4  -6  -5 292.483  25.902   6
   4  -6   5 280.433  30.946   5
  -4  -6  -5 287.190  30.355   1
  -4   6  -5 248.894  30.254   1
  -4   6  -5 290.492  29.657   2
  -8   7   5 126.690  22.219   9
  -8   7   5 124.779  18.264   2
  -8   7   5 102.145  17.671   5
  -8   7   5 75.3555 12.9255   1
   7  -7  -5 852.216  63.648   8
  -7   7   5 747.959  68.634   5
  -7   7   5 821.921  65.076   1
  -7   7   5 817.802  63.224   7
  -7   7   5 794.265  66.569   2
  -7   7   5 719.664  73.753   9
   7   7  -5 705.247  64.730   4
  -6  -7   5 721.328  55.528   5
   6  -7  -5 644.097  55.123   8
  -6  -7   5 668.161  56.345   9
  -6   7   5 646.101  56.823   1
  -6   7   5 693.110  55.627   7
  -6   7   5 571.098  58.802   5
  -6   7   5 599.552  64.261   9
  -6   7   5 642.908  54.141   6
   6   7  -5 746.893  54.515   3
   6   7  -5 628.711  56.781   4
  -6   7   5 682.735  57.881   2
  -6   7   5 699.369  51.399  10
  -5  -7   5 9.09201 5.84865   9
  -5  -7   5 3.33382 4.45064   9
  -5  -7   5 1.58947 4.13387   5
   5  -7  -5 2.39633 5.84264   7
   5  -7  -5 6.14401 6.54109   8
   5   7  -5 9.34252 5.00819   4
  -5   7   5 6.47599 6.34278   2
  -5   7   5 3.90093 5.69565  10
   5   7  -5 2.44242 3.81507   3
  -5   7   5 7.83819 6.64281   5
  -5   7   5 -1.3336  6.9697   1
  -5   7   5 5.08576 9.27944   9
  -5   7   5 4.57836 6.04243   7
  -5   7   5 5.42027 6.42430   6
  -4  -7   5 5.95041 4.81529   1
  -4  -7   5 31.5978  8.0452   9
   4  -7  -5 14.7309  8.9699   5
  -4  -7   5 18.5106  3.9091   7
   4  -7  -5 13.4058  7.6089   3
  -4  -7   5 12.5611  5.5612   5
  -4  -7   5 18.1405  3.9846   1
   4  -7  -5 7.94017 7.06649   8
   4  -7  -5 22.1420  7.2017   7
  -4  -7   5 9.00855 5.80376   9
   4   7  -5 13.5633  6.0856   4
  -4   7   5 9.50853 9.40002   9
  -4   7   5 13.2927  8.1745   1
   4   7  -5 16.7432  4.2350   8
  -4   7   5 15.3197  7.0648   2
  -4   7   5 15.6203  6.2784  10
  -4   7   5 18.3622  8.5997   6
  -4   7   5 10.7242  6.3611   7
  -4   7   5 17.6338  7.4992   5
   4   7  -5 18.1949  5.1678   3
  -3  -7   5 236.549  23.109   5
  -3  -7   5 217.550  23.931   9
   3  -7  -5 229.463  23.133   8
   3  -7  -5 266.626  26.119   3
  -3  -7   5 206.263  19.948   6
  -3  -7   5 273.871  19.184   6
  -3  -7   5 237.779  20.665   1
  -3  -7   5 259.031  21.800   1
   3  -7  -5 212.146  23.012   7
  -3  -7   5 252.796  21.212   7
   3  -7  -5 183.933  28.682   5
   3  -7  -5 286.723  26.805   1
  -3  -7   5 231.340  24.878   9
   3   7  -5 223.107  20.102   8
  -3   7   5 181.448  23.401   5
  -3   7   5 238.028  24.479   3
   3   7  -5 227.781  23.735   4
  -3   7   5 226.008  22.645   2
   3   7  -5 233.714  21.079   7
  -3   7   5 175.970  22.158   7
  -3   7   5 269.585  21.571  10
  -3   7   5 238.025  25.466   1
  -3   7   5 230.283  29.191   9
  -3   7   5 255.395  25.604   6
  -3   7   5 237.858  20.726   8
   3   7  -5 246.603  22.130   3
  -2  -7   5 1560.42  112.19   6
  -2  -7   5 1593.18  117.47   3
   2  -7  -5 1410.19  115.73   7
   2  -7  -5 1452.59  115.08   8
   2  -7  -5 1469.72  117.90   1
  -2  -7   5 1379.39  121.84   5
   2  -7  -5 1411.73  128.96   4
  -2  -7   5 1450.03  125.97   9
   2  -7  -5 1216.32  126.31   5
  -2  -7   5 1676.47  127.28   9
  -2  -7   5 1490.90  113.95   1
  -2  -7   5 1462.46  113.47   6
  -2   7   5 1483.07  122.52   5
   2   7  -5 1619.53  125.83   4
  -2   7   5 1473.73  116.81   1
  -2   7   5 1448.18  117.15   6
   2   7  -5 1447.98  114.02   7
  -2   7   5 1642.73  121.98   3
   2   7  -5 1561.68  119.38   3
   2   7  -5 1343.20  113.20   8
  -2   7   5 1396.01  115.98   7
  -2   7   5 1465.47  130.95   9
  -1  -7   5 17.5370  4.4591   3
   1  -7  -5 -3.2109  7.3679   4
  -1  -7   5 15.2290  6.1704   1
  -1  -7   5 5.67043 6.56010   9
  -1  -7   5 8.60523 5.46548   6
   1  -7  -5 12.8182  8.1142   1
  -1  -7   5 16.5435  4.9495   6
  -1  -7   5 11.6304  4.1613   7
   1  -7  -5 0.02004 4.70066   7
   1  -7  -5 4.37746 6.12715   8
  -1  -7   5 1.52792 6.31378   9
  -1  -7   5 10.5126  6.0912   5
  -1   7   5 10.2756  6.1996   5
   1   7  -5 17.8907  7.7756   4
  -1   7   5 11.2831  6.5324   7
  -1   7   5 8.18585 7.09170   1
   1   7  -5 9.33302 5.77706   7
   1   7  -5 7.32657 5.56071   3
   1   7  -5 10.4623  6.7553   8
  -1   7   5 4.50128 5.66824   3
   0  -7   5 1597.38  122.93   1
   0  -7   5 1883.78  126.90   3
   0  -7   5 1320.64  130.39   5
   0  -7  -5 1802.86  123.71   6
   0  -7   5 1723.42  121.23   6
   0  -7   5 1539.73  122.36   6
   0  -7  -5 1458.71  123.04   7
   0  -7   5 1538.32  120.29   8
   0  -7   5 1423.25  135.56   9
   0  -7  -5 1590.16  125.57   1
   0  -7  -5 1395.89  121.23   8
   0   7   5 1463.07  124.21   1
   0   7   5 1425.51  127.85   3
   0   7   5 1579.53  130.38   5
   0   7  -5 1631.80  122.34   8
   0   7  -5 1661.01  122.86   7
   0   7   5 1674.37  124.97   7
   0   7  -5 1596.13  128.53   3
   0   7  -5 1772.91  135.74   4
   1  -7   5 161.379  21.537   5
  -1  -7  -5 196.955  20.362   7
   1  -7   5 197.234  18.709   8
   1  -7   5 189.424  20.381   6
   1  -7   5 184.453  20.665   1
  -1  -7  -5 220.322  18.348   8
   1  -7   5 186.372  19.512   3
  -1  -7  -5 200.167  23.179   1
  -1  -7  -5 210.939  20.353   6
  -1   7  -5 167.115  19.584   7
  -1   7  -5 198.235  20.012   8
  -1   7  -5 195.293  21.751   1
   1   7   5 201.915  21.034   3
   1   7   5 221.583  21.577   5
   2  -7   5 26.1930  7.5884   3
  -2  -7  -5 36.8446 10.9355   1
   2  -7   5 54.4256  8.9051   8
   2  -7   5 35.4964  9.9842   1
  -2  -7  -5 37.0039  8.7289   7
   2  -7   5 10.0403  7.8292   5
  -2  -7  -5 29.9969  8.1201   6
   2   7   5 25.5830  8.7064   5
  -2   7  -5 39.7766 10.2160   1
  -2   7  -5 31.5948  9.0203   7
  -2   7  -5 21.7833  9.8910   8
  -3  -7  -5 5.02569 6.50395   6
   3  -7   5 17.6454  9.0301   5
   3  -7   5 8.27755 8.07487   8
  -3  -7  -5 6.72727 8.46565   1
  -3  -7  -5 2.85053 5.83112   7
  -3   7  -5 21.9947 10.0200   1
  -3   7  -5 13.6656  8.4814   2
  -3   7  -5 -2.4203  9.3199   8
  -3   7  -5 1.28857 7.12736   7
  -4  -7  -5 618.091  53.275   1
   4  -7   5 545.745  54.146   5
  -4  -7  -5 572.536  47.523   6
  -4   7  -5 594.922  52.515   2
  -4   7  -5 559.687  53.077   1
   7   8  -5 748.563  62.214   4
  -7   8   5 776.784  58.726   6
  -7   8   5 623.459  62.300   2
  -7   8   5 670.447  65.500   5
  -7   8   5 727.174  62.596   1
  -7   8   5 801.241  61.153   7
  -6  -8   5 211.674  19.219   9
  -6  -8   5 213.844  19.592   5
   6  -8  -5 194.313  21.335   8
   6   8  -5 188.814  20.107   4
   6   8  -5 207.597  19.165   3
  -6   8   5 248.613  24.147   2
  -6   8   5 231.481  21.985   6
  -6   8   5 210.568  23.758   1
  -6   8   5 185.371  28.922   9
  -6   8   5 171.197  22.733   5
  -6   8   5 178.319  21.137   7
  -5  -8   5 176.048  16.496   5
   5  -8  -5 169.558  18.028   8
   5  -8  -5 138.332  18.003   7
  -5  -8   5 153.842  18.192   9
  -5  -8   5 166.598  16.290   9
  -5   8   5 140.486  24.374   9
   5   8  -5 128.201  16.369   4
  -5   8   5 162.018  19.076   6
   5   8  -5 159.935  15.589   3
  -5   8   5 125.801  18.295   5
  -5   8   5 162.316  19.979   1
  -5   8   5 121.050  17.034   7
  -5   8   5 134.938  17.696   2
  -4  -8   5 520.678  36.764   7
   4  -8  -5 471.657  48.066   5
  -4  -8   5 511.533  42.889   9
  -4  -8   5 459.821  43.593   9
  -4  -8   5 415.518  40.823   5
   4  -8  -5 536.951  41.217   8
   4  -8  -5 468.355  41.669   7
  -4  -8   5 476.604  37.868   1
  -4  -8   5 455.656  36.634   1
  -4   8   5 506.656  50.367   9
  -4   8   5 424.969  40.640   2
  -4   8   5 366.722  40.091   7
  -4   8   5 440.910  42.967   5
  -4   8   5 533.172  43.212   6
   4   8  -5 458.475  42.286   4
   4   8  -5 442.364  40.030   3
  -4   8   5 444.732  42.473   1
   3  -8  -5 48.3099  9.9417   7
   3  -8  -5 50.2244 12.4247   1
  -3  -8   5 26.8534  5.6734   6
  -3  -8   5 47.6803 10.5955   9
  -3  -8   5 33.5098  6.5668   1
   3  -8  -5 35.7033  9.0278   8
  -3  -8   5 38.3356  7.8623   1
  -3  -8   5 35.3640  8.2310   5
   3  -8  -5 38.7729 13.5420   5
  -3  -8   5 33.0305  7.0010   7
  -3  -8   5 39.2376  4.9356   6
  -3  -8   5 30.5755  8.7300   9
  -3   8   5 42.3204  8.8799   2
   3   8  -5 42.9528  9.0441   4
   3   8  -5 37.2548  6.6660   8
  -3   8   5 47.4465 10.5041   7
   3   8  -5 39.1170  7.7684   3
  -3   8   5 47.8294 11.8089   1
  -3   8   5 37.4472  9.8836   5
  -3   8   5 41.2031  9.9696   3
  -2  -8   5 208.589  21.268   5
  -2  -8   5 183.667  21.980   9
   2  -8  -5 159.998  22.487   1
  -2  -8   5 184.627  22.945   9
   2  -8  -5 220.218  20.420   8
   2  -8  -5 207.835  21.556   7
  -2  -8   5 188.383  18.711   1
   2  -8  -5 194.313  27.880   5
  -2  -8   5 211.520  17.526   6
  -2  -8   5 173.761  18.907   6
  -2  -8   5 198.882  17.717   3
  -2   8   5 208.127  21.882   5
   2   8  -5 203.216  18.522   8
   2   8  -5 208.367  19.459   7
   2   8  -5 196.594  21.926   4
  -2   8   5 149.604  21.016   3
  -2   8   5 204.933  21.331   7
   2   8  -5 180.486  19.768   3
  -1  -8   5 468.193  41.197   5
  -1  -8   5 466.243  42.886   9
  -1  -8   5 402.581  36.001   6
   1  -8  -5 416.963  41.203   1
  -1  -8   5 398.435  37.386   1
   1  -8  -5 460.854  39.563   7
  -1  -8   5 497.950  44.451   9
   1  -8  -5 453.109  37.183   8
  -1  -8   5 455.229  38.183   6
  -1   8   5 504.783  41.312   1
  -1   8   5 378.799  40.040   5
   1   8  -5 442.259  42.304   4
  -1   8   5 370.408  38.944   7
  -1   8   5 517.753  42.111   3
   1   8  -5 432.213  37.661   7
   1   8  -5 437.594  37.300   8
   1   8  -5 468.456  40.188   3
   0  -8   5 32.6234 10.6228   9
   0  -8  -5 31.5018  8.5567   7
   0  -8   5 23.7932  7.7388   1
   0  -8   5 22.7960  8.7132   5
   0  -8  -5 23.2404  6.6652   8
   0  -8   5 37.1930  6.7003   6
   0  -8   5 32.8269  8.6474   6
   0  -8  -5 39.2787 11.2220   1
   0   8  -5 21.5093  7.4537   7
   0   8  -5 35.3656  9.6015   3
   0   8   5 24.9314  8.6706   3
   0   8  -5 16.4316  8.9117   4
   0   8   5 26.6838 10.5218   1
   0   8   5 34.6000  8.8100   5
   0   8   5 21.1390  8.7703   7
   0   8  -5 15.3178  8.4299   8
  -1  -8  -5 11.1663  8.9064   1
  -1  -8  -5 12.9798  7.0134   6
   1  -8   5 5.02860 6.58604   1
  -1  -8  -5 10.8049  6.9183   7
   1  -8   5 12.0074  8.0707   5
   1  -8   5 12.5217  5.9546   8
  -1   8  -5 11.2544  7.0943   7
  -1   8  -5 8.09672 7.38071   8
   1   8   5 13.7449  7.4808   5
   1   8   5 20.2491  7.9085   3
  -2  -8  -5 89.5263 13.0476   7
  -2  -8  -5 88.1008 16.1185   1
   2  -8   5 112.714  15.953   1
   2  -8   5 81.6524 15.5480   5
  -2  -8  -5 99.4386 13.0693   6
   2  -8   5 102.299  12.673   8
   2   8   5 103.276  14.315   5
  -2   8  -5 77.1165 13.2900   7
  -2   8  -5 89.4476 15.5028   2
  -2   8  -5 96.4767 15.0213   8
  -3  -8  -5 101.879  13.788   6
  -3  -8  -5 89.2194 13.7110   7
  -3  -8  -5 106.022  18.020   1
   3  -8   5 157.953  16.405   8
   3  -8   5 100.353  17.636   5
  -3   8  -5 117.898  17.055   8
  -3   8  -5 129.468  19.168   1
  -3   8  -5 118.372  16.623   7
  -3   8  -5 161.393  19.532   2
  -4  -8  -5 48.4100 13.9532   1
   4  -8   5 26.0652 11.8117   5
  -4  -8  -5 52.1151  9.5501   6
  -4   8  -5 69.2354 16.8371   1
  -4   8  -5 62.9318 14.0713   2
  -7   9   5 7.23532 7.67610   2
  -7   9   5 1.54100 9.82514   5
  -7   9   5 4.28264 6.76815   6
  -7   9   5 -5.0224  7.6409   1
   7   9  -5 3.14440 6.06508   4
  -6  -9   5 567.066  43.330   5
  -6  -9   5 497.650  43.228   9
  -6   9   5 445.537  44.697   2
  -6   9   5 522.524  47.673   5
   6   9  -5 399.886  43.834   4
  -6   9   5 514.029  43.875   6
  -6   9   5 529.588  46.058   1
  -6   9   5 542.619  44.707   7
   5  -9  -5 168.092  18.324   8
  -5  -9   5 138.764  18.699   9
  -5  -9   5 160.621  17.336   9
   5  -9  -5 135.451  18.816   7
  -5  -9   5 215.980  18.030   5
  -5   9   5 150.463  18.629   7
   5   9  -5 117.020  16.750   4
  -5   9   5 144.107  19.647   5
  -5   9   5 159.886  19.107   2
  -5   9   5 152.728  20.537   1
  -4  -9   5 187.673  24.998   9
   4  -9  -5 250.593  25.351   7
  -4  -9   5 230.305  19.974   1
  -4  -9   5 258.847  19.973   7
  -4  -9   5 235.498  24.479   9
  -4  -9   5 221.670  23.482   5
   4  -9  -5 271.242  31.862   5
   4  -9  -5 257.391  24.455   8
  -4  -9   5 240.678  21.109   1
   4   9  -5 241.318  24.532   4
  -4   9   5 233.284  23.961   2
  -4   9   5 224.114  24.409   7
  -4   9   5 222.407  25.150   5
  -4   9   5 210.246  26.077   1
  -3  -9   5 232.904  19.326   6
  -3  -9   5 288.717  25.669   5
   3  -9  -5 236.467  23.798   8
  -3  -9   5 228.017  21.449   1
  -3  -9   5 279.969  22.779   7
   3  -9  -5 255.384  25.163   7
  -3  -9   5 214.076  20.177   6
  -3  -9   5 269.548  25.966   9
   3  -9  -5 246.482  32.466   5
  -3  -9   5 236.472  26.954   9
  -3   9   5 238.943  25.150   3
   3   9  -5 189.349  24.530   4
  -3   9   5 218.340  23.284   2
  -3   9   5 225.887  24.611   7
  -3   9   5 246.455  25.524   5
  -3   9   5 264.174  27.430   1
   3   9  -5 242.151  21.448   8
  -2  -9   5 45.0021 10.2921   5
   2  -9  -5 71.3260 17.3645   5
  -2  -9   5 49.6683  9.4336   7
   2  -9  -5 48.8014 10.9262   7
  -2  -9   5 59.1345 10.0595   6
   2  -9  -5 55.8909 14.0871   1
  -2  -9   5 48.3685  7.0895   6
  -2  -9   5 58.7326 11.7743   9
  -2  -9   5 38.8056  8.5052   1
  -2  -9   5 44.8051 12.3080   9
  -2  -9   5 61.3888  6.8317   3
   2  -9  -5 39.2949  9.2597   8
  -2   9   5 64.4491 11.9189   3
  -2   9   5 55.2722 11.8492   7
   2   9  -5 48.6870  9.3948   8
   2   9  -5 48.4780 10.8106   4
  -2   9   5 46.5678 10.8685   5
   2   9  -5 62.0152  9.9015   7
  -2   9   5 47.9625 12.2845   1
   1  -9  -5 6.28770 6.47344   8
   1  -9  -5 -6.9448  5.1515   7
  -1  -9   5 -3.0042  4.9026   1
  -1  -9   5 8.10463 8.37383   9
  -1  -9   5 1.09900 4.21629   6
  -1  -9   5 7.63399 6.80425   5
   1  -9  -5 14.2912 10.4171   5
  -1  -9   5 0.92511 5.80037   6
   1  -9  -5 7.68095 8.36518   1
  -1   9   5 9.32903 7.47867   7
  -1   9   5 6.43332 6.50373   5
  -1   9   5 7.85272 7.08161   3
   1   9  -5 -1.4133  5.8794   7
   1   9  -5 -4.1724  6.5122   4
  -1   9   5 0.63946 8.19940   1
   1   9  -5 -7.9193  7.0561   8
   0  -9  -5 26.1718  7.7819   8
   0  -9  -5 45.6561 11.0868   7
   0  -9   5 61.9907 12.3295   5
   0  -9   5 52.2456 11.1241   6
   0  -9  -5 79.1428 14.9486   1
   0  -9   5 42.3495  9.5893   1
   0   9  -5 58.1011 10.8834   7
   0   9  -5 61.5486 13.3114   4
   0   9   5 65.1787 12.2331   3
   0   9   5 65.4813 11.7156   5
   0   9  -5 58.7300 10.1653   8
   0   9   5 64.2700 12.7071   7
   1  -9   5 152.215  19.298   5
  -1  -9  -5 112.662  18.317   1
   1  -9   5 95.6102 15.6394   1
  -1  -9  -5 120.267  16.052   7
  -1   9  -5 149.988  17.069   7
   1   9   5 128.845  18.572   7
  -1   9  -5 116.184  16.297   8
  -2  -9  -5 282.512  27.642   6
   2  -9   5 300.706  27.294   8
  -2  -9  -5 306.066  31.927   1
   2  -9   5 346.509  31.304   1
   2  -9   5 297.970  32.076   5
  -2  -9  -5 324.335  29.091   7
  -2   9  -5 290.684  29.426   7
  -2   9  -5 271.576  29.663   8
  -2   9  -5 236.607  29.876   2
  -3  -9  -5 147.952  21.432   1
   3  -9   5 115.415  19.979   5
  -3  -9  -5 160.804  16.846   6
  -3   9  -5 159.558  20.793   2
  -6 -10   5 27.5331  7.7814   5
  -6 -10   5 33.1383  6.5608   9
  -6  10   5 13.1090  9.1833   5
  -6  10   5 22.8249 10.9709   1
  -6  10   5 33.1015 10.5300   2
   6  10  -5 31.0732  8.6122   4
  -5 -10   5 424.854  39.895   9
   5 -10  -5 451.938  40.741   7
  -5 -10   5 413.032  39.222   5
  -5  10   5 352.755  40.654   5
  -5  10   5 467.824  42.177   1
  -5  10   5 479.062  40.560   2
   5  10  -5 443.818  40.676   4
  -5  10   5 459.671  40.680   7
  -4 -10   5 16.6346  4.5972   1
   4 -10  -5 19.7587 13.6931   5
   4 -10  -5 15.3336  8.3880   7
  -4 -10   5 22.9779 10.1760   9
   4 -10  -5 18.0285  8.2876   8
  -4 -10   5 20.2359  8.0447   9
  -4 -10   5 18.2227  7.5135   5
   4  10  -5 11.7718  7.7832   4
  -4  10   5 20.1148 10.1222   1
  -4  10   5 22.4526  8.6794   2
  -4  10   5 13.9064  9.0298   5
  -4  10   5 1.58219 7.06052   7
  -3 -10   5 61.6875 11.3863   5
   3 -10  -5 48.8223 11.5657   7
  -3 -10   5 51.6173 12.9439   9
   3 -10  -5 76.9249 12.1300   8
  -3 -10   5 58.2228  8.8862   1
  -3 -10   5 63.8433 11.8658   9
   3 -10  -5 64.0021 18.1078   5
  -3 -10   5 53.5484  7.2335   6
  -3 -10   5 57.7010  9.4158   7
  -3 -10   5 52.7363  6.2485   6
  -3  10   5 52.8187 10.3259   2
  -3  10   5 52.7343 13.6770   1
   3  10  -5 59.1452 11.9631   4
   3  10  -5 39.4405  9.4151   8
  -3  10   5 51.5822 11.5400   5
  -3  10   5 82.9910 13.5150   7
  -2 -10   5 587.219  47.421   1
  -2 -10   5 585.351  54.934   9
  -2 -10   5 529.925  45.183   6
  -2 -10   5 594.978  48.433   7
   2 -10  -5 661.896  51.693   7
   2 -10  -5 491.349  52.041   1
  -2 -10   5 640.872  52.670   5
   2 -10  -5 664.692  61.346   5
   2 -10  -5 546.842  47.573   8
  -2 -10   5 496.646  47.507   6
  -2  10   5 624.652  53.174   3
  -2  10   5 505.762  51.275   1
   2  10  -5 584.293  53.789   4
  -2  10   5 538.192  51.468   5
   2  10  -5 590.372  47.279   8
  -2  10   5 583.059  50.966   7
  -1 -10   5 2.97549 6.08784   6
   1 -10  -5 -0.2662  7.7081   7
   1 -10  -5 -3.4852  9.1839   1
  -1 -10   5 3.46265 6.39371   7
  -1 -10   5 12.7175  9.2616   9
  -1 -10   5 3.29764 5.91799   1
  -1 -10   5 8.77950 5.29527   6
   1 -10  -5 10.5245  6.3592   8
   1 -10  -5 -12.871   8.373   5
  -1 -10   5 2.00267 7.15545   5
  -1  10   5 8.16883 7.29655   5
  -1  10   5 17.3657  9.6705   1
  -1  10   5 5.57406 7.00467   7
   1  10  -5 6.82036 7.29403   8
   1  10  -5 6.16465 8.85711   4
   1  10  -5 7.22458 6.42807   7
  -1  10   5 4.21871 7.38690   3
   0 -10  -5 383.389  37.394   7
   0 -10  -5 464.080  47.525   5
   0 -10  -5 407.307  33.227   8
   0 -10   5 437.778  36.901   1
   0 -10   5 318.429  37.982   5
   0 -10   5 382.980  36.415   6
   0 -10  -5 393.658  39.285   1
   0  10  -5 363.269  35.003   8
   0  10  -5 392.200  36.138   7
   0  10   5 472.154  39.908   7
   0  10   5 398.630  37.806   5
  -1 -10  -5 63.4034 12.8569   7
   1 -10   5 72.7707 14.7256   5
  -1 -10  -5 60.8708 15.1663   1
   1 -10   5 55.5407 12.7865   1
   1  10   5 43.6477 10.6078   5
   1  10   5 37.7582 11.8112   7
  -1  10  -5 45.2084 11.2961   7
   2 -10   5 62.0786 14.5949   5
  -2 -10  -5 49.2721 13.1621   1
   2 -10   5 36.6952 11.8658   1
  -2  10  -5 45.4455 13.7426   2
  -2  10  -5 40.8203 11.6370   7
  -3 -10  -5 178.761  23.928   1
   3 -10   5 163.158  24.614   5
  -3 -10  -5 167.710  18.881   6
  -3  10  -5 183.451  23.398   2
  -6 -11   5 3.01752 5.78734   5
   6  11  -5 7.14550 8.33350   4
  -6  11   5 8.93381 9.83468   5
  -6  11   5  2.3583 10.5104   1
  -6  11   5 14.3457  8.3306   2
  -5 -11   5 10.2199  6.6069   9
   5 -11  -5 8.38176 8.12718   7
  -5 -11   5 10.7545  7.3662   5
  -5  11   5 14.6371  9.8063   2
  -5  11   5 26.2079 11.6894   1
  -5  11   5 -0.8346  8.1307   5
   5  11  -5 12.2241  8.5580   4
   4 -11  -5 664.559  59.220   7
  -4 -11   5 726.178  60.742   5
  -4 -11   5 699.384  53.555   1
   4 -11  -5 665.103  66.665   5
  -4 -11   5 631.952  61.394   9
  -4 -11   5 750.415  64.530   9
  -4  11   5 713.192  61.075   1
  -4  11   5 676.117  61.526   5
   4  11  -5 670.782  62.110   4
  -4  11   5 594.533  58.508   7
  -3 -11   5 381.621  41.100   9
  -3 -11   5 416.216  35.225   7
  -3 -11   5 400.726  31.315   6
   3 -11  -5 407.734  36.158   8
  -3 -11   5 417.920  34.378   1
   3 -11  -5 379.852  37.907   7
   3 -11  -5 354.802  45.255   5
  -3 -11   5 385.197  31.963   6
  -3 -11   5 407.023  38.798   5
   3  11  -5 413.406  34.989   8
  -3  11   5 461.116  39.877   7
  -3  11   5 359.441  38.895   5
   3  11  -5 420.935  40.517   4
  -3  11   5 382.371  39.511   1
  -2 -11   5 422.410  40.695   6
  -2 -11   5 445.861  47.448   9
  -2 -11   5 507.019  42.250   7
   2 -11  -5 415.440  45.797   1
   2 -11  -5 521.292  41.138   8
  -2 -11   5 463.826  40.648   1
  -2 -11   5 437.251  44.834   5
  -2 -11   5 477.518  38.537   6
   2 -11  -5 406.671  51.899   5
  -2  11   5 494.624  45.866   3
   2  11  -5 489.132  40.928   8
  -2  11   5 528.148  45.428   7
   2  11  -5 458.789  46.616   4
  -2  11   5 581.899  47.566   1
  -2  11   5 487.996  44.959   5
   1 -11  -5 20.5831 13.8925   5
   1 -11  -5 9.92441 6.63303   8
  -1 -11   5 11.0465  5.5509   6
   1 -11  -5 11.5013  9.6175   7
  -1 -11   5 11.9899  8.2941   5
  -1 -11   5 8.56244 7.01339   1
  -1 -11   5 4.42655 6.86350   7
  -1 -11   5 22.2356  9.5700   6
   1 -11  -5 17.7689 11.1987   1
   1  11  -5 12.7549 10.1561   4
  -1  11   5 5.72487 7.38337   5
   1  11  -5 7.63188 7.30829   7
   1  11  -5 17.5141  8.6032   8
  -1  11   5 26.6135 10.1807   7
   0 -11  -5 296.836  34.778   1
   0 -11  -5 352.328  34.421   7
   0 -11  -5 308.807  41.664   5
   0 -11   5 355.035  33.315   6
   0 -11   5 313.855  31.698   1
   0 -11   5 334.123  32.324   7
   0 -11   5 328.977  35.063   5
   0  11   5 326.690  34.363   7
   0  11  -5 320.781  32.309   7
   0  11   5 337.295  32.665   5
   1 -11   5 206.829  22.478   1
   1 -11   5 117.496  21.422   5
  -1 -11  -5 135.933  28.113   5
  -1 -11  -5 211.450  25.080   1
   1  11   5 156.359  23.429   7
  -1  11  -5 156.183  20.760   7
   2 -11   5 459.506  42.986   1
   2 -11   5 392.454  44.847   5
  -2 -11  -5 519.433  45.734   1
  -2  11  -5 416.602  42.339   2
   5 -12  -5 679.197  62.616   7
  -5 -12   5 795.725  65.019   9
  -5 -12   5 775.880  63.838   5
   5  12  -5 684.766  65.644   4
  -5  12   5 693.285  63.604   1
  -5  12   5 648.995  65.278   5
  -4 -12   5 -2.6964  4.4967   1
   4 -12  -5 11.8539  7.9534   7
  -4 -12   5 0.99755 7.56876   5
   4 -12  -5 -2.1357 11.9942   5
  -4  12   5 6.55098 8.63798   1
  -4  12   5 -6.1698  7.8499   5
   4  12  -5 -3.3949  9.5440   4
  -3 -12   5 1310.16  119.26   9
  -3 -12   5 1312.09  104.61   1
  -3 -12   5 1369.66  105.40   7
   3 -12  -5 1397.43  121.91   5
   3 -12  -5 1314.20  108.99   7
  -3 -12   5 1229.10  113.71   5
  -3 -12   5 1359.14  101.63   6
  -3 -12   5 1361.47  101.25   6
   3  12  -5 1317.49  105.43   8
  -3  12   5 1524.68  111.96   1
   3  12  -5 1312.06  117.56   4
  -3  12   5 1376.28  114.39   5
  -2 -12   5 24.3272  9.1980   7
  -2 -12   5 21.6922  7.9919   1
  -2 -12   5 26.7487  8.5377   6
  -2 -12   5 34.1987 11.1006   5
   2 -12  -5 27.7011 15.9135   5
   2 -12  -5 31.6263 11.4196   7
  -2 -12   5 25.5171 11.6212   9
  -2 -12   5 29.3047  6.3547   6
   2 -12  -5 31.5315  9.1601   8
   2  12  -5 11.3050 12.1720   4
  -2  12   5 28.9841 10.8602   5
  -2  12   5 22.5169  9.8859   7
  -1 -12   5 65.2940 14.7611   5
   1 -12  -5 86.7443 18.8161   1
  -1 -12   5 63.1118 13.7624   6
  -1 -12   5 77.8929 10.4244   6
  -1 -12   5 70.6069 13.3962   7
  -1 -12   5 63.0630 12.4532   1
   1 -12  -5 106.998  25.521   5
  -1  12   5 77.3454 15.9554   7
  -1  12   5 83.7386 14.3962   5
   0 -12   5 1.41584 8.48893   5
   0 -12   5 4.14032 8.16075   1
   0 -12  -5 -18.695  10.648   5
   0 -12  -5 4.60365 9.38628   1
   0  12   5 -9.0724  6.9876   7
   0  12  -5 -4.8517  8.1221   7
   0  12   5 1.05817 6.94080   5
  -1 -12  -5 1240.92  121.52   5
   1 -12   5 1298.57  108.09   1
  -1 -12  -5 1346.93  110.76   1
   1 -12   5 1335.17  116.01   5
  -1  12  -5 1317.19  107.75   7
   1  12   5 1416.62  111.27   7
  -4 -13   5 558.676  49.290   5
   4 -13  -5 545.231  56.075   5
  -4 -13   5 505.655  41.816   1
  -4  13   5 484.435  49.310   1
   4  13  -5 486.216  50.527   4
  -4  13   5 518.340  50.082   5
  -3 -13   5 470.041  50.468   9
   3 -13  -5 466.039  53.395   5
  -3 -13   5 476.781  46.687   5
  -3 -13   5 513.311  41.550   7
  -3 -13   5 450.775  36.956   6
  -3 -13   5 464.583  40.652   1
  -3  13   5 541.656  47.161   5
   3  13  -5 499.980  48.705   4
  -2 -13   5 342.144  33.429   6
   2 -13  -5 368.033  46.599   5
  -2 -13   5 402.118  39.676   5
  -2 -13   5 402.375  32.004   6
  -2 -13   5 401.272  34.553   1
   2  13  -5 342.701  40.523   4
  -2  13   5 369.483  37.534   5
   1 -13  -5  8.1849 10.8643   1
  -1 -13   5 -9.1051  6.8790   1
  -1 -13   5 -1.0917  7.9763   6
  -1 -13   5 -1.6239  9.0930   5
   1 -13  -5  5.1538 14.0690   5
  -1  13   5 2.54073 8.30406   5
   0 -13  -5 287.140  34.816   1
   0 -13   5 358.022  32.388   1
   0 -13   5 223.169  32.406   5
   0 -13  -5 379.312  45.152   5
  -9   0   6 5.81678 8.99476   2
  -8   0   6 473.279  43.045   9
  -8   0   6 485.242  42.221   5
  -8   0   6 483.748  42.085   9
  -8   0   6 434.949  43.421   2
  -7   0   6 6.71272 5.05847   9
  -7   0   6 6.03322 3.05209  10
  -7   0   6 0.19024 4.97797   5
  -7   0   6 -2.4382  6.1412   2
  -6   0   6 160.465  13.066  10
  -6   0   6 139.307  13.073   1
  -6   0   6 159.018  13.159   1
  -6   0   6 147.935  15.986   5
  -6   0   6 145.097  16.881   9
   5   0  -6 -2.6992  3.0615   7
  -5   0   6 -1.5138  3.3844   1
   5   0  -6 -1.1001  5.0707   8
  -5   0   6 -3.3706  4.5506   1
  -5   0   6 1.50863 4.05216   5
  -5   0   6 -5.6676  4.6525   9
  -5   0   6 12.3086  3.8559  10
  -4   0   6 19.9647  7.2903   9
   4   0  -6 16.7105  5.5658   3
  -4   0   6 26.9980  6.0267   5
   4   0  -6 29.3367  8.0400   4
  -4   0   6 22.4809  4.7772  10
  -4   0   6 13.6586  5.7996   6
   4   0  -6 14.7714  5.0170   7
  -4   0   6 20.0730  5.6507   7
   4   0  -6 26.4280  6.6200   8
  -4   0   6 19.0656  6.2494   1
  -4   0   6 16.2714  5.2562   1
  -3   0   6 1.83373 4.02531   7
   3   0  -6 -0.1173  4.5505   1
  -3   0   6 -1.1466  2.5384   3
   3   0  -6 7.70896 4.73839   9
   3   0  -6 2.97665 4.01178   3
   3   0  -6 -4.7032  5.3630   4
  -3   0   6 -2.8163  3.8588   5
  -3   0   6 1.81383 4.41837   1
  -3   0   6 -1.2679  5.0955   9
   3   0  -6 -4.9407  3.2502   7
  -3   0   6 7.60263 5.26082   1
  -3   0   6 1.90192 4.57998   6
  -3   0   6 -1.2311  3.1823  10
  -3   0   6 -0.3573  5.1882   9
   3   0  -6 -4.5621  4.5668   8
  -2   0   6 102.172  15.038   9
   2   0  -6 105.999  12.125   8
  -2   0   6 100.065  12.756   5
   2   0  -6 92.9612 14.2041   9
   2   0  -6 82.3300 13.8269   4
  -2   0   6 107.159  12.668   1
  -2   0   6 98.1909 12.4034   1
  -2   0   6 130.417  12.641   6
  -2   0   6 99.2121 11.5910   7
  -2   0   6 125.521  11.239  10
  -2   0   6 111.032  12.072   3
   2   0  -6 118.464  12.556   6
   2   0  -6 120.570  13.753   1
   2   0  -6 131.942  13.523   3
  -2   0   6 128.863  15.668   9
  -2   0   6 101.066  11.693   3
  -1   0   6 3.60895 4.01275   6
  -1   0   6 -0.4160  4.8077   5
   1   0  -6 2.39428 4.20043   7
   1   0  -6 0.48497 4.19123   6
  -1   0   6 0.90871 5.60803   9
   1   0  -6 9.22010 4.59149   3
   1   0  -6 -4.9489  5.5948   9
   1   0  -6 3.99144 5.18078   8
   1   0  -6 2.59569 4.07330  10
   1   0  -6 -0.6907  5.9842   4
   1   0  -6 -2.6004  5.5956   9
  -1   0   6 -4.2809  3.5012   8
  -1   0   6 5.17860 5.21919   1
  -1   0   6 1.56452 3.98998   3
  -1   0   6 1.33038 3.73781  10
   1   0  -6 2.83880 5.01500   1
  -1   0   6 -1.6118  6.4185   9
  -1   0   6 1.76655 3.92060   8
   0   0   6 2497.42  177.35   6
   0   0  -6 2412.53  177.86   8
   0   0   6 2088.37  189.22   5
   0   0  -6 2440.48  178.15   7
   0   0   6 2070.16  177.50   8
   0   0  -6 2669.22  196.36   4
   0   0   6 2375.29  178.61   1
   0   0   6 2478.04  197.98   9
   0   0  -6 2240.19  179.61   1
   0   0   6 2110.07  184.65   3
  -1   0  -6 -0.1350  6.6854   1
  -1   0  -6 8.87944 6.74032   8
   1   0   6 -1.1736  4.0400   3
   1   0   6 -1.5138  5.2604   8
   1   0   6 0.60942 5.58010   1
  -1   0  -6 -1.0309  4.7314   7
   1   0   6 3.67923 5.51152   5
  -2   0  -6 171.871  21.493   1
   2   0   6 184.484  19.353   3
  -2   0  -6 198.432  19.464   8
   2   0   6 189.713  20.577   1
   2   0   6 168.375  20.637   5
   2   0   6 198.108  19.274   8
  -2   0  -6 177.300  19.439   7
   3   0   6 -0.7341  6.9306   8
  -3   0  -6 1.09493 7.09960   1
   3   0   6 2.71215 6.97488   5
  -3   0  -6 -4.5124  5.1141   7
  -3   0  -6 2.09854 6.70313   2
  -4   0  -6 1126.97   93.21   1
  -4   0  -6 1125.98   91.72   2
  -9  -1   6 22.0123 11.4858   2
  -9   1   6 66.9488 11.4597   5
  -9   1   6 26.1629 11.2956   2
  -8  -1   6 44.3724  8.5065   5
  -8  -1   6 42.5624 11.5339   2
  -8  -1   6 38.1555  6.4786   9
  -8   1   6 59.2565 10.2146   5
  -8   1   6 55.2772  9.3402   9
  -8   1   6 32.2966 10.3307   9
  -8   1   6 40.0426  5.2996  10
  -8   1   6 37.2566 11.4338   2
  -7  -1   6 107.639  12.820   9
  -7  -1   6 117.718  13.040   5
  -7   1   6 102.660  16.619   9
  -7   1   6 120.698  16.370   2
  -7   1   6 108.654  14.298   9
  -7   1   6 107.368  13.442   5
  -7   1   6 113.228  10.379  10
  -6  -1   6 7.48083 4.44176   5
  -6  -1   6 -0.5825  4.5746   9
  -6   1   6 4.76187 5.05966   5
  -6   1   6 1.08719 3.41719   1
  -6   1   6 3.04623 3.17063  10
  -6   1   6 3.85481 6.38408   2
  -6   1   6 7.28159 4.41770   1
  -6   1   6 2.20941 5.93176   9
  -5  -1   6 477.984  41.990   9
  -5  -1   6 442.228  39.320   5
   5  -1  -6 431.478  37.220   7
  -5  -1   6 514.514  33.878  10
  -5  -1   6 462.324  36.499   1
   5  -1  -6 472.097  38.248   8
  -5  -1   6 459.422  37.353   1
  -5   1   6 467.634  35.123   6
  -5   1   6 474.542  38.681   1
  -5   1   6 432.648  42.482   9
   5   1  -6 442.951  37.064   8
  -5   1   6 416.044  39.726   5
  -5   1   6 438.020  34.096  10
   5   1  -6 424.011  41.323   4
  -5   1   6 501.903  37.893   1
  -4  -1   6 1050.87   96.16   9
  -4  -1   6 971.227  86.824   1
   4  -1  -6 1038.86   90.92   3
  -4  -1   6 1145.33   86.77   1
  -4  -1   6 1330.73   86.92   7
   4  -1  -6 1268.64   97.27   4
   4  -1  -6 1178.88   86.93   7
  -4  -1   6 1108.79   85.91   6
   4  -1  -6 1085.44   95.20   5
  -4  -1   6 1209.08   92.42   5
  -4  -1   6 1001.49   84.56   6
   4  -1  -6 1094.37   87.87   8
  -4  -1   6 1307.28   79.94  10
  -4  -1   6 1143.63   96.45   9
  -4   1   6 1067.33   96.80   9
  -4   1   6 1049.10   79.89  10
  -4   1   6 1057.42   87.65   1
  -4   1   6 1118.83   87.44   6
  -4   1   6 1304.80   87.85   7
   4   1  -6 1116.58   86.92   8
  -4   1   6 1011.85   92.21   5
   4   1  -6 1281.15   90.84   3
  -4   1   6 1058.73   88.06   3
   4   1  -6 1049.07   95.68   4
   4   1  -6 1080.78   86.33   7
  -4   1   6 1095.12   87.35   1
  -3  -1   6 140.401  14.508  10
   3  -1  -6 155.884  19.577   4
  -3  -1   6 180.353  16.265   3
   3  -1  -6 165.526  19.274   9
  -3  -1   6 167.878  16.892   1
   3  -1  -6 208.002  18.072   8
   3  -1  -6 174.298  18.232   1
  -3  -1   6 159.876  16.409   6
  -3  -1   6 166.685  19.296   9
  -3  -1   6 194.703  15.615   3
  -3  -1   6 177.326  17.848   5
  -3  -1   6 165.418  16.952   1
  -3  -1   6 181.041  16.360   7
  -3  -1   6 145.816  19.265   9
   3  -1  -6 163.941  17.257   3
   3  -1  -6 190.302  17.021   7
  -3   1   6 180.584  16.892   7
   3   1  -6 158.984  16.941   3
  -3   1   6 166.393  17.699   1
  -3   1   6 184.375  16.463   3
  -3   1   6 166.071  17.022   3
  -3   1   6 184.307  15.565  10
   3   1  -6 158.101  16.322   8
  -3   1   6 146.705  19.554   9
  -3   1   6 172.058  17.512   6
  -3   1   6 164.858  20.171   9
   3   1  -6 174.513  18.882   9
   3   1  -6 165.769  19.153   4
  -3   1   6 203.408  18.017   5
   2  -1  -6 57.3319  9.3502   8
   2  -1  -6 60.1319  8.8411   7
  -2  -1   6 65.6265  9.4302   1
   2  -1  -6 74.2456 10.7592   1
  -2  -1   6 64.1379 11.3900   9
  -2  -1   6 62.2706  9.6622   5
  -2  -1   6 61.9562  8.4503   3
   2  -1  -6 64.0183 11.3066   4
  -2  -1   6 67.7754  8.4949   7
   2  -1  -6 71.9460 11.6491   9
  -2  -1   6 77.0323  8.6089   3
   2  -1  -6 67.2276  9.8048   3
   2  -1  -6 67.9506 12.6161   9
  -2  -1   6 65.8441  8.7941   6
  -2  -1   6 52.1598 11.6187   9
   2  -1  -6 76.6048  9.7405   6
  -2   1   6 66.7375  8.3450  10
  -2   1   6 76.5554  9.5171   7
  -2   1   6 74.5254 10.0782   1
   2   1  -6 84.7996  9.8267   3
   2   1  -6 77.5657  9.6719   6
  -2   1   6 65.8202 12.4531   9
  -2   1   6 67.5181  6.6483   8
  -2   1   6 61.7274 10.2336   1
   2   1  -6 63.8582 11.0615   9
   2   1  -6 66.6094 11.2218   4
  -2   1   6 53.4761  8.8458   6
  -2   1   6 46.8681  9.0951   5
   2   1  -6 70.9609  8.8489   8
  -2   1   6 61.5827  9.0444   3
   2   1  -6 61.6367  8.6633   7
  -2   1   6 65.5027  6.8213   8
   2   1  -6 51.1693  9.5685   1
  -2   1   6 54.3042 11.2991   9
   1  -1  -6 686.597  60.266   9
   1  -1  -6 637.018  52.960   8
  -1  -1   6 571.864  56.707   5
  -1  -1   6 701.449  54.293   1
  -1  -1   6 646.549  51.905   8
  -1  -1   6 730.659  60.800   9
   1  -1  -6 542.781  55.038   3
  -1  -1   6 737.695  52.013   8
   1  -1  -6 791.858  60.968   4
  -1  -1   6 623.912  53.025   6
   1  -1  -6 607.486  53.445   7
   1  -1  -6 695.257  53.743   6
   1  -1  -6 653.487  61.319   9
  -1  -1   6 745.648  55.520   3
  -1  -1   6 773.789  61.888   9
   1  -1  -6 681.609  55.525   1
  -1   1   6 656.406  49.349  10
  -1   1   6 606.146  52.345   8
  -1   1   6 642.417  55.428   3
  -1   1   6 612.706  53.838   1
   1   1  -6 788.335  60.943   9
   1   1  -6 616.896  59.446   4
  -1   1   6 704.463  61.560   9
   1   1  -6 593.413  52.695   8
  -1   1   6 661.517  52.297   8
   1   1  -6 672.151  61.066   9
   1   1  -6 685.467  55.272   1
   1   1  -6 655.733  53.512   7
  -1   1   6 728.439  53.854   6
  -1   1   6 819.158  61.970   9
  -1   1   6 565.805  56.686   5
   0  -1  -6 384.348  39.955   4
   0  -1   6 381.927  34.423   8
   0  -1  -6 394.679  35.509   7
   0  -1   6 339.353  37.458   5
   0  -1   6 450.558  35.477   6
   0  -1  -6 475.425  35.309   8
   0  -1   6 414.220  41.290   9
   0  -1  -6 447.317  37.832   1
   0  -1   6 401.495  36.169   3
   0  -1   6 423.839  36.179   1
   0   1  -6 445.432  35.682   7
   0   1   6 499.604  37.446   3
   0   1   6 381.124  34.652   8
   0   1  -6 411.129  37.239   1
   0   1   6 402.562  35.535   6
   0   1   6 400.710  36.251   1
   0   1  -6 409.046  34.890   8
   0   1   6 466.644  38.550   5
   0   1  -6 429.348  40.085   4
   0   1   6 433.034  42.152   9
   1  -1   6 1384.95  106.19   5
   1  -1   6 1213.59  102.50   3
  -1  -1  -6 1195.53   98.30   8
  -1  -1  -6 1263.16   99.07   7
  -1  -1  -6 1371.05  101.71   1
   1  -1   6 1177.01   98.57   8
   1  -1   6 1430.34  100.44   1
   1   1   6 1163.05   99.46   1
  -1   1  -6 1218.11   99.17   7
   1   1   6 1237.16   98.86   8
   1   1   6 1283.44  105.58   5
  -1   1  -6 1239.05   98.46   8
  -1   1  -6 1364.91  101.69   1
   2  -1   6 249.789  26.246   5
   2  -1   6 233.366  24.181   8
   2  -1   6 343.401  27.236   1
  -2  -1  -6 257.321  26.598   1
   2  -1   6 268.223  25.226   3
  -2  -1  -6 263.968  23.897   8
  -2  -1  -6 207.681  23.552   7
  -2   1  -6 304.923  24.944   8
  -2   1  -6 250.894  27.045   1
   2   1   6 220.946  24.073   8
   2   1   6 253.705  25.570   1
   2   1   6 277.008  26.762   5
  -2   1  -6 253.698  24.857   7
   2   1   6 224.510  24.286   3
  -3  -1  -6 43.7211  9.9893   7
  -3  -1  -6 49.4779 10.1611   2
  -3  -1  -6 39.3564 11.9092   1
   3  -1   6 49.4542 11.0582   5
   3  -1   6 45.3184 10.3308   8
  -3   1  -6 50.8233 10.9807   2
  -3   1  -6 48.8600 10.3461   7
   3   1   6 48.1452 10.1430   8
  -3   1  -6 48.6002 12.7871   1
   3   1   6 43.0310 10.0634   5
  -4  -1  -6 213.573  23.856   1
  -4   1  -6 150.888  22.497   1
  -4   1  -6 162.632  20.327   2
  -9   2   6 -0.0684  3.0330  10
  -8   2   6 348.518  40.317   9
  -8   2   6 415.733  39.048   9
  -8   2   6 343.972  37.930   2
  -8   2   6 416.398  30.500  10
  -8   2   6 482.493  38.743   5
  -7  -2   6 362.437  34.671   9
  -7  -2   6 412.165  34.568   5
  -7   2   6 410.424  31.825   1
  -7   2   6 363.076  36.235   5
  -7   2   6 398.049  38.462   9
  -7   2   6 414.319  31.882   1
  -7   2   6 401.135  37.673   2
  -7   2   6 401.653  30.191  10
  -7   2   6 432.794  41.016   9
   6  -2  -6 483.781  36.848   8
  -6  -2   6 383.264  39.351   9
  -6  -2   6 458.809  38.079   5
  -6   2   6 451.476  36.494   1
  -6   2   6 406.528  33.210  10
  -6   2   6 462.782  42.530   9
  -6   2   6 418.175  39.927   2
  -6   2   6 497.886  37.312   1
  -6   2   6 440.631  39.639   5
  -5  -2   6 919.585  67.856   1
  -5  -2   6 838.803  76.275   9
   5  -2  -6 894.103  69.516   7
  -5  -2   6 909.328  73.263   5
   5  -2  -6 1005.40   70.87   8
  -5   2   6 823.652  70.641   1
  -5   2   6 928.849  78.617   9
   5   2  -6 800.872  75.709   4
  -5   2   6 868.564  63.850  10
  -5   2   6 812.608  67.916   6
  -5   2   6 1037.13   74.79   5
  -5   2   6 829.201  72.882   2
   5   2  -6 891.368  68.457   8
  -5   2   6 856.270  69.728   1
   4  -2  -6 1073.47   76.36   3
   4  -2  -6 870.320  72.777   8
   4  -2  -6 834.843  80.153   4
   4  -2  -6 897.541  79.683   5
  -4  -2   6 837.673  69.552   6
  -4  -2   6 819.213  68.926   6
  -4  -2   6 886.423  75.807   5
  -4  -2   6 888.908  79.414   9
  -4  -2   6 949.881  71.113   1
  -4  -2   6 843.379  71.307   1
   4  -2  -6 1038.19   72.29   7
  -4  -2   6 1004.50   79.58   9
   4   2  -6 975.117  71.326   8
  -4   2   6 983.749  72.736   7
  -4   2   6 934.858  76.447   5
  -4   2   6 1043.67   81.87   9
  -4   2   6 867.380  73.140   3
   4   2  -6 877.162  70.845   7
   4   2  -6 909.210  74.300   3
  -4   2   6 909.874  72.889   3
   4   2  -6 923.123  78.718   4
  -4   2   6 1006.84   72.79   1
   4   2  -6 944.890  70.946   8
  -4   2   6 898.776  66.105  10
  -4   2   6 768.613  72.115   6
  -4   2   6 933.095  72.892   1
   3  -2  -6 663.143  53.239   1
   3  -2  -6 635.589  57.267   9
   3  -2  -6 650.289  57.978   4
   3  -2  -6 567.722  51.595   8
  -3  -2   6 662.196  57.477   9
  -3  -2   6 697.246  57.572   9
  -3  -2   6 628.140  51.041   1
  -3  -2   6 622.549  50.138   6
   3  -2  -6 689.932  51.429   7
  -3  -2   6 679.856  51.484   3
  -3  -2   6 579.150  50.705   1
  -3  -2   6 599.200  50.148   7
   3  -2  -6 648.432  53.916   3
  -3  -2   6 669.873  49.858   6
  -3  -2   6 549.387  53.688   5
  -3  -2   6 634.992  50.888   3
   3   2  -6 650.302  50.672   7
  -3   2   6 692.740  47.380  10
  -3   2   6 627.033  54.317   5
  -3   2   6 562.675  51.979   1
  -3   2   6 690.749  58.802   9
   3   2  -6 677.878  53.003   3
  -3   2   6 671.986  51.701   7
   3   2  -6 722.592  56.873   4
   3   2  -6 607.131  50.384   8
  -3   2   6 514.842  51.226   6
  -3   2   6 604.155  53.411   3
  -2  -2   6 678.910  59.591   9
   2  -2  -6 645.985  54.909   1
  -2  -2   6 675.492  56.941   5
   2  -2  -6 829.974  63.104   9
   2  -2  -6 599.954  59.522   4
   2  -2  -6 689.634  53.761   7
   2  -2  -6 660.440  53.553   8
   2  -2  -6 645.894  56.008   3
  -2  -2   6 649.761  53.390   1
   2  -2  -6 683.012  60.149   9
  -2  -2   6 747.920  53.094   7
  -2  -2   6 584.170  59.680   9
  -2  -2   6 653.056  52.515   6
  -2  -2   6 718.411  54.723   3
  -2  -2   6 674.603  54.442   3
  -2   2   6 658.203  51.425   8
  -2   2   6 660.090  61.088   9
  -2   2   6 624.249  53.609   6
  -2   2   6 707.149  49.550  10
  -2   2   6 755.765  51.743   8
   2   2  -6 661.094  59.267   4
   2   2  -6 626.449  55.021   3
  -2   2   6 667.849  60.810   9
   2   2  -6 696.428  54.805   1
  -2   2   6 598.406  56.444   5
   2   2  -6 714.646  59.811   9
   2   2  -6 620.811  52.578   8
  -2   2   6 599.304  55.292   3
  -2   2   6 566.502  53.732   1
   2   2  -6 639.286  52.905   7
  -1  -2   6 41.6623  6.8894   3
  -1  -2   6 45.8445  7.3617   6
   1  -2  -6 47.2927  8.3480   3
   1  -2  -6 36.4009  9.7780   9
   1  -2  -6 51.7037  8.5157   7
  -1  -2   6 37.6129  9.8208   9
  -1  -2   6 38.6353 10.3364   9
  -1  -2   6 37.8551  5.5424   8
  -1  -2   6 32.4200  7.8805   5
  -1  -2   6 31.1572  7.3413   1
   1  -2  -6 53.4266  9.7627   1
   1  -2  -6 31.5933  8.9669   4
   1  -2  -6 47.3004 11.8148   9
   1  -2  -6 50.5133  7.9108   8
  -1  -2   6 45.1138  5.6316   8
  -1   2   6 42.8066  6.9222   8
  -1   2   6 41.9568  7.8147   6
  -1   2   6 47.7813  8.4465   5
  -1   2   6 35.8657  6.9425  10
  -1   2   6 22.8214  8.7055   9
   1   2  -6 38.7245  7.1421   8
   1   2  -6 35.2508  9.1425   4
   1   2  -6 36.2242  8.5891   1
   1   2  -6 39.7420  9.9637   9
  -1   2   6 43.4535  7.7806   3
  -1   2   6 32.9118 10.9419   9
  -1   2   6 25.9612  7.5019   1
   1   2  -6 32.4232  6.9363   7
   0  -2   6 60.1229 10.8105   5
   0  -2   6 64.0681  8.9673   8
   0  -2  -6 86.0985 12.5749   1
   0  -2  -6 60.5905  9.7812   8
   0  -2   6 83.4595 13.9191   9
   0  -2   6 88.0493 10.1309   3
   0  -2  -6 60.7504  9.9648   7
   0  -2   6 79.0413  9.9962   6
   0  -2  -6 79.7397 13.2945   4
   0  -2   6 80.4669 11.2718   1
   0   2  -6 70.8898  9.8893   8
   0   2   6 59.1717  9.8415   3
   0   2   6 87.9148 15.0246   9
   0   2   6 62.9197 10.8359   5
   0   2   6 69.9208 11.0409   1
   0   2  -6 68.9630 10.0822   7
   0   2  -6 70.8883 12.9239   4
   0   2  -6 68.8715 11.7442   1
   1  -2   6 1061.14   85.15   5
  -1  -2  -6 1024.61   81.55   1
  -1  -2  -6 1035.47   78.54   8
   1  -2   6 971.596  81.972   3
   1  -2   6 1183.74   80.95   1
  -1  -2  -6 894.962  78.949   7
   1  -2   6 990.663  78.693   8
  -1   2  -6 983.786  79.394   7
  -1   2  -6 1162.52   82.24   1
   1   2   6 923.327  83.921   5
   1   2   6 1019.00   82.40   3
  -1   2  -6 863.519  78.357   8
   1   2   6 969.480  80.001   1
  -2  -2  -6 -5.7156  7.2969   8
   2  -2   6 5.45561 6.86218   1
   2  -2   6 2.69807 5.53783   3
  -2  -2  -6 2.89827 5.15067   7
   2  -2   6 10.1165  6.9036   8
  -2  -2  -6 7.44018 7.45905   1
  -2  -2  -6 10.9222  7.2311   2
   2  -2   6 8.56637 7.62150   5
   2   2   6 12.5023  5.8636   3
  -2   2  -6 0.29176 7.24322   1
  -2   2  -6 15.1915  6.4785   7
  -2   2  -6 29.0964  8.3227   8
   2   2   6 13.8875  7.0034   5
   3  -2   6 20.1864  8.8317   5
   3  -2   6 13.9590  7.7522   8
  -3  -2  -6 11.6844  9.0444   1
  -3  -2  -6 11.5690  6.7892   7
  -3   2  -6 14.3665  7.2614   7
  -3   2  -6 16.2497  8.5382   2
   3   2   6 31.3459  8.5336   5
  -3   2  -6 29.8422 11.1281   1
  -4  -2  -6 137.597  20.583   1
  -4   2  -6 153.083  21.907   1
  -4   2  -6 155.808  19.311   2
  -8   3   6 -6.0015  7.7553   2
  -8   3   6 0.93927 4.23019  10
  -8   3   6 9.86761 7.39059   9
  -8   3   6 -7.6124  9.9922   9
  -8   3   6 7.57701 7.96498   5
  -7  -3   6 1490.83  109.82   5
  -7   3   6 1308.93  103.90   1
  -7   3   6 1388.87   96.42  10
  -7   3   6 1101.59  109.00   2
  -7   3   6 1510.01  119.95   9
  -7   3   6 1421.80  112.73   5
  -7   3   6 1217.33  116.72   9
  -6  -3   6 102.748  11.960   9
   6  -3  -6 127.569  13.131   8
  -6  -3   6 95.4317 11.3198   5
  -6   3   6 115.392  13.192   1
  -6   3   6 109.827  15.759   9
   6   3  -6 93.7266 12.0162   4
  -6   3   6 85.6094 12.9790   5
  -6   3   6 117.652  11.207  10
  -6   3   6 101.138  15.059   2
  -5  -3   6 559.712  48.266   5
  -5  -3   6 595.335  44.020   1
   5  -3  -6 541.446  46.280   7
  -5  -3   6 549.032  50.358   9
   5  -3  -6 587.908  47.650   8
  -5  -3   6 648.094  51.237   9
   5   3  -6 512.424  49.863   4
  -5   3   6 572.312  49.744   5
  -5   3   6 601.949  53.946   9
  -5   3   6 565.940  42.723  10
  -5   3   6 543.088  47.829   1
  -5   3   6 598.280  46.122   6
  -5   3   6 551.015  49.283   2
   4  -3  -6 170.293  17.573   7
  -4  -3   6 156.085  19.517   9
  -4  -3   6 176.332  16.823   1
   4  -3  -6 179.656  19.265   8
  -4  -3   6 174.199  19.599   9
  -4  -3   6 204.369  16.858   1
   4  -3  -6 201.006  22.940   5
   4  -3  -6 159.396  21.525   4
   4  -3  -6 190.882  19.389   3
  -4  -3   6 173.118  18.016   5
   4   3  -6 175.726  16.433   7
  -4   3   6 183.789  18.840   5
  -4   3   6 208.578  22.972   9
   4   3  -6 187.762  16.713   8
  -4   3   6 169.832  15.945  10
   4   3  -6 167.939  16.332   8
  -4   3   6 190.958  19.514   1
  -4   3   6 132.863  18.356   6
   4   3  -6 213.043  19.689   4
  -3  -3   6 1456.99  123.32   9
  -3  -3   6 1663.43  110.48   6
  -3  -3   6 1552.53  110.44   6
   3  -3  -6 1495.21  114.31   1
   3  -3  -6 1274.20  123.40   9
   3  -3  -6 1664.71  118.42   3
  -3  -3   6 1413.83  110.88   7
   3  -3  -6 1312.58  113.03   8
   3  -3  -6 1404.12  112.27   7
  -3  -3   6 1423.13  111.56   1
   3  -3  -6 1388.42  124.83   4
  -3  -3   6 1534.51  123.97   9
  -3  -3   6 1307.11  118.72   5
  -3  -3   6 1554.55  114.13   3
  -3  -3   6 1257.39  111.07   1
   3   3  -6 1462.21  111.31   8
   3   3  -6 1609.09  116.43   3
  -3   3   6 1399.81  113.36   1
   3   3  -6 1377.67  122.73   4
  -3   3   6 1318.70  112.73   6
  -3   3   6 1368.46  103.46  10
  -3   3   6 1604.91  117.93   3
   3   3  -6 1524.75  111.50   7
  -3   3   6 1344.46  112.29   7
  -3   3   6 1335.69  119.00   5
  -3   3   6 1741.29  127.23   9
  -2  -3   6 105.761  12.009   6
  -2  -3   6 116.246  13.841   5
   2  -3  -6 107.847  13.268   7
  -2  -3   6 113.558  15.386   9
   2  -3  -6 120.976  14.389   3
  -2  -3   6 103.870  12.676   1
   2  -3  -6 130.489  16.888   9
   2  -3  -6 99.5943 13.2565   8
  -2  -3   6 117.343  11.989   3
  -2  -3   6 126.000  12.452   3
  -2  -3   6 109.671  12.171   7
  -2  -3   6 128.114  15.619   9
   2  -3  -6 144.592  16.259   1
   2  -3  -6 104.583  16.221   4
  -2  -3   6 105.192  12.238   6
  -2   3   6 118.080  14.513   1
   2   3  -6 112.456  12.423   8
  -2   3   6 112.900  14.179   6
   2   3  -6 128.873  15.403   4
  -2   3   6 133.652  12.716  10
  -2   3   6 137.569  18.494   9
   2   3  -6 113.481  12.457   7
  -2   3   6 110.543  11.363   8
  -2   3   6 124.747  14.126   5
  -2   3   6 116.554  11.796   8
  -2   3   6 112.287  13.756   3
   2   3  -6 112.637  15.333   9
   1  -3  -6 30.3312  7.2952   7
   1  -3  -6 36.0146  9.8240   1
  -1  -3   6 31.6532  9.2213   9
  -1  -3   6 29.3866  4.4997   8
   1  -3  -6 27.9470  6.8306   3
  -1  -3   6 37.0316  7.3954   6
  -1  -3   6 32.2658  7.5292   1
  -1  -3   6 29.9326  9.4326   9
   1  -3  -6 26.2415  8.8458   4
  -1  -3   6 26.2734  7.6799   5
  -1  -3   6 24.3312  6.0947   6
   1  -3  -6 25.6494  7.1908   8
  -1  -3   6 31.5740  6.0085   3
  -1  -3   6 28.6830  4.6844   8
  -1   3   6 46.2792 11.9664   9
  -1   3   6 23.3494  6.3256  10
   1   3  -6 54.1678 10.1349   4
  -1   3   6 22.6038  6.9436   5
   1   3  -6 22.9584  6.5306   8
   1   3  -6 14.8927  6.0700   7
   1   3  -6 30.7799  7.8933   1
  -1   3   6 28.0616  7.5260   6
  -1   3   6 29.0216  7.6289   1
  -1   3   6 33.3533  7.3530   3
   0  -3   6 47.4678  7.6790   8
   0  -3  -6 55.2397 10.9591   1
   0  -3  -6 52.6859  8.5250   8
   0  -3   6 46.5072  7.8884   3
   0  -3   6 32.2651 10.8375   9
   0  -3   6 40.7672  8.5484   6
   0  -3   6 42.8547  9.0065   1
   0  -3  -6 38.5133  8.4192   7
   0  -3   6 39.2499  9.3301   5
   0  -3   6 47.3489  8.0332   6
   0   3  -6 48.6093  8.7213   7
   0   3  -6 62.9968  9.0301   8
   0   3   6 62.4477 10.1528   1
   0   3  -6 55.7748 11.2709   4
   0   3  -6 50.8061 10.2817   1
   0   3   6 51.0278  8.8679   3
   0   3   6 68.4498 10.2499   5
   1  -3   6 3.44268 5.55000   1
   1  -3   6 10.2344  5.2856   3
  -1  -3  -6 6.58825 7.21379   1
   1  -3   6 0.13583 5.45392   8
  -1  -3  -6 9.17334 6.04123   7
   1  -3   6 10.4014  6.8965   5
  -1  -3  -6 8.59047 6.38721   8
  -1   3  -6 16.3588  8.3253   8
   1   3   6 3.86881 6.32303   1
   1   3   6 9.50842 5.31577   3
  -1   3  -6 2.32228 5.07460   7
  -1   3  -6 3.29898 6.61461   1
   1   3   6 10.3336  6.2669   5
  -2  -3  -6 24.8386  7.8441   2
   2  -3   6 25.3699  7.6812   3
   2  -3   6 24.5387  9.0727   1
  -2  -3  -6 17.9269  8.3901   8
  -2  -3  -6 18.7733  7.0181   7
   2  -3   6 36.8456  8.1829   8
   2  -3   6 32.9425  9.4665   5
  -2  -3  -6 41.5845 10.7180   1
   2   3   6 38.2994  9.2683   5
  -2   3  -6 38.4581  8.7751   7
  -2   3  -6 38.1621  9.4456   8
  -2   3  -6 48.7621 11.8778   1
   2   3   6 30.4782  7.5625   3
   3  -3   6 74.4778 13.7866   5
  -3  -3  -6 71.4158 14.6077   1
  -3  -3  -6 69.5322 11.6478   7
  -3   3  -6 35.7102 12.1113   8
  -3   3  -6 89.3916 14.6307   2
  -3   3  -6 61.1787 11.9557   7
   3   3   6 71.0763 12.2919   5
  -3   3  -6 81.9654 15.0682   1
  -4  -3  -6 182.138  23.614   1
  -4   3  -6 181.299  24.472   1
  -4   3  -6 189.615  22.665   2
  -8   4   6 1124.09  101.62   5
  -8   4   6 1348.22  107.07   9
  -8   4   6 1304.07  100.69   2
  -8   4   6 1231.46  108.52   9
  -8   4   6 1137.93   92.31   1
  -8   4   6 1167.46   86.31  10
   7  -4  -6 25.4458  7.3544   8
  -7  -4   6 10.8237  4.2908   5
   7   4  -6 14.4269  5.0607   4
  -7   4   6 8.62323 8.77404   9
  -7   4   6 15.8207  5.4441  10
  -7   4   6 6.26103 8.22616   2
  -7   4   6 12.7543  7.7621   5
  -7   4   6 17.1651 10.9680   9
  -7   4   6 8.91050 5.55338   1
  -6  -4   6 2.40164 3.81488   5
  -6  -4   6 6.12854 4.62402   9
   6  -4  -6 10.1086  6.8593   8
  -6   4   6 -0.4980  5.6837   2
   6   4  -6 8.61034 5.00932   4
  -6   4   6 4.20864 4.52185  10
  -6   4   6 1.45595 3.56435   6
  -6   4   6 6.55507 5.99011   5
  -6   4   6 1.72042 6.89453   9
  -6   4   6 13.5592  7.5407   1
   5  -4  -6 56.7774  8.9973   7
  -5  -4   6 43.5086  8.5230   9
   5  -4  -6 61.7619 10.6748   8
  -5  -4   6 52.0037  8.7160   9
  -5  -4   6 45.2784  7.4810   5
  -5   4   6 43.5344  9.1987   5
  -5   4   6 57.0590  9.2257   6
   5   4  -6 37.9952  8.0877   4
  -5   4   6 67.6197 13.4134   9
  -5   4   6 65.2853 10.7816   2
  -5   4   6 51.3425  7.8666  10
  -5   4   6 34.2220  9.8215   1
   4  -4  -6 1077.32   83.77   7
   4  -4  -6 1131.02   88.94   3
   4  -4  -6 848.446  91.641   5
  -4  -4   6 1118.32   82.18   1
  -4  -4   6 858.086  90.784   9
  -4  -4   6 1156.37   91.60   9
  -4  -4   6 1087.28   88.18   5
  -4  -4   6 1288.27   82.71   1
   4  -4  -6 920.903  93.334   4
   4  -4  -6 965.136  84.587   8
  -4   4   6 1100.28   89.36   5
   4   4  -6 1152.12   82.44   8
   4   4  -6 1085.51   81.98   8
  -4   4   6 1038.39   94.77   9
  -4   4   6 1100.00   85.48   1
  -4   4   6 991.283  84.858   6
   4   4  -6 1011.92   82.39   7
  -4   4   6 1113.47   77.45  10
   4   4  -6 1088.16   90.98   4
  -3  -4   6 296.987  25.781   6
   3  -4  -6 303.472  33.188   4
   3  -4  -6 257.189  28.175   8
  -3  -4   6 333.552  31.270   9
   3  -4  -6 301.558  27.714   7
  -3  -4   6 340.988  30.943   9
  -3  -4   6 284.049  28.563   5
  -3  -4   6 307.499  26.593   1
   3  -4  -6 277.213  29.590   1
  -3  -4   6 300.471  25.559   6
  -3  -4   6 311.941  27.042   1
   3   4  -6 356.831  26.474   8
  -3   4   6 295.316  25.256  10
  -3   4   6 366.133  30.381   6
  -3   4   6 329.155  29.544   1
  -3   4   6 323.017  29.548   5
   3   4  -6 326.927  27.016   7
   3   4  -6 261.749  29.579   4
  -3   4   6 367.824  30.235   3
  -3   4   6 291.190  32.924   9
  -2  -4   6 1096.06  107.04   9
   2  -4  -6 1440.77  102.85   3
  -2  -4   6 1251.18  107.29   9
   2  -4  -6 1183.65  108.14   4
   2  -4  -6 1242.15   97.67   8
  -2  -4   6 1129.49  102.88   5
  -2  -4   6 1223.76   95.94   7
   2  -4  -6 1281.28   99.60   1
  -2  -4   6 1299.14   95.92   6
  -2  -4   6 1444.67   99.97   3
  -2  -4   6 1339.13   96.89   1
   2  -4  -6 1141.40   97.09   7
  -2  -4   6 1173.06   95.24   6
   2   4  -6 1209.01   96.63   7
  -2   4   6 1087.14  102.76   5
  -2   4   6 1295.43   98.23   6
  -2   4   6 1179.84   98.47   1
  -2   4   6 1399.50  102.29   3
   2   4  -6 1301.32  107.38   9
   2   4  -6 1138.53  105.96   4
  -2   4   6 1347.28   96.06   8
   2   4  -6 1189.47   95.98   8
  -2   4   6 1230.64  109.90   9
  -2   4   6 1272.30   90.06  10
   1  -4  -6 680.890  55.876   7
  -1  -4   6 675.970  55.336   1
   1  -4  -6 636.180  54.961   8
  -1  -4   6 640.960  53.946   6
   1  -4  -6 763.219  63.082   4
   1  -4  -6 727.371  58.357   1
  -1  -4   6 768.174  62.694   9
  -1  -4   6 639.155  54.656   6
  -1  -4   6 717.439  59.559   5
  -1  -4   6 659.115  56.055   3
  -1  -4   6 798.237  63.418   9
   1   4  -6 629.472  60.811   4
  -1   4   6 631.057  63.742   9
   1   4  -6 741.364  55.624   7
  -1   4   6 691.406  59.094   5
   1   4  -6 632.225  54.285   8
  -1   4   6 740.433  57.123   1
  -1   4   6 614.402  57.281   3
  -1   4   6 703.591  56.213   6
   0  -4   6 241.862  21.033   3
   0  -4  -6 191.987  20.781   7
   0  -4  -6 228.131  20.385   8
   0  -4   6 255.615  19.595   8
   0  -4   6 198.826  20.903   1
   0  -4   6 230.440  25.657   9
   0  -4   6 182.912  22.098   5
   0  -4   6 186.914  20.657   6
   0  -4  -6 172.099  22.677   1
   0  -4   6 216.942  20.035   6
   0   4  -6 213.636  24.657   4
   0   4  -6 196.339  20.500   7
   0   4  -6 201.873  20.439   8
   0   4   6 239.835  22.157   3
   0   4   6 224.714  22.593   5
   0   4  -6 181.219  21.506   1
   0   4   6 226.603  22.566   1
   1  -4   6 152.079  15.941   8
  -1  -4  -6 173.076  17.344   7
   1  -4   6 172.252  17.091   3
   1  -4   6 150.929  18.877   5
  -1  -4  -6 155.977  19.643   1
  -1  -4  -6 148.516  15.823   8
   1  -4   6 149.167  17.642   1
   1   4   6 135.323  16.739   3
   1   4   6 136.980  17.153   1
  -1   4  -6 109.542  16.219   8
   1   4   6 179.990  18.308   5
  -1   4  -6 150.737  16.941   7
  -1   4  -6 150.279  18.835   1
   2  -4   6 302.811  28.700   3
  -2  -4  -6 312.556  31.042   1
   2  -4   6 270.705  30.389   5
   2  -4   6 332.245  30.400   1
  -2  -4  -6 272.078  27.800   7
   2  -4   6 319.747  28.003   8
  -2   4  -6 303.316  28.783   7
   2   4   6 294.183  29.702   5
  -2   4  -6 306.431  30.630   1
  -2   4  -6 300.460  28.117   8
  -3  -4  -6 48.6586 12.3522   1
   3  -4   6 20.1878  9.2345   5
  -3  -4  -6 19.7122  7.8006   7
  -3   4  -6 22.6484  8.1012   7
  -3   4  -6 20.6002 10.3906   2
  -3   4  -6 20.9642  9.7666   1
  -3   4  -6  1.4087 10.3514   8
  -4  -4  -6 80.1908 16.4018   1
   4  -4   6 71.8395 15.0120   5
  -4   4  -6 79.5490 15.2960   2
  -4   4  -6 82.0237 17.0294   1
   8   5  -6 201.591  20.452   4
  -8   5   6 212.830  25.667   2
  -8   5   6 241.306  28.375   9
  -8   5   6 244.365  20.265  10
  -8   5   6 256.247  26.499   5
  -8   5   6 221.405  21.188   1
   7  -5  -6 79.7638 11.8914   8
  -7   5   6 69.1628  9.8759  10
  -7   5   6 88.1998 16.0456   9
  -7   5   6 73.1533 13.9260   2
  -7   5   6 81.5405 11.4593   1
  -7   5   6 98.3900 14.0611   5
   7   5  -6 64.7637  9.2199   4
   6  -5  -6 21.2985  7.8493   8
  -6  -5   6 8.24662 5.19911   9
  -6  -5   6 10.2155  4.6912   5
  -6   5   6 20.1492  8.2839   5
  -6   5   6 8.33368 8.78798   9
  -6   5   6 7.21030 5.33022  10
   6   5  -6 8.13402 4.99288   4
  -6   5   6 4.58711 7.88610   2
  -6   5   6 14.9211  5.3644   6
  -6   5   6 14.7957  7.7318   1
  -5  -5   6 -0.7842  4.9852   9
  -5  -5   6 11.8902  5.7737   9
  -5  -5   6 4.04141 4.63528   5
   5  -5  -6 4.02671 4.88372   7
   5  -5  -6 6.46382 6.51020   8
  -5   5   6 -2.7408  5.8965   5
  -5   5   6 6.46421 6.22595   2
   5   5  -6 -4.5447  4.9644   4
  -5   5   6 11.4059  7.0881   1
  -5   5   6 6.91505 6.01157   6
  -5   5   6 8.30661 7.85637   9
  -5   5   6 4.97819 4.56581  10
  -4  -5   6 1400.36  115.11   9
   4  -5  -6 1686.26  119.18   5
   4  -5  -6 1424.46  107.13   8
  -4  -5   6 1340.18  111.10   5
  -4  -5   6 1341.70  103.45   1
  -4  -5   6 1164.81  114.69   9
   4  -5  -6 1463.29  106.10   7
  -4  -5   6 1408.99  103.69   1
   4  -5  -6 1464.32  112.17   3
  -4   5   6 1180.43  118.03   9
  -4   5   6 1378.02   97.55  10
  -4   5   6 1362.38  107.23   6
   4   5  -6 1343.40  103.57   8
  -4   5   6 1180.17  111.86   5
   4   5  -6 1200.84  114.16   4
  -4   5   6 1471.28  109.03   2
  -4   5   6 1387.58  107.48   1
  -3  -5   6 943.071  70.305   1
  -3  -5   6 949.411  78.533   9
  -3  -5   6 836.437  69.538   1
  -3  -5   6 886.477  68.787   6
   3  -5  -6 909.221  80.832   5
  -3  -5   6 975.990  68.517   6
  -3  -5   6 890.763  74.785   5
   3  -5  -6 869.974  72.194   8
   3  -5  -6 847.136  71.119   7
  -3  -5   6 811.529  77.384   9
   3  -5  -6 1008.18   76.39   3
   3  -5  -6 768.823  79.707   4
  -3   5   6 953.247  68.264   8
  -3   5   6 846.351  72.147   1
  -3   5   6 852.018  75.457   5
   3   5  -6 964.381  69.428   8
  -3   5   6 854.035  72.804   6
  -3   5   6 817.622  65.382  10
  -3   5   6 841.156  81.254   9
  -3   5   6 947.161  75.249   3
   3   5  -6 923.273  69.941   7
   3   5  -6 808.698  76.663   4
   2  -5  -6 9.60297 8.63113   4
   2  -5  -6 9.86771 5.37307   7
  -2  -5   6 9.45879 6.12733   9
  -2  -5   6 5.98168 4.26809   6
  -2  -5   6 5.53657 5.23468   5
   2  -5  -6 -1.6108  5.9737   1
  -2  -5   6 3.43743 6.74058   9
  -2  -5   6 4.77689 5.02628   1
  -2  -5   6 9.14032 4.90349   6
   2  -5  -6 -1.8987  6.4997   8
  -2   5   6 15.5853  7.2282   6
  -2   5   6 2.31479 5.06187   5
   2   5  -6 5.47121 6.62277   4
  -2   5   6 6.40166 8.01607   9
  -2   5   6 10.6825  7.2642   1
  -2   5   6 8.30118 5.92871   3
   2   5  -6 1.71548 4.53179   8
   2   5  -6 7.17382 4.99273   7
   1  -5  -6 264.884  25.959   1
   1  -5  -6 225.215  22.456   8
  -1  -5   6 233.826  22.366   6
  -1  -5   6 227.955  24.516   5
  -1  -5   6 226.267  22.665   1
  -1  -5   6 241.898  21.659   6
   1  -5  -6 304.591  28.857   4
   1  -5  -6 292.594  24.300   7
  -1  -5   6 325.642  29.096   9
   1   5  -6 236.299  22.366   7
  -1   5   6 273.249  25.882   1
   1   5  -6 199.822  25.079   4
  -1   5   6 181.054  23.585   5
  -1   5   6 203.019  23.309   3
   1   5  -6 271.564  22.444   8
   0  -5  -6 125.538  14.539   8
   0  -5   6 129.940  15.671   1
   0  -5   6 142.210  14.673   3
   0  -5   6 134.335  13.418   8
   0  -5   6 131.369  18.909   9
   0  -5   6 121.642  14.975   6
   0  -5   6 134.268  16.894   5
   0  -5  -6 121.720  17.717   1
   0  -5   6 133.781  14.306   6
   0  -5  -6 123.897  15.497   7
   0   5   6 116.233  16.014   1
   0   5   6 133.321  15.955   3
   0   5   6 146.036  16.795   5
   0   5  -6 122.322  15.323   7
   0   5  -6 146.348  15.485   8
   0   5  -6 139.286  18.291   4
   1  -5   6 350.083  31.135   8
   1  -5   6 316.792  34.965   5
  -1  -5  -6 392.413  31.281   8
  -1  -5  -6 361.417  32.716   7
   1  -5   6 375.000  33.453   1
  -1  -5  -6 344.401  35.402   1
   1  -5   6 377.836  32.902   3
  -1   5  -6 305.179  31.970   8
   1   5   6 398.310  35.041   5
   1   5   6 356.436  33.690   1
  -1   5  -6 408.339  35.594   1
   1   5   6 339.839  33.369   3
  -1   5  -6 377.272  33.208   7
   2  -5   6 527.209  45.828   3
  -2  -5  -6 540.163  48.281   1
  -2  -5  -6 461.207  43.860   7
   2  -5   6 624.149  49.747   5
   2  -5   6 555.207  46.420   1
   2  -5   6 534.679  44.047   8
  -2   5  -6 476.278  46.365   1
   2   5   6 563.405  47.450   5
  -2   5  -6 484.497  44.099   8
  -2   5  -6 460.716  44.451   7
   3  -5   6 934.630  82.281   5
  -3  -5  -6 903.923  79.208   1
  -3   5  -6 952.494  79.266   1
  -3   5  -6 855.779  78.876   2
  -3   5  -6 1012.35   75.93   8
  -4  -5  -6 59.8179 15.0426   1
  -4   5  -6 55.4501 15.6594   1
  -4   5  -6 59.5774 14.4932   2
  -8   6   6 9.35481 9.70483   5
  -8   6   6 2.75010 6.23340   1
  -8   6   6 -4.8138 10.0159   9
  -8   6   6 6.38139 5.75651  10
   8   6  -6 4.75920 4.01754   4
  -8   6   6 -1.6410  8.7040   2
   7  -6  -6 282.953  28.037   8
  -7   6   6 257.007  33.603   9
  -7   6   6 297.369  30.712   2
  -7   6   6 313.253  30.908   5
  -7   6   6 250.931  27.453   1
  -7   6   6 348.762  25.836  10
   7   6  -6 291.786  26.685   4
  -6  -6   6 26.0999  5.9258   5
   6  -6  -6 33.0946  8.6625   8
  -6  -6   6 36.7280  7.1052   9
  -6  -6   6 9.78139 5.62386   9
  -6   6   6 14.1651  6.5020   6
  -6   6   6 41.3275 10.1648   5
  -6   6   6 12.1168  9.1387   9
  -6   6   6 20.5978  7.7062   7
  -6   6   6 21.7649  7.1125  10
  -6   6   6 21.0380  8.9404   1
   6   6  -6 14.8824  5.5927   4
  -6   6   6 21.1458  9.1419   2
   6   6  -6 25.7529  5.3979   3
  -5  -6   6 29.6979  6.4474   5
   5  -6  -6 43.9731  9.6316   8
  -5  -6   6 26.9573  7.7012   9
   5  -6  -6 33.3744  8.3827   7
  -5  -6   6 20.1254  7.0396   9
  -5   6   6 32.5987  9.1107   2
  -5   6   6 57.9581 14.4217   9
  -5   6   6 23.7120  9.6659   1
  -5   6   6 20.4705  8.0810   5
  -5   6   6 24.0935  8.5430   6
   5   6  -6 33.5561  7.6135   4
  -5   6   6 36.8088  8.6750   7
   5   6  -6 27.5426  6.0400   3
  -5   6   6 19.1927  6.7626  10
  -4  -6   6 4.07772 3.90710   1
  -4  -6   6 3.18912 3.87719   7
   4  -6  -6 4.26013 7.00390   8
  -4  -6   6 -5.3460  4.7365   9
  -4  -6   6 4.40991 5.62471   9
   4  -6  -6 14.2057  9.1239   5
  -4  -6   6 6.63725 4.94986   5
   4  -6  -6 10.2581  6.9701   3
   4  -6  -6 6.73388 6.15731   7
  -4  -6   6 2.05622 4.25242   1
  -4   6   6 -0.8353  8.1129   9
  -4   6   6 11.1000  8.2709   6
  -4   6   6 -3.6382  5.6628   2
   4   6  -6 13.6305  6.2430   4
   4   6  -6 8.04982 4.73808   3
  -4   6   6 2.53592 6.07332   5
   4   6  -6 1.77076 4.41942   8
  -4   6   6 13.3635  8.2419   1
  -4   6   6 7.48674 5.76589   7
   3  -6  -6 12.2744  5.7534   7
  -3  -6   6 12.4202  3.9943   6
   3  -6  -6 10.4632  7.4520   8
   3  -6  -6 6.50564 9.77645   4
  -3  -6   6 20.0397  7.8683   9
   3  -6  -6 12.4462 10.1928   5
  -3  -6   6 7.37576 6.51292   9
  -3  -6   6 10.6419  5.6508   5
  -3  -6   6 6.60219 4.28689   6
  -3  -6   6 8.76753 4.86811   1
  -3   6   6 13.4789  6.9501   5
   3   6  -6 18.4930  5.8563   3
  -3   6   6 11.4853  7.7009   6
  -3   6   6 17.7301  6.8818   3
   3   6  -6 7.21231 5.01557   7
  -3   6   6 14.5251  8.3446   1
  -3   6   6 21.0302  7.1814   7
  -3   6   6 2.83176 8.41740   9
   3   6  -6 5.45829 6.78409   4
   3   6  -6 6.90514 5.04082   8
   2  -6  -6 189.641  18.791   7
  -2  -6   6 146.042  20.160   9
   2  -6  -6 166.967  20.827   1
   2  -6  -6 177.472  18.722   8
  -2  -6   6 171.378  18.539   5
  -2  -6   6 150.988  15.434   6
  -2  -6   6 138.841  16.413   1
  -2  -6   6 196.605  20.937   9
  -2  -6   6 191.428  17.184   6
   2  -6  -6 172.684  22.918   4
   2   6  -6 169.370  20.007   4
  -2   6   6 158.352  18.629   5
   2   6  -6 168.186  16.413   8
  -2   6   6 166.723  19.462   3
  -2   6   6 151.756  19.242   1
   2   6  -6 160.164  17.167   7
   1  -6  -6 115.500  14.647   7
   1  -6  -6 94.4585 16.3197   1
  -1  -6   6 115.733  17.406   9
  -1  -6   6 126.369  13.060   6
  -1  -6   6 128.068  15.798   5
  -1  -6   6 126.530  14.519   1
   1  -6  -6 85.4508 13.3841   8
  -1  -6   6 116.301  13.907   6
  -1   6   6 116.847  15.421   5
  -1   6   6 127.633  16.663   1
   1   6  -6 113.258  16.690   4
  -1   6   6 129.569  15.747   3
   1   6  -6 118.943  13.563   8
   1   6  -6 137.506  14.734   7
   0  -6  -6 594.858  44.313   7
   0  -6  -6 480.540  45.586   1
   0  -6   6 497.725  42.961   1
   0  -6   6 533.606  42.860   6
   0  -6  -6 458.971  41.236   8
   0  -6   6 531.560  46.277   5
   0   6   6 469.121  45.104   5
   0   6  -6 473.557  47.508   4
   0   6  -6 520.361  42.955   7
   0   6  -6 451.532  41.773   8
   0   6   6 512.559  44.789   1
  -1  -6  -6 288.043  29.582   7
  -1  -6  -6 339.956  28.379   8
  -1  -6  -6 297.581  32.604   1
   1  -6   6 313.569  32.631   5
   1  -6   6 349.774  28.770   8
   1  -6   6 329.220  31.442   1
   1   6   6 322.188  30.988   3
  -1   6  -6 295.176  29.835   8
   1   6   6 368.097  32.654   5
  -1   6  -6 334.221  30.775   7
   2  -6   6 716.413  66.902   1
   2  -6   6 938.838  65.955   8
  -2  -6  -6 862.598  70.142   1
  -2  -6  -6 723.444  65.525   7
   2  -6   6 819.378  71.931   5
  -2   6  -6 797.555  65.986   8
   2   6   6 757.259  69.850   5
  -2   6  -6 844.606  67.010   7
  -3  -6  -6 102.721  17.471   1
   3  -6   6 78.8986 15.4037   5
  -3   6  -6 57.4020 14.1972   8
  -3   6  -6 102.755  16.887   2
  -3   6  -6 95.9001 17.0081   1
  -7   7   6 17.6677  9.5646   5
  -7   7   6 11.9370  7.5666   7
  -7   7   6 19.9173  9.8563   2
  -7   7   6 14.3176  5.7140   6
  -7   7   6  7.9560 11.3036   9
  -7   7   6 13.6383  8.6091   1
   7   7  -6 14.1714  5.5506   4
  -6  -7   6 109.300  11.668   5
  -6  -7   6 91.4057 12.1528   9
  -6  -7   6 101.167  11.869   9
   6  -7  -6 91.0343 13.6167   8
  -6   7   6 76.6409 14.7506   5
  -6   7   6 95.5722 19.3869   9
  -6   7   6 89.1158 12.9972   6
  -6   7   6 108.913  14.112   7
  -6   7   6 99.8685 15.0425   1
  -6   7   6 96.0753 14.8057   2
   6   7  -6 79.5534 11.7542   4
  -5  -7   6 301.721  30.452   9
  -5  -7   6 298.485  29.103   5
  -5  -7   6 331.317  31.842   9
   5  -7  -6 332.292  30.273   7
   5  -7  -6 337.906  30.393   8
   5   7  -6 284.280  30.309   4
  -5   7   6 321.333  30.799   6
  -5   7   6 355.755  32.717   1
  -5   7   6 364.861  31.980   2
  -5   7   6 283.885  35.824   9
  -5   7   6 342.344  32.342   5
  -5   7   6 332.739  30.540   7
  -4  -7   6 41.1087 10.1215   9
  -4  -7   6 55.2763  8.0889   1
   4  -7  -6 63.0276 11.7065   8
   4  -7  -6 44.3728 15.0122   5
  -4  -7   6 56.7498  7.4877   1
  -4  -7   6 61.0671  9.5086   5
   4  -7  -6 49.4129 10.4634   7
  -4  -7   6 57.9355  7.6741   7
  -4  -7   6 54.7857 10.2735   9
  -4   7   6 64.9330 11.4722   7
   4   7  -6 60.8301  7.8015   8
   4   7  -6 41.5681  9.4664   4
  -4   7   6 59.3940 13.1140   6
  -4   7   6 37.4627 10.5468   5
  -4   7   6 69.6444 16.0365   9
  -4   7   6 46.7944 10.4517   2
  -4   7   6 54.6929 12.3965   1
   3  -7  -6 -3.9970  8.9801   5
   3  -7  -6 -1.0519  5.6117   7
   3  -7  -6 11.4293  7.9293   8
  -3  -7   6 2.51033 4.74447   6
   3  -7  -6  9.0401 10.0846   4
  -3  -7   6 -2.9907  5.2909   9
  -3  -7   6 -11.662   5.443   9
  -3  -7   6 0.17419 4.86473   5
  -3  -7   6 3.78125 3.56409   6
  -3  -7   6 2.57665 4.49414   1
   3   7  -6 -0.2911  6.1261   4
   3   7  -6 8.11993 5.61960   8
  -3   7   6 3.30891 6.28731   7
  -3   7   6 13.0891  7.8751   1
  -3   7   6 6.37041 6.64445   5
   2  -7  -6 1162.59   88.48   8
  -2  -7   6 1109.74   97.54   9
  -2  -7   6 1014.54   92.88   5
  -2  -7   6 1049.02   86.79   1
  -2  -7   6 1022.06   96.15   9
   2  -7  -6 1191.95   89.47   7
  -2  -7   6 1051.21   86.43   6
   2  -7  -6 1262.31   92.36   1
  -2  -7   6 1122.14   85.29   6
  -2   7   6 1185.91   93.59   3
   2   7  -6 1068.28   86.34   8
   2   7  -6 1163.73   87.60   7
  -2   7   6 1233.68   90.58   1
  -2   7   6 1206.59   90.05   7
  -2   7   6 1002.37   93.22   5
   2   7  -6 1033.07   96.12   4
  -1  -7   6 705.335  59.635   1
   1  -7  -6 677.659  62.660   1
  -1  -7   6 749.296  64.088   5
   1  -7  -6 614.586  58.690   8
  -1  -7   6 679.902  59.180   6
   1  -7  -6 656.381  60.364   7
  -1  -7   6 742.498  58.052   6
  -1  -7   6 791.553  67.988   9
   1   7  -6 722.407  58.971   8
   1   7  -6 749.273  66.301   4
  -1   7   6 699.965  61.924   1
   1   7  -6 775.102  60.046   7
  -1   7   6 858.351  64.444   3
  -1   7   6 846.537  64.499   5
   0  -7  -6 303.337  26.895   8
   0  -7   6 305.629  30.383   5
   0  -7  -6 291.675  31.818   1
   0  -7   6 346.850  29.559   1
   0  -7   6 261.740  27.804   6
   0  -7  -6 282.687  28.631   7
   0   7  -6 286.803  28.249   7
   0   7  -6 288.375  31.921   4
   0   7   6 283.577  29.674   5
   0   7   6 329.718  30.007   3
   0   7   6 306.077  30.417   1
   0   7  -6 302.997  28.065   8
   1  -7   6 407.000  44.989   5
   1  -7   6 530.948  40.648   8
   1  -7   6 449.658  43.206   1
  -1  -7  -6 518.519  43.281   7
  -1  -7  -6 494.150  46.445   1
  -1   7  -6 459.758  41.709   8
   1   7   6 471.743  44.844   5
  -1   7  -6 574.439  43.681   7
   2  -7   6 79.2275 14.4291   1
   2  -7   6 74.3161 14.6012   5
  -2  -7  -6 68.1258 12.0267   7
  -2  -7  -6 45.0968 13.5233   1
   2  -7   6 68.7631 11.5943   8
  -2   7  -6 56.5700 12.1313   7
  -2   7  -6 65.4390 14.6296   8
  -2   7  -6 31.8419 13.1793   2
   2   7   6 83.1965 12.7469   5
   3  -7   6 128.428  19.362   5
  -3  -7  -6 109.839  19.286   1
  -3   7  -6 91.6238 16.8904   2
  -3   7  -6 88.5781 15.6769   8
  -7   8   6 -5.1832  7.5819   2
  -7   8   6 10.3834  9.2593   5
   7   8  -6 3.14384 5.72658   4
  -7   8   6 3.04416 6.11235   6
  -7   8   6 11.8186  8.5322   1
  -6  -8   6 1729.01  136.38   9
  -6  -8   6 1561.84  134.95   9
  -6  -8   6 1735.47  131.73   5
   6   8  -6 1617.59  135.83   4
  -6   8   6 1515.79  129.89   2
  -6   8   6 1575.37  125.92   6
  -6   8   6 1794.42  129.36   1
  -6   8   6 1468.10  126.45   7
  -6   8   6 1521.48  135.29   5
  -5  -8   6 298.638  28.712   9
  -5  -8   6 310.732  30.122   9
   5  -8  -6 296.426  28.703   7
  -5  -8   6 286.589  27.630   5
   5  -8  -6 321.818  29.207   8
  -5   8   6 303.403  29.237   7
  -5   8   6 302.305  29.948   6
  -5   8   6 304.259  29.510   2
  -5   8   6 259.799  29.814   1
  -5   8   6 285.745  30.486   5
   5   8  -6 263.697  28.559   4
  -4  -8   6 135.334  13.872   7
   4  -8  -6 155.148  17.910   8
   4  -8  -6 134.155  23.299   5
  -4  -8   6 128.794  16.595   9
  -4  -8   6 129.704  13.497   1
  -4  -8   6 128.541  15.963   5
   4  -8  -6 115.751  16.964   7
  -4  -8   6 155.191  19.198   9
  -4   8   6 135.111  18.076   5
   4   8  -6 130.205  17.217   4
  -4   8   6 156.032  20.340   1
  -4   8   6 161.506  17.793   2
  -4   8   6 122.345  17.373   7
   4   8  -6 162.039  14.377   8
  -3  -8   6 195.814  24.281   5
   3  -8  -6 275.939  25.900   8
  -3  -8   6 233.911  26.029   9
   3  -8  -6 257.762  25.477   7
  -3  -8   6 236.310  27.385   9
  -3  -8   6 231.739  22.140   6
   3  -8  -6 264.548  32.744   5
  -3  -8   6 226.634  22.202   1
  -3  -8   6 267.094  20.840   6
   3   8  -6 236.632  22.095   8
  -3   8   6 236.098  26.322   5
  -3   8   6 290.979  26.633   7
   3   8  -6 264.179  26.986   4
  -3   8   6 323.088  29.019   1
   2  -8  -6 -0.2752  9.6365   5
  -2  -8   6 0.40894 5.81079   5
   2  -8  -6 1.68523 7.97702   1
  -2  -8   6 6.48476 5.86434   1
  -2  -8   6 15.9425  6.5256   6
  -2  -8   6 15.4693  8.3499   9
  -2  -8   6 4.26486 4.21728   6
   2  -8  -6 3.79024 6.21438   7
   2  -8  -6 7.13220 7.35803   8
   2   8  -6 5.44227 8.18352   4
  -2   8   6 -2.3911  6.3054   5
  -2   8   6 0.63535 7.62556   1
  -2   8   6 1.99210 6.68715   3
   2   8  -6 9.07399 6.54107   8
   2   8  -6 -0.5936  5.3790   7
  -2   8   6 6.55425 6.79635   7
  -1  -8   6 113.097  15.000   1
   1  -8  -6 159.721  15.549   8
  -1  -8   6 144.609  15.890   6
   1  -8  -6 101.179  15.818   7
   1  -8  -6 138.637  19.480   1
  -1  -8   6 113.745  13.337   6
  -1  -8   6 142.043  20.051   9
  -1  -8   6 107.853  16.065   5
   1   8  -6 113.940  17.525   4
  -1   8   6 122.192  17.131   7
   1   8  -6 102.301  14.439   8
  -1   8   6 116.659  17.328   1
   1   8  -6 118.311  15.229   7
  -1   8   6 151.492  18.193   3
  -1   8   6 107.966  16.090   5
   0  -8  -6 850.883  76.017   1
   0  -8   6 845.500  77.879   5
   0  -8  -6 903.018  71.126   8
   0  -8  -6 987.971  74.440   7
   0  -8   6 931.622  73.542   1
   0  -8   6 821.436  72.492   6
   0   8   6 939.893  77.022   3
   0   8   6 943.129  77.826   5
   0   8  -6 872.328  72.310   8
   0   8  -6 868.255  72.789   7
   1  -8   6 140.510  19.506   1
   1  -8   6 188.528  22.035   5
  -1  -8  -6 197.017  23.825   1
  -1  -8  -6 165.137  19.703   7
   1   8   6 128.644  19.026   5
  -1   8  -6 182.144  19.896   7
   2  -8   6 16.3124  8.5174   1
  -2  -8  -6 -1.9938  9.1759   1
   2  -8   6 -9.4182  7.9867   5
  -2   8  -6 12.6528  8.5919   7
  -2   8  -6 -2.2751  9.9694   2
   3  -8   6 41.4257 13.3149   5
  -3  -8  -6 37.4700 14.0049   1
  -3   8  -6 46.6261 14.1425   2
  -6  -9   6 57.0456  9.1686   9
  -6  -9   6 54.3507  8.8879   5
   6   9  -6 37.9126  9.4644   4
  -6   9   6 44.7617 12.6111   2
  -6   9   6 40.9736 12.3430   1
  -6   9   6 48.5658 12.4489   5
   5  -9  -6 1445.74  106.16   7
  -5  -9   6 1512.33  112.64   9
  -5  -9   6 1255.83  108.86   5
  -5  -9   6 1319.33  113.80   9
  -5   9   6 1371.96  107.07   1
  -5   9   6 1329.54  105.76   7
  -5   9   6 1309.64  106.92   2
  -5   9   6 1119.32  110.81   5
   5   9  -6 1215.81  112.21   4
   4  -9  -6 59.5897 17.0996   5
  -4  -9   6 51.2348 10.6615   5
  -4  -9   6 63.4716 13.2354   9
  -4  -9   6 63.0198 11.3933   9
   4  -9  -6 72.0756 12.9737   7
  -4  -9   6 69.9643  8.2463   1
  -4   9   6 72.1847 14.7644   1
   4   9  -6 58.9444 12.2074   4
  -4   9   6 81.3422 12.6562   2
  -4   9   6 78.5453 13.3840   5
  -4   9   6 47.6454 12.0439   7
  -3  -9   6 182.662  16.286   6
  -3  -9   6 174.905  18.722   7
  -3  -9   6 201.062  24.255   9
   3  -9  -6 203.259  21.215   8
   3  -9  -6 196.777  29.532   5
  -3  -9   6 169.204  17.546   6
   3  -9  -6 200.029  21.864   7
  -3  -9   6 177.017  21.061   5
  -3  -9   6 197.739  18.403   1
  -3   9   6 191.012  22.087   5
  -3   9   6 169.365  21.541   7
   3   9  -6 173.710  21.948   4
   3   9  -6 186.458  18.373   8
  -3   9   6 215.923  24.578   1
  -2  -9   6 30.5591 12.1047   9
   2  -9  -6 51.1983 10.4781   8
   2  -9  -6 30.0085 14.6086   5
   2  -9  -6 41.5519 11.0999   7
  -2  -9   6 66.2347 11.8855   5
  -2  -9   6 37.7054  6.9980   6
  -2  -9   6 67.7112 10.0810   1
  -2  -9   6 33.1278  8.8454   6
   2   9  -6 39.0774  9.5330   8
  -2   9   6 53.7943 11.6291   5
  -2   9   6 42.1880 10.6507   3
   2   9  -6 26.0682 10.3407   4
  -2   9   6 45.2443 11.5377   7
  -1  -9   6 249.907  23.838   6
   1  -9  -6 274.187  25.130   8
  -1  -9   6 259.077  26.060   6
   1  -9  -6 268.841  30.508   1
   1  -9  -6 263.923  35.494   5
  -1  -9   6 256.159  25.896   1
   1  -9  -6 325.166  29.041   7
  -1  -9   6 246.799  27.719   5
   1   9  -6 279.602  30.239   4
  -1   9   6 199.890  26.796   7
   1   9  -6 258.573  25.953   8
  -1   9   6 270.489  28.450   3
   1   9  -6 269.824  26.330   7
  -1   9   6 246.836  28.460   1
  -1   9   6 310.921  28.791   5
   0  -9  -6 22.4947  7.2653   8
   0  -9   6 17.4837  8.8546   6
   0  -9   6 11.3938  7.8896   5
   0  -9  -6 19.3445 11.0594   1
   0  -9  -6 12.7916  7.9948   7
   0  -9   6 18.0564  8.5499   1
   0   9  -6 14.9771  8.1748   7
   0   9   6 20.2895  9.0230   5
   1  -9   6 -6.4454  7.4028   5
  -1  -9  -6 6.57921 9.34798   1
   1  -9   6 -2.1510  7.0687   1
   1   9   6 -8.1549  6.8567   5
  -1   9  -6 3.72307 6.49356   7
   2  -9   6 22.6421 10.6279   5
  -2  -9  -6 29.7438 12.4303   1
   2  -9   6 38.7048 12.5306   1
  -2   9  -6 15.9423 12.1049   2
  -6 -10   6 664.886  57.142   5
   6  10  -6 607.276  59.148   4
  -6  10   6 824.498  60.514   2
  -6  10   6 599.620  60.276   5
  -6  10   6 673.954  59.118   1
  -5 -10   6 23.0478  7.8832   9
  -5 -10   6 11.0364  7.1416   5
  -5 -10   6 10.0947  9.7914   9
   5 -10  -6 24.5608 10.4284   7
  -5  10   6 20.6390 10.6414   1
  -5  10   6 27.3216 10.1649   2
   5  10  -6 26.1517  9.5543   4
  -5  10   6 18.6060 10.2287   5
  -4 -10   6 450.725  39.734   9
   4 -10  -6 375.340  35.464   7
  -4 -10   6 312.772  34.397   5
   4 -10  -6 358.649  42.636   5
  -4 -10   6 350.180  30.171   1
  -4 -10   6 382.941  36.557   9
  -4  10   6 374.764  37.821   1
   4  10  -6 330.578  36.319   4
  -4  10   6 397.471  37.618   5
   3 -10  -6 175.050  19.623   7
  -3 -10   6 116.264  19.013   9
  -3 -10   6 113.402  16.301   5
   3 -10  -6 125.006  24.847   5
  -3 -10   6 110.735  14.457   7
  -3 -10   6 126.820  11.491   6
  -3 -10   6 131.179  13.938   1
  -3 -10   6 118.114  12.732   6
   3  10  -6 98.4245 16.8386   4
   3  10  -6 108.515  14.503   8
  -3  10   6 113.130  19.089   1
  -3  10   6 87.6311 16.4271   7
  -3  10   6 98.8508 16.4057   5
  -2 -10   6 115.681  15.381   6
  -2 -10   6 141.171  15.843   7
   2 -10  -6 114.077  15.198   8
  -2 -10   6 106.658  18.702   9
  -2 -10   6 109.209  12.309   6
  -2 -10   6 116.773  16.857   5
   2 -10  -6 111.779  16.664   7
  -2 -10   6 107.812  14.448   1
   2 -10  -6 113.779  24.290   5
  -2  10   6 122.142  17.108   5
  -2  10   6 111.217  17.826   7
   2  10  -6 110.173  17.930   4
   2  10  -6 131.779  15.810   8
  -2  10   6 86.0746 17.6904   1
   1 -10  -6 956.770  80.350   8
  -1 -10   6 961.056  81.837   6
  -1 -10   6 880.115  81.024   1
  -1 -10   6 1046.91   79.74   6
   1 -10  -6 1027.88   86.96   1
   1 -10  -6 1066.87   96.59   5
  -1 -10   6 1178.53   89.46   5
   1 -10  -6 939.484  83.862   7
  -1  10   6 1214.82   86.48   7
  -1  10   6 1064.01   87.96   5
   1  10  -6 930.214  90.700   4
   0 -10   6 277.891  27.241   1
   0 -10  -6 212.719  28.981   1
   0 -10   6 293.314  30.093   5
   0  10  -6 253.598  26.464   7
   0  10   6 250.872  27.988   5
   0  10   6 240.533  29.278   7
   1 -10   6 55.3459 13.1203   1
   1 -10   6 61.2966 14.5732   5
  -1 -10  -6 73.0619 17.4570   1
  -1  10  -6 37.8057 11.4228   7
   2 -10   6 73.1479 17.2580   5
  -2  10  -6 106.219  18.791   2
   5 -11  -6 17.7980 10.1402   7
  -5 -11   6 9.87508 7.58987   9
  -5 -11   6 9.63400 7.74653   5
  -5  11   6 25.6350 11.6553   1
   5  11  -6 18.0620 10.2530   4
  -5  11   6 20.7512 11.3227   5
   4 -11  -6 2.68202 7.54570   7
  -4 -11   6 -0.4178  6.5471   5
  -4 -11   6 -6.2472  4.2334   1
  -4 -11   6 7.28243 8.12463   9
  -4  11   6 -9.8861  7.3355   5
  -4  11   6 10.6255  9.7951   1
   4  11  -6 -5.1652  8.2467   4
   3 -11  -6 929.776  75.626   7
  -3 -11   6 900.164  68.904   6
  -3 -11   6 863.249  67.899   6
  -3 -11   6 913.281  71.936   7
  -3 -11   6 823.240  70.696   1
  -3 -11   6 960.881  82.940   9
   3 -11  -6 850.522  85.656   5
  -3 -11   6 962.858  78.428   5
  -3  11   6 929.047  77.445   1
  -3  11   6 949.130  78.834   5
   3  11  -6 837.761  71.288   8
   3  11  -6 812.869  80.187   4
  -2 -11   6 475.067  46.923   5
   2 -11  -6 426.767  54.640   5
  -2 -11   6 480.690  43.137   6
  -2 -11   6 508.135  43.584   7
  -2 -11   6 505.655  42.808   1
  -2 -11   6 527.887  40.362   6
   2  11  -6 491.027  49.152   4
  -2  11   6 460.652  46.413   5
   1 -11  -6 69.4128 21.3592   5
  -1 -11   6 64.2321 14.2037   5
   1 -11  -6 65.2113 17.0148   1
  -1 -11   6 37.2432 10.9160   1
  -1 -11   6 75.4486 14.3319   6
  -1  11   6 73.5096 13.9384   5
   0 -11  -6 199.043  32.993   5
   0 -11   6 195.625  21.389   1
   0 -11   6 131.446  21.704   5
   0 -11  -6 129.019  23.100   1
   0  11   6 174.457  21.566   5
   0  11  -6 164.270  21.563   7
   1 -11   6 36.9468 13.7810   5
  -1 -11  -6 29.2061 13.3157   1
   1 -11   6 10.1894 10.8612   1
  -4 -12   6 24.0613  9.7234   5
  -4 -12   6 17.0102  5.8326   1
   4  12  -6 19.4184 11.6537   4
  -4  12   6 19.3329 10.3730   5
  -4  12   6 11.3158 12.0234   1
  -3 -12   6  5.4917 10.0919   9
  -3 -12   6 1.23383 3.57030   6
  -3 -12   6 -7.6276  6.8955   5
  -3 -12   6 2.11494 4.25605   6
   3 -12  -6  5.7522 12.1922   5
  -3 -12   6 3.36715 5.91064   1
  -3 -12   6 10.3028  7.5336   7
  -3  12   6 1.68776 9.17152   5
   3  12  -6  0.7925 10.3206   4
  -2 -12   6 267.473  27.678   6
   2 -12  -6 267.326  39.203   5
  -2 -12   6 216.330  26.268   1
  -2 -12   6 282.112  24.724   6
  -2 -12   6 343.621  32.724   5
   2  12  -6 297.586  33.674   4
  -2  12   6 315.465  31.446   5
   1 -12  -6 -6.4343  9.7375   1
   1 -12  -6 13.2632 12.8384   5
  -1 -12   6 -1.9212  7.8885   5
  -1 -12   6 14.6154  8.4730   6
  -1 -12   6 -4.4365  6.8873   1
  -1  12   6 -6.7662  7.3703   5
   0 -12  -6 134.586  28.071   5
  -8   0   7 2.93532 6.33629   5
  -8   0   7 -5.4211  8.3257   9
  -7   0   7 146.481  13.018  10
  -7   0   7 167.191  18.471   9
  -7   0   7 139.603  16.699   5
  -6   0   7 3.28027 6.19857   9
  -6   0   7 -0.8434  4.8499   1
  -6   0   7 1.38130 5.00988   5
   6   0  -7 0.55373 6.24465   4
  -6   0   7 -5.2252  3.3441  10
  -6   0   7 -0.2253  3.9347   1
  -5   0   7 857.325  59.382  10
   5   0  -7 874.527  65.543   8
   5   0  -7 726.989  71.693   4
  -5   0   7 791.207  68.769   5
  -5   0   7 814.276  65.236   1
  -5   0   7 791.205  61.810   6
  -5   0   7 873.063  73.065   9
  -4   0   7 1.90283 5.08912   5
  -4   0   7 3.03471 5.54286   1
   4   0  -7 -1.0693  3.8945   7
   4   0  -7 1.82895 6.86271   4
  -4   0   7 4.37768 5.59746   6
   4   0  -7 -2.7259  6.3082   8
  -4   0   7 -1.9878  5.9045   9
  -4   0   7 4.16773 3.98271  10
   3   0  -7 129.561  15.484   3
   3   0  -7 134.340  14.996   8
   3   0  -7 126.471  14.547   7
  -3   0   7 151.219  19.144   9
  -3   0   7 129.467  18.173   9
   3   0  -7 110.939  16.650   4
  -3   0   7 126.410  14.842   6
  -3   0   7 156.761  13.688  10
  -3   0   7 121.242  14.892   1
  -3   0   7 138.043  15.814   5
  -2   0   7 0.32141 5.07778   6
  -2   0   7 5.33756 5.87828   1
   2   0  -7 -3.6205  7.1163   4
  -2   0   7 8.34466 4.65467  10
   2   0  -7 8.11391 5.22021   7
  -2   0   7 -0.3186  7.1577   9
  -2   0   7 5.77350 5.39283   5
   2   0  -7 2.88582 6.05077   8
   2   0  -7 5.46927 5.14069   3
  -1   0   7 349.557  30.763   3
   1   0  -7 280.735  29.442   7
  -1   0   7 382.201  36.694   9
  -1   0   7 314.291  30.357   1
  -1   0   7 350.127  28.163   8
   1   0  -7 348.366  35.081   4
  -1   0   7 348.721  32.516   5
   1   0  -7 332.048  29.647   8
   0   0  -7 6.35788 6.27124   8
   0   0  -7 -9.8117  6.2105   1
   0   0   7 2.08735 5.35521   8
   0   0   7 4.76896 6.39340   5
   0   0   7 -1.8994  4.8744   3
   0   0   7 -0.6879  5.5815   1
   0   0  -7 -7.1372  3.6389   7
  -1   0  -7 776.034  62.551   1
   1   0   7 696.019  60.249   1
   1   0   7 758.718  61.395   3
   1   0   7 636.622  62.530   5
  -1   0  -7 622.058  58.752   7
   1   0   7 778.638  58.970   8
  -1   0  -7 763.438  58.868   8
  -2   0  -7 1.85023 9.29417   1
  -2   0  -7 13.5936  7.2216   7
  -2   0  -7 16.3310  9.0818   8
   2   0   7 -1.0000  7.2318   5
   2   0   7 -5.5573  7.0970   8
  -3   0  -7 85.6046 16.3462   1
   3   0   7 58.6048 13.1069   5
  -8  -1   7 77.5853 11.5296   5
  -8   1   7 67.3683 14.4645   2
  -8   1   7 80.7215 16.0523   9
  -8   1   7 92.2891 12.7855   5
  -8   1   7 86.2998  8.6208  10
  -7  -1   7 559.598  47.774   5
  -7  -1   7 575.487  49.846   9
  -7   1   7 569.115  40.971  10
  -7   1   7 598.348  48.954   5
  -7   1   7 524.546  42.716   1
  -7   1   7 514.495  50.384   9
   7   1  -7 541.929  49.858   4
   6  -1  -7 28.2411  7.9424   8
  -6  -1   7 22.0191  4.6351   1
  -6  -1   7 19.6349  5.1751   1
   6  -1  -7 28.6952  9.4455   4
  -6  -1   7 28.8933  6.9969   5
  -6  -1   7 27.1711  8.1683   9
  -6   1   7 27.5339  7.2235   1
  -6   1   7 31.5837  9.1632   9
  -6   1   7 27.2650  5.7948  10
   6   1  -7 41.8310  9.0019   4
  -6   1   7 27.2269  7.7561   5
  -5  -1   7 250.192  22.465   1
   5  -1  -7 264.809  27.094   4
   5  -1  -7 209.842  22.933   8
  -5  -1   7 294.220  24.115   5
  -5  -1   7 253.484  26.136   9
  -5   1   7 228.910  21.013   6
  -5   1   7 220.503  23.425   1
  -5   1   7 229.585  23.697   5
   5   1  -7 249.730  25.777   4
  -5   1   7 209.929  20.029  10
   5   1  -7 287.210  23.046   8
  -5   1   7 229.515  26.432   9
  -4  -1   7 92.6432 12.0931   5
  -4  -1   7 80.5321  9.6903   6
   4  -1  -7 90.7308 14.7995   4
  -4  -1   7 88.2775 11.4672   6
   4  -1  -7 80.1514 11.0628   7
  -4  -1   7 85.7537 12.3071   1
   4  -1  -7 128.248  13.738   8
  -4  -1   7 105.642  14.911   9
  -4  -1   7 118.056  15.582   9
  -4   1   7 85.5868 12.0993   5
  -4   1   7 90.8921 15.1303   9
   4   1  -7 91.6517 13.9060   4
  -4   1   7 99.0268  9.6619   3
  -4   1   7 97.7417 10.6788  10
  -4   1   7 94.2831 13.0519   6
   4   1  -7 110.143  12.260   8
  -4   1   7 93.5865 12.7559   1
  -3  -1   7 294.871  28.108   5
   3  -1  -7 306.127  26.696   7
  -3  -1   7 285.693  26.044   6
   3  -1  -7 360.420  29.022   3
   3  -1  -7 320.999  27.298   8
  -3  -1   7 261.643  30.195   9
  -3  -1   7 320.024  31.425   9
  -3  -1   7 309.169  26.891   1
   3  -1  -7 228.866  29.774   4
  -3   1   7 301.699  31.675   9
  -3   1   7 340.491  28.080   6
  -3   1   7 317.219  24.628  10
  -3   1   7 248.337  26.935   1
  -3   1   7 283.297  27.703   5
   3   1  -7 267.327  29.753   4
   3   1  -7 270.152  26.046   8
   3   1  -7 292.129  27.474   3
   3   1  -7 304.579  26.251   7
  -3   1   7 275.799  31.194   9
   2  -1  -7 40.2835 10.5073   4
   2  -1  -7 26.6089  7.6211   3
  -2  -1   7 27.1548  7.2260   6
  -2  -1   7 36.5738  8.6969   5
  -2  -1   7 42.6436  8.6773   1
   2  -1  -7 30.1256  7.8544   7
  -2  -1   7 28.8298 10.8379   9
   2  -1  -7 44.1064  8.3759   8
   2   1  -7 28.8256  9.1278   4
  -2   1   7 20.6531  7.7566   1
  -2   1   7 20.9081  7.0703   5
   2   1  -7 41.3139  8.0722   3
   2   1  -7 45.2317  8.0204   8
  -2   1   7 26.8232  7.4196   6
   2   1  -7 32.2416  7.0674   7
  -2   1   7 31.3522 10.5625   9
   1  -1  -7 26.3478  8.8628   1
   1  -1  -7 28.6131  7.5693   7
  -1  -1   7 45.6604 11.6901   9
   1  -1  -7 32.1891 11.0504   4
  -1  -1   7 25.0942  7.7824   1
  -1  -1   7 25.4425  7.4315   6
  -1  -1   7 35.8489  6.1296   8
  -1  -1   7 23.8920  6.7544   3
   1  -1  -7 25.3892  7.4283   8
  -1  -1   7 16.4828  7.5916   5
  -1   1   7 11.8060  7.2718   1
  -1   1   7 24.4327  6.2363   8
   1   1  -7 18.7155  8.5488   4
   1   1  -7 22.7807  7.1645   8
  -1   1   7 28.2832  8.1180   5
  -1   1   7 20.7593  6.8936   3
   1   1  -7 40.4293  7.8527   7
   0  -1   7 395.249  32.240   8
   0  -1   7 392.687  34.367   3
   0  -1   7 385.009  34.394   1
   0  -1   7 387.498  36.227   5
   0  -1  -7 368.306  32.981   8
   0  -1  -7 383.992  33.905   7
   0  -1  -7 378.490  35.898   1
   0   1   7 342.557  33.963   3
   0   1   7 391.641  32.932   8
   0   1  -7 365.232  32.839   8
   0   1   7 344.534  34.022   1
   0   1  -7 387.941  36.091   1
   0   1   7 358.257  35.576   5
   0   1  -7 414.963  34.181   7
  -1  -1  -7 172.502  21.414   1
  -1  -1  -7 183.508  19.103   8
   1  -1   7 161.713  19.559   1
   1  -1   7 187.775  18.445   8
   1  -1   7 209.501  19.854   3
   1  -1   7 157.395  20.141   5
  -1  -1  -7 157.748  18.614   7
  -1   1  -7 164.317  21.327   1
   1   1   7 161.233  18.003   8
   1   1   7 160.203  19.889   5
  -1   1  -7 165.741  18.610   8
   1   1   7 171.137  19.054   3
  -1   1  -7 155.409  18.699   7
   1   1   7 179.226  20.669   1
  -2  -1  -7 89.3192 14.3422   7
   2  -1   7 90.9655 15.4565   5
  -2  -1  -7 111.958  17.461   1
  -2  -1  -7 108.513  14.992   8
   2  -1   7 128.214  15.327   8
  -2  -1  -7 88.9663 15.0392   2
  -2   1  -7 120.678  15.215   7
  -2   1  -7 98.7179 17.5054   1
   2   1   7 85.6888 14.4393   5
  -2   1  -7 108.905  14.642   8
   3  -1   7 290.685  31.468   5
  -3  -1  -7 280.552  32.060   1
  -3   1  -7 285.656  31.830   1
  -3   1  -7 306.166  30.996   2
   3   1   7 325.126  31.545   5
  -8  -2   7 9.40401 5.76388   5
  -8   2   7 -9.0652  9.5883   9
  -8   2   7 -1.1339  8.4762   2
  -8   2   7 6.60206 4.48007  10
  -8   2   7 7.67282 7.28521   5
  -7  -2   7 253.572  22.775   5
  -7  -2   7 230.433  23.199   9
  -7   2   7 247.748  24.430   5
  -7   2   7 202.138  25.199   2
  -7   2   7 243.506  19.875  10
  -7   2   7 246.168  26.065   9
   7   2  -7 198.950  23.589   4
  -7   2   7 249.889  20.784   1
  -6  -2   7 714.410  64.506   9
  -6  -2   7 663.246  61.316   5
   6  -2  -7 757.563  59.661   8
  -6   2   7 789.071  63.224   5
   6   2  -7 716.568  64.323   4
  -6   2   7 684.337  59.333   1
  -6   2   7 746.083  66.695   9
  -6   2   7 795.877  54.062  10
  -5  -2   7 1052.68   75.10   1
  -5  -2   7 997.550  75.778   1
   5  -2  -7 791.706  84.621   4
  -5  -2   7 950.888  80.598   5
   5  -2  -7 994.608  77.715   8
  -5  -2   7 1062.17   85.10   9
  -5  -2   7 865.030  84.209   9
   5   2  -7 893.394  83.562   4
  -5   2   7 967.790  75.603   6
   5   2  -7 1011.54   75.97   8
  -5   2   7 962.429  70.217  10
  -5   2   7 1161.88   87.16   9
  -5   2   7 897.703  81.013   5
   4  -2  -7 54.1695 10.5678   8
  -4  -2   7 75.1323 12.2234   9
  -4  -2   7 56.5436  8.2820   6
  -4  -2   7 38.7524  8.7040   5
   4  -2  -7 57.5299  9.0743   7
  -4  -2   7 52.9623 11.5513   9
  -4  -2   7 65.6524  7.0189   6
  -4  -2   7 49.3171  8.8439   1
   4  -2  -7 49.9990 12.1450   4
   4   2  -7 52.7479  8.5721   8
  -4   2   7 75.0889 11.4980   6
  -4   2   7 65.8485 12.5849   9
  -4   2   7 36.7272  8.8733   5
  -4   2   7 38.7304  7.5370  10
  -4   2   7 58.0898 10.5928   1
   4   2  -7 57.4260 10.8756   4
  -3  -2   7 735.619  68.469   5
  -3  -2   7 793.554  64.668   1
   3  -2  -7 845.105  68.618   3
  -3  -2   7 811.705  72.665   9
   3  -2  -7 744.498  72.537   4
   3  -2  -7 820.992  65.624   8
  -3  -2   7 896.692  63.716   6
  -3  -2   7 760.508  72.653   9
  -3  -2   7 802.197  63.794   6
   3  -2  -7 848.869  65.197   7
   3   2  -7 808.268  64.339   7
  -3   2   7 905.106  66.999   1
   3   2  -7 780.675  71.869   4
  -3   2   7 802.301  59.895  10
  -3   2   7 863.990  74.591   9
   3   2  -7 840.141  64.295   8
  -3   2   7 883.306  66.282   6
  -3   2   7 662.880  68.274   5
   2  -2  -7 32.7428 10.6374   4
  -2  -2   7 31.7264  8.1605   5
  -2  -2   7 29.3075  7.2680   6
  -2  -2   7 49.4015 11.8993   9
  -2  -2   7 26.5641  7.8425   1
   2  -2  -7 37.0399  8.0869   7
   2  -2  -7 29.8624  7.9326   8
   2   2  -7 37.3448 10.6338   4
  -2   2   7 39.2080  8.5525   6
  -2   2   7 42.1255  8.7769   5
   2   2  -7 43.8925  8.3970   8
   2   2  -7 29.6977  7.2914   7
  -2   2   7 51.2803 13.2925   9
  -2   2   7 32.2355  8.8820   1
  -1  -2   7 299.092  31.663   5
   1  -2  -7 273.525  29.092   8
  -1  -2   7 369.517  36.240   9
  -1  -2   7 395.876  30.476   6
  -1  -2   7 341.969  30.556   1
   1  -2  -7 366.761  32.819   1
   1   2  -7 390.467  29.989   8
   1   2  -7 374.616  35.226   4
  -1   2   7 284.048  30.402   3
   1   2  -7 320.139  29.986   7
  -1   2   7 341.955  32.059   5
  -1   2   7 315.097  30.626   1
  -1   2   7 334.059  28.770   8
   0  -2   7 3.98590 5.27978   3
   0  -2  -7 7.46296 5.57075   7
   0  -2   7 6.36622 6.52082   1
   0  -2   7 9.41024 7.03664   5
   0  -2   7 10.8063  5.4135   8
   0  -2  -7 -5.9926  7.0138   1
   0  -2  -7 8.56854 7.06145   8
   0   2  -7 1.30649 6.73878   8
   0   2   7 5.59497 6.40784   1
   0   2  -7 2.65794 5.81736   7
   0   2   7 -5.2349  5.4329   8
   0   2   7 -6.4223  5.1024   5
   0   2   7 -2.1126  4.5860   3
   1  -2   7 295.908  28.411   8
   1  -2   7 349.755  32.937   5
  -1  -2  -7 324.247  32.331   1
  -1  -2  -7 351.604  30.446   7
  -1  -2  -7 321.887  29.294   8
   1  -2   7 342.198  30.361   3
   1   2   7 326.050  31.931   5
   1   2   7 326.168  29.583   8
   1   2   7 291.499  30.335   3
  -1   2  -7 318.670  30.179   7
  -1   2  -7 291.783  29.301   8
  -1   2  -7 318.061  32.237   1
   1   2   7 318.046  31.566   1
   2  -2   7 955.142  82.178   8
   2  -2   7 1054.67   89.33   5
  -2  -2  -7 1106.63   84.00   7
  -2  -2  -7 1006.85   85.92   1
  -2   2  -7 1086.08   86.70   1
   2   2   7 1003.84   88.15   5
  -2   2  -7 1050.85   82.54   8
  -2   2  -7 1001.96   83.11   7
   3  -2   7 207.593  27.245   5
  -3  -2  -7 260.438  28.953   1
  -3   2  -7 276.887  28.151   2
  -3   2  -7 261.311  29.874   1
  -8   3   7 851.232  60.976  10
  -8   3   7 781.136  63.977   1
  -8   3   7 857.245  72.580   2
  -8   3   7 919.717  73.065   5
   8   3  -7 805.480  71.856   4
  -8   3   7 867.807  78.142   9
  -7  -3   7 192.987  19.153   5
  -7  -3   7 167.155  19.268   9
  -7   3   7 225.811  24.481   9
   7   3  -7 185.906  20.387   4
  -7   3   7 211.353  23.446   2
  -7   3   7 185.852  18.650   1
  -7   3   7 192.336  17.476  10
  -7   3   7 227.756  22.225   5
  -6  -3   7 518.503  48.694   9
   6  -3  -7 602.930  46.581   8
  -6  -3   7 588.361  47.169   5
  -6   3   7 485.717  48.143   5
  -6   3   7 559.561  46.619   1
  -6   3   7 509.735  42.025   6
  -6   3   7 573.366  41.583  10
  -6   3   7 533.701  52.262   9
   6   3  -7 568.196  49.036   4
  -5  -3   7 87.3036 10.7797   5
   5  -3  -7 73.0885 14.1311   4
  -5  -3   7 80.6550  9.8376   1
  -5  -3   7 63.6673 11.1307   9
  -5  -3   7 74.3707  8.9528   1
   5  -3  -7 85.8112 12.6343   8
  -5  -3   7 43.7948 11.0581   9
   5   3  -7 77.2869 11.9938   4
  -5   3   7 79.9131  9.7011  10
  -5   3   7 70.5084 11.3392   5
  -5   3   7 81.2876 15.2051   9
  -5   3   7 75.3802 11.0784   6
  -5   3   7 63.0451 11.7083   1
   5   3  -7 84.2010 10.0228   8
  -4  -3   7 441.178  40.623   9
  -4  -3   7 461.411  34.376   6
  -4  -3   7 422.166  40.604   9
  -4  -3   7 420.939  33.309   6
   4  -3  -7 373.448  35.580   7
  -4  -3   7 402.323  35.261   1
   4  -3  -7 433.836  42.429   4
   4  -3  -7 467.913  38.129   8
  -4  -3   7 420.332  37.726   5
  -4   3   7 374.766  32.850  10
  -4   3   7 439.043  42.839   9
   4   3  -7 403.457  35.031   8
   4   3  -7 453.748  40.390   4
  -4   3   7 401.772  37.227   1
  -4   3   7 417.852  38.370   5
  -4   3   7 426.607  38.207   6
  -3  -3   7 330.091  34.958   9
  -3  -3   7 334.871  32.880   5
  -3  -3   7 338.327  29.793   6
   3  -3  -7 373.859  32.313   8
  -3  -3   7 382.198  31.274   1
   3  -3  -7 340.249  33.080   3
   3  -3  -7 347.277  36.718   4
  -3  -3   7 343.418  29.637   6
  -3  -3   7 384.066  29.791   3
  -3  -3   7 329.644  34.941   9
   3  -3  -7 402.846  32.095   7
  -3   3   7 383.313  33.483   1
  -3   3   7 304.530  32.593   5
  -3   3   7 318.636  36.767   9
   3   3  -7 401.875  36.099   4
   3   3  -7 395.651  31.076   7
  -3   3   7 326.664  32.349   6
   3   3  -7 334.001  30.280   8
   2  -3  -7 3228.36  224.34   7
   2  -3  -7 3231.20  247.42   4
  -2  -3   7 2657.01  221.15   6
  -2  -3   7 2833.42  221.56   6
   2  -3  -7 3141.62  224.56   8
  -2  -3   7 3049.36  223.61   1
  -2  -3   7 2545.40  237.42   5
  -2  -3   7 3364.76  247.51   9
  -2   3   7 2984.11  233.36   3
  -2   3   7 2760.47  248.26   9
  -2   3   7 2780.79  224.60   1
  -2   3   7 2847.75  223.47   6
  -2   3   7 3417.59  238.77   5
   2   3  -7 2745.90  223.09   7
  -2   3   7 2890.42  222.13   8
   2   3  -7 2490.72  222.87   8
   2   3  -7 3086.52  245.63   4
   1  -3  -7 216.053  22.163   7
   1  -3  -7 225.826  21.827   8
  -1  -3   7 257.653  22.330   6
  -1  -3   7 235.758  22.469   1
  -1  -3   7 186.670  23.045   5
  -1  -3   7 234.625  26.585   9
   1  -3  -7 269.078  25.612   1
  -1  -3   7 192.182  20.648   6
   1   3  -7 240.903  25.676   4
  -1   3   7 206.047  20.287   8
  -1   3   7 220.968  22.202   3
   1   3  -7 184.658  21.226   7
  -1   3   7 245.105  23.619   1
  -1   3   7 203.167  23.078   5
   1   3  -7 218.819  20.846   8
   0  -3   7 453.578  44.037   1
   0  -3  -7 495.154  44.336   7
   0  -3   7 562.653  42.459   8
   0  -3   7 541.419  47.786   5
   0  -3  -7 571.086  47.515   1
   0  -3  -7 508.081  43.381   8
   0   3   7 518.577  47.007   5
   0   3  -7 552.060  44.814   7
   0   3   7 494.491  43.313   8
   0   3  -7 522.256  43.575   8
   0   3   7 427.231  44.294   1
   0   3   7 579.639  46.482   3
   1  -3   7 18.8690  6.6860   8
   1  -3   7 7.95036 7.29410   5
  -1  -3  -7 10.1492  9.0950   1
  -1  -3  -7 9.03989 7.37089   8
  -1  -3  -7 17.1880  7.5872   7
   1  -3   7 26.4640  9.4450   1
  -1   3  -7 -2.6580  9.3453   8
  -1   3  -7 29.0525  8.2263   7
   1   3   7 12.2835  7.5793   5
   1   3   7 25.4650  7.5907   3
   2  -3   7 63.1596 11.2244   8
   2  -3   7 54.4212 13.0438   5
  -2  -3  -7 60.8944 14.6475   1
  -2   3  -7 68.4189 12.4184   7
   2   3   7 80.7256 13.1931   5
  -2   3  -7 46.2411 11.9158   8
   3  -3   7 33.4545 11.1839   5
  -3  -3  -7 22.9905 12.0577   1
  -3   3  -7 38.5028 11.3140   2
  -3   3  -7 40.8269 14.0815   1
  -8   4   7 287.370  27.724   5
  -8   4   7 219.034  21.020  10
  -8   4   7 242.280  27.930   2
  -8   4   7 247.431  22.000   1
   7  -4  -7 915.514  70.704   8
  -7  -4   7 856.242  71.946   5
  -7  -4   7 895.672  74.032   9
   7   4  -7 834.786  74.562   4
  -7   4   7 926.007  74.785   2
  -7   4   7 816.127  69.397   1
  -7   4   7 918.423  79.822   9
  -7   4   7 954.401  64.280  10
  -7   4   7 734.361  74.328   5
  -6  -4   7 334.218  35.044   9
  -6  -4   7 366.137  33.866   5
   6  -4  -7 437.468  34.899   8
  -6   4   7 407.478  40.388   9
  -6   4   7 314.632  35.395   5
  -6   4   7 392.646  34.928   1
   6   4  -7 414.137  35.809   4
  -6   4   7 395.546  36.804   2
  -6   4   7 371.332  31.448   6
  -6   4   7 416.934  30.954  10
  -5  -4   7 39.4606  9.4366   9
   5  -4  -7 42.4098 11.9472   4
  -5  -4   7 36.5965  6.0120   1
  -5  -4   7 30.7155  6.4759   1
  -5  -4   7 28.9466  8.4434   9
  -5  -4   7 39.3248  7.6609   5
   5  -4  -7 34.7248  9.3124   8
  -5   4   7 26.6848  8.3929   5
   5   4  -7 31.9463  8.6064   4
  -5   4   7 54.1864  8.2636  10
  -5   4   7 41.9385  9.5550   6
  -5   4   7 40.4583 12.2624   9
  -5   4   7 41.8928 10.6303   1
  -4  -4   7 -0.6330  4.6867   5
   4  -4  -7 -5.6491  7.7754   4
  -4  -4   7 2.27547 3.61330   6
  -4  -4   7 -4.9434  5.5731   9
  -4  -4   7 -3.1256  4.5367   1
  -4  -4   7 1.50971 2.76029   6
   4  -4  -7 4.28873 8.37268   8
  -4  -4   7 -5.8104  5.4631   9
   4  -4  -7 -5.3375  3.9938   7
  -4   4   7 4.51038 6.75698   1
  -4   4   7 -4.8754  6.1886   6
  -4   4   7 9.04050 9.68828   9
  -4   4   7 5.74243 5.81952   5
   4   4  -7 5.08585 5.59885   8
   4   4  -7 1.41147 5.65315   4
  -4   4   7 6.26494 5.04061  10
   3  -4  -7 1143.85   88.27   7
   3  -4  -7 1086.13   98.90   4
  -3  -4   7 1189.78   97.50   9
  -3  -4   7 1074.14   85.78   6
  -3  -4   7 1162.55   93.59   5
   3  -4  -7 1111.76   88.94   8
  -3  -4   7 1152.42   97.85   9
  -3  -4   7 1078.14   85.71   6
  -3  -4   7 1110.78   87.30   1
   3   4  -7 1150.36   86.82   8
   3   4  -7 1163.19   87.61   7
  -3   4   7 1043.04   89.27   6
  -3   4   7 1164.23   93.82   5
  -3   4   7 971.892  88.975   1
   3   4  -7 1022.36   96.07   4
  -3   4   7 1204.61  100.52   9
  -2  -4   7 69.8829 10.5406   1
  -2  -4   7 75.3611 13.9300   9
   2  -4  -7 63.2492 10.9172   8
   2  -4  -7 78.1861 15.4759   4
  -2  -4   7 76.6092 10.0462   6
  -2  -4   7 50.3568  8.8424   6
  -2  -4   7 66.0901 11.1344   5
   2  -4  -7 62.1018 10.9889   7
   2   4  -7 68.5518 10.5146   7
   2   4  -7 78.4798 13.0782   4
  -2   4   7 57.2892 10.8714   5
   2   4  -7 50.8822  9.3809   8
  -2   4   7 43.3625 10.9537   1
  -2   4   7 70.8821  8.8141   8
   1  -4  -7 919.799  71.513   1
  -1  -4   7 880.573  67.381   6
  -1  -4   7 739.771  71.761   5
  -1  -4   7 771.592  67.285   1
   1  -4  -7 865.734  68.272   7
   1  -4  -7 746.419  66.749   8
  -1  -4   7 896.505  66.781   6
   1   4  -7 824.618  74.938   4
  -1   4   7 821.968  71.845   5
  -1   4   7 946.300  71.059   3
  -1   4   7 851.468  69.326   1
   1   4  -7 828.973  67.509   7
   1   4  -7 817.392  66.647   8
   0  -4   7 28.6684  9.7519   5
   0  -4  -7 29.3532  8.9575   8
   0  -4  -7 54.5449 13.2473   1
   0  -4  -7 37.6210  9.4520   7
   0  -4   7 41.2146  9.6465   1
   0   4  -7 41.3880  9.9846   8
   0   4   7 37.1323 10.2790   1
   0   4  -7 48.2965  9.8749   7
   0   4   7 50.5557  9.7868   3
   0   4   7 54.7987 10.5481   5
  -1  -4  -7 11.2435  8.9538   1
   1  -4   7 11.2644  7.5145   1
   1  -4   7 -8.4455  5.9860   5
  -1  -4  -7 13.0166  7.3182   8
  -1  -4  -7 3.98789 5.34279   7
   1  -4   7 3.28990 6.14666   8
  -1   4  -7 -7.1494  9.2579   8
   1   4   7 0.50836 6.18705   5
  -1   4  -7 -3.1329  5.0038   7
   2  -4   7 61.9543 11.7792   8
   2  -4   7 60.7965 14.0184   5
  -2  -4  -7 80.8977 16.1765   1
  -2   4  -7 50.8460 12.6780   8
   3  -4   7 513.379  50.120   5
  -3  -4  -7 457.281  48.598   1
  -3   4  -7 576.852  49.125   2
   7  -5  -7 167.360  19.736   8
  -7  -5   7 176.616  17.743   5
   7   5  -7 178.196  19.048   4
  -7   5   7 202.179  22.028   5
  -7   5   7 172.921  17.679  10
  -7   5   7 178.337  19.548   1
  -7   5   7 207.434  25.525   9
  -7   5   7 162.729  21.921   2
  -6  -5   7 111.300  12.291   5
  -6  -5   7 100.728  13.324   9
  -6  -5   7 100.748  13.187   9
   6  -5  -7 118.875  15.302   8
  -6   5   7 93.0567 11.9342   6
  -6   5   7 114.896  18.661   9
  -6   5   7 85.2094 14.3395   1
   6   5  -7 98.6485 13.3624   4
  -6   5   7 86.2228 15.1462   2
  -6   5   7 77.2974 13.9232   5
  -6   5   7 87.8466 11.7689  10
  -5  -5   7 140.162  17.158   9
   5  -5  -7 160.785  17.615   8
  -5  -5   7 139.243  13.256   1
   5  -5  -7 129.676  20.563   4
  -5  -5   7 137.399  12.706   1
  -5  -5   7 118.719  16.075   9
  -5  -5   7 107.772  14.671   5
  -5   5   7 120.624  20.303   9
  -5   5   7 117.977  17.304   1
   5   5  -7 163.403  17.494   4
  -5   5   7 122.430  16.246   6
  -5   5   7 117.710  16.774   5
   4  -5  -7 36.1656  8.7523   7
   4  -5  -7 37.8920 11.3053   8
  -4  -5   7 40.0396 10.1814   9
  -4  -5   7 35.9007  8.1850   5
  -4  -5   7 33.3855  7.1294   1
   4  -5  -7 44.9025 13.8324   4
  -4  -5   7 46.1803 10.0034   9
   4   5  -7 35.3837  9.4995   4
   4   5  -7 43.1468  7.5173   8
  -4   5   7 26.0175 10.2483   6
  -4   5   7 33.0544  9.9509   1
  -4   5   7 43.6027 12.7258   9
  -4   5   7 23.0464  8.5663   5
  -3  -5   7 44.9904 10.7953   9
  -3  -5   7 34.3510  6.8087   6
  -3  -5   7 30.9384  8.4324   5
  -3  -5   7 38.3059  6.6511   6
  -3  -5   7 35.8886  9.8395   9
  -3  -5   7 35.7760  7.7010   1
   3  -5  -7 34.0449  9.7957   8
   3  -5  -7 46.5914 13.4837   4
   3  -5  -7 27.6661  8.1681   7
  -3   5   7 23.8768  8.6442   5
   3   5  -7 35.4673  9.8655   4
  -3   5   7 22.7789  9.2862   1
   3   5  -7 33.6058  7.5237   8
  -2  -5   7 428.908  39.787   6
   2  -5  -7 461.026  41.357   8
  -2  -5   7 488.878  39.740   6
  -2  -5   7 509.598  44.387   5
  -2  -5   7 521.666  41.140   1
  -2  -5   7 490.586  46.991   9
  -2   5   7 456.558  43.712   5
   2   5  -7 445.130  39.780   8
  -2   5   7 494.981  39.547   8
   2   5  -7 440.045  45.489   4
  -2   5   7 608.570  45.008   1
   2   5  -7 484.984  40.725   7
  -1  -5   7 8.45901 6.21475   6
   1  -5  -7 4.37206 8.67163   1
  -1  -5   7 8.04727 6.93696   5
  -1  -5   7 11.5836  5.6371   6
  -1  -5   7 2.67160 5.56157   1
   1  -5  -7 -0.0636  6.8671   8
   1  -5  -7 14.7287  7.2509   7
  -1   5   7 1.04042 7.15165   1
  -1   5   7 9.09035 6.92661   5
   1   5  -7 20.4572  9.8541   4
  -1   5   7 10.4631  5.9389   3
   1   5  -7 16.7293  7.4118   7
   1   5  -7 10.1059  6.7630   8
   0  -5  -7 23.8434 10.0727   1
   0  -5   7 34.0628 10.2220   5
   0  -5  -7 47.1352 10.0606   7
   0  -5  -7 18.5082  8.3147   8
   0  -5   7 23.9078  7.7328   1
   0   5   7 17.3746  8.5359   5
   0   5   7 24.2914  9.3549   1
   0   5  -7 26.0685  8.9999   7
   0   5   7 35.4735  9.4130   3
   0   5  -7 23.6021  9.6755   8
   1  -5   7 433.945  39.172   1
   1  -5   7 415.636  41.515   5
  -1  -5  -7 442.302  36.814   8
  -1  -5  -7 411.142  38.353   7
  -1  -5  -7 367.706  40.618   1
  -1   5  -7 423.503  38.701   7
   1   5   7 471.006  41.084   5
  -2  -5  -7 75.5503 16.2161   1
   2  -5   7 60.3187 11.3499   8
   2  -5   7 39.5192 12.8958   5
   2   5   7 55.8612 12.3818   5
  -7  -6   7 49.3729  7.7904   5
  -7   6   7 40.4088 13.5517   9
  -7   6   7 69.2901 13.7282   2
  -7   6   7 53.1382 11.0697   1
  -7   6   7 27.4475  6.2951   6
  -7   6   7 48.9135 12.3278   5
   7   6  -7 48.9748  8.9483   4
  -6  -6   7 660.792  59.703   9
  -6  -6   7 717.153  57.552   5
  -6  -6   7 711.085  59.664   9
  -6   6   7 708.589  57.812   1
   6   6  -7 630.521  59.245   4
  -6   6   7 741.827  59.589   2
  -6   6   7 626.055  54.829   6
  -6   6   7 677.260  65.410   9
  -6   6   7 602.208  59.712   5
  -5  -6   7 15.7798  4.7226   1
  -5  -6   7 21.3598  4.9065   1
  -5  -6   7 19.2601  7.8599   9
   5  -6  -7 21.4599  9.3210   8
  -5  -6   7 23.6244  7.2509   5
  -5  -6   7 25.0952  8.5385   9
   5  -6  -7 29.0668 13.3285   4
  -5   6   7 21.7426 11.8206   9
  -5   6   7 11.2550  9.2668   1
   5   6  -7 10.8023  6.9391   4
  -5   6   7 18.3262  8.8546   6
  -5   6   7 24.6019  8.8370   5
  -4  -6   7 285.168  24.001   1
   4  -6  -7 256.098  25.910   7
   4  -6  -7 263.361  27.429   8
   4  -6  -7 228.469  31.133   4
  -4  -6   7 285.998  28.696   9
  -4  -6   7 270.927  26.768   5
  -4  -6   7 293.898  29.222   9
  -4   6   7 239.476  27.274   1
  -4   6   7 275.571  29.035   6
  -4   6   7 239.276  27.409   5
   4   6  -7 253.378  27.941   4
   4   6  -7 301.415  24.043   8
  -3  -6   7 23.0974  6.2449   6
   3  -6  -7 20.5053 12.8131   5
   3  -6  -7 14.6819  7.4451   7
  -3  -6   7 41.7963 10.7325   9
  -3  -6   7 21.9835  6.9425   1
   3  -6  -7 36.2871  9.9197   8
  -3  -6   7 32.1726  8.4407   5
  -3  -6   7 22.3680  5.7405   6
  -3   6   7 36.3443  9.0789   5
  -3   6   7 37.7784 10.7625   1
   3   6  -7 26.0654  9.2459   4
   3   6  -7 23.1237  7.0437   8
   2  -6  -7 54.6471 10.9435   7
  -2  -6   7 43.1524 10.0540   5
   2  -6  -7 37.5490 10.2074   8
  -2  -6   7 49.9464  9.2233   6
  -2  -6   7 52.8846  9.4353   1
  -2  -6   7 54.0048  8.3102   6
  -2  -6   7 33.4429 11.4101   9
   2   6  -7 52.1305  9.7586   7
   2   6  -7 56.3996 12.1136   4
   2   6  -7 39.5186  8.5936   8
  -2   6   7 43.8929 10.5294   5
  -2   6   7 56.5072 12.3782   1
  -1  -6   7 -6.8438  5.4688   5
   1  -6  -7 5.00626 7.44443   8
  -1  -6   7 0.26801 5.20500   1
   1  -6  -7 4.52824 6.68641   7
  -1  -6   7 7.64449 5.92562   6
   1  -6  -7 2.68710 9.43420   1
  -1   6   7 3.34897 6.46858   5
  -1   6   7 5.34735 7.73469   1
   1   6  -7 7.28825 6.57504   7
   1   6  -7 -2.9017  7.6442   8
   1   6  -7 1.93270 8.76760   4
  -1   6   7 18.4032  7.4718   3
   0  -6  -7 364.140  35.469   7
   0  -6  -7 440.905  39.978   1
   0  -6  -7 372.890  33.967   8
   0  -6   7 406.880  38.435   5
   0  -6   7 361.815  35.059   1
   0   6  -7 433.344  36.475   7
   0   6   7 356.433  36.324   3
   0   6   7 394.048  37.799   5
   1  -6   7 34.7945 11.2993   5
  -1  -6  -7 22.8249 10.8056   1
   1  -6   7 40.2601 10.6521   1
  -1   6  -7 24.8360  9.3478   7
   1   6   7 39.4348 11.1863   5
  -2  -6  -7 130.567  21.358   1
   2  -6   7 166.797  21.482   5
  -2   6  -7 89.0066 19.2159   2
  -7   7   7 143.381  18.597   5
  -7   7   7 104.431  17.840   2
  -7   7   7 106.678  12.781   6
  -7   7   7 120.966  16.573   1
  -6  -7   7 174.769  20.100   5
  -6  -7   7 229.825  22.668   9
  -6  -7   7 223.262  21.848   9
   6   7  -7 152.350  20.840   4
  -6   7   7 229.677  23.953   1
  -6   7   7 199.711  23.637   5
  -6   7   7 193.803  21.327   6
  -6   7   7 209.031  23.852   2
  -5  -7   7 33.3966  8.2115   5
  -5  -7   7 20.1640  5.1674   1
   5  -7  -7 13.3856 13.6297   4
  -5  -7   7 22.5648  8.5491   9
  -5  -7   7 24.7819  5.1356   1
  -5  -7   7 31.2853  9.1026   9
  -5   7   7 29.2575 10.6690   2
  -5   7   7 47.1967 11.5006   6
  -5   7   7 30.6566 10.5914   1
  -5   7   7 32.2267 10.2376   5
   5   7  -7 39.4136  9.5285   4
   4  -7  -7 344.523  30.144   7
  -4  -7   7 324.176  32.012   9
  -4  -7   7 304.636  32.240   9
  -4  -7   7 279.010  29.195   5
  -4  -7   7 308.470  26.469   1
   4   7  -7 293.286  31.128   4
  -4   7   7 320.559  31.643   5
   4   7  -7 281.472  26.508   8
  -4   7   7 315.657  31.859   1
  -3  -7   7 31.2590  7.4056   1
  -3  -7   7 12.9566  9.3864   9
  -3  -7   7 15.5772  5.3359   6
   3  -7  -7 32.5123  9.2595   7
   3  -7  -7 33.4859 10.0740   8
   3  -7  -7 43.0285 16.1522   5
  -3  -7   7 19.7244  7.9059   5
  -3  -7   7 32.6552  6.8644   6
  -3   7   7 41.4102 11.3060   1
   3   7  -7 38.6802  7.9024   8
   3   7  -7 18.2007  9.5220   4
  -3   7   7 28.2809  9.4495   5
  -2  -7   7 109.849  15.238   5
  -2  -7   7 92.3715 16.7657   9
   2  -7  -7 99.4035 14.8453   8
  -2  -7   7 89.7738 12.9220   6
  -2  -7   7 86.8242 12.8156   1
  -2  -7   7 102.809  11.969   6
   2  -7  -7 130.202  16.092   7
  -2   7   7 95.2830 16.0965   1
  -2   7   7 115.866  16.166   5
   2   7  -7 109.287  13.500   8
   2   7  -7 117.110  17.190   4
  -1  -7   7 364.504  38.987   5
  -1  -7   7 400.109  36.719   6
   1  -7  -7 407.886  36.366   8
   1  -7  -7 464.408  39.026   7
  -1  -7   7 394.374  36.515   1
  -1   7   7 464.895  40.488   3
   1   7  -7 410.310  37.298   7
  -1   7   7 417.797  39.569   1
   1   7  -7 457.906  42.486   4
  -1   7   7 422.884  39.914   5
   1   7  -7 377.965  36.202   8
   0  -7  -7 198.713  19.673   8
   0  -7  -7 159.944  20.581   7
   0  -7   7 168.691  20.288   1
   0  -7   7 156.341  21.961   5
   0  -7  -7 181.891  24.575   1
   0   7   7 160.337  21.108   5
   0   7  -7 236.437  22.448   7
   1  -7   7 24.9621  9.9871   1
   1  -7   7 11.6808  9.0525   5
  -1  -7  -7 29.5354 11.9280   1
   1   7   7 23.7080  9.5531   5
  -1   7  -7 10.1954  9.5990   7
  -2  -7  -7 164.683  24.482   1
   2  -7   7 178.605  23.360   5
  -2   7  -7 148.884  23.120   2
  -6  -8   7 55.2056 10.6819   9
  -6  -8   7 56.5690  9.7752   5
   6   8  -7 55.2161 10.9529   4
  -6   8   7 51.4630 13.0553   2
  -6   8   7 60.7717 12.1235   6
  -6   8   7 48.5012 13.1738   1
  -6   8   7 61.4047 13.5761   5
  -5  -8   7 962.599  86.350   9
  -5  -8   7 1063.13   83.69   5
  -5  -8   7 1010.26   87.84   9
  -5  -8   7 1056.84   75.55   1
   5   8  -7 829.107  85.921   4
  -5   8   7 1086.33   83.28   2
  -5   8   7 858.957  81.934   1
  -5   8   7 1006.89   86.22   5
  -4  -8   7 39.5526 10.5020   9
  -4  -8   7 60.4723 10.4236   5
  -4  -8   7 54.9964  8.5016   7
  -4  -8   7 38.8556  7.5276   1
  -4  -8   7 61.8832 12.9506   9
   4  -8  -7 40.7935 10.1642   7
  -4   8   7 60.1116 12.6836   7
   4   8  -7 51.7012 11.8200   4
  -4   8   7 36.8782 11.5677   5
   4   8  -7 50.4381  8.8816   8
  -4   8   7 49.6306 13.4903   1
  -3  -8   7 253.297  29.378   9
  -3  -8   7 232.138  21.402   6
  -3  -8   7 225.957  25.503   5
   3  -8  -7 219.158  32.904   5
   3  -8  -7 252.275  26.342   7
  -3  -8   7 234.259  22.952   6
  -3  -8   7 281.158  23.767   1
  -3   8   7 225.944  26.570   5
   3   8  -7 288.129  23.886   8
   3   8  -7 258.257  28.016   4
   2  -8  -7 4.94900 7.41784   7
  -2  -8   7 12.4469  5.6037   6
  -2  -8   7 21.0604  7.6292   6
  -2  -8   7 16.5289  9.3375   9
  -2  -8   7 19.6316  7.7473   5
  -2  -8   7 17.5422  6.8657   1
   2  -8  -7 -1.1236 12.1520   5
  -2   8   7 7.72429 7.93400   5
  -2   8   7 17.4539 10.1590   1
   2   8  -7 16.3246  8.5859   8
   2   8  -7 15.1296  9.9777   4
  -1  -8   7 188.718  22.928   5
  -1  -8   7 187.903  21.057   1
  -1  -8   7 195.753  21.182   6
   1  -8  -7 189.645  22.324   7
   1  -8  -7 210.932  20.775   8
  -1   8   7 188.605  24.127   1
   1   8  -7 172.494  21.265   7
  -1   8   7 182.919  22.603   5
   0  -8   7 171.891  20.879   1
   0  -8   7 159.671  22.160   5
   0  -8  -7 185.384  24.987   1
   0  -8  -7 175.603  19.250   8
   0   8  -7 194.531  21.550   7
   0   8   7 180.829  22.138   5
   1  -8   7 842.067  71.007   1
  -1  -8  -7 855.604  74.564   1
   1  -8   7 824.634  75.571   5
  -6  -9   7 571.934  50.392   5
  -6   9   7 593.338  54.475   5
  -6   9   7 605.694  52.526   2
  -6   9   7 524.802  51.220   1
  -5  -9   7 48.4653  5.4086   1
  -5  -9   7 33.1237  8.8471   5
  -5  -9   7 39.6139 10.9620   9
  -5  -9   7 46.6279 12.0917   9
   5   9  -7 27.9886 10.9935   4
  -5   9   7 26.6316 11.5737   5
  -5   9   7 34.1920 12.4806   1
  -5   9   7 42.9141 12.1899   2
  -4  -9   7 1687.44  129.47   1
  -4  -9   7 1699.84  139.94   5
  -4  -9   7 1787.77  146.65   9
  -4   9   7 1517.35  141.38   5
   4   9  -7 1789.08  130.64   8
   4   9  -7 1615.45  144.49   4
  -4   9   7 1724.58  135.96   1
  -3  -9   7 239.923  24.133   5
  -3  -9   7 187.315  25.902   9
   3  -9  -7 146.069  29.127   5
  -3  -9   7 176.972  18.100   6
   3  -9  -7 225.125  24.189   7
  -3  -9   7 222.970  20.761   1
  -3  -9   7 188.796  19.710   6
   3   9  -7 219.610  21.134   8
   3   9  -7 209.639  25.486   4
  -3   9   7 222.618  26.434   1
  -3   9   7 227.740  25.248   5
   2  -9  -7 141.728  29.275   5
   2  -9  -7 177.530  22.077   7
  -2  -9   7 184.683  17.487   6
  -2  -9   7 174.552  19.145   1
  -2  -9   7 179.336  19.609   6
  -2  -9   7 187.137  21.563   5
   2   9  -7 157.955  22.653   4
  -2   9   7 165.712  21.648   5
  -2   9   7 168.160  23.426   1
  -1  -9   7 69.6844 13.4429   6
   1  -9  -7 102.283  13.392   8
  -1  -9   7 79.2397 13.5495   1
  -1  -9   7 70.9434 14.6567   5
  -1   9   7 91.1659 15.5326   5
   0  -9  -7 568.116  54.482   1
   0  -9   7 562.602  53.832   5
   0  -9   7 504.610  49.734   1
   0   9  -7 639.653  51.058   7
   0   9   7 581.132  53.491   5
   1  -9   7 -0.2412  8.7156   1
   1  -9   7 -0.5986  8.4707   5
  -1  -9  -7  5.5126 11.8841   1
  -5 -10   7 197.230  22.006   5
  -5  10   7 173.560  24.723   1
   5  10  -7 194.944  23.802   4
  -5  10   7 198.011  24.968   5
  -4 -10   7 206.840  25.522   9
  -4 -10   7 168.142  21.137   5
  -4 -10   7 161.303  17.521   1
   4 -10  -7 174.229  22.237   7
   4  10  -7 182.308  22.867   4
  -4  10   7 200.705  25.734   1
  -4  10   7 221.656  24.619   5
  -3 -10   7 476.309  39.985   7
  -3 -10   7 363.567  42.207   5
   3 -10  -7 458.920  53.255   5
  -3 -10   7 436.846  38.873   1
  -3 -10   7 439.730  37.991   6
  -3 -10   7 530.485  48.423   9
  -3 -10   7 474.675  36.606   6
   3  10  -7 478.164  46.252   4
  -3  10   7 491.315  45.725   1
  -3  10   7 442.137  44.442   5
  -2 -10   7 45.4609 11.7376   5
  -2 -10   7 48.3253 11.0629   6
   2 -10  -7 54.6543 19.7875   5
  -2 -10   7 38.0832  7.8198   6
  -2 -10   7 33.3786  9.5145   1
   2  10  -7 33.2580 14.0489   4
  -2  10   7 34.3895 12.1127   5
  -1 -10   7 626.246  61.787   5
  -1 -10   7 692.263  58.061   6
   1 -10  -7 657.376  70.388   5
  -1 -10   7 700.180  57.831   1
  -1  10   7 691.598  62.156   5
   0 -10   7 385.621  38.701   1
   0 -10  -7 405.085  43.194   1
   0 -10   7 470.014  42.615   5
   0  10   7 373.877  40.369   5
  -3 -11   7 138.728  12.942   6
  -3 -11   7 167.325  19.993   5
  -3 -11   7 109.946  14.624   1
   3 -11  -7 130.313  27.289   5
  -3 -11   7 103.646  13.407   6
  -3  11   7 122.494  21.879   1
  -3  11   7 162.490  21.212   5
   3  11  -7 138.887  21.491   4
  -2 -11   7 138.482  14.860   6
  -2 -11   7 144.783  20.361   5
  -2 -11   7 125.541  18.011   6
   2 -11  -7 152.164  29.318   5
  -2 -11   7 172.358  18.238   1
  -2  11   7 113.381  19.084   5
   7   0  -8 0.73435 7.96543   4
  -7   0   8 8.32668 6.34085   5
  -7   0   8 -6.3581  6.9564   9
  -7   0   8 2.11086 3.05321   1
   6   0  -8 246.074  27.532   4
  -6   0   8 245.064  27.064   9
  -6   0   8 271.384  24.011   1
  -6   0   8 230.249  20.835  10
  -6   0   8 257.711  25.232   5
  -5   0   8 3.92788 3.30111   6
   5   0  -8 1.72914 7.26499   4
  -5   0   8 -5.8450  4.1766  10
  -5   0   8 -1.8630  4.7770   6
  -5   0   8 -13.192   6.458   9
  -5   0   8 -10.716   4.072   5
   5   0  -8 11.1939  7.5957   8
  -5   0   8 -5.0613  5.4118   1
  -4   0   8 790.116  70.332   1
   4   0  -8 811.089  69.897   8
  -4   0   8 924.714  79.366   9
   4   0  -8 941.484  78.558   4
  -4   0   8 852.098  73.931   5
  -4   0   8 921.407  70.262   6
  -3   0   8 6.91743 8.64646   9
   3   0  -8 1.93086 6.14254   8
   3   0  -8 1.60986 5.45055   7
   3   0  -8 -4.1463  8.3150   4
  -3   0   8 -0.1233  4.9187   5
  -3   0   8 1.65416 6.10870   1
  -3   0   8 -4.1175  5.5680   6
  -2   0   8 113.352  15.691   1
   2   0  -8 149.378  16.409   7
  -2   0   8 101.954  15.646   5
   2   0  -8 152.560  21.292   4
   2   0  -8 133.577  15.299   8
   1   0  -8 4.49151 6.57455   7
  -1   0   8 2.82155 6.60068   1
  -1   0   8 0.51556 5.98462   5
   1   0  -8 -3.6283  7.0250   8
   0   0   8 14.8448  8.2948   1
   0   0   8 28.0280  9.2780   5
   0   0  -8 24.3185  8.5902   7
   1   0   8 -1.1815  6.9710   8
   1   0   8 6.78424 7.42719   5
   2   0   8 206.461  25.002   5
  -7  -1   8 13.7753  6.3805   5
   7  -1  -8 8.98232 8.08596   4
  -7   1   8 12.9463  6.9776   5
  -7   1   8 8.92576 5.02353   1
  -7   1   8 10.6335  5.1232  10
   7   1  -8 10.0167  8.3108   4
  -7   1   8 -4.6606  7.2469   9
  -6  -1   8 422.349  39.545   5
  -6  -1   8 389.159  36.616   1
   6  -1  -8 474.936  38.954   8
   6  -1  -8 407.184  42.734   4
  -6  -1   8 443.069  42.482   9
  -6   1   8 486.752  38.727   1
   6   1  -8 485.310  42.646   4
  -6   1   8 434.503  34.071  10
  -6   1   8 458.438  43.857   9
  -6   1   8 420.043  39.811   5
  -5  -1   8 246.930  26.481   9
   5  -1  -8 228.427  23.962   8
  -5  -1   8 214.495  18.875   6
   5  -1  -8 220.692  26.177   4
  -5  -1   8 226.283  22.542   1
  -5  -1   8 235.880  23.362   5
  -5   1   8 230.463  22.136   6
  -5   1   8 247.596  27.128   9
  -5   1   8 236.169  23.323   1
   5   1  -8 260.607  22.849   8
  -5   1   8 217.346  23.379   5
   5   1  -8 227.627  26.055   4
  -5   1   8 213.678  19.931  10
  -4  -1   8 276.380  28.440   5
   4  -1  -8 309.637  28.152   8
  -4  -1   8 278.253  25.090   6
  -4  -1   8 295.040  27.135   6
  -4  -1   8 312.606  32.361   9
  -4  -1   8 286.592  27.807   1
   4  -1  -8 276.282  31.600   4
   4   1  -8 291.275  31.417   4
  -4   1   8 263.226  28.351   5
  -4   1   8 264.008  27.726   6
   4   1  -8 294.981  27.323   8
  -4   1   8 367.681  29.765   1
  -4   1   8 338.963  33.316   9
  -3  -1   8 871.372  70.035   6
   3  -1  -8 875.550  70.684   7
  -3  -1   8 1005.04   80.92   9
  -3  -1   8 997.018  71.427   1
   3  -1  -8 882.049  70.638   8
   3  -1  -8 861.197  79.284   4
  -3  -1   8 817.136  74.602   5
  -3   1   8 812.052  74.608   5
   3   1  -8 816.893  69.942   7
  -3   1   8 921.871  71.340   6
  -3   1   8 786.114  71.077   1
   3   1  -8 837.078  78.804   4
   3   1  -8 925.639  70.407   8
   2  -1  -8 20.3267  7.6200   7
  -2  -1   8 1.55399 5.69658   1
   2  -1  -8 15.2048  7.3159   8
  -2  -1   8 6.81610 7.17577   5
  -2   1   8 3.60511 7.15736   1
   2   1  -8 -8.8699  9.1633   4
   2   1  -8 0.79624 5.38737   7
   2   1  -8 1.99125 6.98623   8
  -2   1   8 8.15160 6.79338   5
   1  -1  -8 39.0273  8.9804   8
  -1  -1   8 38.4236  9.7518   1
  -1  -1   8 29.7905  9.1418   5
   1  -1  -8 24.2590  7.9614   7
   1   1  -8 30.5771  8.5064   8
   1   1  -8 28.5676  8.8289   7
  -1   1   8 15.7427  8.4919   1
  -1   1   8 21.2459  8.3654   5
   0  -1   8 292.803  30.187   5
   0  -1   8 307.859  28.980   1
   0  -1  -8 231.288  26.729   7
   0   1   8 313.497  30.046   5
   0   1   8 306.992  26.522   8
   0   1   8 280.211  28.546   1
   0   1  -8 252.697  27.379   7
   1  -1   8 54.6333 10.1852   8
   1  -1   8 54.8980 12.7089   5
   1   1   8 45.9581 10.5158   8
   1   1   8 35.2729 11.1661   5
   2  -1   8 17.5223 11.6711   5
  -2   1  -8 12.7899 11.9219   2
   2   1   8 29.5665 10.4405   5
  -7  -2   8 17.0325  6.8986   5
   7  -2  -8 12.2101  9.1657   4
  -7   2   8 0.14673 8.22346   9
  -7   2   8 11.9328  7.1393   5
  -7   2   8 11.6504  5.2992  10
   7   2  -8 15.8836  8.0392   4
  -7   2   8 12.8968  6.3324   1
  -6  -2   8 235.329  21.447   1
   6  -2  -8 226.189  27.364   4
  -6  -2   8 257.071  26.455   9
   6  -2  -8 238.729  24.664   8
  -6  -2   8 247.681  23.892   5
  -6   2   8 220.516  24.742   5
   6   2  -8 239.616  25.555   4
  -6   2   8 228.856  20.811  10
  -6   2   8 232.849  24.156   1
  -6   2   8 260.218  28.071   9
  -5  -2   8 1255.32  104.25   1
  -5  -2   8 1380.02  116.57   9
  -5  -2   8 1369.83  116.71   9
  -5  -2   8 1119.68  110.42   5
   5  -2  -8 1343.16  106.44   8
   5  -2  -8 1334.26  117.15   4
  -5   2   8 1468.17  112.05   5
  -5   2   8 1371.81  118.10   9
  -5   2   8 1317.57  106.01   1
   5   2  -8 1367.00  104.50   8
  -5   2   8 1410.34   96.85  10
   5   2  -8 1412.25  115.70   4
  -5   2   8 1314.05  104.48   6
   4  -2  -8 153.177  17.832   8
  -4  -2   8 134.414  15.679   6
   4  -2  -8 149.884  20.897   4
  -4  -2   8 146.197  20.264   9
  -4  -2   8 144.848  14.420   6
  -4  -2   8 189.998  18.601   5
  -4  -2   8 145.802  16.933   1
   4   2  -8 163.992  17.290   8
  -4   2   8 140.067  21.328   9
   4   2  -8 165.437  20.730   4
  -4   2   8 123.595  16.988   5
  -4   2   8 143.349  18.131   1
  -4   2   8 163.705  19.110   6
  -3  -2   8 1.75700 5.60497   6
  -3  -2   8 -3.4960  5.3009   5
  -3  -2   8 -1.5496  4.4301   6
   3  -2  -8 2.63591 5.05998   7
   3  -2  -8 7.95590 8.06677   4
  -3  -2   8 6.60469 6.06872   1
  -3  -2   8 -2.3592  7.0977   9
   3  -2  -8 3.16638 7.82804   8
  -3   2   8 1.47795 7.04592   1
   3   2  -8 -2.0878  6.4841   8
  -3   2   8 -5.6970  6.5225   6
  -3   2   8 5.92813 6.67180   5
   3   2  -8 -1.8679  4.1888   7
   3   2  -8 -4.3178  9.1050   4
  -2  -2   8 163.135  18.351   6
  -2  -2   8 203.644  20.282   1
   2  -2  -8 179.464  19.650   8
  -2  -2   8 175.511  20.958   5
  -2  -2   8 183.919  19.054   6
  -2   2   8 171.704  20.362   1
  -2   2   8 203.515  21.473   5
   2   2  -8 157.213  18.321   8
   2   2  -8 181.614  22.996   4
   2   2  -8 183.598  19.484   7
  -1  -2   8 8.80387 7.36799   1
  -1  -2   8 15.1453  7.9506   5
   1  -2  -8 10.3240  7.2748   7
   1  -2  -8 8.37061 8.18953   8
  -1   2   8 6.13902 7.73453   1
   1   2  -8 16.3528  7.3804   7
  -1   2   8 20.2441  8.0275   5
   0  -2   8 607.245  50.434   1
   0  -2  -8 571.112  49.638   7
   0  -2   8 589.888  53.054   5
   0   2   8 531.681  51.650   5
   0   2   8 512.857  49.440   1
   0   2   8 618.173  48.125   8
   0   2  -8 558.059  49.379   7
  -1  -2  -8 150.601  19.438   8
   1  -2   8 158.990  21.364   5
   1  -2   8 142.853  20.124   1
   1   2   8 170.397  20.680   5
  -2   2  -8 342.001  36.713   2
  -7  -3   8 78.5792 11.1806   5
   7  -3  -8 70.6086 14.3720   4
   7   3  -8 98.7188 13.1840   4
  -7   3   8 101.721  11.023  10
  -7   3   8 46.6917 14.0894   9
  -7   3   8 85.8989 12.0611   1
  -7   3   8 77.5162 13.2171   5
   6  -3  -8 52.6522 11.9315   8
  -6  -3   8 64.6063 11.4164   9
  -6  -3   8 60.0068  6.7416   1
  -6  -3   8 65.9361 10.0909   5
  -6  -3   8 58.8856  7.6234   1
   6  -3  -8 49.9824 12.9028   4
   6   3  -8 52.0669 10.7747   4
  -6   3   8 46.1021 10.5461   5
  -6   3   8 62.3032 14.0353   9
  -6   3   8 63.0469 11.8921   1
  -6   3   8 61.2913  9.2422  10
  -6   3   8 53.9911  7.7264   6
  -5  -3   8 20.4274  7.6375   5
   5  -3  -8  9.1179 10.2437   4
   5  -3  -8 42.9271 10.2528   8
  -5  -3   8 22.9572  9.2502   9
  -5  -3   8 15.6966  9.5638   9
  -5  -3   8 17.9942  6.9697   1
  -5   3   8 18.8304  8.0749   5
  -5   3   8 26.5515  9.4639   1
   5   3  -8 19.7272  7.6719   8
   5   3  -8 26.3331 10.0105   4
  -5   3   8 29.9806 10.9437   9
  -5   3   8 12.6074  8.1637   6
  -4  -3   8 6.07015 5.48683   6
   4  -3  -8 14.4428  8.4648   8
  -4  -3   8 4.52551 3.99581   6
   4  -3  -8 1.57821 5.45220   7
  -4  -3   8 3.78039 5.48590   1
  -4  -3   8 0.90276 7.76535   9
   4  -3  -8 3.24414 8.86478   4
  -4  -3   8 -6.8626  4.5005   5
   4   3  -8 6.37454 7.80151   4
  -4   3   8 1.88411 8.74429   9
  -4   3   8 19.0821  8.5262   6
   4   3  -8 5.84350 6.21437   8
  -4   3   8 1.40825 7.28061   1
  -4   3   8 1.45315 6.38649   5
  -3  -3   8 238.120  23.275   6
   3  -3  -8 284.820  25.981   7
   3  -3  -8 236.330  30.532   4
   3  -3  -8 319.200  27.327   8
  -3  -3   8 274.980  26.656   5
  -3  -3   8 229.317  24.505   1
  -3  -3   8 298.570  30.620   9
  -3  -3   8 253.246  23.969   6
   3   3  -8 274.110  29.712   4
  -3   3   8 243.309  26.332   5
   3   3  -8 240.167  24.147   8
  -3   3   8 261.679  26.843   1
  -2  -3   8 36.0420  9.7628   5
  -2  -3   8 43.7038  8.7266   6
   2  -3  -8 23.3293  9.1748   8
  -2  -3   8 33.0027  8.1403   6
   2  -3  -8 29.3629  9.1605   7
  -2  -3   8 51.6427 10.1448   1
  -2   3   8 46.7713 11.4846   1
  -2   3   8 33.3394  9.4649   5
   2   3  -8 32.4341  8.9486   7
   2   3  -8 24.2278 11.2566   4
   2   3  -8 29.4173  8.0656   8
  -1  -3   8 1673.40  132.59   5
  -1  -3   8 1623.93  124.62   1
   1  -3  -8 1472.88  124.38   7
  -1   3   8 1450.81  131.52   5
  -1   3   8 1571.77  125.38   1
   1   3  -8 1715.92  124.92   7
   0  -3   8 239.552  27.111   5
   0  -3   8 252.257  26.568   1
   0   3   8 259.014  27.095   1
   0   3   8 279.054  27.576   5
   0   3   8 258.818  24.508   8
   0   3  -8 216.278  24.784   7
   1  -3   8 232.339  25.397   1
  -1  -3  -8 232.958  24.536   8
   1  -3   8 215.469  25.968   5
   1   3   8 209.629  24.708   5
   7  -4  -8 282.268  31.985   4
  -7  -4   8 270.439  26.128   5
   7   4  -8 234.042  27.337   4
  -7   4   8 254.121  28.631   5
  -7   4   8 349.722  34.046   9
  -7   4   8 294.755  26.904   1
   6  -4  -8 650.752  58.155   4
  -6  -4   8 624.479  52.020   5
  -6  -4   8 639.429  54.904   9
  -6   4   8 565.053  53.506   5
  -6   4   8 545.334  51.200   1
  -6   4   8 573.351  57.740   9
   6   4  -8 595.261  54.351   4
  -6   4   8 569.036  47.975   6
  -5  -4   8 78.9960 10.5000   1
   5  -4  -8 90.7054 16.8293   4
  -5  -4   8 69.2025 11.5422   5
  -5  -4   8 72.8611 14.4729   9
  -5  -4   8 91.7332 14.0155   9
  -5   4   8 79.6417 13.6961   6
  -5   4   8 71.4667 16.2389   9
  -5   4   8 67.2460 13.6608   1
   5   4  -8 60.4627 12.6077   4
  -5   4   8 76.9465 13.1469   5
   4  -4  -8 35.3774 10.8721   8
  -4  -4   8 33.6969  8.1224   1
  -4  -4   8 20.8046  5.3830   6
   4  -4  -8 27.1374 11.3257   4
  -4  -4   8 29.4016  8.3612   5
  -4  -4   8 35.6829 10.3356   9
   4  -4  -8 31.3688  8.9234   7
  -4  -4   8 30.5907  6.7207   6
   4   4  -8 28.7079 10.5771   4
  -4   4   8 30.5971  9.4753   5
  -4   4   8 18.9071  9.7351   1
  -4   4   8 18.3243  9.5021   6
   4   4  -8 48.0709  8.8352   8
   3  -4  -8 177.362  19.266   7
  -3  -4   8 173.710  16.624   6
  -3  -4   8 184.353  18.571   1
  -3  -4   8 150.530  21.055   9
  -3  -4   8 160.774  19.040   5
  -3  -4   8 143.547  16.174   6
  -3   4   8 149.509  19.773   1
   3   4  -8 180.359  17.840   8
  -3   4   8 148.118  19.095   5
   3   4  -8 135.584  20.006   4
  -2  -4   8 619.692  46.702   6
   2  -4  -8 564.983  48.174   7
  -2  -4   8 576.358  47.590   1
  -2  -4   8 522.523  46.297   6
  -2  -4   8 560.955  50.887   5
  -2   4   8 494.223  49.151   1
   2   4  -8 560.631  47.601   7
   2   4  -8 556.765  46.358   8
  -2   4   8 526.583  50.240   5
   2   4  -8 562.567  53.672   4
  -1  -4   8 318.192  29.958   1
   1  -4  -8 334.957  30.869   7
  -1  -4   8 252.253  28.008   6
  -1  -4   8 311.075  31.985   5
  -1   4   8 309.572  31.227   5
  -1   4   8 317.606  31.387   1
   1   4  -8 310.347  29.113   7
   0  -4   8 819.675  66.583   1
   0  -4  -8 873.989  66.991   7
   0  -4   8 702.141  69.701   5
   0   4   8 777.116  64.491   8
   0   4  -8 836.587  66.169   7
   0   4   8 757.951  69.531   5
   1  -4   8 6.85417 9.84284   5
   1  -4   8 2.88464 8.16969   1
   1   4   8 2.78799 8.19703   5
  -7  -5   8 696.218  59.827   5
  -7   5   8 705.776  58.986   1
  -7   5   8 681.002  67.483   9
  -7   5   8 724.231  63.360   5
  -6  -5   8 426.354  39.902   9
  -6  -5   8 420.143  37.329   5
  -6  -5   8 407.273  39.373   9
   6  -5  -8 374.922  42.748   4
  -6   5   8 369.913  39.015   5
  -6   5   8 377.192  38.044   1
   6   5  -8 439.148  39.881   4
  -6   5   8 423.176  35.686   6
  -5  -5   8 192.316  17.492   1
  -5  -5   8 204.582  22.513   9
   5  -5  -8 168.163  25.428   4
  -5  -5   8 173.302  21.423   9
  -5  -5   8 170.892  18.905   5
  -5   5   8 169.106  20.528   6
  -5   5   8 113.963  19.382   1
  -5   5   8 132.692  19.475   5
   5   5  -8 169.301  20.704   4
   4  -5  -8 587.614  51.494   7
  -4  -5   8 547.858  47.879   6
  -4  -5   8 608.115  57.645   9
  -4  -5   8 613.302  50.095   1
  -4  -5   8 597.663  54.135   5
  -4  -5   8 588.418  47.689   6
  -4   5   8 662.189  54.089   1
  -4   5   8 617.839  55.262   5
   4   5  -8 663.769  50.472   8
   4   5  -8 690.453  57.358   4
  -3  -5   8 5.08890 4.56081   6
  -3  -5   8 0.53957 4.71093   6
  -3  -5   8 6.90449 6.29327   1
   3  -5  -8 -2.3536  5.5982   7
  -3  -5   8 6.29082 7.12268   5
  -3  -5   8 6.79159 7.18523   9
  -3   5   8 -1.8706  6.9415   5
   3   5  -8 8.12373 8.61693   4
  -3   5   8 2.10577 8.41117   1
   3   5  -8 -4.7567  6.1043   8
  -2  -5   8 12.4801  7.6097   5
  -2  -5   8 18.2940  7.2411   6
  -2  -5   8 9.55322 7.27404   1
  -2  -5   8 21.7357  7.4731   6
   2  -5  -8 10.2780  7.8190   7
  -2   5   8 15.6977  8.5339   5
  -2   5   8 9.40810 9.08841   1
   2   5  -8 16.4161 10.0267   4
  -1  -5   8 377.117  37.935   5
   1  -5  -8 389.695  36.228   7
  -1  -5   8 354.086  34.224   6
  -1  -5   8 394.653  35.359   1
   1   5  -8 449.395  35.956   7
  -1   5   8 351.505  36.760   5
  -1   5   8 345.945  37.507   1
   0  -5   8 89.8076 16.4704   5
   0  -5   8 86.4904 14.8435   1
   0   5   8 117.341  16.452   5
   0   5  -8 96.6240 15.0303   7
   1  -5   8 -5.7518  8.4440   5
   1  -5   8 3.67975 9.42249   1
   1   5   8 27.4299 10.3982   5
   6  -6  -8 336.878  37.103   4
  -6  -6   8 302.559  30.180   5
  -6  -6   8 317.804  32.616   9
  -6   6   8 266.773  32.177   5
   6   6  -8 337.239  32.486   4
  -6   6   8 334.535  30.346   6
  -6   6   8 362.168  33.105   1
  -5  -6   8 111.954  17.522   9
  -5  -6   8 124.926  15.691   5
  -5  -6   8 125.130  13.495   1
  -5  -6   8 150.978  18.895   9
  -5   6   8 107.561  17.270   6
   5   6  -8 118.648  17.201   4
  -5   6   8 119.706  17.704   5
  -5   6   8 142.934  19.141   1
  -4  -6   8 207.256  20.072   1
   4  -6  -8 198.410  21.836   7
  -4  -6   8 179.985  17.121   6
  -4  -6   8 176.987  21.996   5
  -4  -6   8 274.772  26.674   9
  -4   6   8 185.179  23.814   1
   4   6  -8 211.013  20.246   8
   4   6  -8 211.043  24.476   4
  -4   6   8 243.018  24.702   5
   3  -6  -8 222.490  23.388   7
  -3  -6   8 225.086  20.405   6
  -3  -6   8 199.351  20.680   6
  -3  -6   8 215.204  27.205   9
  -3  -6   8 197.220  21.618   1
  -3  -6   8 191.521  23.787   5
   3   6  -8 217.470  26.215   4
  -3   6   8 267.176  26.023   5
  -3   6   8 245.353  25.889   1
   3   6  -8 226.269  21.680   8
   2  -6  -8 21.4690  8.7995   7
  -2  -6   8 38.6838  8.9001   6
  -2  -6   8 20.6363  8.9805   5
  -2  -6   8 29.6663  9.0225   1
  -2  -6   8 37.6455  8.2690   6
   2   6  -8 43.3002 13.0760   4
  -2   6   8 32.4283 10.8934   1
  -2   6   8 25.9704  9.6851   5
  -1  -6   8 87.5967 14.6247   5
   1  -6  -8 56.0884 12.5964   7
  -1  -6   8 60.5810 11.2217   6
  -1  -6   8 55.4555 11.5450   1
  -1   6   8 82.4073 15.2456   1
   1   6  -8 60.5865 12.2198   7
  -1   6   8 57.5387 12.9565   5
   0  -6   8 4.89324 8.14703   5
   0  -6   8 5.31048 7.59973   1
   0   6  -8 -9.8175  6.9593   7
   0   6   8 -0.2648  7.8649   5
  -6  -7   8 19.6276  9.2787   9
  -6  -7   8 15.3619  7.3543   5
  -6   7   8 6.13920 8.84242   6
   6   7  -8 15.2676  9.1739   4
  -6   7   8 2.94479 8.42714   5
  -6   7   8 1.93549 9.04390   1
  -5  -7   8 441.684  35.081   1
  -5  -7   8 372.994  38.797   5
  -5  -7   8 412.138  41.851   9
  -5   7   8 424.261  41.194   1
   5   7  -8 423.785  41.883   4
  -5   7   8 470.557  42.323   5
   4  -7  -8 21.8674  8.5153   7
  -4  -7   8 2.81180 7.15706   5
  -4  -7   8 28.1372 11.0230   9
  -4  -7   8 17.1058  6.6657   1
  -4   7   8 12.0441 10.1426   1
   4   7  -8 11.9408  8.9420   4
   4   7  -8 29.0380  7.7836   8
  -4   7   8 3.15348 7.90201   5
  -3  -7   8 155.370  16.644   6
  -3  -7   8 213.355  22.307   5
   3  -7  -8 190.428  21.052   7
  -3  -7   8 195.468  24.410   9
  -3  -7   8 175.599  18.485   1
  -3  -7   8 145.017  17.074   6
  -3   7   8 169.184  21.864   1
  -3   7   8 138.629  20.515   5
   3   7  -8 213.264  24.367   4
  -2  -7   8 488.089  42.087   6
  -2  -7   8 531.663  41.367   6
  -2  -7   8 431.008  41.734   1
  -2  -7   8 517.788  46.328   5
   2  -7  -8 479.016  44.018   7
  -2   7   8 519.485  46.103   1
  -2   7   8 431.778  45.268   5
  -1  -7   8 24.6114 10.8799   5
  -1  -7   8 27.2617  8.1356   1
  -1   7   8 3.97672 8.27824   5
   0  -7   8 12.4015  8.5651   1
   0  -7   8 -3.5033  8.7982   5
   0   7   8 0.62230 9.22094   5
  -5  -8   8 295.866  28.741   5
  -5  -8   8 264.324  23.702   1
  -5   8   8 250.827  29.651   5
   5   8  -8 277.066  30.590   4
  -5   8   8 284.921  31.329   1
  -4  -8   8 1090.75   88.64   5
   4  -8  -8 1154.62   85.66   7
  -4  -8   8 1057.44   93.16   9
  -4  -8   8 1007.95   80.99   1
   4   8  -8 915.642  91.530   4
  -4   8   8 1065.19   89.92   5
  -4   8   8 924.158  85.800   1
   3  -8  -8 212.200  25.816   7
  -3  -8   8 249.070  23.604   6
  -3  -8   8 261.482  22.302   6
  -3  -8   8 215.514  23.786   1
  -3  -8   8 280.888  27.794   5
  -3   8   8 286.038  29.301   5
  -3   8   8 228.520  28.540   1
   3   8  -8 231.723  29.371   4
  -2  -8   8 264.390  25.276   1
  -2  -8   8 220.082  27.318   5
  -2  -8   8 253.264  24.987   6
  -2  -8   8 251.613  23.577   6
  -2   8   8 222.711  28.164   1
  -2   8   8 245.208  28.252   5
  -1  -8   8 20.2911 10.8076   5
  -1  -8   8 30.6071 10.0316   1
  -1   8   8 42.8082 12.2243   5
  -4  -9   8 16.0880 10.3535   9
   4   9  -8 17.4330 10.1736   4
  -4   9   8 16.3322 11.4944   1
  -3  -9   8 349.631  34.666   5
  -3  -9   8 321.163  30.155   6
  -3  -9   8 334.920  28.480   6
  -3  -9   8 297.189  30.280   1
   3   9  -8 340.010  37.700   4
  -3   9   8 402.750  37.159   5
  -2  -9   8 68.3922 14.8108   5
  -2  -9   8 68.5869 13.0502   6
  -2  -9   8 77.6050 11.1241   6
  -2  -9   8 66.0499 12.2956   1
   2  -9  -8 57.3487 20.6156   5
  -2   9   8 82.1758 15.7633   5
  -6   0   9 -1.0369  6.0717   1
  -6   0   9 -2.7030  8.6128   9
  -6   0   9 -8.6440  6.3832   5
   6   0  -9 9.45044 7.89309   4
   5   0  -9 75.0355 14.7527   4
  -5   0   9 86.7922 13.6418   1
  -5   0   9 87.8883 16.5191   9
  -5   0   9 73.1979  9.3055   6
  -5   0   9 81.4832 11.8001   6
  -5   0   9 100.604  13.986   5
  -4   0   9 2.69004 6.57215   1
  -4   0   9 4.27718 6.59128   5
   4   0  -9 -6.2474 10.4449   4
  -4   0   9 11.6442  7.9684   6
  -3   0   9 1254.92  102.25   1
  -3   0   9 1293.66  107.69   5
   2   0  -9 -1.4103  6.1275   7
  -2   0   9 9.06622 7.44308   5
  -2   0   9 -9.1527  6.7763   1
   1   0  -9 221.320  23.764   7
  -1   0   9 178.723  24.007   5
  -1   0   9 247.469  25.385   1
   0   0   9 -7.2443  5.8320   5
   0   0   9 5.52942 7.87875   1
  -6  -1   9 93.9699 16.3055   9
   6  -1  -9 85.8855 16.6388   4
  -6  -1   9 96.1970 13.7447   5
  -6   1   9 94.0418 13.9025   1
  -6   1   9 104.807  17.290   9
  -6   1   9 73.1942 13.2133   5
   6   1  -9 80.1234 15.9759   4
  -5  -1   9 70.2565 14.6207   9
  -5  -1   9 65.4962  9.0886   6
  -5  -1   9 55.2639 11.0659   1
   5  -1  -9 48.1319 14.1453   4
  -5  -1   9 44.0297  6.7162   6
  -5  -1   9 52.8203 10.9017   5
   5   1  -9 82.6874 14.1623   4
  -5   1   9 58.4819 11.8634   1
  -5   1   9 61.4565 11.4114   5
  -5   1   9 60.6189 11.0363   6
  -5   1   9 51.9792  8.1229   6
  -5   1   9 46.3389 14.4543   9
  -4  -1   9 993.154  77.970   6
  -4  -1   9 935.132  78.912   1
  -4  -1   9 876.309  82.622   5
   4  -1  -9 975.244  88.485   4
  -4  -1   9 964.411  75.990   6
  -4   1   9 1011.59   80.19   1
  -4   1   9 1072.45   83.98   5
   4   1  -9 974.732  88.049   4
  -4   1   9 941.782  78.844   6
  -3  -1   9 136.881  16.465   6
  -3  -1   9 153.270  18.636   1
  -3  -1   9 167.320  19.499   5
  -3   1   9 123.738  18.522   5
  -3   1   9 194.059  20.952   1
  -2  -1   9 457.802  45.884   5
  -2  -1   9 508.418  44.304   1
   2  -1  -9 494.233  43.614   7
  -2   1   9 468.729  43.939   1
   2   1  -9 524.120  43.897   7
  -2   1   9 494.207  45.999   5
  -1  -1   9 18.5904  7.9648   1
  -1  -1   9 24.2175  9.9441   5
   1  -1  -9 8.84982 7.96199   7
  -1   1   9 -3.5183  7.7037   1
   1   1  -9 4.36910 7.24753   7
  -1   1   9 -2.2552  7.2555   5
   0  -1   9 11.8509  9.4037   5
   0  -1   9 16.6161  9.8138   1
   0   1   9 2.97204 8.66776   5
  -6  -2   9 50.3253 12.0970   9
   6  -2  -9 28.7330 12.1284   4
  -6  -2   9 34.5581  9.1464   5
   6   2  -9 40.5078 12.5896   4
  -6   2   9 29.6794  5.2072   6
  -6   2   9 42.7992 10.9213   1
  -6   2   9 36.7229 13.0775   9
  -6   2   9 23.5451  9.5212   5
  -5  -2   9 -0.9039  3.4533   6
  -5  -2   9 5.62097 6.71219   5
  -5  -2   9 -1.3330  6.2326   1
  -5  -2   9 9.87498 9.13401   9
   5  -2  -9 0.90990 7.75876   4
   5   2  -9 -13.730   9.623   4
  -5   2   9 -0.3172  7.0122   6
  -5   2   9 -10.500   6.233   5
  -5   2   9 8.92855 8.29822   1
  -4  -2   9 450.489  38.493   1
  -4  -2   9 405.362  39.909   5
  -4  -2   9 399.820  36.707   6
  -4  -2   9 465.650  44.555   9
  -4  -2   9 397.595  35.201   6
  -4   2   9 435.038  39.669   1
  -4   2   9 484.937  40.574   6
   4   2  -9 431.938  44.369   4
  -4   2   9 396.018  39.927   5
   3  -2  -9 13.2236  7.9491   7
  -3  -2   9 8.15547 6.40088   6
  -3  -2   9 10.1202  7.7786   5
  -3  -2   9 3.98513 7.54405   1
  -3  -2   9 10.7468  6.5148   6
  -3   2   9 13.6571 10.2696   1
  -3   2   9 2.81602 6.85887   5
  -2  -2   9 50.8200 12.4144   5
   2  -2  -9 53.8310 11.8633   7
  -2  -2   9 78.6261 13.1195   1
  -2  -2   9 70.6718 11.7489   6
   2   2  -9 70.1401 12.8910   7
  -2   2   9 58.9340 13.4155   1
  -2   2   9 65.3064 12.6389   5
  -1  -2   9 241.371  26.255   1
  -1  -2   9 213.372  26.942   5
  -1   2   9 234.664  26.514   1
  -1   2   9 265.399  27.848   5
   1   2  -9 252.603  26.131   7
   6  -3  -9 80.4909 16.2334   4
  -6  -3   9 66.7174 12.1945   5
   6   3  -9 70.4162 15.1780   4
  -6   3   9 86.1644 14.0063   1
  -6   3   9 70.5599  9.9468   6
  -6   3   9 65.3239 12.9789   5
  -5  -3   9 22.5366  7.9505   1
  -5  -3   9 17.9496  8.9534   9
  -5  -3   9 -2.5414  6.3070   5
   5  -3  -9 24.6474 11.4601   4
   5   3  -9 23.2096  9.8122   4
  -5   3   9 -1.0724  6.5693   5
  -5   3   9 -1.4308  7.5392   6
  -5   3   9 11.4631  8.5023   1
  -4  -3   9 9.79000 8.04180   9
  -4  -3   9 7.41525 7.00436   1
  -4  -3   9 10.2359  5.1247   6
  -4  -3   9 4.61703 6.63894   6
  -4  -3   9 2.24521 6.82415   5
   4   3  -9 -11.208   9.385   4
  -4   3   9 4.44512 9.54974   1
  -4   3   9 2.29563 7.65504   5
   3  -3  -9 56.7685 11.8009   7
  -3  -3   9 44.9608  9.3503   6
  -3  -3   9 47.7376 11.0746   1
  -3  -3   9 48.4420 11.2125   5
  -3  -3   9 42.4179 10.0061   6
  -3   3   9 60.5544 13.1848   1
  -3   3   9 59.3590 12.4860   5
   2  -3  -9 22.8788  8.9435   7
  -2  -3   9 18.7583  8.2302   6
  -2  -3   9 14.5259  9.2895   1
  -2  -3   9 15.4756  9.0201   5
  -2   3   9 16.4779  9.8031   1
  -2   3   9 33.8190 10.6078   5
  -1  -3   9 44.4220 12.3462   5
  -1  -3   9 45.2635 12.3196   1
   1   3  -9 44.2798 12.1013   7
  -1   3   9 36.6869 12.5266   1
  -1   3   9 43.0387 12.1552   5
   6   4  -9 42.2382 11.8717   4
  -5  -4   9 218.652  25.023   5
  -5  -4   9 251.025  23.316   1
  -5  -4   9 271.154  28.417   9
   5   4  -9 204.966  27.303   4
  -5   4   9 219.159  25.965   5
  -5   4   9 253.537  26.620   6
  -5   4   9 222.491  26.150   1
  -4  -4   9 17.9932  8.6383   5
  -4  -4   9 47.3499 13.2405   9
  -4  -4   9 20.2648  7.2492   6
  -4  -4   9 21.9314  6.0845   6
  -4  -4   9 15.1849  7.9862   1
   4   4  -9 26.7682 11.8160   4
  -4   4   9 25.6827  9.1961   5
  -4   4   9 34.1355 11.1098   1
  -3  -4   9 89.2685 12.3853   6
  -3  -4   9 77.7468 14.6103   5
  -3  -4   9 74.9727 13.2351   1
  -3  -4   9 109.733  13.449   6
   3  -4  -9 110.343  15.125   7
  -3   4   9 121.352  18.155   1
  -3   4   9 86.3762 14.8034   5
  -2  -4   9 321.330  30.887   5
  -2  -4   9 253.267  26.682   6
  -2  -4   9 266.545  27.784   1
   2  -4  -9 280.107  29.624   7
  -2   4   9 260.954  29.235   5
  -2   4   9 290.637  30.167   1
  -1  -4   9 323.741  32.887   1
  -1  -4   9 356.908  35.685   5
  -1   4   9 345.959  35.194   5
   1   4  -9 320.971  32.168   7
  -1   4   9 332.510  35.165   1
  -5  -5   9 182.294  18.698   1
  -5  -5   9 179.004  20.487   5
  -5  -5   9 140.572  22.196   9
  -5   5   9 174.074  21.669   5
   5   5  -9 144.884  21.407   4
  -4  -5   9 204.053  19.027   6
  -4  -5   9 196.854  23.105   5
  -4  -5   9 201.495  26.568   9
  -4  -5   9 204.173  19.844   6
  -4  -5   9 212.888  21.778   1
  -4   5   9 234.983  25.590   1
   4   5  -9 222.189  26.941   4
  -4   5   9 189.408  24.105   5
  -3  -5   9 11.2576  6.6044   6
  -3  -5   9 6.25622 6.56484   6
  -3  -5   9 4.58445 8.57922   5
  -3  -5   9 1.06041 7.81348   1
   3  -5  -9 3.55483 6.57653   7
  -3   5   9 -8.6121  9.2800   1
  -3   5   9 6.67595 8.81295   5
  -2  -5   9 47.5106 10.5767   6
  -2  -5   9 60.9427 12.0423   1
  -2  -5   9 46.0333 12.1071   5
  -2   5   9 53.4778 15.5598   1
  -2   5   9 38.0524 12.0443   5
  -4  -6   9 196.303  18.673   6
  -4  -6   9 190.880  20.903   1
  -4  -6   9 209.623  23.452   5
  -4  -6   9 193.312  18.293   6
   4   6  -9 205.427  26.216   4
  -4   6   9 200.794  25.450   1
  -4   6   9 252.233  26.151   5
  -3  -6   9 639.528  59.335   5
  -3  -6   9 626.271  53.446   6
  -3  -6   9 688.133  53.217   6
  -3  -6   9 637.372  54.976   1
  -3   6   9 687.190  60.391   5
  -3   6   9 622.436  57.839   1
   0   0   0    0.00    0.00   0
;
_shelx_hkl_checksum              77275
_shelx_res_file
;
    Imw012_0m.res created by SHELXL-2014/7
TITL Imw012_0m in P2(1)/n
CELL 0.71073   7.1033  12.0526   7.4032  90.000 112.144  90.000
ZERR    2.00   0.0004   0.0008   0.0005   0.000   0.002   0.000
LATT 1
SYMM 0.5-X, 0.5+Y, 0.5-Z
SFAC C  H  S  Br Sn
UNIT 8  16  4  8  2
LIST 4 ! automatically inserted. Change 6 to 4 for CHECKCIF!!
OMIT -3 56
L.S. 4
ACTA
BOND $H
FMAP 2
PLAN 5
SIZE  0.059  0.061  0.161
TEMP -173
WGHT    0.004300    0.575300
EXTI    0.004153
FVAR       0.36636   0.01458
MOLE 1
SN1   5    0.000000    0.000000    0.500000    10.50000    0.00749    0.00663 =
         0.00903    0.00008    0.00420    0.00013
BR1   4    0.179634   -0.124971    0.334637    11.00000    0.01171    0.01121 =
         0.01229   -0.00103    0.00672    0.00266
BR2   4    0.045040    0.165888    0.304643    11.00000    0.01522    0.00948 =
         0.01585    0.00347    0.00873    0.00006
S1    3    0.362816    0.046810    0.768318    11.00000    0.00956    0.01064 =
         0.01102    0.00020    0.00413    0.00011
C1    1    0.313225    0.075599    0.986727    11.00000    0.01219    0.01309 =
         0.01023   -0.00120    0.00406    0.00273
AFIX  23
H11   2    0.234944    0.145471    0.968575    11.00000   21.00000
H12   2    0.229452    0.015092    1.007772    11.00000   21.00000
AFIX   0
C2    1    0.508811    0.086045    1.165708    11.00000    0.01210    0.01169 =
         0.01236   -0.00381    0.00172    0.00295
AFIX  23
H21   2    0.477114    0.114616    1.276414    11.00000   21.00000
H22   2    0.600171    0.139941    1.138824    11.00000   21.00000
AFIX   0
HKLF 4
REM  Imw012_0m in P2(1)/n
REM R1 =  0.0166 for    1339 Fo > 4sig(Fo)  and  0.0187 for all    1426 data
REM     54 parameters refined using      0 restraints
END
WGHT      0.0043      0.5753
REM Highest difference peak  0.718,  deepest hole -0.456,  1-sigma level  0.124
Q1    1  -0.0543  0.1640  0.1991  11.00000  0.05    0.72
Q2    1   0.1051  0.0041  0.5987  11.00000  0.05    0.58
Q3    1   0.6037  0.1360  0.9979  11.00000  0.05    0.53
Q4    1   0.5791  0.0286  1.2419  11.00000  0.05    0.48
Q5    1   0.4165  0.0835  1.0831  11.00000  0.05    0.47
;
_shelx_res_checksum              24415
loop_
_space_group_symop_operation_xyz
'x, y, z'
'-x+1/2, y+1/2, -z+1/2'
'-x, -y, -z'
'x-1/2, -y-1/2, z-1/2'
loop_
_atom_site_type_symbol
_atom_site_label
_atom_site_fract_x
_atom_site_fract_y
_atom_site_fract_z
_atom_site_U_iso_or_equiv
_atom_site_adp_type
_atom_site_calc_flag
_atom_site_occupancy
Sn Sn1 0.0000 0.0000 0.5000 0.00740(7) Uani d 1
Br Br1 0.17963(4) -0.12497(2) 0.33464(3) 0.01109(8) Uani d 1
Br Br2 0.04504(4) 0.16589(2) 0.30464(4) 0.01267(8) Uani d 1
S S1 0.36282(9) 0.04681(5) 0.76832(9) 0.01033(13) Uani d 1
C C1 0.3132(4) 0.0756(2) 0.9867(3) 0.0119(5) Uani d 1
H H11 0.2349 0.1455 0.9686 0.015(4) Uiso calc 1
H H12 0.2295 0.0151 1.0078 0.015(4) Uiso calc 1
C C2 0.5088(4) 0.0860(2) 1.1657(4) 0.0129(5) Uani d 1
H H21 0.4771 0.1146 1.2764 0.015(4) Uiso calc 1
H H22 0.6002 0.1399 1.1388 0.015(4) Uiso calc 1
loop_
_atom_site_aniso_label
_atom_site_aniso_U_11
_atom_site_aniso_U_22
_atom_site_aniso_U_33
_atom_site_aniso_U_12
_atom_site_aniso_U_13
_atom_site_aniso_U_23
Sn1 0.00749(13) 0.00663(12) 0.00903(13) 0.00013(8) 0.00420(9) 0.00008(8)
Br1 0.01171(14) 0.01121(13) 0.01229(14) 0.00266(9) 0.00672(10) -0.00103(9)
Br2 0.01522(15) 0.00948(13) 0.01585(14) 0.00006(9) 0.00873(11) 0.00347(9)
S1 0.0096(3) 0.0106(3) 0.0110(3) 0.0001(2) 0.0041(2) 0.0002(2)
C1 0.0122(12) 0.0131(12) 0.0102(12) 0.0027(10) 0.0041(10) -0.0012(10)
C2 0.0121(12) 0.0117(12) 0.0124(12) 0.0029(10) 0.0017(10) -0.0038(10)
loop_
_atom_type_symbol
_atom_type_description
_atom_type_scat_dispersion_real
_atom_type_scat_dispersion_imag
_atom_type_scat_source
C C 0.0033 0.0016 'International Tables Vol C Tables 4.2.6.8 and 6.1.1.4'
H H 0.0000 0.0000 'International Tables Vol C Tables 4.2.6.8 and 6.1.1.4'
S S 0.1246 0.1234 'International Tables Vol C Tables 4.2.6.8 and 6.1.1.4'
Br Br -0.2901 2.4595 'International Tables Vol C Tables 4.2.6.8 and 6.1.1.4'
Sn Sn -0.6537 1.4246 'International Tables Vol C Tables 4.2.6.8 and 6.1.1.4'
loop_
_geom_angle_atom_site_label_1
_geom_angle_atom_site_label_2
_geom_angle_atom_site_label_3
_geom_angle_site_symmetry_1
_geom_angle_site_symmetry_3
_geom_angle
Br2 Sn1 Br2 3_556 . 180.0
Br2 Sn1 Br1 3_556 . 90.092(9)
Br2 Sn1 Br1 . . 89.908(9)
Br2 Sn1 Br1 3_556 3_556 89.908(9)
Br2 Sn1 Br1 . 3_556 90.092(9)
Br1 Sn1 Br1 . 3_556 180.0
Br2 Sn1 S1 3_556 3_556 87.931(15)
Br2 Sn1 S1 . 3_556 92.069(15)
Br1 Sn1 S1 . 3_556 92.027(15)
Br1 Sn1 S1 3_556 3_556 87.973(15)
Br2 Sn1 S1 3_556 . 92.069(15)
Br2 Sn1 S1 . . 87.931(15)
Br1 Sn1 S1 . . 87.973(15)
Br1 Sn1 S1 3_556 . 92.027(15)
S1 Sn1 S1 3_556 . 180.00(3)
Sn1 Br1 H11 . 3_556 83.1
Sn1 Br1 H21 . 3_657 83.6
H11 Br1 H21 3_556 3_657 161.5
Sn1 Br1 H12 . 1_554 106.2
H11 Br1 H12 3_556 1_554 80.0
H21 Br1 H12 3_657 1_554 116.1
Sn1 Br1 H11 . 2_546 110.3
H11 Br1 H11 3_556 2_546 104.2
H21 Br1 H11 3_657 2_546 68.8
H12 Br1 H11 1_554 2_546 143.5
Sn1 Br1 Br2 . 2_545 167.821(10)
H11 Br1 Br2 3_556 2_545 102.6
H21 Br1 Br2 3_657 2_545 88.3
H12 Br1 Br2 1_554 2_545 85.5
H11 Br1 Br2 2_546 2_545 58.0
Sn1 Br2 H22 . 1_454 79.0
C1 S1 C2 . 3_657 100.11(12)
C1 S1 Sn1 . . 104.35(8)
C2 S1 Sn1 3_657 . 105.15(8)
C2 C1 S1 . . 111.83(17)
C2 C1 H11 . . 109.2
S1 C1 H11 . . 109.2
C2 C1 H12 . . 109.2
S1 C1 H12 . . 109.2
H11 C1 H12 . . 107.9
C1 C2 S1 . 3_657 111.25(17)
C1 C2 H21 . . 109.4
S1 C2 H21 3_657 . 109.4
C1 C2 H22 . . 109.4
S1 C2 H22 3_657 . 109.4
H21 C2 H22 . . 108.0
loop_
_geom_bond_atom_site_label_1
_geom_bond_atom_site_label_2
_geom_bond_site_symmetry_2
_geom_bond_distance
_geom_bond_publ_flag
Sn1 Br2 3_556 2.5574(3) ?
Sn1 Br2 . 2.5574(3) ?
Sn1 Br1 . 2.5638(2) ?
Sn1 Br1 3_556 2.5638(3) ?
Sn1 S1 3_556 2.6546(6) ?
Sn1 S1 . 2.6546(6) ?
Br1 H11 3_556 2.9646 yes
Br1 H21 3_657 2.9932 yes
Br2 H22 1_454 2.9438 yes
Br1 H12 1_554 3.0783 yes
Br1 H11 2_546 3.0788 yes
Br1 Br2 2_545 3.5724(4) yes
S1 C1 . 1.813(2) ?
S1 C2 3_657 1.816(3) ?
C1 C2 . 1.521(3) ?
C1 H11 . 0.9900 ?
C1 H12 . 0.9900 ?
C2 S1 3_657 1.816(3) ?
C2 H21 . 0.9900 ?
C2 H22 . 0.9900 ?
loop_
_geom_torsion_atom_site_label_1
_geom_torsion_atom_site_label_2
_geom_torsion_atom_site_label_3
_geom_torsion_atom_site_label_4
_geom_torsion_site_symmetry_1
_geom_torsion_site_symmetry_3
_geom_torsion_site_symmetry_4
_geom_torsion
Br2 Sn1 S1 C1 3_556 . . -60.87(9)
Br2 Sn1 S1 C1 . . . 119.13(9)
Br1 Sn1 S1 C1 . . . -150.89(9)
Br1 Sn1 S1 C1 3_556 . . 29.11(9)
Br2 Sn1 S1 C2 3_556 . 3_657 44.02(9)
Br2 Sn1 S1 C2 . . 3_657 -135.98(9)
Br1 Sn1 S1 C2 . . 3_657 -46.00(9)
Br1 Sn1 S1 C2 3_556 . 3_657 134.00(9)
Sn1 S1 C1 C2 . . . 170.73(16)
S1 C1 C2 S1 . . 3_657 -69.0(2)
C1 C2 S1 C1 . 3_657 3_657 61.7(2)
C2 S1 C1 C2 3_657 . . 62.1(2)

_cod_database_fobs_code 2241493
