#------------------------------------------------------------------------------
#$Date: 2015-08-27 05:26:08 +0300 (Thu, 27 Aug 2015) $
#$Revision: 153702 $
#$URL: svn://www.crystallography.net/cod/cif/2/24/10/2241056.cif $
#------------------------------------------------------------------------------
#
# This file is available in the Crystallography Open Database (COD),
# http://www.crystallography.net/. The original data for this entry
# were provided by IUCr Journals, http://journals.iucr.org/.
#
# The file may be used within the scientific community so long as
# proper attribution is given to the journal article from which the
# data were obtained.
#
data_2241056
loop_
_publ_author_name
'Naik, Vasant S.'
'Yathirajan, Hemmige S.'
'Jasinski, Jerry P.'
'Smolenski, Victoria A.'
'Glidewell, Christopher'
_publ_section_title
;
 The crystal structures of six
 (2<i>E</i>)-3-aryl-1-(5-halogenothiophen-2-yl)prop-2-en-1-ones
;
_journal_coeditor_code           SU5193
_journal_issue                   9
_journal_name_full               'Acta Crystallographica Section E'
_journal_page_first              1093
_journal_page_last               1099
_journal_paper_doi               10.1107/S2056989015015534
_journal_volume                  71
_journal_year                    2015
_chemical_formula_iupac          'C13 H8 Br Cl O S'
_chemical_formula_moiety         'C13 H8 Br Cl O S'
_chemical_formula_sum            'C13 H8 Br Cl O S'
_chemical_formula_weight         327.60
_chemical_name_systematic
;
(2<i>E</i>)-1-(5-Chlorothiophen-2-yl)-3-(4-bromophenyl)prop-2-en-1-one
;
_space_group_crystal_system      triclinic
_space_group_IT_number           2
_space_group_name_Hall           '-P 1'
_space_group_name_H-M_alt        'P -1'
_symmetry_space_group_name_Hall  '-P 1'
_symmetry_space_group_name_H-M   'P -1'
_atom_sites_solution_hydrogens   geom
_audit_creation_method           SHELXL-2014
_cell_angle_alpha                75.250(10)
_cell_angle_beta                 81.446(8)
_cell_angle_gamma                70.281(12)
_cell_formula_units_Z            2
_cell_length_a                   6.0152(8)
_cell_length_b                   8.5691(12)
_cell_length_c                   13.1824(9)
_cell_measurement_reflns_used    4058
_cell_measurement_temperature    173(2)
_cell_measurement_theta_max      32.826
_cell_measurement_theta_min      3.204
_cell_volume                     617.08(14)
_computing_cell_refinement
;
CrysAlis PRO (Agilent, 2012)
;
_computing_data_collection
;
CrysAlis PRO (Agilent, 2012)
;
_computing_data_reduction
;
CrysAlis RED (Agilent, 2012)
;
_computing_molecular_graphics
;
PLATON (Spek, 2009)
;
_computing_publication_material  'SHELXL-2014 and PLATON'
_computing_structure_refinement
;
SHELXL-2014 (Sheldrick, 2015)
;
_computing_structure_solution
;
SHELXS-97 (Sheldrick, 2008)
;
_diffrn_ambient_temperature      173(2)
_diffrn_measured_fraction_theta_full 0.999
_diffrn_measured_fraction_theta_max 0.999
_diffrn_measurement_device_type  'Agilent Eos Gemini'
_diffrn_measurement_method       '\w scans'
_diffrn_radiation_type           MoK\a
_diffrn_radiation_wavelength     0.71073
_diffrn_reflns_av_R_equivalents  0.0262
_diffrn_reflns_limit_h_max       8
_diffrn_reflns_limit_h_min       -8
_diffrn_reflns_limit_k_max       12
_diffrn_reflns_limit_k_min       -10
_diffrn_reflns_limit_l_max       18
_diffrn_reflns_limit_l_min       -18
_diffrn_reflns_number            6674
_diffrn_reflns_theta_full        25.242
_diffrn_reflns_theta_max         29.994
_diffrn_reflns_theta_min         3.204
_diffrn_standards_decay_%        0
_diffrn_standards_interval_count 0
_diffrn_standards_interval_time  0
_diffrn_standards_number         0
_exptl_absorpt_coefficient_mu    3.694
_exptl_absorpt_correction_T_max  0.514
_exptl_absorpt_correction_T_min  0.298
_exptl_absorpt_correction_type   multi-scan
_exptl_absorpt_process_details
;
(CrysAlis RED; Agilent, 2012)
;
_exptl_crystal_colour            colourless
_exptl_crystal_density_diffrn    1.763
_exptl_crystal_description       needle
_exptl_crystal_F_000             324
_exptl_crystal_size_max          0.410
_exptl_crystal_size_mid          0.200
_exptl_crystal_size_min          0.180
_refine_diff_density_max         1.431
_refine_diff_density_min         -0.525
_refine_ls_extinction_method     none
_refine_ls_goodness_of_fit_ref   1.028
_refine_ls_hydrogen_treatment    constr
_refine_ls_matrix_type           full
_refine_ls_number_parameters     154
_refine_ls_number_reflns         3599
_refine_ls_number_restraints     0
_refine_ls_restrained_S_all      1.028
_refine_ls_R_factor_all          0.0604
_refine_ls_R_factor_gt           0.0420
_refine_ls_shift/su_max          0.000
_refine_ls_shift/su_mean         0.000
_refine_ls_structure_factor_coef Fsqd
_refine_ls_weighting_details
'w=1/[\s^2^(Fo^2^)+(0.0428P)^2^+0.3839P] where P=(Fo^2^+2Fc^2^)/3'
_refine_ls_weighting_scheme      calc
_refine_ls_wR_factor_gt          0.0913
_refine_ls_wR_factor_ref         0.0998
_reflns_number_gt                2817
_reflns_number_total             3599
_reflns_threshold_expression     'I > 2\s(I)'
_cod_data_source_file            su5193sup1.cif
_cod_data_source_block           V
_cod_original_cell_volume        617.09(14)
_cod_database_code               2241056
_shelx_space_group_comment
;
The symmetry employed for this shelxl refinement is uniquely defined
by the following loop, which should always be used as a source of
symmetry information in preference to the above space-group names.
They are only intended as comments.
;
_shelx_estimated_absorpt_t_min   0.313
_shelx_estimated_absorpt_t_max   0.556
_shelx_hkl_file
;
   0   0  -2 906.849 93.1744   6
   0   0  -3 35918.2 662.600   4
   0   0   3 35375.6 686.263   4
   0   0   3 35143.3 825.182   2
   0   0   3 34285.4 854.809   3
   0   0  -3 36008.4 874.583   6
   0   0  -4 55338.6 1243.80   3
   0   0   4 55048.4 1251.26   2
   0   0   4 53770.7 1292.77   3
   0   0  -4 56908.6 1017.69   4
   0   0   4 56914.7 1066.00   4
   0   0  -4 58397.0 1326.36   6
   0   0  -5 7587.86 251.911   4
   0   0  -5 7249.73 430.998   6
   0   0   5 6732.05 411.041   3
   0   0   5 7295.81 286.758   4
   0   0   5 7293.57 403.179   2
   0   0   6 4800.75 246.379   4
   0   0   6 5240.32 378.345   2
   0   0  -6 4936.80 212.939   4
   0   0   6 4433.12 362.014   3
   0   0  -6 5506.17 401.513   6
   0   0   7 483.957 180.949   2
   0   0   7 819.819 118.322   4
   0   0  -7 471.160 75.8974   4
   0   0  -7 480.361 170.934   6
   0   0   8 420.671 95.2456   4
   0   0  -8 218.925 148.864   6
   0   0   8 146.552 154.524   2
   0   0  -8 373.258 75.5555   4
   0   0   9 4723.51 295.087   4
   0   0  -9 4409.01 442.718   6
   0   0  -9 5351.88 250.464   4
   0   0   9 4765.23 478.319   3
   0   0   9 4845.71 460.992   2
   0   0 -10 11232.0 741.383   6
   0   0  10 9817.86 724.778   3
   0   0 -10 11289.0 395.756   4
   0   0  10 11160.4 745.593   2
   0   0  11 689.149 263.732   3
   0   0 -11 801.621 235.797   6
   0   0  11 837.517 278.359   2
   0   0  12 23939.3 1182.92   2
   0   0  12 23452.5 1222.66   3
   0   0 -12 22035.9 1124.31   6
   0   0  13 11740.4 879.244   3
   0   0  13 11008.7 855.959   2
   0   0 -13 10206.1 794.535   6
   0   0  14 16447.1 1074.51   2
   0   0  14 15711.5 1071.55   3
   0   0  15 8545.35 810.373   2
   0   0  15 7383.66 779.172   3
   0   0  16 16478.6 1156.40   2
   0   0  16 16153.7 1150.36   3
   0   0  17 3389.28 603.923   3
   0   0  17 3190.39 592.527   2
   0   0  18 202.736 364.123   2
   0  -1  17 588.480 354.371   3
   0  -1  16-142.684 296.023   2
   0  -1  16 501.900 346.394   3
   0  -1  15 4929.56 669.101   2
   0  -1  15 3911.82 605.607   3
   0  -1  14-145.535 288.248   3
   0  -1  14 167.335 272.867   2
   0  -1  13 3896.93 533.964   3
   0  -1  13 3988.20 547.560   2
   0  -1  12 4082.11 503.082   3
   0  -1  12 2927.76 428.389   2
   0  -1  11 6796.02 613.605   2
   0  -1  11 6908.02 631.561   3
   0  -1  10 52343.7 1721.07   2
   0  -1  10 50512.2 1690.68   3
   0   1 -10 53800.6 1250.39   4
   0  -1   9 128070. 2969.89   3
   0   1  -9 130463. 2426.76   4
   0  -1   9 125423. 2950.96   2
   0   1  -8 50167.1 1161.93   4
   0  -1   8 49792.1 1528.35   2
   0  -1   7 111251. 2485.59   3
   0  -1   7 116136. 2519.01   2
   0   1  -7 111761. 2103.21   4
   0   1  -6 53919.8 1159.08   4
   0  -1   6 54184.7 1429.42   2
   0  -1   6 55700.9 1446.82   3
   0  -1   5 28785.8 759.474   4
   0   1  -5 28437.6 713.268   4
   0  -1   5 28859.6 890.700   2
   0  -1   5 28723.7 868.239   3
   0  -1   4 14121.4 545.748   2
   0  -1   4 15260.7 475.221   4
   0  -1   4 13388.5 504.502   3
   0   1  -4 14219.4 438.391   4
   0  -1   3 184.959 78.0132   2
   0   1  -3 179.533 53.9818   4
   0  -1   3 164.547 70.5413   3
   0  -1   2 1597.68 128.272   2
   0   1  -2 1663.05 122.540   4
   0  -1   2 1602.32 121.679   3
   0   1  -1 296.006 49.0467   7
   0   1  -1 297.840 51.3795   4
   0   1   2 7120.30 236.193   2
   0   1   3 150547. 2572.37   2
   0   1   3 152450. 2594.47   1
   0   1   3 147648. 2583.53   3
   0   1   4 40886.4 969.309   1
   0   1   4 40113.3 997.095   3
   0  -1  -4 40366.6 938.963   1
   0   1   4 39818.2 960.518   2
   0  -1  -4 41769.5 1006.71   3
   0  -1  -4 39808.2 743.962   4
   0   1   5 58897.8 1354.54   2
   0  -1  -5 58071.5 1027.70   4
   0   1   5 59305.9 1430.72   3
   0  -1  -6 54393.4 979.340   4
   0   1   6 55241.4 1383.87   2
   0   1   6 55583.5 1492.20   3
   0   1   7 143574. 2465.75   4
   0  -1  -7 147977. 2393.74   4
   0   1   7 152831. 2989.17   2
   0   1   7 151496. 3155.74   3
   0   1   8 79461.9 2067.74   3
   0  -1  -8 76901.4 1935.88   6
   0  -1  -8 73710.8 1293.16   4
   0   1   8 72493.8 1368.06   4
   0   1   8 76089.2 1911.89   2
   0  -1  -9 9333.75 274.598   4
   0  -1  -9 10034.3 642.543   6
   0   1   9 10243.7 658.359   2
   0   1   9 9536.20 683.592   3
   0   1  10 848.610 260.680   3
   0   1  10 733.013 259.508   2
   0  -1 -10 1064.23 82.7911   4
   0  -1 -10 820.157 230.523   6
   0   1  11 686.670 271.964   2
   0   1  11 610.693 273.413   3
   0  -1 -11 941.317 307.854   6
   0  -1 -12 12739.6 839.567   6
   0   1  12 11714.7 851.027   3
   0   1  12 12699.1 872.300   2
   0   1  13 27367.6 1355.24   3
   0  -1 -13 23816.0 1212.52   6
   0   1  13 25974.7 1299.54   2
   0   1  14 3478.85 534.925   3
   0  -1 -14 2747.45 436.712   6
   0   1  14 3611.83 543.191   2
   0   1  15 2801.30 500.394   2
   0  -1 -15 2711.81 474.767   6
   0   1  15 3421.88 552.911   3
   0   1  16 3794.71 618.704   3
   0   1  16 3777.73 581.064   2
   0  -1 -16 3786.92 553.027   6
   0   1  17 2375.06 527.513   2
   0   1  17 2346.46 510.596   3
   0   1  18-118.928 358.990   2
   0   2 -18 3025.41 560.044   7
   0  -2  17 6028.89 800.033   3
   0  -2  16 13276.4 1122.79   3
   0  -2  15 17242.1 1213.07   3
   0  -2  14 12898.0 990.586   3
   0  -2  13-420.192 334.956   3
   0  -2  12 73.4020 257.016   3
   0  -2  12 160.093 266.529   2
   0  -2  11 2008.36 391.044   2
   0  -2  11 2296.42 408.882   3
   0  -2  10 1649.34 308.894   2
   0   2 -10 2447.75 236.644   4
   0  -2  10 2261.55 379.303   3
   0  -2   9 6773.55 579.365   3
   0  -2   9 6721.53 544.500   2
   0   2  -9 7487.62 425.429   4
   0  -2   8 72.9179 182.205   2
   0   2  -8 322.674 124.371   4
   0   2  -7 9076.04 439.608   4
   0  -2   7 8248.05 525.409   2
   0  -2   7 8735.97 547.245   3
   0  -2   6 18079.8 754.036   2
   0   2  -6 18928.7 651.566   4
   0  -2   6 17859.1 729.401   3
   0  -2   5 20447.1 721.497   3
   0   2  -5 20280.8 662.026   4
   0  -2   5 18385.9 705.231   2
   0   2  -4 81034.9 1656.45   4
   0   2  -4 80635.9 1746.05   7
   0  -2   4 77932.2 1673.70   3
   0   2  -3 70358.4 1478.84   4
   0   2  -3 70489.1 1498.78   7
   0   2  -2 339119. 5533.10   4
   0   2  -2 337910. 5420.90   2
   0   2  -2 335273. 5495.45   7
   0   2  -1 84415.8 1643.78   4
   0   2   0 79215.4 1460.87   1
   0   2   0 75070.5 1496.76   4
   0   2   1 198793. 3330.04   1
   0  -2  -2 198367. 3268.44   4
   0   2   2 196824. 3353.82   1
   0   2   3 668647. 10219.2   5
   0   2   3 656899. 10403.1   1
   0  -2  -3 683886. 10214.0   5
   0   2   4 6749.76 323.368   2
   0  -2  -4 7081.18 281.697   5
   0   2   4 7306.76 367.812   1
   0   2   5 130.356 112.044   1
   0   2   5 167.099 96.2835   2
   0  -2  -6 10378.3 327.958   4
   0   2   6 10370.2 504.390   2
   0   2   6 11319.3 534.411   3
   0   2   6 11467.2 545.898   1
   0   2   7 29830.2 978.762   2
   0  -2  -7 28026.0 620.351   4
   0   2   7 28431.5 1009.45   3
   0  -2  -8 4641.17 184.740   4
   0   2   8 5475.30 478.053   3
   0   2   8 6000.48 452.739   2
   0   2   9 985.834 253.824   2
   0   2   9 1036.38 257.862   3
   0  -2  -9 742.830 61.8051   4
   0   2  10 37002.8 1421.28   3
   0   2  10 37177.5 1343.27   2
   0   2  11 25190.1 1207.25   3
   0   2  11 25672.2 1157.12   2
   0  -2 -12 10103.9 764.638   6
   0   2  12 10841.6 822.322   3
   0   2  12 10571.5 769.328   2
   0   2  13 4000.16 570.383   3
   0  -2 -13 3442.02 496.611   6
   0   2  13 3841.02 551.544   2
   0   2  14 22112.9 1273.13   3
   0   2  14 22728.4 1263.72   2
   0  -2 -14 20975.6 1186.46   6
   0  -2 -15 1415.11 378.866   6
   0   2  15 655.595 330.210   2
   0   2  15 1419.37 451.958   3
   0   2  16 108.970 301.387   2
   0  -2 -16 755.413 347.496   6
   0   2  16 817.032 375.616   3
   0   2  17 416.318 364.381   2
   0   2  17 689.286 384.986   3
   0  -2 -17 141.156 251.890   6
   0   2  18 490.495 383.029   2
   0  -2 -18-227.054 310.340   6
   0  -2 -19 2489.14 522.004   6
   0  -3  17 142.017 349.445   3
   0   3 -17-30.0551 286.261   7
   0   3 -16-112.012 300.921   7
   0  -3  16-720.087 460.220   3
   0  -3  15 196.354 352.897   3
   0   3 -15 718.671 351.993   7
   0  -3  14 2840.73 509.695   3
   0   3 -14 2918.44 537.945   7
   0  -3  13 143.394 293.285   3
   0   3 -13 782.704 332.078   7
   0  -3  12 24428.3 1316.50   3
   0   3 -12 21588.3 1291.93   7
   0  -3  11 39028.6 1607.09   3
   0   3 -11 36913.8 1631.41   7
   0   3 -10 8388.52 710.884   7
   0  -3  10 10735.8 793.620   3
   0  -3   9 16993.0 928.415   3
   0   3  -9 14904.7 906.861   7
   0   3  -8 109176. 2414.32   4
   0   3  -8 111177. 2776.87   7
   0  -3   8 117551. 2701.79   3
   0   3  -7 18561.0 740.750   4
   0  -3   7 17715.7 815.937   3
   0   3  -7 16937.5 846.570   7
   0   3  -6 12121.6 648.878   7
   0  -3   6 12876.3 655.936   3
   0   3  -6 13218.6 600.088   4
   0  -3   5 5784.44 404.833   3
   0   3  -5 5654.97 415.165   7
   0   3  -5 5872.76 391.433   4
   0   3  -4 35345.6 1066.95   7
   0   3  -4 36853.9 1061.86   4
   0  -3   4 37658.8 1048.02   3
   0   3  -3 20740.2 743.912   4
   0   3  -3 20953.9 728.454   7
   0   3  -2 41729.7 1114.41   4
   0   3  -1 593.251 123.126   1
   0   3  -1 482.329 133.072   4
   0   3   0 14301.7 523.961   1
   0   3   1 92483.9 1852.55   1
   0   3   2 43239.6 1099.79   1
   0   3   2 45450.0 993.489   5
   0   3   3 43436.0 1128.72   1
   0   3   3 45515.8 964.219   5
   0   3   4 62520.5 1467.59   1
   0   3   4 62997.4 1265.11   5
   0  -3  -4 63425.0 1264.85   5
   0  -3  -5 165268. 2812.94   4
   0   3   5 160649. 2946.05   2
   0  -3  -5 161965. 2817.75   5
   0   3   5 159859. 3100.98   1
   0  -3  -6 1233.65 120.947   4
   0  -3  -6 1308.12 149.708   5
   0   3   6 1193.49 224.726   1
   0   3   6 1336.91 208.179   2
   0   3   7 4268.17 388.101   1
   0   3   7 4271.49 351.074   2
   0  -3  -7 4897.57 232.259   4
   0  -3  -7 4501.27 289.386   5
   0   3   8 338.617 183.947   1
   0  -3  -8 601.921 90.2802   4
   0   3   8 618.946 168.572   2
   0  -3  -8 792.838 89.8923   4
   0  -3  -8 279.530 83.5518   5
   0   3   9 622.829 230.324   1
   0   3   9 763.772 225.739   2
   0  -3  -9 635.227 71.9569   4
   0  -3  -9 535.539 82.3851   4
   0  -3 -10 11762.7 334.797   4
   0  -3 -10 13056.3 321.492   4
   0   3  11 45028.9 1567.82   2
   0   3  12 9284.16 731.571   2
   0   3  13 1509.99 381.566   2
   0   3  14 8122.26 753.944   2
   0  -3 -14 8607.89 761.167   6
   0  -3 -15 1194.91 380.962   6
   0   3  15 2320.81 490.396   2
   0   3  16 1167.88 402.542   2
   0  -3 -16 1432.14 424.103   6
   0  -3 -17 8117.90 828.183   6
   0   3  17 6865.06 799.554   2
   0  -3 -18 647.201 345.329   6
   0   3  18 682.547 455.878   2
   0  -3 -19 462.241 351.092   6
   0  -4  16 4316.82 704.239   3
   0   4 -16 5160.37 724.059   7
   0  -4  15-585.491 394.226   3
   0   4 -15 240.141 309.117   7
   0  -4  14 917.367 401.879   3
   0   4 -14-339.150 372.904   7
   0  -4  13 1054.04 390.382   3
   0   4 -13 1053.21 383.269   7
   0  -4  12 7519.99 771.733   3
   0   4 -12 6312.79 717.181   7
   0   4 -11 16432.1 1099.86   7
   0  -4  11 19248.8 1154.29   3
   0   4 -10 684.011 271.484   7
   0  -4  10 1851.87 429.635   3
   0   4  -9 3747.15 494.413   7
   0  -4   9 3606.57 452.579   3
   0  -4   8 860.374 261.750   3
   0   4  -8 1136.76 294.305   7
   0   4  -7 40076.9 1436.48   7
   0  -4   7 46157.6 1466.52   3
   0   4  -6 10838.3 616.354   4
   0  -4   6 11848.6 679.994   3
   0   4  -6 10373.1 644.320   7
   0   4  -5 43970.5 1350.92   4
   0   4  -5 44843.4 1379.22   7
   0   4  -4 67748.1 1735.63   4
   0   4  -4 66265.6 1699.86   7
   0   4  -3 43498.0 1191.72   1
   0   4  -3 45024.6 1311.78   4
   0   4  -2 30311.2 1034.87   4
   0   4  -2 30320.4 936.882   1
   0   4  -1 134.072 122.995   1
   0   4   0 35032.7 1011.78   1
   0   4   1 47715.3 1249.63   1
   0   4   2 34131.2 1030.25   1
   0   4   3 30190.5 974.853   1
   0   4   4 55525.8 1452.14   1
   0   4   5 123541. 2402.02   2
   0   4   5 128072. 2658.42   1
   0  -4  -6 12351.9 481.685   5
   0   4   6 12376.0 559.456   2
   0   4   6 12370.4 659.465   1
   0   4   7 8967.52 577.856   1
   0   4   7 9116.10 518.396   2
   0  -4  -7 9326.21 426.447   5
   0   4   8 17791.5 774.608   2
   0   4   8 17208.0 835.144   1
   0  -4  -8 16758.0 621.062   5
   0   4   9 9052.56 636.121   1
   0   4   9 8760.93 586.539   2
   0  -4  -9 8930.51 464.583   5
   0  -4  -9 9481.67 416.177   4
   0   4  10 3805.08 464.070   1
   0   4  10 4060.75 432.209   2
   0  -4 -10 3770.24 319.712   5
   0  -4 -10 4116.04 250.907   4
   0   4  11 5309.16 567.670   1
   0  -4 -11 4572.77 375.204   5
   0   4  11 5693.34 545.623   2
   0  -4 -12 14263.8 703.574   5
   0   4  12 16090.2 957.653   2
   0  -4 -13 228.200 149.642   5
   0   4  13 75.4028 282.699   2
   0   4  14 631.590 310.028   2
   0   4  15 954.015 336.120   2
   0  -4 -16-83.6345 304.642   6
   0   4  16 16.0083 316.439   2
   0   4  17 10986.9 982.498   2
   0  -4 -17 10676.2 983.978   6
   0   4  18 4652.99 738.323   2
   0  -4 -18 4474.08 669.397   6
   0  -5  15-825.269 465.665   3
   0   5 -15-87.9940 332.298   7
   0  -5  14 4963.08 732.176   3
   0   5 -14 4832.07 704.555   7
   0   5 -13 8887.10 908.464   7
   0  -5  13 12420.6 1095.78   3
   0   5 -12 8694.07 862.058   7
   0  -5  12 9515.98 911.494   3
   0  -5  11 4631.46 628.638   3
   0   5 -11 3063.17 543.007   7
   0   5 -10 14400.3 1005.43   7
   0  -5  10 15039.4 994.978   3
   0  -5   9 2417.45 406.813   3
   0   5  -9 1877.93 431.440   7
   0  -5   8 8956.08 697.716   3
   0   5  -8 8219.22 696.464   7
   0   5  -7 1292.10 311.174   7
   0  -5   7 1410.88 337.778   3
   0  -5   6 2869.12 402.084   3
   0   5  -5 55510.5 1583.40   1
   0  -5   5 60246.1 1704.07   3
   0   5  -4 64729.7 1709.61   1
   0   5  -3 11646.5 627.858   1
   0   5  -2 11182.2 606.958   1
   0   5  -1 6208.99 445.226   1
   0   5   0 12150.6 615.960   1
   0   5   1 10102.0 576.205   1
   0   5   2 41749.9 1276.52   1
   0   5   3 39814.8 1273.99   1
   0   5   4 388.442 204.312   1
   0   5   5 1869.83 311.996   1
   0   5   6 965.953 203.383   2
   0   5   6 1234.50 314.357   1
   0   5   7 837.053 265.564   1
   0   5   7 769.894 198.639   2
   0   5   8 70115.5 1793.05   2
   0   5   8 67170.0 1945.38   1
   0  -5  -8 69528.4 1594.72   5
   0   5   9 10539.6 649.390   2
   0   5   9 10261.1 709.811   1
   0  -5  -9 10099.4 505.978   5
   0  -5 -10 7387.74 412.681   4
   0  -5 -10 6644.79 423.012   5
   0   5  10 7450.33 634.964   1
   0   5  10 6920.74 575.913   2
   0   5  11 6119.77 560.802   2
   0  -5 -11 5805.04 407.352   5
   0   5  11 5205.80 576.116   1
   0  -5 -12 11484.3 603.328   5
   0   5  12 11453.7 862.582   1
   0   5  12 11887.7 843.388   2
   0   5  13 4826.17 579.048   2
   0   5  14 2185.66 451.973   2
   0   5  15 403.616 335.993   2
   0   5  16 1414.37 447.972   2
   0   5  17-153.655 325.356   2
   0  -5 -17-182.491 311.090   6
   0   5  18 331.024 381.065   2
   0  -5 -18 211.185 330.477   6
   0  -6  14 5677.29 805.009   3
   0   6 -14 3624.77 621.887   7
   0  -6  13 13005.0 1168.72   3
   0   6 -13 11074.8 1037.82   7
   0  -6  12 2475.41 590.880   3
   0   6 -12 1181.51 394.085   7
   0   6 -11 6938.54 793.869   7
   0  -6  11 7564.28 799.763   3
   0   6 -10 3661.45 437.278   1
   0  -6  10 3367.45 555.202   3
   0   6  -9 1775.50 325.830   1
   0  -6   9 2272.79 439.404   3
   0   6  -8 444.677 229.609   1
   0  -6   8 608.871 362.374   3
   0  -6   7 15292.0 952.389   3
   0   6  -7 13344.0 780.915   1
   0   6  -6 14103.9 804.961   1
   0  -6   6 14290.4 866.983   3
   0   6  -5 19468.7 936.389   1
   0   6  -4 32.7794 203.531   1
   0   6  -3 9043.39 595.998   1
   0   6  -2-15.3032 180.291   1
   0   6  -1 30584.2 1134.72   1
   0   6   0 34510.8 1221.31   1
   0   6   1 22300.2 972.347   1
   0   6   2 4229.27 445.583   1
   0   6   3 80342.9 2125.21   1
   0   6   4 6301.23 547.570   1
   0   6   5 1095.05 297.338   1
   0   6   6 3161.64 452.064   1
   0   6   6 3062.02 302.833   2
   0   6   7 1828.64 262.705   2
   0   6   7 2058.04 383.412   1
   0   6   8 940.410 296.037   1
   0   6   8 958.965 242.853   2
   0   6   9 8080.58 682.643   1
   0   6   9 9451.61 634.103   2
   0   6  10 682.368 214.545   2
   0   6  10 569.600 311.390   1
   0   6  11-67.2106 317.990   1
   0   6  11-250.251 240.811   2
   0  -6 -11 8.20864 121.011   5
   0   6  12-360.325 372.037   1
   0   6  12 974.567 334.187   2
   0   6  13 303.500 335.504   1
   0   6  13 817.043 319.473   2
   0   6  14 987.943 400.991   2
   0   6  15 8645.74 822.164   2
   0   6  16 3552.64 585.861   2
   0   6  17 1247.13 447.355   2
   0   6  18 307.281 408.429   2
   0  -7  12 7084.09 905.884   3
   0  -7  11-149.906 390.461   3
   0  -7  10 3570.88 606.351   3
   0  -7   9 6286.73 717.618   3
   0  -7   8 2543.69 513.748   3
   0   7  -8 1697.90 355.094   1
   0   7  -7 16858.4 970.964   1
   0  -7   7 18428.5 1104.02   3
   0   7  -6 28723.8 1254.02   1
   0  -7   6 30586.6 1365.73   3
   0   7  -5 2821.20 417.507   1
   0   7  -4 4503.27 493.217   1
   0   7  -3 11389.1 748.767   1
   0   7  -2 3524.72 456.982   1
   0   7  -1 469.653 214.945   1
   0   7   0 990.055 311.105   1
   0   7   1 5833.11 537.555   1
   0   7   2 1645.87 367.665   1
   0   7   3 362.647 261.536   1
   0   7   4 325.085 301.656   1
   0   7   5 3888.66 484.422   1
   0   7   6 22637.4 1128.10   1
   0   7   6 23937.7 880.936   2
   0   7   7 7603.30 516.557   2
   0   7   7 7235.09 687.835   1
   0   7   8 8480.62 577.242   2
   0   7   8 7889.19 739.185   1
   0   7   9 12336.4 734.009   2
   0   7   9 10877.5 851.149   1
   0   7  10 15175.0 997.880   1
   0   7  10 13973.3 836.447   2
   0   7  11 2022.55 449.947   1
   0   7  11 2441.26 397.499   2
   0   7  12-554.582 431.431   1
   0   7  12 290.186 236.360   2
   0   7  13-39.5056 272.136   2
   0   7  13-276.074 323.646   1
   0   7  14-139.134 336.984   1
   0   7  14 153.686 290.062   2
   0   7  15 800.270 345.409   2
   0   7  16 704.737 378.346   2
   0   7  17 963.764 430.444   2
   0   7  18 263.051 427.367   2
   0  -8  10 43.0881 363.206   3
   0  -8   9 2464.68 564.746   3
   0  -8   8 679.365 411.086   3
   0  -8   7 1100.79 425.760   3
   0   8  -7 390.898 274.415   1
   0   8  -6 760.738 303.875   1
   0  -8   6 1355.13 418.898   3
   0   8  -5 2358.42 422.261   1
   0  -8   5 2565.17 491.466   3
   0   8  -4 989.928 286.452   1
   0   8  -3 9269.02 754.947   1
   0   8  -2 13233.9 880.533   1
   0   8  -1 1534.93 366.765   1
   0   8   0 29431.5 1344.22   1
   0   8   1 30407.0 1352.16   1
   0   8   2 638.175 307.763   1
   0   8   3 349.369 252.696   1
   0   8   4 103.591 322.603   1
   0   8   5 5456.48 613.673   1
   0   8   6 7546.50 490.187   2
   0   8   6 6497.97 684.818   1
   0   8   7 380.201 192.898   2
   0   8   7 747.842 387.613   1
   0   8   8 376.709 212.169   2
   0   8   8 625.237 316.229   1
   0   8   9-160.921 296.113   1
   0   8   9 419.710 235.894   2
   0   8  10-70.2529 339.743   1
   0   8  10 396.236 215.011   2
   0   8  11 369.967 319.396   1
   0   8  11-44.4901 240.270   2
   0   8  12 2824.45 564.060   1
   0   8  12 2607.69 440.632   2
   0   8  13 1032.11 353.526   2
   0   8  13 863.765 417.695   1
   0   8  14 2000.40 510.202   1
   0   8  14 2184.27 472.508   2
   0   8  15 600.939 363.575   2
   0   8  15 260.407 376.989   1
   0   8  16 258.663 334.963   2
   0   8  17 252.723 352.282   2
   0  -9   8 9587.75 954.700   3
   0  -9   7 1740.24 472.231   3
   0   9  -6 700.785 311.151   1
   0  -9   6 368.983 366.001   3
   0   9  -5 3859.23 554.191   1
   0  -9   5 3650.75 574.305   3
   0   9  -4 49.2868 262.256   1
   0   9  -3 2340.11 435.662   1
   0   9  -2 2.41438 275.062   1
   0   9  -1-32.2785 286.016   1
   0   9   0-102.647 305.180   1
   0   9   1 1814.73 423.314   1
   0   9   2 116.395 348.567   1
   0   9   3 320.060 317.171   1
   0   9   4 9873.16 845.685   1
   0   9   5 6146.17 703.797   1
   0   9   6 3275.37 574.747   1
   0   9   7 1801.96 490.736   1
   0   9   8 4771.66 691.068   1
   0   9   9 101.540 333.722   1
   0   9  10 227.697 366.194   1
   0   9  11 388.241 365.734   1
   0   9  12-166.359 353.526   1
   0   9  13 2611.49 613.206   1
   0   9  14-215.053 395.983   1
   0   9  15-370.842 386.151   1
   0 -10   5 1161.54 409.023   3
   0  10  -5 324.669 287.492   1
   0  10  -4 2636.24 515.060   1
   0  10  -3 2880.09 532.612   1
   0  10  -2 8612.69 852.481   1
   0  10  -1 4249.28 609.337   1
   0  10   0 403.589 342.007   1
   0  10   1-221.723 352.346   1
   0  10   2 4569.27 652.529   1
   0  10   3 2299.86 517.082   1
   0  10   4 5866.00 751.719   1
   0  10   5 194.387 306.263   1
   0  10   6 68.0114 330.424   1
   0  10   7 101.072 364.060   1
   0  10   8 2340.77 518.997   1
   0  10   9 306.453 366.609   1
   0  10  10 676.248 407.190   1
   0  10  11 826.807 447.830   1
   0  10  12 1352.99 542.615   1
   0  11  -3 553.793 366.110   1
   0  11  -2 842.850 403.444   1
   0  11  -1 1010.00 437.481   1
   0  11   0 386.669 350.545   1
   0  11   1 569.280 379.187   1
   0  11   2 1778.84 528.060   1
   0  11   3 2381.88 551.906   1
   0  11   4 198.869 357.134   1
   0  11   5 2548.14 587.198   1
   0  11   6 1582.06 486.537   1
   0  11   7 1164.53 443.490   1
   0  11   8 466.507 377.421   1
   0  11   9 164.245 382.233   1
  -1  11   6 1192.08 470.896   1
  -1  11   5 589.117 450.699   1
  -1  11   4 227.356 344.725   1
  -1  11   3-80.0285 339.028   1
  -1  11   2 834.945 403.140   1
  -1  11   1 3007.58 589.596   1
  -1  11   0 738.006 402.056   1
  -1  11  -1 1214.95 433.328   1
  -1  10  10 835.993 435.460   1
  -1  10   9 890.111 478.064   1
  -1  10   8 1379.30 472.935   1
  -1  10   7 836.171 427.527   1
  -1  10   6 1142.25 441.974   1
  -1  10   5 129.855 324.209   1
  -1  10   4-258.404 334.740   1
  -1  10   3 519.250 405.717   1
  -1  10   2 1934.54 553.039   1
  -1  10   1 86.8775 309.025   1
  -1  10   0-74.5321 267.852   1
  -1  10  -1 3.36275 279.115   1
  -1  10  -2 1132.21 382.919   1
  -1  10  -3 87.8077 267.473   1
   1 -10   3 1092.06 387.523   3
  -1   9  13 220.726 381.305   1
  -1   9  12 355.997 367.523   1
  -1   9  11 128.116 337.580   1
  -1   9  10 715.293 397.046   1
  -1   9   9 2698.56 596.162   1
  -1   9   8 1397.25 488.385   1
  -1   9   7 5528.09 721.322   1
  -1   9   6 607.387 417.859   1
  -1   9   5 1405.14 464.507   1
  -1   9   4 690.872 388.224   1
  -1   9   3 9617.09 859.898   1
  -1   9   2 4946.62 645.955   1
  -1   9   1 1493.67 419.796   1
  -1   9   0 9321.48 833.834   1
  -1   9  -1 4313.59 609.184   1
  -1   9  -2 1108.17 355.989   1
  -1   9  -3 254.556 278.464   1
  -1   9  -4-386.497 283.833   1
   1  -9   4-128.274 253.320   3
   1  -9   5 907.342 390.513   3
   1  -9   6 838.489 414.268   3
   1  -9   7 495.632 371.106   3
  -1   8  16 278.832 391.081   2
  -1   8  15-1650.23 461.790   2
  -1   8  14 657.090 371.310   2
  -1   8  14-910.021 511.106   1
  -1   8  13 327.201 267.645   2
  -1   8  13 507.089 402.692   1
  -1   8  12 630.176 339.758   2
  -1   8  12 1379.66 464.154   1
  -1   8  11 503.974 321.566   2
  -1   8  11-1005.77 457.394   1
  -1   8  10 2103.04 502.485   1
  -1   8  10 2863.63 457.101   2
  -1   8   9 10325.5 738.191   2
  -1   8   9 9719.88 893.731   1
  -1   8   8 3825.85 577.066   1
  -1   8   8 4130.52 466.350   2
  -1   8   7 360.472 317.879   1
  -1   8   6 167.562 310.980   1
  -1   8   5 575.379 323.220   1
  -1   8   4 1077.94 367.975   1
  -1   8   3 3773.76 534.613   1
  -1   8   2-292.549 278.687   1
  -1   8   1 1635.82 351.894   1
  -1   8   0-185.894 246.683   1
  -1   8  -1 11812.4 861.090   1
  -1   8  -2-80.0385 230.109   1
  -1   8  -3 2420.01 425.559   1
   1  -8   4 11259.8 846.381   3
  -1   8  -4 13062.4 885.870   1
   1  -8   5 4956.65 632.939   3
  -1   8  -5 6061.58 617.285   1
   1  -8   6 4210.01 630.431   3
   1  -8   7 6396.06 751.307   3
   1  -8   8 87.3821 388.091   3
   1  -8   9-351.372 392.409   3
  -1   7  17 1958.59 619.256   2
  -1   7  16-219.340 380.041   2
  -1   7  15 987.385 417.684   2
  -1   7  14-52.2918 340.136   2
  -1   7  13 139.568 292.297   2
  -1   7  13 820.158 420.151   1
  -1   7  12 1176.30 359.564   2
  -1   7  12 347.387 341.962   1
  -1   7  11-51.5349 224.452   2
  -1   7  11-254.239 409.264   1
  -1   7  10 424.806 346.870   1
  -1   7  10 907.319 281.298   2
  -1   7   9 2431.20 406.401   2
  -1   7   9 2066.37 449.160   1
  -1   7   8 72.5598 209.563   2
  -1   7   8 2.98159 254.765   1
  -1   7   7 937.181 354.675   1
  -1   7   6 9712.03 807.389   1
  -1   7   5 23804.9 1191.10   1
  -1   7   4 1177.77 338.349   1
  -1   7   3 8408.30 696.827   1
  -1   7   2 15528.2 899.946   1
  -1   7   1 18707.6 991.260   1
  -1   7   0 1922.03 383.699   1
  -1   7  -1 701.662 283.129   1
  -1   7  -2-20.7526 196.261   1
  -1   7  -3 10108.3 720.362   1
  -1   7  -4 13909.1 839.759   1
  -1   7  -5 191.272 217.504   1
   1  -7   5 447.862 323.070   3
  -1   7  -6 157.183 205.955   1
   1  -7   6 479.965 341.810   3
   1  -7   7 6705.45 735.730   3
   1  -7   8 3734.75 611.751   3
   1  -7   9 39.1108 334.874   3
   1  -7  10 1890.20 499.520   3
   1  -7  11 10203.3 1054.40   3
  -1   6  17 852.825 417.460   2
  -1   6  16 1212.34 463.739   2
  -1   6  15 4610.20 667.633   2
  -1   6  14 2334.84 504.990   2
  -1   6  13-0.22124 291.081   2
  -1   6  12 3282.70 482.788   2
  -1   6  12 2654.54 509.594   1
  -1   6  11 14776.7 1028.17   1
  -1   6  11 14438.4 914.991   2
  -1   6  10 2704.04 416.444   2
   1  -6 -10 2764.25 386.738   4
  -1   6   9 1021.70 310.271   2
  -1   6   9 484.974 316.620   1
  -1   6   8 5122.18 575.830   1
  -1   6   8 5976.43 519.514   2
  -1   6   7 111.234 259.307   1
  -1   6   6 10349.9 755.274   1
  -1   6   5 13067.0 813.872   1
  -1   6   4-30.2568 213.093   1
  -1   6   3 1330.15 308.330   1
  -1   6   2 23166.4 1024.80   1
  -1   6   1 4555.23 459.299   1
  -1   6   0 1157.31 260.089   1
  -1   6  -1 9260.99 625.062   1
  -1   6  -2 52296.5 1603.36   1
  -1   6  -3 23363.7 1002.87   1
  -1   6  -4 62.6126 172.756   1
  -1   6  -5 10284.4 651.709   1
   1  -6   5 10881.4 771.457   3
   1  -6   6 5116.69 591.610   3
  -1   6  -6 4586.60 442.819   1
  -1   6  -7 2521.52 341.735   1
   1  -6   7 3107.53 500.847   3
   1  -6   8 5733.33 651.267   3
   1  -6   9 8575.29 790.361   3
   1  -6  10 10773.8 940.082   3
   1  -6  11 3943.22 720.017   3
   1  -6  12 4906.65 754.777   3
   1  -6  13 201.805 407.019   3
  -1   5  17 135.263 332.263   2
   1  -5 -17 687.976 378.077   6
  -1   5  16 721.339 441.561   2
  -1   5  15 307.238 342.136   2
  -1   5  14 6452.01 734.433   2
  -1   5  13 105.814 295.217   2
  -1   5  12 4589.02 547.061   2
  -1   5  11 8097.53 675.060   2
  -1   5  11 7532.95 700.027   1
   1  -5 -11 7649.56 500.331   4
   1  -5 -10 1546.97 257.643   4
  -1   5  10 1594.09 339.855   2
  -1   5  10 1339.85 358.233   1
  -1   5   9 377.895 231.356   2
   1  -5  -9 194.706 157.766   4
  -1   5   9 288.868 268.536   1
  -1   5   8 2574.84 400.341   1
  -1   5   8 3115.90 383.453   2
  -1   5   7 33236.1 1309.85   1
  -1   5   6 8593.39 644.456   1
  -1   5   5 14497.2 803.916   1
  -1   5   4 30507.0 1153.03   1
  -1   5   3 11569.6 660.838   1
  -1   5   2 5367.32 443.474   1
  -1   5   1 186.785 171.459   1
  -1   5   0 13498.0 676.655   1
  -1   5  -1 25869.2 969.074   1
  -1   5  -2 71358.6 1805.24   1
  -1   5  -3 2912.73 322.059   1
   1  -5   4 7107.76 551.564   3
  -1   5  -4 6504.52 464.780   1
  -1   5  -5 24964.3 942.051   1
   1  -5   5 25811.7 1101.25   3
  -1   5  -6 7995.95 525.446   1
   1  -5   6 8269.49 661.640   3
   1  -5   7 1054.80 327.828   3
  -1   5  -7 422.021 186.676   1
   1  -5   8 7124.53 657.257   3
  -1   5  -8 7112.75 505.903   1
   1  -5   9 19824.2 1144.40   3
   1  -5  10 1140.75 386.071   3
   1  -5  11 1068.04 479.252   3
   1  -5  12 3411.15 652.329   3
  -1   5 -12 1428.42 398.412   7
  -1   5 -13 368.891 280.309   7
   1  -5  13 528.661 462.732   3
   1  -5  14 6367.71 852.834   3
  -1   4  18 156.975 385.878   2
   1  -4 -18 494.339 396.335   6
   1  -4 -17 1056.21 418.483   6
  -1   4  17 484.643 382.479   2
   1  -4 -16 2181.80 537.626   6
  -1   4  16 1701.37 475.839   2
   1  -4 -15 774.582 332.617   6
  -1   4  15 391.165 322.945   2
  -1   4  14 3303.66 509.327   2
  -1   4  13 18493.2 1083.73   2
  -1   4  12 3507.64 490.661   2
   1  -4 -11 27.3999 120.371   4
  -1   4  11 51.2739 224.134   2
   1  -4 -10 1070.09 133.306   5
  -1   4  10 938.274 291.016   1
   1  -4 -10 1202.14 205.054   4
  -1   4  10 1050.78 284.266   2
   1  -4  -9 620.343 170.965   4
  -1   4   9 1066.75 284.822   2
  -1   4   9 736.076 295.913   1
   1  -4  -9 649.832 103.207   5
  -1   4   8 21672.6 1043.57   1
  -1   4   8 22356.8 939.381   2
   1  -4  -8 24466.3 888.249   4
  -1   4   7 15780.1 858.778   1
  -1   4   6 13570.7 745.988   1
  -1   4   5 44138.4 1373.61   1
  -1   4   5 44024.3 961.105   5
  -1   4   4 24655.6 943.300   1
  -1   4   3 4516.25 387.207   1
  -1   4   2 378.553 152.895   1
  -1   4   1 47275.1 1293.14   1
  -1   4   0 68695.8 1639.53   1
  -1   4  -1 2226.07 256.643   1
  -1   4  -2 4164.73 321.646   1
  -1   4  -3 42289.5 1160.95   1
  -1   4  -4 6344.50 411.984   1
   1  -4   4 6544.12 500.498   3
  -1   4  -5 37504.9 1104.17   1
   1  -4   5 37370.7 1269.05   3
   1  -4   6 28185.7 1150.60   3
  -1   4  -6 30275.6 976.625   1
   1  -4   7 6914.48 581.786   3
  -1   4  -7 7219.81 461.492   1
  -1   4  -7 6904.82 544.213   7
  -1   4  -8 46100.8 1546.77   7
  -1   4  -8 46810.1 1320.08   1
   1  -4   8 46578.1 1652.80   3
  -1   4  -9 40121.9 1219.52   1
   1  -4   9 43156.2 1652.07   3
  -1   4  -9 40502.8 1510.63   7
   1  -4  10 11183.5 890.692   3
  -1   4 -10 9157.00 727.475   7
  -1   4 -11 3256.80 489.107   7
   1  -4  11 4043.27 630.770   3
  -1   4 -12 1112.84 337.032   7
   1  -4  12 1767.18 497.532   3
   1  -4  13 257.414 383.777   3
  -1   4 -13 196.998 248.572   7
  -1   4 -14 522.494 317.703   7
   1  -4  14 1212.27 463.514   3
   1  -4  15-492.919 428.194   3
   1  -4  16 2175.41 560.152   3
   1  -3 -18 681.855 381.815   6
  -1   3  18 205.318 399.762   2
   1  -3 -17 98.8416 301.470   6
  -1   3  17 677.745 403.481   2
   1  -3 -16 3483.43 592.226   6
  -1   3  16 3261.77 582.416   2
  -1   3  15 2358.15 518.160   2
   1  -3 -15 2491.03 512.369   6
  -1   3  14 6924.30 715.034   2
   1  -3 -14 7449.11 759.255   6
  -1   3  13 10988.3 836.246   2
   1  -3 -13 13298.4 963.934   6
  -1   3  12 3477.09 454.720   2
   1  -3 -11 1752.81 202.988   5
   1  -3 -11 1940.86 216.469   4
  -1   3  11 1817.48 324.347   2
  -1   3  10 33622.8 1268.63   2
   1  -3 -10 34356.9 988.613   4
   1  -3 -10 31347.6 872.305   5
   1  -3  -9 6738.74 318.540   5
   1  -3  -9 6666.84 409.172   4
  -1   3   9 7144.23 536.437   2
  -1   3   8 1978.30 339.592   1
  -1   3   8 2334.55 318.107   2
   1  -3  -8 1986.51 222.452   4
   1  -3  -8 1982.35 153.144   5
  -1   3   7 5336.37 495.718   1
   1  -3  -7 4858.28 220.677   5
   1  -3  -7 5373.03 367.185   4
  -1   3   7 5208.36 421.005   2
  -1   3   6 30170.4 1115.58   1
  -1   3   5 25827.7 937.248   1
  -1   3   4 17345.6 708.597   1
  -1   3   4 15959.6 419.025   5
  -1   3   3 10278.2 343.458   5
  -1   3   3 9970.16 507.440   1
  -1   3   2 48961.0 1242.78   1
  -1   3   1 70665.4 1551.59   1
  -1   3   0 175391. 3177.34   1
  -1   3  -1 45431.1 1107.31   1
  -1   3  -2 84268.1 1721.28   1
  -1   3  -3 17466.9 593.596   1
  -1   3  -4 11082.5 463.492   1
   1  -3   4 10089.8 549.881   3
   1  -3   5 5086.90 421.673   3
  -1   3  -5 4636.99 310.186   1
  -1   3  -5 4662.50 348.752   7
   1  -3   6 16473.8 783.939   3
  -1   3  -6 16996.8 739.035   7
  -1   3  -7 19169.1 839.092   7
   1  -3   7 19633.6 909.651   3
  -1   3  -8 427.746 205.113   7
   1  -3   8 127.364 299.568   3
  -1   3  -9 1514.61 279.436   7
   1  -3   9 2457.91 443.690   3
   1  -3  10 656.678 355.215   3
  -1   3 -10-67.6384 206.745   7
  -1   3 -11 77.2076 214.346   7
   1  -3  11 317.569 335.114   3
  -1   3 -12 20942.6 1169.27   7
   1  -3  12 22327.2 1303.55   3
  -1   3 -13 9867.40 840.959   7
   1  -3  13 13268.4 1051.14   3
   1  -3  14 4375.74 649.559   3
  -1   3 -14 5473.30 658.670   7
   1  -3  15 12608.3 1100.44   3
  -1   3 -15 10723.0 936.742   7
   1  -3  16 10901.7 1086.98   3
   1  -3  17 1021.47 451.920   3
   1  -2 -18 808.757 384.033   6
  -1   2  18 2136.54 534.797   2
  -1   2  17 1563.22 516.893   2
   1  -2 -17 642.806 350.834   6
  -1   2  16 526.787 380.555   2
   1  -2 -16 118.387 290.962   6
   1  -2 -15 11152.4 930.734   6
  -1   2  15 10740.5 925.770   2
  -1   2  14 4945.54 604.391   2
   1  -2 -14 4158.26 574.585   6
  -1   2  13 25.6891 279.321   2
   1  -2 -13 122.204 245.452   6
   1  -2 -12 123.394 251.132   6
  -1   2  12 620.059 294.870   2
   1  -2 -11 391.210 266.671   6
   1  -2 -11 189.703 89.7813   4
  -1   2  11 119.144 269.986   2
   1  -2 -10 28822.2 840.078   4
  -1   2  10 27616.1 1154.44   2
   1  -2  -9 54985.3 1285.79   4
  -1   2   9 53340.6 1602.23   2
   1  -2  -8 29461.1 870.578   4
  -1   2   8 29156.8 1055.80   2
  -1   2   7 59270.0 1531.18   2
   1  -2  -7 58374.5 1376.91   4
  -1   2   6 40509.6 1125.72   2
   1  -2  -6 41050.1 1066.15   4
   1  -2  -6 39397.2 814.583   5
   1  -2  -5 12848.4 315.129   5
  -1   2   5 13796.9 643.242   1
  -1   2   4 4370.87 339.598   1
  -1   2   3 3315.22 127.033   5
  -1   2   3 4059.54 296.120   1
  -1   2   2 4581.79 293.715   1
  -1   2   1 4335.48 264.124   1
   1  -2   0 5008.32 255.710   1
  -1   2   0 4922.40 259.340   1
  -1   2  -1 46475.8 1009.65   1
   1  -2   1 46797.5 991.013   1
   1  -2   2 10753.4 385.781   7
  -1   2  -2 10243.3 365.654   1
  -1   2  -3 178252. 3012.58   1
   1  -2   3 178011. 3226.73   3
   1  -2   4 1720.08 226.269   3
  -1   2  -4 2008.93 163.472   1
  -1   2  -4 2224.95 209.261   7
   1  -2   5 43462.1 1246.24   3
  -1   2  -5 45837.1 1166.75   7
   1  -2   6 127515. 2745.46   3
  -1   2  -6 131172. 2624.15   7
  -1   2  -7 142485. 2928.74   7
   1  -2   7 137040. 3025.74   3
  -1   2  -8 11516.9 655.767   7
   1  -2   8 12627.2 786.063   3
   1  -2   9 12948.2 827.940   3
   1  -2  10 22920.1 1172.95   3
   1  -2  11 2225.09 430.370   3
   1  -2  12 3996.76 562.912   3
   1  -2  13-808.957 437.323   3
   1  -2  14 402.871 296.882   3
  -1   2 -14 251.732 279.481   7
  -1   2 -15-27.5233 247.759   7
   1  -2  15-714.086 479.900   3
   1  -2  16-234.850 424.749   3
  -1   2 -16 295.289 267.477   7
   1  -2  17 745.648 435.718   3
  -1   1  18 3477.79 621.841   2
  -1   1  17 4148.44 660.886   2
   1  -1 -17 2796.73 529.897   6
   1  -1 -16 7992.32 806.149   6
  -1   1  16 9251.48 881.988   2
  -1   1  15 4971.67 669.116   2
  -1   1  15 6089.33 678.227   3
   1  -1 -15 5494.90 667.059   6
   1  -1 -14 14661.9 1024.04   6
  -1   1  14 15499.4 999.937   3
  -1   1  14 14474.5 1015.77   2
  -1   1  13 81.3128 265.351   2
  -1   1  13 346.444 264.899   3
   1  -1 -13 116.139 239.701   6
  -1   1  12 6865.59 647.207   2
   1  -1 -12 7109.90 668.916   6
  -1   1  12 7808.57 661.199   3
  -1   1  11 1549.88 340.110   2
   1  -1 -11 1787.90 185.265   4
   1  -1 -11 1828.16 378.083   6
  -1   1  11 1788.56 337.943   3
  -1   1  10 469.147 216.306   2
   1  -1 -10 530.756 114.095   4
   1  -1 -10 535.732 264.095   6
  -1   1  10 811.557 257.735   3
   1  -1  -9 1053.19 273.455   6
   1  -1  -9 983.016 154.164   4
  -1   1   9 1259.69 255.795   3
  -1   1   9 592.779 188.196   2
  -1   1   8 67136.8 1708.36   3
  -1   1   8 66057.6 1763.59   2
   1  -1  -8 68225.8 1476.69   4
   1  -1  -8 66946.8 1900.02   6
   1  -1  -7 18238.1 615.504   4
  -1   1   7 18718.5 770.936   2
  -1   1   7 19824.5 737.305   3
   1  -1  -6 11046.3 460.853   4
  -1   1   6 11551.6 550.263   2
  -1   1   6 11472.8 490.540   3
  -1   1   5 17898.8 642.675   2
   1  -1  -5 17563.9 580.037   3
   1  -1  -5 18109.8 599.873   4
   1  -1  -4 39799.5 958.167   4
   1  -1  -4 37649.3 868.335   3
  -1   1   3 113124. 2232.50   1
   1  -1  -3 117881. 2156.83   4
  -1   1   2 407737. 6586.32   1
  -1   1   1 97122.6 1785.01   1
  -1   1   0 184721. 3044.42   1
  -1   1  -1 21495.5 482.808   1
   1  -1   1 21271.2 481.275   1
   1  -1   1 21454.4 544.230   3
   1  -1   2 49446.0 933.444   7
   1  -1   2 48059.5 1062.87   3
  -1   1  -2 48149.9 879.722   1
  -1   1  -3 20117.1 437.304   1
   1  -1   3 19685.0 624.086   3
  -1   1  -3 19298.2 512.776   7
   1  -1   4 432.114 113.709   3
   1  -1   4 733.573 105.707   6
   1  -1   5 7581.42 456.096   3
   1  -1   6 3174.40 356.932   3
   1  -1   7 2542.83 343.463   3
   1  -1   8 4657.49 468.401   3
   1  -1   9 6316.07 550.740   3
   1  -1  10 58767.4 1930.21   3
   1  -1  11 48070.9 1786.72   3
   1  -1  12 9796.73 825.076   3
   1  -1  13 11450.2 947.785   3
   1  -1  14 23865.5 1401.05   3
   1  -1  15 1788.90 444.931   3
   1  -1  16-627.464 427.807   3
   1  -1  17 11.9459 362.757   3
   1  -1  18 188.328 340.683   3
  -1   0  17 3608.37 620.228   2
  -1   0  16 153.216 294.016   2
  -1   0  15 507.193 320.589   2
  -1   0  15 476.020 322.992   3
  -1   0  14 1148.87 385.132   2
   1   0 -14 716.039 283.617   6
  -1   0  14 736.539 311.070   3
  -1   0  13 533.343 300.752   3
  -1   0  13 445.981 312.819   2
   1   0 -13 268.927 266.765   6
  -1   0  12 32011.8 1424.30   2
  -1   0  12 33500.6 1405.84   3
   1   0 -12 31335.2 1432.61   6
  -1   0  11 54938.2 1803.61   3
   1   0 -11 55768.4 1311.48   4
   1   0 -11 50489.3 1824.30   6
  -1   0  11 49939.8 1765.16   2
  -1   0  10 24718.9 1088.51   3
   1   0 -10 23633.2 1151.81   6
   1   0 -10 25189.9 780.909   4
  -1   0  10 23813.3 1099.54   2
   1   0  -9 35180.3 1353.37   6
   1   0  -9 37508.0 993.693   4
  -1   0   9 38753.5 1350.29   3
  -1   0   9 35916.1 1300.05   2
   1   0  -8 73029.6 1988.37   6
   1   0  -8 72899.2 1567.95   4
  -1   0   8 69516.6 1874.45   2
  -1   0   8 75027.9 1936.23   3
   1   0  -7 34255.3 916.161   4
  -1   0   7 33769.2 1135.75   3
  -1   0   7 35048.9 1126.20   2
   1   0  -7 35631.1 1224.11   6
  -1   0   6 3365.39 307.844   3
   1   0  -6 3968.98 385.215   6
   1   0  -6 4085.66 265.390   4
  -1   0   6 4168.29 334.713   2
  -1   0   5 1695.75 191.320   4
  -1   0   5 1609.01 199.695   2
   1   0  -5 1450.01 156.233   4
   1   0  -5 1502.38 139.825   3
  -1   0   5 1529.32 180.420   3
   1   0  -5 1411.75 221.642   6
  -1   0   4 8557.29 394.212   2
   1   0  -4 8580.51 457.504   6
   1   0  -4 8992.40 316.822   3
   1   0  -4 8939.40 378.025   4
  -1   0   4 9337.96 440.660   4
  -1   0   4 8842.25 377.675   3
  -1   0   3 6917.18 257.218   3
   1   0  -3 7872.33 250.072   3
   1   0  -3 7234.39 333.501   4
   1   0  -3 7126.67 365.354   6
   1   0  -2 27963.3 725.473   6
   1   0  -2 28121.1 726.758   4
  -1   0   1 1061.70 59.6324   5
   1   0  -1 1060.77 62.3335   5
   1   0   0 63720.6 1095.00   3
   1   0   1 184752. 3076.46   4
   1   0   1 186300. 3066.12   3
   1   0   2 188739. 3237.20   3
   1   0   3 104032. 2027.49   3
  -1   0  -3 101194. 1765.38   6
  -1   0  -4 247638. 4122.50   6
  -1   0  -4 246536. 3893.08   1
   1   0   4 254472. 4391.78   3
   1   0   5 184228. 3059.21   4
   1   0   5 188664. 3555.58   3
  -1   0  -5 186553. 3038.63   1
  -1   0  -5 182324. 3298.89   6
   1   0   6 1478.78 248.380   3
  -1   0  -6 1293.42 192.285   6
   1   0   6 1227.41 113.029   4
  -1   0  -6 1221.66 118.997   1
   1   0   6 1358.13 213.727   2
   1   0   7 65622.5 1790.61   3
  -1   0  -7 65594.4 1639.71   6
  -1   0  -7 65081.1 1344.95   1
   1   0   7 65986.5 1677.54   2
   1   0   7 63409.0 1262.72   4
   1   0   8 6255.56 478.311   2
   1   0   8 5115.64 253.131   4
   1   0   8 6163.93 511.099   3
  -1   0  -8 5887.11 452.354   6
   1   0   9 568.933 223.744   2
  -1   0  -9 764.781 213.683   6
   1   0   9 481.142 218.050   3
   1   0   9 651.230 101.553   4
   1   0  10 16965.5 895.204   2
   1   0  10 18728.3 1015.93   3
  -1   0 -10 17991.8 895.154   6
  -1   0 -11 265.948 172.793   6
   1   0  11 340.145 218.440   2
   1   0  11 370.139 272.356   3
   1   0  12 3445.35 516.729   3
   1   0  12 3136.61 449.208   2
   1   0  13 26447.2 1433.34   3
   1   0  14-92.7187 304.327   3
   1   0  15-150.736 333.517   3
   1   0  16 1013.60 383.232   3
   1   0  17 8388.67 937.395   3
   1   0  18 3149.28 632.518   3
   1   0  19 2938.68 630.862   3
  -1  -1  17 13431.9 1103.69   2
  -1  -1  16 2501.41 512.987   2
  -1  -1  15-149.758 313.751   2
  -1  -1  15-96.5328 267.401   3
  -1  -1  14 2870.52 486.625   3
  -1  -1  14 2488.58 515.476   2
  -1  -1  13 312.364 288.017   2
  -1  -1  13-245.138 252.612   3
  -1  -1  12 158.417 273.675   2
  -1  -1  12 575.546 231.317   3
   1   1 -12 282.408 120.645   4
   1   1 -11 18539.3 715.719   4
  -1  -1  11 17003.9 945.096   3
  -1  -1  11 17964.5 1015.06   2
   1   1 -10 12792.2 578.768   4
  -1  -1  10 12177.1 779.625   2
  -1  -1  10 13616.9 783.138   3
  -1  -1   9 6411.44 534.872   2
   1   1  -9 5651.14 550.293   6
   1   1  -9 7175.78 413.767   4
  -1  -1   9 6212.49 491.382   3
   1   1  -8 13796.9 564.957   4
   1   1  -8 13069.4 763.164   6
  -1  -1   8 12151.2 643.841   3
  -1  -1   8 13173.8 715.805   2
  -1  -1   7 3143.55 301.867   3
   1   1  -7 3531.65 275.721   4
  -1  -1   7 3377.29 333.898   2
   1   1  -7 2798.04 329.825   6
   1   1  -6 25088.5 748.455   4
  -1  -1   6 23967.2 801.146   3
  -1  -1   6 24488.3 875.444   2
   1   1  -6 22517.0 923.583   6
   1   1  -5 400564. 6863.60   6
  -1  -1   5 395568. 6574.26   3
  -1  -1   5 404766. 6719.50   2
   1   1  -5 405204. 6563.74   4
  -1  -1   4 104841. 1945.69   3
   1   1  -4 109910. 2050.85   4
  -1  -1   4 109264. 2084.49   2
  -1  -1   3 91969.0 1638.53   3
   1   1  -3 95433.0 1810.94   4
  -1  -1   3 93656.6 1770.09   2
  -1  -1   2 74385.6 1376.52   2
   1   1  -2 74523.1 1491.30   4
   1   1  -1 31064.5 764.050   4
   1   1   0 49423.8 926.891   7
  -1  -1   0 48758.1 925.699   5
   1   1   1 35556.0 791.904   4
   1   1   1 36240.9 746.105   3
  -1  -1  -2 95.1692 30.1825   4
   1   1   2 35.9103 62.3438   3
   1   1   2 79.8524 41.1946   4
   1   1   2 92.9045 33.3295   1
  -1  -1  -3 135365. 2179.49   1
   1   1   3 135085. 2541.49   3
   1   1   3 133816. 2189.98   1
  -1  -1  -3 131771. 2188.46   4
   1   1   3 132312. 2235.18   4
   1   1   4 17842.7 708.317   3
   1   1   4 17758.7 450.066   1
  -1  -1  -4 18029.8 433.377   1
   1   1   4 18004.6 582.782   2
   1   1   5 64251.6 1294.58   1
  -1  -1  -5 65013.6 1246.10   1
   1   1   5 66801.3 1490.40   2
   1   1   5 68186.3 1754.35   3
   1   1   6 423.977 172.968   3
   1   1   6 359.870 153.949   2
  -1  -1  -6 623.070 92.9768   1
   1   1   7 24955.7 1077.59   3
   1   1   7 24145.6 889.492   2
   1   1   8 28242.9 1035.43   2
   1   1   8 29446.5 1233.90   3
  -1  -1  -8 27669.7 999.563   6
  -1  -1  -9 19165.7 867.162   6
   1   1   9 17956.8 863.086   2
   1   1   9 19609.0 1039.92   3
   1   1  10 26412.1 1107.19   2
   1   1  10 28840.4 1302.30   3
  -1  -1 -10 26434.2 1084.12   6
   1   1  11 50014.4 1654.60   2
   1   1  11 50977.0 1845.05   3
  -1  -1 -11 45504.0 1541.70   6
   1   1  12 39646.0 1518.88   2
   1   1  12 41574.7 1701.92   3
  -1  -1 -12 37801.4 1437.25   6
   1   1  13 813.992 315.410   2
   1   1  13 814.873 362.104   3
  -1  -1 -13 221.277 180.362   6
   1   1  14 6137.06 708.596   3
   1   1  14 4952.81 593.495   2
  -1  -1 -14 5283.31 552.746   6
   1   1  15 176.566 275.372   3
  -1  -1 -15-140.283 212.889   6
   1   1  15-53.1407 284.203   2
   1   1  16 655.690 333.676   3
   1   1  16-159.149 311.713   2
   1   1  17 7588.47 848.791   3
   1   1  18 2706.58 577.547   3
   1   1  19 1133.12 499.990   3
  -1  -2  17-358.716 388.836   2
  -1  -2  16 1043.67 456.986   2
  -1  -2  15 2720.54 529.147   2
  -1  -2  15 2284.21 487.278   3
  -1  -2  14 23224.6 1292.87   3
  -1  -2  14 22486.7 1313.67   2
  -1  -2  13 22805.3 1216.82   3
  -1  -2  13 22914.1 1258.20   2
   1   2 -12 18698.2 791.588   4
  -1  -2  12 17566.1 1061.33   2
  -1  -2  12 16891.6 1006.55   3
  -1  -2  11 20739.4 1052.85   3
  -1  -2  11 20677.0 1117.87   2
   1   2 -11 21970.2 850.763   4
  -1  -2  10 41853.3 1568.89   2
  -1  -2  10 43410.5 1511.20   3
   1   2 -10 44276.8 1265.17   4
  -1  -2   9 3506.95 432.704   2
  -1  -2   9 3046.07 370.480   3
   1   2  -9 3620.54 315.758   4
   1   2  -8 2937.08 285.659   4
  -1  -2   8 2657.05 343.031   2
  -1  -2   8 3152.88 356.763   3
   1   2  -7 571.320 147.295   4
  -1  -2   7 299.701 170.581   2
  -1  -2   6 6867.29 403.792   3
   1   2  -6 7255.89 412.441   4
  -1  -2   6 6768.77 450.483   2
  -1  -2   5 50522.3 1222.01   3
   1   2  -5 52256.7 1282.13   4
  -1  -2   5 53945.6 1351.82   2
  -1  -2   4 79951.6 1587.27   3
   1   2  -4 78614.9 1692.22   4
  -1  -2   4 79010.0 1690.35   2
  -1  -2   3 379.790 98.3617   2
   1   2  -3 497.919 87.1356   2
   1   2  -3 316.268 105.523   4
   1   2  -2 60841.8 1142.48   2
   1   2  -2 59809.8 1313.45   4
   1   2  -2 58557.6 1323.02   7
  -1  -2   2 58977.5 1182.16   2
   1   2  -1 47200.8 1067.05   4
  -1  -2   1 45364.5 859.976   2
   1   2  -1 45339.2 1034.97   7
   1   2   0 56660.2 1233.26   4
   1   2   0 62254.1 1203.17   7
  -1  -2  -1 770.994 97.1197   5
   1   2   1 761.565 101.371   4
  -1  -2  -2 135893. 2350.01   4
   1   2   2 134307. 2364.28   1
  -1  -2  -2 138019. 2408.58   5
   1   2   2 135404. 2349.70   4
  -1  -2  -2 138617. 2246.49   2
  -1  -2  -3 981351. 15300.0   5
  -1  -2  -3 999999. 15192.7   1
   1   2   3 985919. 15168.8   2
  -1  -2  -3 994999. 15109.3   4
  -1  -2  -3 984721. 15157.9   2
   1   2   3 970679. 15098.0   4
   1   2   3 980016. 15189.7   1
   1   2   4 7268.65 320.972   1
   1   2   4 7070.19 400.034   3
  -1  -2  -4 7711.83 250.020   4
   1   2   4 7618.53 349.420   2
  -1  -2  -4 7819.12 343.997   2
   1   2   4 7878.98 243.399   4
  -1  -2  -4 7617.77 311.619   1
   1   2   5 928.936 181.056   3
   1   2   5 1091.20 171.359   2
   1   2   5 1059.17 64.3800   4
   1   2   5 960.953 142.815   1
   1   2   6 2338.21 304.730   3
   1   2   6 2196.04 208.125   1
   1   2   6 2243.39 243.439   2
   1   2   7 3213.15 270.745   1
   1   2   7 3205.04 393.289   3
   1   2   7 3127.33 318.380   2
   1   2   8 57691.6 1487.38   1
   1   2   8 56989.9 1580.86   2
   1   2   8 60365.0 1830.78   3
   1   2   9 2597.57 344.164   2
   1   2   9 2782.46 397.361   3
   1   2  10 27926.6 1141.26   2
   1   2  10 28226.2 1301.66   3
   1   2  11 15878.7 886.947   2
   1   2  11 15267.4 987.663   3
  -1  -2 -11 14995.8 844.523   6
   1   2  12 11552.9 889.339   3
   1   2  12 11319.8 773.242   2
  -1  -2 -12 9299.69 688.245   6
   1   2  13 785.349 301.196   2
  -1  -2 -13 1435.50 336.221   6
   1   2  13 1558.58 397.166   3
  -1  -2 -14 5956.88 615.575   6
   1   2  14 5651.51 620.670   2
   1   2  14 6532.65 731.306   3
   1   2  15 7420.13 786.429   3
   1   2  15 7648.43 759.895   2
  -1  -2 -15 6099.42 620.736   6
   1   2  16 312.291 306.094   2
  -1  -2 -16-53.4884 209.463   6
   1   2  16 860.525 406.480   3
   1   2  17 3830.21 613.747   2
  -1  -2 -17 2967.95 505.114   6
   1   2  17 3377.49 658.155   3
   1   2  18 2346.93 560.543   3
  -1  -2 -18 2331.22 478.006   6
   1   2  19 2876.66 603.931   3
   1   2  20 881.347 466.513   3
   1   3 -16 1012.30 437.870   7
  -1  -3  15-304.096 295.538   3
   1   3 -15 475.196 397.600   7
  -1  -3  14 7345.05 761.937   3
  -1  -3  14 7653.75 785.499   2
  -1  -3  13 3916.01 568.267   2
  -1  -3  13 3995.87 543.179   3
  -1  -3  12 151.515 254.636   2
  -1  -3  12 163.081 230.138   3
   1   3 -12 300.025 173.446   4
  -1  -3  11 12389.9 841.445   2
   1   3 -11 12454.2 680.420   4
  -1  -3  11 13072.3 848.000   3
  -1  -3  10 18149.8 961.932   3
   1   3 -10 17102.5 784.408   4
  -1  -3  10 15842.0 937.044   2
   1   3  -9 12783.1 658.052   4
  -1  -3   9 12016.0 735.708   3
  -1  -3   9 11306.8 741.142   2
   1   3  -8 4612.80 380.660   4
  -1  -3   8 4514.37 403.725   3
  -1  -3   8 4697.42 459.582   2
   1   3  -7 147842. 3000.04   4
  -1  -3   7 149784. 3019.13   3
  -1  -3   7 143804. 3126.79   2
   1   3  -6 70336.1 1723.07   4
  -1  -3   6 72818.8 1716.08   3
  -1  -3   6 69787.1 1779.32   2
   1   3  -6 68568.3 1900.47   7
   1   3  -5 33528.4 1041.72   4
   1   3  -5 33061.1 1145.86   7
  -1  -3   5 34541.9 986.019   3
  -1  -3   5 32886.5 1029.18   2
   1   3  -4 74098.1 1785.06   7
   1   3  -4 72121.0 1686.33   4
  -1  -3   4 71498.8 1616.95   2
   1   3  -3 62459.0 1528.73   7
  -1  -3   3 61611.6 1350.16   2
   1   3  -3 65337.2 1520.08   4
   1   3  -2 37624.9 815.372   2
   1   3  -2 36778.6 1028.30   4
  -1  -3   2 35711.5 821.188   2
   1   3  -2 37288.5 1029.21   7
   1   3  -1 49038.1 906.047   2
   1   3  -1 48105.7 1205.17   4
   1   3  -1 47680.2 1165.62   7
   1   3   0 30714.3 878.548   4
   1   3   1 48422.5 1141.57   1
   1   3   1 53165.6 1201.63   4
  -1  -3  -2 23194.6 668.130   5
   1   3   2 22891.6 476.764   2
   1   3   2 22806.1 680.410   4
   1   3   2 22855.7 682.051   1
   1   3   3 103603. 2020.28   1
   1   3   3 103236. 1951.76   4
  -1  -3  -3 101812. 1987.09   5
   1   3   3 103085. 1826.96   2
  -1  -3  -3 106070. 1922.38   4
  -1  -3  -4 13889.2 528.493   5
  -1  -3  -4 13906.3 446.398   2
  -1  -3  -4 13377.2 429.202   4
   1   3   4 13995.6 451.394   4
   1   3   4 13657.3 468.033   2
   1   3   4 14528.1 543.282   1
   1   3   5 74396.4 1406.72   4
  -1  -3  -5 75176.5 1391.34   4
  -1  -3  -5 74810.0 1629.57   5
   1   3   5 74919.9 1636.34   1
   1   3   5 75553.6 1594.57   2
   1   3   6 10583.1 504.036   1
  -1  -3  -6 10525.0 319.260   4
  -1  -3  -6 9699.74 479.680   5
   1   3   6 10401.8 494.637   2
   1   3   7 19566.0 749.245   2
   1   3   7 18939.5 720.286   1
   1   3   8 3141.40 401.256   3
   1   3   8 2728.09 296.071   1
   1   3   8 2844.83 328.846   2
   1   3   9 33119.0 1344.37   3
   1   3   9 32373.5 1113.72   1
   1   3   9 32491.1 1163.42   2
   1   3  10 15614.2 822.746   2
   1   3  10 16124.6 982.147   3
   1   3  10 16139.2 808.671   1
   1   3  11 2269.21 449.580   3
   1   3  11 2003.15 330.979   2
   1   3  12 556.737 249.326   2
   1   3  12 176.900 288.253   3
   1   3  13 2458.62 465.691   3
   1   3  13 2990.21 446.162   2
   1   3  14 6132.68 646.171   2
  -1  -3 -14 5820.90 614.285   6
   1   3  14 6645.49 769.789   3
  -1  -3 -15 23453.2 1268.59   6
   1   3  15 23438.4 1294.43   2
   1   3  15 25416.1 1468.02   3
  -1  -3 -16 7357.90 728.616   6
   1   3  16 9555.79 920.034   3
   1   3  16 8457.43 808.968   2
   1   3  17-53.8580 298.143   2
  -1  -3 -17 444.539 295.387   6
   1   3  17 134.031 315.155   3
   1   3  18 2467.94 531.537   2
  -1  -3 -18 2178.81 485.559   6
  -1  -3 -19 2093.89 469.496   6
   1   4 -16 5772.43 803.735   7
  -1  -4  15 1026.01 366.947   3
   1   4 -15 493.692 362.232   7
  -1  -4  14 8089.83 819.082   3
   1   4 -14 7612.88 872.471   7
  -1  -4  13 22111.1 1279.84   3
   1   4 -13 22839.3 1454.52   7
   1   4 -12 18398.6 946.019   4
  -1  -4  12 17904.8 1102.74   3
   1   4 -12 17584.0 1227.01   7
  -1  -4  11 570.696 328.565   3
   1   4 -11 391.885 220.200   4
   1   4 -11-111.349 362.599   7
  -1  -4  10 5075.55 562.927   3
   1   4 -10 4047.40 430.563   4
   1   4  -9 5959.00 493.580   4
  -1  -4   9 5555.04 509.272   3
   1   4  -9 5717.27 599.431   7
  -1  -4   8 17069.4 837.758   3
   1   4  -8 15525.1 793.564   4
   1   4  -8 17112.5 987.825   7
   1   4  -7 31162.9 1125.94   4
  -1  -4   7 32745.8 1144.81   3
   1   4  -6 25388.1 1084.55   7
   1   4  -6 26462.1 1012.50   4
  -1  -4   6 28577.8 1006.75   3
   1   4  -5 7799.11 548.280   7
   1   4  -5 8362.13 525.643   4
   1   4  -4 60046.0 1607.87   4
   1   4  -4 62079.4 1655.90   7
   1   4  -3 30460.6 1033.36   7
   1   4  -3 31176.0 1042.22   4
   1   4  -2 10146.8 543.628   4
   1   4  -2 9860.69 526.477   7
   1   4  -2 10283.0 381.540   2
   1   4  -1 7335.93 458.220   4
   1   4  -1 7573.29 275.161   2
   1   4   0 112490. 2276.10   4
   1   4   0 110969. 2198.11   1
   1   4   1 34819.4 995.611   1
   1   4   1 32936.7 1013.66   4
   1   4   2 10522.9 499.153   4
   1   4   2 11258.6 514.593   1
   1   4   2 9681.61 256.761   2
   1   4   3 1050.69 186.694   1
   1   4   3 800.176 84.8761   2
  -1  -4  -3 858.854 157.445   5
   1   4   3 964.798 164.169   4
  -1  -4  -4 53753.8 1295.24   5
   1   4   4 53278.3 1271.37   4
   1   4   4 51948.0 1122.96   2
   1   4   4 55791.9 1382.77   1
   1   4   5 1586.88 173.994   2
  -1  -4  -5 1480.41 200.243   5
   1   4   6 364701. 6119.77   1
  -1  -4  -6 351502. 6003.34   5
   1   4   6 348474. 5956.01   2
  -1  -4  -7 19192.1 538.982   4
   1   4   7 20840.3 817.871   1
  -1  -4  -7 18679.0 740.006   5
   1   4   7 19512.2 752.330   2
  -1  -4  -8 8055.81 493.385   5
  -1  -4  -8 9243.93 317.885   4
   1   4   8 8818.21 554.103   1
   1   4   8 9495.78 550.094   2
  -1  -4  -9 20422.9 826.698   5
  -1  -4  -9 19443.4 445.247   4
   1   4   9 21387.8 891.701   1
   1   4   9 22280.8 916.220   2
   1   4  10 22053.5 983.213   2
   1   4  10 22156.3 973.646   1
   1   4  11 474.874 208.736   1
   1   4  11 4.59528 216.166   2
  -1  -4 -11 147.983 152.058   5
   1   4  12 5352.69 549.929   2
   1   4  12 5114.36 538.895   1
   1   4  13 2902.76 467.365   2
   1   4  14 838.376 317.901   2
   1   4  15 358.087 330.148   2
  -1  -4 -16 431.144 332.276   6
   1   4  16 1134.02 426.920   2
   1   4  17 17.5410 339.533   2
  -1  -4 -17 852.323 349.182   6
   1   4  18 1104.50 405.659   2
  -1  -4 -18 727.079 370.744   6
   1   4  19-436.459 391.807   2
  -1  -4 -19-171.310 288.134   6
   1   5 -15 1782.69 512.299   7
  -1  -5  14 2061.42 478.875   3
   1   5 -14 3090.27 634.076   7
  -1  -5  13 7142.39 788.186   3
   1   5 -13 6104.32 821.613   7
  -1  -5  12 5508.94 685.239   3
   1   5 -12 5654.13 734.700   7
   1   5 -11 1276.23 418.974   7
  -1  -5  11 1609.86 446.582   3
   1   5 -11 1246.77 309.451   4
   1   5 -10 2555.35 406.724   4
  -1  -5  10 2342.30 391.325   3
   1   5 -10 1974.22 440.632   7
  -1  -5   9 33698.6 1364.85   3
   1   5  -9 33264.9 1334.60   4
   1   5  -9 32445.4 1540.58   7
  -1  -5   8 8881.74 659.238   3
   1   5  -8 9954.16 679.745   4
   1   5  -8 8289.35 727.243   7
   1   5  -7 673.461 231.082   4
  -1  -5   7 999.668 290.276   3
   1   5  -7 697.297 279.161   7
   1   5  -6 2885.21 369.397   4
  -1  -5   6 3229.74 389.111   3
   1   5  -6 2641.51 383.661   7
   1   5  -5 93398.4 2411.72   7
   1   5  -5 98070.7 2405.53   4
   1   5  -4 18943.4 890.074   7
   1   5  -4 20596.9 918.155   4
   1   5  -3 36412.3 1261.35   4
   1   5  -2 20760.3 918.717   4
   1   5  -2 22126.1 651.537   2
   1   5  -1 74428.9 1908.38   4
   1   5  -1 69428.5 1766.96   1
   1   5  -1 73581.8 1414.06   2
   1   5   0 114506. 2451.95   1
   1   5   0 110572. 2534.75   4
   1   5   0 112874. 1941.12   2
   1   5   1 31455.6 1095.38   4
   1   5   1 33375.8 1078.98   1
   1   5   2 1354.82 235.298   1
   1   5   2 1501.65 250.910   4
   1   5   3 20065.7 810.266   1
   1   5   3 21467.1 832.508   4
   1   5   3 20405.4 514.467   2
   1   5   4 14800.0 660.851   4
   1   5   4 15780.2 717.091   1
   1   5   4 14179.4 461.690   2
  -1  -5  -5 13568.8 614.333   5
   1   5   5 14332.8 706.700   1
   1   5   5 12810.5 489.087   2
  -1  -5  -6 36.1034 103.748   5
   1   5   6-120.131 119.216   2
   1   5   6 28.0970 176.252   1
  -1  -5  -7 15746.0 691.387   5
   1   5   7 16480.4 796.229   1
   1   5   7 16771.2 686.407   2
   1   5   8 2086.61 277.615   2
   1   5   8 2230.37 360.031   1
  -1  -5  -8 2091.01 269.487   5
   1   5   9 702.799 217.612   2
  -1  -5  -9 685.158 190.425   5
   1   5   9 786.672 234.876   1
   1   5  10 1928.12 313.074   2
  -1  -5 -10 1573.54 261.273   5
   1   5  10 1070.40 281.778   1
  -1  -5 -11 70.8571 145.504   5
   1   5  11 126.701 237.981   1
   1   5  11 103.819 202.216   2
   1   5  12 6554.95 600.281   2
  -1  -5 -12 5046.27 469.089   5
   1   5  12 5492.80 554.483   1
   1   5  13 14445.2 925.986   1
   1   5  13 15803.0 956.051   2
  -1  -5 -14 9048.22 669.072   5
   1   5  14 12140.9 889.246   2
   1   5  15 7294.13 734.906   2
  -1  -5 -15 5574.34 550.756   5
   1   5  16 823.115 345.844   2
   1   5  17 1314.98 436.277   2
  -1  -5 -17 972.984 383.696   6
   1   5  18-84.4743 376.326   2
  -1  -5 -18 453.427 345.628   6
   1   5  19 355.772 376.697   2
  -1  -5 -19 181.500 285.823   6
   1   6 -14 3607.18 656.040   7
  -1  -6  14 3902.45 666.839   3
  -1  -6  13 200.704 346.864   3
   1   6 -13 194.714 342.292   7
   1   6 -12-81.1502 317.633   7
  -1  -6  12 575.215 380.877   3
   1   6 -11 1987.91 512.402   7
  -1  -6  11 2663.63 491.380   3
  -1  -6  10 15185.6 992.875   3
   1   6 -10 14878.9 1111.30   7
   1   6  -9 38143.9 1740.23   7
  -1  -6   9 39570.2 1588.20   3
   1   6  -9 39230.6 1568.90   4
  -1  -6   8 22181.1 1120.40   3
   1   6  -8 21700.1 1113.11   4
   1   6  -8 19617.5 1168.49   7
  -1  -6   7 9374.24 708.466   3
   1   6  -7 8103.55 664.725   4
   1   6  -7 7348.77 678.858   7
  -1  -6   6 11197.3 734.118   3
   1   6  -6 10455.6 753.338   4
   1   6  -5 2934.72 397.008   4
   1   6  -4 8463.79 650.090   4
   1   6  -3 3639.27 446.039   4
   1   6  -3 2798.90 367.142   1
   1   6  -2 24146.8 1003.88   1
   1   6  -2 24140.9 1076.84   4
   1   6  -1 246.067 71.7808   2
   1   6  -1 258.811 206.089   1
   1   6  -1 179.089 179.824   4
   1   6   0 737.815 247.076   4
   1   6   0 734.223 231.146   1
   1   6   0 647.841 93.2986   2
   1   6   1 1671.88 302.502   4
   1   6   1 1158.83 270.506   1
   1   6   2 756.994 247.858   1
   1   6   2 456.124 196.499   4
   1   6   3 13778.6 421.900   2
   1   6   3 15516.7 790.564   4
   1   6   3 15186.4 780.273   1
   1   6   4 33518.2 824.856   2
   1   6   4 36300.3 1260.82   1
   1   6   5 24539.4 1023.88   1
   1   6   5 22533.3 701.084   2
   1   6   6 12555.8 750.561   1
   1   6   6 11591.4 527.300   2
   1   6   7 58826.9 1503.49   2
   1   6   7 60721.3 1783.78   1
  -1  -6  -7 56748.5 1568.96   5
   1   6   8 58747.1 1778.79   1
   1   6   8 55887.4 1527.36   2
  -1  -6  -9 21029.2 885.616   5
   1   6   9 23637.9 1111.95   1
   1   6   9 23525.5 973.522   2
   1   6  10 1523.18 297.786   2
  -1  -6 -10 1680.07 263.228   5
   1   6  10 2089.83 385.752   1
   1   6  11 1216.57 314.215   1
  -1  -6 -11 1019.85 217.393   5
   1   6  11 1096.83 296.033   2
   1   6  12-9.82400 245.324   2
   1   6  12-154.590 279.792   1
  -1  -6 -12 186.313 165.246   5
   1   6  13 1196.81 327.760   2
  -1  -6 -13 905.631 245.432   5
   1   6  13 632.562 292.753   1
   1   6  14 1013.91 368.423   1
   1   6  14 1228.50 378.748   2
  -1  -6 -14 1070.73 289.323   5
   1   6  15 594.899 364.136   2
   1   6  16 1495.87 441.820   2
   1   6  17 584.825 340.631   2
   1   6  18-64.5659 323.644   2
  -1  -7  13 598.888 398.307   3
  -1  -7  12 1830.47 517.276   3
  -1  -7  11 1615.28 394.547   3
  -1  -7  10 115.512 296.531   3
  -1  -7   9 1517.07 402.384   3
  -1  -7   8 1322.64 405.094   3
   1   7  -7 2919.64 421.759   1
   1   7  -7 3360.64 492.562   4
  -1  -7   7 3951.99 528.291   3
   1   7  -6 10288.1 802.790   4
   1   7  -6 10749.1 770.500   1
  -1  -7   6 10834.1 790.176   3
   1   7  -5 12040.6 852.472   4
   1   7  -5 11425.3 771.219   1
   1   7  -4 3168.39 419.348   1
   1   7  -4 2713.05 419.908   4
   1   7  -3 5573.44 539.858   1
   1   7  -3 6742.58 636.867   4
   1   7  -2 137505. 3182.56   1
   1   7  -2 132419. 3301.71   4
   1   7  -1 18208.9 930.492   1
   1   7  -1 17840.1 1003.39   4
   1   7   0 4669.44 526.207   4
   1   7   0 3647.72 454.327   1
   1   7   1 10146.6 735.432   4
   1   7   1 9533.64 669.722   1
   1   7   2 243.611 230.625   1
   1   7   3 2261.11 167.875   2
   1   7   3 2298.87 384.356   1
   1   7   4 657.410 113.773   2
   1   7   4 471.977 274.481   1
   1   7   5 10802.2 462.668   2
   1   7   5 10760.6 741.404   1
   1   7   6 208.734 288.345   1
   1   7   6-79.7318 105.852   2
   1   7   7 3198.04 451.163   1
   1   7   7 2662.26 274.156   2
   1   7   8 2513.60 437.706   1
   1   7   8 2732.66 317.072   2
   1   7   9 655.687 212.075   2
   1   7   9 791.611 333.480   1
  -1  -7 -10 8451.11 587.428   5
   1   7  10 9195.53 764.609   1
   1   7  10 9471.10 651.530   2
  -1  -7 -11 19216.2 923.519   5
   1   7  11 20996.4 1135.33   1
   1   7  11 21335.6 1051.24   2
   1   7  12 2321.66 429.286   1
  -1  -7 -12 2671.49 358.185   5
   1   7  12 2804.15 442.466   2
   1   7  13 857.932 341.343   1
   1   7  13 789.753 278.972   2
   1   7  14 4154.94 580.728   2
   1   7  14 2996.11 532.949   1
   1   7  15 1029.22 369.725   1
   1   7  15 1995.71 447.972   2
   1   7  16 63.4284 342.555   2
   1   7  17 833.549 451.329   2
   1   7  18 725.082 446.946   2
  -1  -8  11 11496.1 1036.63   3
  -1  -8  10 7430.68 796.487   3
   1   8  -9 7309.54 724.258   1
  -1  -8   9 9414.48 870.750   3
   1   8  -8 6021.20 655.437   1
  -1  -8   8 7206.79 745.924   3
  -1  -8   7 1781.91 426.931   3
   1   8  -7 1987.42 441.021   1
   1   8  -6 1090.96 353.728   1
  -1  -8   6 2382.37 461.974   3
   1   8  -5 533.799 271.661   1
   1   8  -4 1837.05 395.816   1
   1   8  -3 129.785 283.676   1
   1   8  -2 786.472 316.426   1
   1   8  -1 1327.45 359.871   1
   1   8   0 716.363 324.026   1
   1   8   1 18242.1 1012.31   1
   1   8   2 11197.9 810.304   1
   1   8   3 11970.7 816.111   1
   1   8   4 11698.9 831.444   1
   1   8   5 11930.3 832.371   1
   1   8   6 11041.3 822.040   1
   1   8   7-267.417 304.001   1
   1   8   8 169.524 321.607   1
   1   8   9 107.485 163.193   2
   1   8   9 769.445 383.310   1
   1   8  10 3769.82 549.223   1
   1   8  10 3334.50 399.588   2
   1   8  11 11836.2 775.534   2
   1   8  11 11015.8 900.598   1
   1   8  12 4981.76 648.029   1
   1   8  12 5619.85 579.046   2
   1   8  13 510.445 325.167   1
   1   8  13 603.879 281.861   2
   1   8  14 63.6459 287.672   1
   1   8  14 638.668 330.136   2
   1   8  15 230.722 281.440   2
   1   8  15-128.172 306.165   1
   1   8  16-429.208 338.593   1
  -1  -9   9-152.156 312.799   3
   1   9  -8 1231.08 368.536   1
  -1  -9   8 1813.51 508.537   3
  -1  -9   7 3807.83 599.768   3
   1   9  -7 2275.07 467.146   1
  -1  -9   6 7896.55 771.836   3
   1   9  -6 5643.88 687.102   1
   1   9  -5 4046.67 586.715   1
   1   9  -4 21086.5 1221.08   1
   1   9  -3 4790.35 614.829   1
   1   9  -2 489.646 324.025   1
   1   9  -1 3722.81 549.865   1
   1   9   0 5158.53 615.972   1
   1   9   1 11886.5 866.489   1
   1   9   2 1788.78 420.585   1
   1   9   3 130.116 297.538   1
   1   9   4 1924.67 451.153   1
   1   9   5 1040.69 377.118   1
   1   9   6 597.218 339.358   1
   1   9   7-23.9913 288.805   1
   1   9   8 9488.57 864.531   1
   1   9   9 5402.67 683.392   1
   1   9  10 887.919 398.472   1
   1   9  11 733.709 368.215   1
   1   9  12 5453.86 708.097   1
   1   9  13 751.839 377.800   1
   1   9  14 3314.96 618.561   1
   1   9  15-233.974 389.352   1
   1   9  16-134.232 379.681   1
   1  10  -7 624.580 362.896   1
  -1 -10   6 597.565 354.301   3
   1  10  -6 645.405 340.251   1
  -1 -10   5 3049.75 521.088   3
   1  10  -5 2340.68 486.123   1
   1  10  -4 919.007 364.811   1
   1  10  -3 841.413 405.495   1
   1  10  -2 243.050 330.096   1
   1  10  -1 4876.48 661.331   1
   1  10   0 2118.72 465.185   1
   1  10   1 4976.82 658.550   1
   1  10   2 865.500 402.640   1
   1  10   3 13761.5 1020.24   1
   1  10   4 705.600 393.843   1
   1  10   5 250.413 319.112   1
   1  10   6-69.8407 319.315   1
   1  10   7 35.5963 334.719   1
   1  10   8 213.137 408.392   1
   1  10   9 5324.80 758.381   1
   1  10  10 8.42499 320.753   1
   1  10  11 432.073 368.255   1
   1  10  12 1091.98 428.619   1
   1  10  13-239.758 366.877   1
   1  10  14 494.691 391.633   1
   1  11  -5 1230.36 438.937   1
   1  11  -4-160.885 350.435   1
   1  11  -3-204.663 322.589   1
   1  11  -2 582.984 376.558   1
   1  11  -1 2121.60 505.428   1
   1  11   0 2467.54 521.849   1
   1  11   1 275.207 324.544   1
   1  11   2 696.137 371.772   1
   1  11   3 1902.75 507.451   1
   1  11   4 361.917 398.638   1
   1  11   5 603.315 406.866   1
   1  11   6 296.485 367.104   1
   1  11   7 13.0564 346.031   1
   1  11   8 375.154 394.186   1
   1  11   9 1249.99 491.015   1
   1  11  10 1261.98 483.218   1
   1  11  11-14.3160 354.914   1
   1  12   2 317.966 378.457   1
   1  12   3 130.063 336.299   1
   1  12   4 813.050 413.223   1
  -2  10   7 499.101 356.450   1
  -2  10   6 1632.62 503.043   1
  -2  10   5-173.091 333.749   1
  -2  10   4 515.703 354.161   1
  -2  10   3 1851.01 499.691   1
  -2  10   2 1221.35 443.485   1
  -2  10   1 442.762 306.563   1
  -2  10   0-119.932 265.934   1
   2 -10   1 800.498 351.537   3
  -2   9  11 1664.56 541.987   1
  -2   9  10 202.856 397.547   1
  -2   9   9-377.099 374.354   1
  -2   9   8 177.473 352.513   1
  -2   9   7 3870.06 663.768   1
  -2   9   6 3659.66 628.375   1
  -2   9   5 311.583 341.702   1
  -2   9   4 863.527 386.924   1
  -2   9   3 165.459 274.936   1
  -2   9   2 162.461 293.456   1
  -2   9   1 35.4237 284.599   1
  -2   9   0 310.193 280.568   1
  -2   9  -1 5371.29 652.612   1
  -2   9  -2 2815.97 483.323   1
   2  -9   2 3267.98 503.086   3
   2  -9   3 1634.25 428.311   3
   2  -9   4 4130.45 618.018   3
   2  -9   5 3168.38 592.346   3
  -2   8  14-504.729 357.139   2
  -2   8  13 276.759 304.884   2
  -2   8  12-177.915 433.780   1
  -2   8  12-71.2535 293.733   2
  -2   8  11 685.833 318.257   2
  -2   8  11 66.9789 340.671   1
   2  -8 -10 773.359 363.270   4
  -2   8  10 698.318 324.333   2
  -2   8  10 596.143 342.725   1
  -2   8   9-450.401 417.786   1
  -2   8   9 458.813 313.155   2
  -2   8   8 1377.86 469.609   1
  -2   8   7 547.796 304.494   1
  -2   8   6 3217.82 603.323   1
  -2   8   5 9814.90 852.888   1
  -2   8   4 3641.82 577.856   1
  -2   8   3 104.457 281.097   1
  -2   8   2 277.821 277.310   1
  -2   8   1 80.7551 259.306   1
  -2   8   0 857.009 321.178   1
  -2   8  -1 1020.05 344.763   1
  -2   8  -2 1581.73 372.278   1
  -2   8  -3-75.5958 212.833   1
   2  -8   3 520.841 353.878   3
   2  -8   4 1071.09 369.164   3
   2  -8   5 5838.74 686.863   3
   2  -8   6 590.971 429.769   3
   2  -8   7 3328.70 603.034   3
   2  -8   8 7540.30 833.567   3
  -2   7  15-254.223 392.306   2
  -2   7  14 1094.64 399.451   2
  -2   7  13 3832.34 606.286   2
  -2   7  12 1106.29 386.468   2
  -2   7  11 600.204 326.065   2
  -2   7  11 370.880 351.561   1
  -2   7  10 557.756 321.281   2
   2  -7 -10 168.399 233.846   4
  -2   7  10-151.001 308.403   1
   2  -7  -9 635.781 323.207   4
  -2   7   9-349.888 343.242   1
  -2   7   8 4411.84 614.339   1
  -2   7   7 519.811 318.714   1
  -2   7   6 2321.99 453.733   1
  -2   7   5 798.112 272.426   1
  -2   7   4 22353.5 1172.61   1
  -2   7   3 764.301 294.494   1
  -2   7   2 354.611 248.462   1
  -2   7   1 3395.38 467.632   1
  -2   7   0 4206.62 493.041   1
  -2   7  -1 7446.14 623.441   1
  -2   7  -2 4967.49 506.805   1
   2  -7   3 10522.3 785.646   3
  -2   7  -3 10666.0 717.795   1
   2  -7   4-95.2913 243.495   3
  -2   7  -4 414.755 238.826   1
   2  -7   5 2047.23 443.524   3
   2  -7   6 420.785 319.713   3
   2  -7   7 4352.62 630.479   3
   2  -7   8 12350.6 1023.69   3
   2  -7   9 401.285 381.783   3
   2  -7  10 322.002 431.735   3
  -2   6  16-72.5207 384.220   2
  -2   6  15 3071.45 615.449   2
  -2   6  14 1151.38 403.552   2
  -2   6  13 2595.83 536.631   2
  -2   6  12 340.847 322.424   2
  -2   6  11-95.5514 349.069   1
  -2   6  11 662.663 325.708   2
  -2   6  10 3806.42 516.625   2
   2  -6 -10 3236.51 446.310   4
  -2   6  10 2807.24 525.368   1
   2  -6  -9 3089.27 448.859   4
  -2   6   9 2345.92 471.800   1
  -2   6   8 265.975 290.354   1
  -2   6   7 7434.83 723.505   1
  -2   6   6 17727.2 1029.86   1
  -2   6   5 595.484 285.001   1
  -2   6   4 939.128 290.844   1
  -2   6   3 1024.14 311.547   1
  -2   6   2 9326.51 677.260   1
  -2   6   1 14657.0 837.673   1
  -2   6   0 5301.96 491.534   1
  -2   6  -1 4370.15 439.414   1
  -2   6  -2 3689.41 399.872   1
   2  -6   3 2636.21 435.627   3
  -2   6  -3 2297.74 321.689   1
   2  -6   4 8576.82 684.470   3
  -2   6  -4 8017.72 580.622   1
   2  -6   5 1858.85 409.828   3
  -2   6  -5 827.613 227.884   1
   2  -6   6 7474.96 722.661   3
   2  -6   7 3543.58 532.865   3
   2  -6   8-350.827 331.543   3
   2  -6   9 644.401 370.851   3
   2  -6  10 9281.98 951.384   3
   2  -6  11 4925.08 779.254   3
   2  -6  12 3013.37 679.113   3
  -2   5  16 1528.15 463.135   2
   2  -5 -16 1193.60 450.978   6
  -2   5  15 952.688 385.734   2
  -2   5  14 2759.06 519.364   2
  -2   5  13 1032.34 377.249   2
  -2   5  12 593.324 310.053   2
   2  -5 -11 351.636 187.612   4
  -2   5  11 404.391 308.279   2
  -2   5  10 10572.1 783.812   2
   2  -5 -10 9444.54 670.444   4
  -2   5   9 4861.13 623.107   1
   2  -5  -9 5723.09 524.893   4
  -2   5   9 5753.32 579.935   2
   2  -5  -8 4569.28 489.270   4
  -2   5   8 4219.92 549.143   1
  -2   5   7 2263.98 395.219   1
  -2   5   6 16750.2 956.220   1
  -2   5   5 183.568 252.353   1
  -2   5   4 256.865 256.864   1
  -2   5   3 34097.2 1254.24   1
  -2   5   2 15409.3 788.296   1
  -2   5   1 2185.72 335.631   1
  -2   5   0 9825.75 614.960   1
  -2   5  -1 9512.97 582.870   1
  -2   5  -2 391.200 164.255   1
   2  -5   3 3803.37 445.574   3
  -2   5  -3 3460.93 347.050   1
   2  -5   4 10537.8 711.147   3
  -2   5  -4 9542.70 550.381   1
   2  -5   5 10547.8 756.297   3
  -2   5  -5 10430.5 574.542   1
   2  -5   6 46492.8 1651.57   3
  -2   5  -6 42731.5 1254.65   1
   2  -5   7 13087.3 882.380   3
   2  -5   8 633.762 321.993   3
   2  -5   9 6019.59 660.376   3
   2  -5  10 5547.41 751.964   3
   2  -5  11 1201.55 442.769   3
   2  -5  12 432.933 404.925   3
   2  -5  13 3331.60 673.175   3
  -2   4  17 894.136 496.722   2
  -2   4  16 5977.60 792.919   2
   2  -4 -16 6045.40 821.472   6
  -2   4  15 2728.13 542.682   2
   2  -4 -15 2527.75 549.340   6
  -2   4  14 1000.57 371.076   2
   2  -4 -14 1812.26 454.400   6
  -2   4  13 38.9715 296.758   2
  -2   4  12 21879.1 1199.48   2
   2  -4 -11 1929.47 295.915   4
  -2   4  11 1903.04 384.044   2
   2  -4 -10 136.426 145.278   4
  -2   4  10 252.922 264.482   2
   2  -4  -9 5424.53 476.017   4
  -2   4   9 6399.15 587.551   2
   2  -4  -8 16586.2 839.893   4
  -2   4   8 15986.5 977.492   1
   2  -4  -7 251.466 175.321   4
  -2   4   7-167.427 323.074   1
  -2   4   6 147.334 218.411   1
  -2   4   5 1156.27 265.397   1
  -2   4   5 784.421 77.9219   5
  -2   4   4 11212.8 388.461   5
  -2   4   4 10401.4 657.253   1
  -2   4   3 83411.3 2065.54   1
  -2   4   2 23269.9 910.121   1
  -2   4   1 17899.6 768.973   1
  -2   4   0 28552.8 983.895   1
  -2   4  -1 20784.9 777.632   1
  -2   4  -2 647.796 148.163   1
   2  -4   3 350.661 207.898   3
  -2   4  -3 67.5135 126.409   1
  -2   4  -4 6922.41 409.206   1
   2  -4   4 6632.65 540.503   3
   2  -4   5 7688.23 591.330   3
  -2   4  -5 8317.19 442.536   1
   2  -4   6 5038.68 519.183   3
  -2   4  -6 5455.80 354.209   1
   2  -4   7 1846.21 361.974   3
  -2   4  -7 2283.42 228.079   1
   2  -4   8 789.305 263.798   3
   2  -4   9 4003.53 573.735   3
   2  -4  10 9146.31 865.556   3
   2  -4  11 6217.58 778.933   3
   2  -4  12 13809.6 1140.19   3
   2  -4  13 23736.2 1526.76   3
   2  -4  14 856.919 473.501   3
   2  -4  15 1505.27 543.503   3
  -2   3  17 472.174 429.335   2
   2  -3 -17 760.823 416.415   6
   2  -3 -16 358.682 334.894   6
  -2   3  16-511.883 362.058   2
  -2   3  15 718.214 336.344   2
   2  -3 -15 712.457 364.672   6
  -2   3  14 152.128 302.919   2
   2  -3 -14 1101.05 364.087   6
   2  -3 -13 607.856 319.071   6
  -2   3  13 673.410 308.636   2
  -2   3  12 7129.69 676.360   2
  -2   3  11 15962.2 946.175   2
   2  -3 -11 15650.7 759.629   4
  -2   3  10 7376.45 623.620   2
   2  -3 -10 6820.28 520.663   4
  -2   3   9 28862.5 1184.85   2
   2  -3  -9 27758.9 1072.36   4
   2  -3  -8 26925.9 1034.65   4
   2  -3  -7 665.826 202.567   4
   2  -3  -6 180.931 160.034   4
  -2   3   6 29.7021 215.707   1
   2  -3  -5 6328.12 484.743   4
  -2   3   5 5381.59 485.420   1
  -2   3   4 12647.5 305.085   5
  -2   3   4 18496.4 796.001   1
  -2   3   3 276.138 161.292   1
  -2   3   2 6673.19 447.507   1
  -2   3   1 22737.3 802.970   1
  -2   3   0 20738.1 732.033   1
  -2   3  -1 27967.7 837.931   1
  -2   3  -2 5605.56 334.299   1
   2  -3   2 5487.45 398.261   3
   2  -3   3 51664.2 1394.06   3
  -2   3  -3 48482.7 1151.05   1
   2  -3   4 78096.6 1936.90   3
  -2   3  -4 78660.9 1612.49   1
   2  -3   5 66025.2 1803.20   3
  -2   3  -5 68165.6 1420.91   1
  -2   3  -6 15027.5 512.386   1
   2  -3   6 13438.5 759.337   3
   2  -3   7 10748.9 710.837   3
  -2   3  -7 11144.7 431.496   1
   2  -3   8 14328.8 896.998   3
  -2   3  -8 12711.3 469.108   1
   2  -3   9 1778.27 451.513   3
  -2   3  -9 1581.37 273.055   7
   2  -3  10 2108.12 465.831   3
  -2   3 -10 1912.55 326.426   7
  -2   3 -11 2513.55 357.511   7
   2  -3  11 3058.61 535.798   3
   2  -3  12-91.3151 359.836   3
  -2   3 -12 259.233 213.377   7
   2  -3  13 1837.13 505.410   3
   2  -3  14-572.265 423.610   3
   2  -3  15-559.185 464.442   3
   2  -3  16 2072.10 558.692   3
  -2   2  17 1374.90 458.360   2
   2  -2 -17 1632.37 470.285   6
  -2   2  16 1637.77 456.703   2
   2  -2 -16 697.258 378.713   6
   2  -2 -15 1136.61 417.751   6
  -2   2  15 1448.40 442.238   2
   2  -2 -14 4106.08 587.518   6
  -2   2  14 3238.00 528.766   2
   2  -2 -13 359.909 322.952   6
  -2   2  13 5.14673 271.424   2
  -2   2  12 303.624 277.243   2
   2  -2 -12 177.809 271.066   6
  -2   2  11 10070.3 734.147   2
   2  -2 -11 11078.4 852.210   6
   2  -2 -11 9956.11 567.368   4
  -2   2  10 17368.4 920.582   2
   2  -2 -10 17860.4 1026.21   6
   2  -2 -10 18602.5 798.702   4
  -2   2   9 9128.55 623.517   2
   2  -2  -9 8837.74 534.094   4
   2  -2  -8 1780.40 259.150   4
  -2   2   8 2197.85 327.286   2
   2  -2  -7 1143.48 206.262   4
   2  -2  -6 16738.4 745.450   4
   2  -2  -5 127478. 2693.19   4
   2  -2  -4 28798.5 984.653   4
  -2   2   4 27252.9 1003.29   1
  -2   2   3 51838.7 1422.51   1
   2  -2  -3 54445.7 1468.41   4
  -2   2   2 142593. 2799.63   1
  -2   2   1 50969.8 1274.77   1
  -2   2   0 13912.5 537.734   1
  -2   2  -1 442.395 110.696   1
   2  -2   1 448.721 123.228   3
   2  -2   2 15367.4 488.102   1
   2  -2   2 17139.4 505.295   7
  -2   2  -2 16766.1 523.019   1
   2  -2   2 16903.3 637.069   3
   2  -2   3-12.7031 116.387   3
  -2   2  -3 110.003 70.3378   1
   2  -2   3 56.5868 46.6947   7
  -2   2  -4 24424.1 595.615   1
   2  -2   4 23626.6 872.078   3
   2  -2   5 2034.36 268.633   3
  -2   2  -5 2424.81 150.355   1
  -2   2  -6 6469.93 250.464   1
   2  -2   6 5703.51 455.197   3
  -2   2  -6 6710.51 372.279   7
   2  -2   7 9245.25 668.175   3
  -2   2  -7 9059.60 478.576   7
  -2   2  -7 8660.14 304.180   1
  -2   2  -8 38810.7 850.590   1
   2  -2   8 42294.7 1545.31   3
  -2   2  -8 41405.2 1214.28   7
  -2   2  -9 38757.2 874.517   1
   2  -2   9 39665.3 1566.41   3
  -2   2  -9 42092.9 1305.69   7
  -2   2 -10 8270.63 580.053   7
   2  -2  10 8489.87 752.550   3
   2  -2  11 40337.3 1739.37   3
  -2   2 -11 40561.2 1441.32   7
  -2   2 -12 13187.3 821.970   7
   2  -2  12 14879.4 1085.82   3
   2  -2  13 2979.32 562.266   3
  -2   2 -13 2490.29 390.697   7
   2  -2  14 1252.10 379.387   3
   2  -2  15-315.708 395.970   3
   2  -2  16 3788.82 681.898   3
   2  -2  17-161.332 409.765   3
  -2   1  17 397.170 347.592   2
   2  -1 -17 148.670 339.139   6
  -2   1  16-677.696 383.278   2
   2  -1 -16 258.250 301.936   6
   2  -1 -15 9477.87 891.857   6
  -2   1  15 8651.07 846.866   2
   2  -1 -14 6718.25 733.642   6
  -2   1  14 6632.85 699.948   2
  -2   1  13 4299.62 553.943   2
   2  -1 -13 3787.78 556.090   6
   2  -1 -12 21270.3 830.501   4
   2  -1 -12 19717.3 1134.88   6
  -2   1  12 19405.4 1084.28   2
   2  -1 -11 38425.2 1572.14   6
   2  -1 -11 39164.4 1210.15   4
  -2   1  11 35652.1 1447.15   2
  -2   1  10 23771.3 1084.33   2
   2  -1 -10 26317.9 1233.37   6
   2  -1 -10 24941.8 929.948   4
  -2   1   9 987.170 290.348   2
   2  -1  -9 949.869 273.092   6
   2  -1  -9 918.630 182.856   4
   2  -1  -8 229.444 213.788   6
  -2   1   8 234.094 199.739   2
   2  -1  -8 348.485 143.021   4
  -2   1   7 18724.0 806.114   2
   2  -1  -7 19883.6 789.603   4
   2  -1  -7 19697.7 901.615   6
   2  -1  -6 3662.14 225.560   3
   2  -1  -6 4123.10 345.637   4
   2  -1  -5 19214.6 554.449   3
   2  -1  -5 20888.3 798.546   4
   2  -1  -4 4.02628 100.815   4
   2  -1  -4 143.380 57.3208   3
   2  -1  -3 11003.5 539.947   4
   2  -1  -2 5171.02 369.499   4
   2  -1  -1 94418.4 2050.55   4
   2  -1   0 30874.6 736.360   3
   2  -1   1 90879.6 1776.86   3
  -2   1  -1 93778.0 1748.61   1
   2  -1   1 91840.7 1724.72   1
   2  -1   2 250452. 3979.79   7
   2  -1   2 254612. 4300.42   3
  -2   1  -2 252446. 4074.94   1
   2  -1   2 249827. 4052.76   1
   2  -1   3 71407.2 1581.72   3
  -2   1  -3 70026.5 1219.99   1
   2  -1   4 43861.0 1196.03   3
   2  -1   4 41689.2 832.768   6
   2  -1   5 51813.3 1115.16   6
  -2   1  -5 52732.5 1105.21   7
   2  -1   5 54567.9 1503.73   3
  -2   1  -6 2040.48 185.867   7
   2  -1   6 1871.50 302.577   3
  -2   1  -7 1567.55 83.5493   1
   2  -1   7 2000.99 350.719   3
  -2   1  -7 1942.30 209.349   7
  -2   1  -7 1507.90 87.1590   1
  -2   1  -8 21358.8 782.512   7
   2  -1   8 20618.3 1019.41   3
  -2   1  -8 17212.1 423.271   1
  -2   1  -8 17757.8 428.373   1
   2  -1   9-52.5009 234.398   3
   2  -1  10 1136.96 303.722   3
   2  -1  11 11608.0 890.880   3
   2  -1  12 2749.93 465.621   3
   2  -1  13-150.812 429.041   3
   2  -1  14 6760.10 813.856   3
   2  -1  15 8939.28 939.651   3
   2  -1  16 1809.88 567.958   3
   2  -1  17 2397.83 615.433   3
  -2   0  17 2303.84 544.526   2
  -2   0  16 1101.67 430.354   2
  -2   0  15-148.455 296.788   2
  -2   0  14-409.264 330.870   2
   2   0 -14 764.647 363.046   6
  -2   0  13-166.080 291.400   2
   2   0 -13-336.573 308.280   6
  -2   0  12 1053.82 327.230   2
   2   0 -12 352.765 238.268   6
  -2   0  12 1007.84 274.728   3
   2   0 -12 495.787 151.092   4
  -2   0  11 2027.20 366.966   2
  -2   0  11 3462.80 391.533   3
   2   0 -11 2719.43 297.359   4
   2   0 -11 2520.82 406.956   6
  -2   0  10 1541.75 312.890   2
  -2   0  10 1985.26 294.139   3
   2   0 -10 1756.14 367.905   6
   2   0 -10 1477.95 227.951   4
   2   0  -9 1760.17 336.417   6
  -2   0   9 1889.96 334.713   2
  -2   0   9 2001.96 261.100   3
   2   0  -9 1615.61 240.730   4
  -2   0   8 23085.2 975.822   2
  -2   0   8 25747.9 834.680   3
   2   0  -8 23454.4 1081.55   6
   2   0  -8 24840.3 893.897   4
   2   0  -7 127986. 2857.67   6
  -2   0   7 122017. 2640.47   2
  -2   0   7 127694. 2356.16   3
   2   0  -7 127111. 2569.54   4
   2   0  -7 118161. 2195.83   3
  -2   0   6 35729.0 1093.02   2
  -2   0   6 35548.9 830.038   3
   2   0  -6 34780.9 764.259   3
   2   0  -6 35336.7 1068.36   4
   2   0  -6 35065.0 1222.49   6
   2   0  -5 72397.1 1675.71   4
   2   0  -5 67797.0 1216.44   3
   2   0  -5 71726.6 1780.54   6
   2   0  -4 79044.5 1860.07   6
   2   0  -4 77336.4 1832.76   4
   2   0  -4 81204.6 1405.80   5
   2   0  -3 63048.1 1545.59   4
   2   0  -3 60179.6 1453.34   6
   2   0  -3 61751.8 1111.72   5
   2   0  -2 24818.3 747.629   6
  -2   0   2 25367.1 543.420   5
   2   0  -2 26222.7 860.758   4
   2   0  -1 1831.41 205.434   4
   2   0  -1 1783.89 108.493   3
   2   0  -1 1636.33 152.977   6
  -2   0   1 1798.43 130.374   5
   2   0   0 551.142 125.231   4
   2   0   0 863.154 105.282   3
  -2   0   0 865.318 85.2295   3
   2   0   0 562.290 75.2777   6
  -2   0  -1 92265.4 1669.81   3
   2   0   1 85833.7 1470.23   6
   2   0   1 89572.7 1718.70   3
   2   0   1 87352.6 1646.83   1
   2   0   1 89261.5 1838.38   4
   2   0   2 77082.4 1624.32   3
   2   0   2 79296.7 1650.55   4
   2   0   2 74726.5 1356.09   1
   2   0   3 1085.47 166.191   4
   2   0   3 1045.90 178.463   3
   2   0   4 1461.12 222.650   3
  -2   0  -4 1168.25 88.0856   7
   2   0   5 106323. 2398.58   3
   2   0   6 91383.5 2249.51   3
   2   0   7 3551.16 405.948   3
   2   0   8 17433.2 913.926   3
  -2   0  -8 16054.9 383.643   1
   2   0   9 94025.8 2498.65   3
  -2   0  -9 85555.0 1543.06   1
   2   0  10 37445.6 1541.36   3
   2   0  11 405.251 266.231   3
   2   0  12-453.950 369.245   3
   2   0  13 1513.16 426.203   3
   2   0  14 14165.6 1110.21   3
   2   0  15 7587.34 857.892   3
   2   0  16 1429.42 460.353   3
   2   0  17 3100.65 622.893   3
   2   0  18 1850.96 584.344   3
  -2  -1  17 2365.27 524.484   2
  -2  -1  16 9066.69 935.173   2
  -2  -1  15 7189.17 795.405   2
  -2  -1  14 17647.5 1171.44   2
  -2  -1  13 25068.5 1342.82   2
  -2  -1  12 3841.69 513.658   2
  -2  -1  12 5149.53 511.317   3
   2   1 -12 4568.49 400.364   4
  -2  -1  11 3190.84 452.114   2
  -2  -1  11 4003.29 439.889   3
   2   1 -11 3702.71 359.288   4
   2   1 -10 2348.30 402.829   6
  -2  -1  10 2504.69 388.233   2
  -2  -1  10 2945.06 380.336   3
   2   1 -10 2940.09 316.211   4
   2   1  -9-7.06939 205.459   6
  -2  -1   9 203.773 215.830   2
   2   1  -9 232.381 158.652   4
  -2  -1   9-30.0308 153.492   3
   2   1  -8 17670.5 740.953   4
  -2  -1   8 17355.1 757.217   3
   2   1  -8 16657.9 901.332   6
  -2  -1   8 16376.7 815.893   2
  -2  -1   7 34127.9 1158.17   2
  -2  -1   7 38030.0 1089.21   3
   2   1  -7 35158.4 1290.28   6
   2   1  -7 37065.1 1122.16   4
  -2  -1   6 98.9511 94.0777   3
   2   1  -6 382.498 198.110   6
  -2  -1   6 749.655 194.197   2
   2   1  -6 694.435 179.480   4
  -2  -1   5 3652.65 307.582   2
  -2  -1   5 3086.30 208.926   3
   2   1  -5 3424.40 308.147   4
  -2  -1   4 140288. 2413.06   3
   2   1  -4 140033. 2846.40   6
   2   1  -3 26988.2 619.568   5
   2   1  -3 25075.8 830.003   4
   2   1  -3 25358.9 800.534   6
   2   1  -2 12616.2 579.394   4
   2   1  -2 13675.8 408.726   5
  -2  -1   1 70207.8 1415.98   6
  -2  -1   1 64326.4 1253.91   5
   2   1  -1 67006.0 1274.71   5
   2   1  -1 67619.8 1566.50   4
  -2  -1   1 61184.9 1164.67   3
  -2  -1   0 283893. 4510.25   6
   2   1   0 274778. 4407.20   3
  -2  -1   0 276816. 4538.42   5
   2   1   0 275675. 4826.89   4
  -2  -1   0 273345. 4514.55   3
   2   1   1 145869. 2406.46   7
   2   1   1 145285. 2591.24   3
  -2  -1  -1 149873. 2435.11   6
  -2  -1  -1 149687. 2676.56   3
  -2  -1  -1 148962. 2659.39   5
   2   1   1 143158. 2805.78   4
  -2  -1  -2 34691.5 982.020   3
   2   1   2 36281.9 965.751   3
   2   1   2 35216.5 976.505   4
   2   1   3 69193.7 1635.32   3
  -2  -1  -3 68966.4 1453.69   4
   2   1   4 3435.39 329.053   3
   2   1   4 3411.26 245.361   4
   2   1   4 3754.01 141.613   1
   2   1   5 24357.0 510.433   1
   2   1   5 24672.6 714.980   4
  -2  -1  -6 24231.7 724.333   6
   2   1   6 23359.9 682.282   4
  -2  -1  -6 24554.5 514.913   1
  -2  -1  -7 17656.4 658.596   6
   2   1   7 16059.5 530.805   4
  -2  -1  -7 17430.6 425.355   1
   2   1   7 17789.1 909.519   3
   2   1   8 43602.8 938.019   4
  -2  -1  -8 50856.5 1308.04   6
   2   1   8 44186.9 1006.11   4
   2   1   8 51411.0 1720.31   3
  -2  -1  -8 45083.7 918.335   1
  -2  -1  -9 22880.1 857.608   6
   2   1   9 17998.7 493.295   4
   2   1   9 24634.5 1202.34   3
   2   1   9 19865.5 558.839   4
  -2  -1  -9 20756.5 552.912   1
   2   1  10 11191.4 845.119   3
  -2  -1 -10 9611.19 582.807   6
  -2  -1 -11 965.431 227.029   6
   2   1  11 1306.39 372.166   3
  -2  -1 -12 12083.7 724.268   6
   2   1  12 13197.0 987.142   3
   2   1  13 21978.1 1287.31   3
  -2  -1 -13 18491.6 955.944   6
   2   1  14 6101.77 732.725   3
   2   1  15 2046.36 511.841   3
   2   1  16 5008.95 710.873   3
   2   1  17 1796.37 524.431   3
   2   1  18 350.118 354.262   3
   2   1  19 1143.97 486.111   3
  -2  -2  16 8871.43 922.997   2
  -2  -2  15 416.947 358.792   2
  -2  -2  14 983.298 372.069   2
  -2  -2  13 5322.76 640.433   2
  -2  -2  12 3660.48 523.438   2
   2   2 -12 4262.32 402.241   4
  -2  -2  12 4041.06 473.475   3
   2   2 -11 5231.74 452.401   4
  -2  -2  11 4863.43 488.670   3
  -2  -2  11 4880.80 558.380   2
   2   2 -10 8142.77 544.152   4
  -2  -2  10 7894.28 583.025   3
  -2  -2  10 8786.14 696.237   2
  -2  -2   9 51698.6 1512.14   3
  -2  -2   9 51318.7 1686.11   2
   2   2  -9 52358.6 1497.81   4
  -2  -2   8 32367.7 1073.71   3
   2   2  -8 34123.5 1130.32   4
  -2  -2   8 33176.8 1236.71   2
  -2  -2   7 39628.8 1128.25   3
   2   2  -7 41083.6 1228.30   4
  -2  -2   7 37785.0 1271.87   2
  -2  -2   6 37968.2 1007.92   3
   2   2  -6 38716.1 1173.52   4
  -2  -2   6 37509.8 1173.38   2
  -2  -2   5 38234.5 1090.61   2
  -2  -2   5 36281.8 898.739   3
   2   2  -5 37610.1 1135.17   4
  -2  -2   4 7636.25 404.825   2
  -2  -2   4 7494.85 303.316   3
   2   2  -4 7805.84 470.450   4
  -2  -2   3 4482.60 279.953   2
   2   2  -3 4481.94 357.168   4
   2   2  -2 49972.8 1334.41   4
   2   2  -1 105133. 2040.46   7
   2   2  -1 105136. 2213.84   4
  -2  -2   0 158229. 2827.49   5
   2   2   0 161160. 2816.17   7
   2   2   0 163727. 3084.63   4
  -2  -2  -1 8023.81 343.538   3
  -2  -2  -1 8172.60 319.257   7
   2   2   1 7416.86 413.976   4
  -2  -2  -1 7525.55 365.079   5
  -2  -2  -2 28198.6 833.927   5
   2   2   2 27505.0 858.875   4
   2   2   3 45336.0 1162.49   3
  -2  -2  -3 47013.7 1114.78   4
   2   2   3 46733.4 1159.72   4
  -2  -2  -3 45573.0 1177.71   5
   2   2   4 26065.2 651.410   1
   2   2   4 27332.4 908.955   3
  -2  -2  -4 26377.3 725.392   4
   2   2   4 26561.0 780.518   4
  -2  -2  -5 18742.5 546.504   4
   2   2   5 17059.8 574.914   4
   2   2   5 18784.9 522.801   1
   2   2   5 18974.3 820.683   3
  -2  -2  -6 48695.5 1006.20   1
   2   2   6 45262.1 1026.21   4
   2   2   6 46966.7 1030.88   1
   2   2   6 49427.1 1540.67   3
  -2  -2  -7 120224. 2147.88   1
   2   2   7 116804. 2089.62   4
   2   2   7 122271. 2236.11   1
   2   2   8 4425.38 291.909   1
   2   2   8 5136.22 538.835   3
   2   2   9 3173.84 465.871   3
   2   2  10 6979.98 678.820   3
  -2  -2 -11 286.006 155.110   6
   2   2  11 133.548 321.881   3
   2   2  12 24844.6 1338.34   3
  -2  -2 -12 25011.3 1083.87   6
  -2  -2 -13 22003.4 1046.53   6
   2   2  13 26157.1 1403.72   3
   2   2  14 3338.42 560.703   3
  -2  -2 -14 2019.16 345.255   6
   2   2  15 7481.11 845.033   3
  -2  -2 -15 6568.15 615.604   6
  -2  -2 -16 17582.3 1029.01   6
   2   2  16 19042.4 1317.73   3
  -2  -2 -17 389.408 245.665   6
   2   2  17 762.111 483.842   3
   2   2  18 1000.84 487.462   3
   2   2  19 280.945 436.922   3
  -2  -3  16 3231.24 597.514   2
  -2  -3  15 11898.3 995.290   2
  -2  -3  14 10466.7 916.689   2
  -2  -3  13 183.942 294.859   2
  -2  -3  12-45.1070 264.991   2
  -2  -3  12 116.181 220.653   3
   2   3 -12 189.454 155.687   4
  -2  -3  11 3449.47 500.594   2
   2   3 -11 3682.14 407.718   4
  -2  -3  11 3390.63 415.519   3
  -2  -3  10 18873.2 921.624   3
   2   3 -10 19223.8 904.380   4
  -2  -3  10 18758.7 1035.92   2
   2   3  -9 17418.0 838.886   4
  -2  -3   9 17021.7 835.184   3
  -2  -3   9 17547.3 930.870   2
  -2  -3   8 26747.1 983.312   3
   2   3  -8 25016.5 1007.96   4
  -2  -3   8 25896.5 1108.15   2
  -2  -3   7 14750.3 644.879   3
   2   3  -7 14696.2 736.226   4
  -2  -3   7 15382.2 767.341   2
  -2  -3   6 36229.5 1015.30   3
  -2  -3   6 36105.2 1162.16   2
  -2  -3   5 14377.9 546.179   3
   2   3  -5 13419.7 670.698   4
  -2  -3   5 14014.4 632.863   2
  -2  -3   4 597.350 142.220   2
   2   3  -4 515.433 166.781   7
   2   3  -4 627.554 164.200   4
   2   3  -3 59700.2 1531.19   4
  -2  -3   3 57256.8 1302.48   2
   2   3  -3 57042.2 1517.41   7
  -2  -3   2 284575. 4718.64   2
   2   3  -2 293343. 5037.93   7
   2   3  -2 288244. 5118.38   4
   2   3  -1 310.029 120.016   7
   2   3  -1 450.624 157.595   4
   2   3   0 27984.1 925.291   4
   2   3   0 29392.9 825.395   7
  -2  -3  -1 19244.9 656.948   5
   2   3   1 19691.1 718.786   4
  -2  -3  -2 1795.19 208.971   5
   2   3   2 1983.00 221.493   4
   2   3   3 43102.0 1096.48   4
  -2  -3  -3 44697.3 1163.90   5
  -2  -3  -3 43446.4 913.428   2
   2   3   4 34693.5 888.956   1
   2   3   4 32671.6 891.316   4
  -2  -3  -4 35779.5 1051.65   5
   2   3   5 25283.3 709.186   4
  -2  -3  -5 25608.8 905.563   5
  -2  -3  -5 26643.5 732.233   4
   2   3   5 26458.5 768.324   1
   2   3   6 133023. 2836.10   3
   2   3   6 126698. 2268.09   4
  -2  -3  -6 129111. 2294.34   4
   2   3   6 126443. 2425.93   1
   2   3   7 53146.3 1654.31   3
   2   3   7 50979.6 1014.34   4
  -2  -3  -7 52022.5 1032.29   4
   2   3   7 52161.3 1257.95   1
   2   3   8 15652.9 874.950   3
   2   3   8 13507.5 569.800   1
   2   3   8 14053.5 676.685   2
   2   3   9 2871.88 446.877   3
   2   3   9 2773.22 279.499   1
   2   3   9 3247.61 361.497   2
   2   3  10 14177.2 977.474   3
   2   3  10 15342.3 710.414   1
   2   3  10 15177.8 810.250   2
   2   3  11 1383.40 285.915   2
   2   3  11 1889.84 402.389   3
   2   3  12 275.969 289.189   3
   2   3  12-43.6043 244.547   2
  -2  -3 -13 902.091 261.479   6
   2   3  13 422.072 321.972   3
   2   3  13 1301.00 343.435   2
  -2  -3 -14 16211.2 946.496   6
   2   3  14 16753.0 1175.98   3
   2   3  15 1289.19 439.309   3
  -2  -3 -15 1109.37 309.012   6
   2   3  16 2702.48 594.271   3
  -2  -3 -16 2393.39 427.994   6
  -2  -3 -17 3367.12 496.801   6
   2   3  17 4151.03 700.162   3
  -2  -3 -18-219.406 232.992   6
   2   3  18 519.113 451.053   3
   2   3  19 2232.37 600.996   3
  -2  -4  15 7196.96 818.789   2
   2   4 -15 9627.56 1034.79   7
  -2  -4  14 2047.39 461.366   2
   2   4 -14 2136.57 537.363   7
  -2  -4  13 1319.18 392.443   2
   2   4 -13 1293.45 448.874   7
   2   4 -12 15985.0 901.196   4
   2   4 -12 13878.6 1152.11   7
  -2  -4  12 14855.3 930.690   3
  -2  -4  12 14075.5 1011.28   2
  -2  -4  11 16676.6 966.905   3
   2   4 -11 18247.6 1243.04   7
   2   4 -11 17497.9 925.255   4
  -2  -4  11 16012.1 1025.53   2
  -2  -4  10 12164.6 785.002   3
   2   4 -10 9996.83 857.383   7
   2   4 -10 11223.3 714.205   4
  -2  -4  10 10768.5 787.121   2
  -2  -4   9 11519.0 703.329   3
   2   4  -9 10390.7 841.521   7
   2   4  -9 10334.3 686.025   4
  -2  -4   9 11013.7 773.834   2
  -2  -4   8 9404.62 577.457   3
   2   4  -8 9385.47 632.933   4
   2   4  -8 8342.85 709.014   7
  -2  -4   8 8469.97 643.802   2
  -2  -4   7 13154.5 657.869   3
   2   4  -7 12550.0 720.392   4
   2   4  -7 12203.1 819.964   7
  -2  -4   7 13353.0 736.078   2
   2   4  -6 9375.89 609.097   4
  -2  -4   6 9583.84 532.113   3
  -2  -4   6 9732.61 600.467   2
   2   4  -6 8626.92 657.724   7
   2   4  -5 10457.7 664.410   7
   2   4  -5 10173.0 625.297   4
  -2  -4   5 10716.5 563.897   2
   2   4  -4 30552.5 1113.24   4
   2   4  -4 31219.8 1141.34   7
  -2  -4   4 31694.6 966.635   2
   2   4  -3 48083.1 1426.65   4
  -2  -4   3 48922.1 1172.19   2
   2   4  -3 48043.0 1421.02   7
   2   4  -2 134963. 2831.14   7
   2   4  -2 140658. 2914.61   4
  -2  -4   2 137457. 2453.72   2
   2   4  -1 45241.4 1241.76   7
   2   4  -1 44777.0 1311.42   4
  -2  -4   1 44395.5 901.352   2
   2   4   0 40902.2 1222.95   4
   2   4   1 37406.7 1126.94   4
   2   4   2 9751.24 507.233   4
  -2  -4  -2 9003.92 472.092   5
   2   4   2 8288.17 440.856   1
  -2  -4  -3 298.218 55.4126   2
  -2  -4  -3 95.7368 104.917   5
   2   4   3 173.098 113.781   1
   2   4   3 263.472 116.231   4
   2   4   4 6439.28 380.448   1
   2   4   4 6027.16 365.096   4
  -2  -4  -4 6035.23 414.501   5
  -2  -4  -4 5541.00 265.789   2
  -2  -4  -5 35837.2 1115.66   5
   2   4   5 35477.3 965.575   4
   2   4   5 37814.2 1058.18   1
   2   4   6 36143.0 932.178   4
  -2  -4  -6 36022.5 1163.99   5
   2   4   7 44.5737 117.534   2
   2   4   7 133.583 140.275   1
  -2  -4  -7-163.855 181.073   5
   2   4   7-13.5263 64.2917   4
  -2  -4  -7 168.702 74.5582   4
   2   4   8 2093.77 270.848   2
  -2  -4  -8 2278.70 163.595   4
  -2  -4  -8 1926.06 275.573   5
   2   4   8 2291.61 155.237   4
   2   4   8 2466.43 284.238   1
   2   4   9 2209.67 317.908   2
  -2  -4  -9 1645.04 247.352   5
   2   4   9 1825.93 263.793   1
   2   4  10 41557.7 1300.84   1
   2   4  10 44454.7 1441.13   2
   2   4  11 22182.7 1241.39   3
   2   4  11 19950.5 901.059   1
   2   4  11 20229.7 973.325   2
   2   4  12 1902.30 361.436   2
   2   4  12 2526.25 511.536   3
   2   4  12 2433.17 331.772   1
   2   4  13 19081.9 1256.71   3
   2   4  13 19402.0 1057.78   2
   2   4  14 13520.2 1111.40   3
   2   4  14 13457.6 907.926   2
   2   4  15 645.858 368.031   3
  -2  -4 -15 743.877 269.545   6
   2   4  15 587.849 322.017   2
  -2  -4 -16 206.918 277.658   6
  -2  -4 -17 2190.52 437.577   6
  -2  -4 -18-14.0602 238.939   6
  -2  -4 -19 2815.06 511.115   6
   2   5 -14-97.0729 352.675   7
   2   5 -13 503.444 412.233   7
   2   5 -12 9612.25 988.721   7
  -2  -5  12 9176.90 801.042   3
   2   5 -12 10245.2 763.928   4
  -2  -5  11 32958.4 1461.37   3
   2   5 -11 31933.9 1392.65   4
   2   5 -11 30096.5 1671.36   7
   2   5 -10 9801.64 720.271   4
   2   5 -10 8633.72 857.145   7
  -2  -5  10 8204.20 690.704   2
  -2  -5  10 10249.4 742.714   3
   2   5  -9 16106.4 1094.19   7
  -2  -5   9 17930.7 916.878   3
  -2  -5   9 15383.3 896.370   2
   2   5  -9 16937.8 946.965   4
   2   5  -8 17079.4 1076.50   7
  -2  -5   8 19108.6 904.363   3
   2   5  -8 18210.8 953.175   4
  -2  -5   8 16891.7 902.817   2
  -2  -5   7 11696.1 675.449   3
   2   5  -7 10394.3 707.952   4
  -2  -5   7 10191.2 651.303   2
   2   5  -7 10531.6 802.677   7
  -2  -5   6 2533.12 317.111   2
   2   5  -6 2862.55 407.884   7
   2   5  -6 3130.19 388.688   4
  -2  -5   6 3321.22 359.521   3
  -2  -5   5 379.724 145.567   2
   2   5  -5 104.631 195.630   7
   2   5  -5 107.925 178.956   4
   2   5  -4 35946.6 1296.29   4
  -2  -5   4 35302.4 1017.69   2
   2   5  -4 36740.0 1317.37   7
   2   5  -3 4442.18 433.054   7
   2   5  -3 4602.09 448.265   4
   2   5  -2 2859.08 365.147   4
   2   5  -1 21232.5 918.738   4
   2   5   0 1497.87 283.130   4
   2   5   1 135765. 2880.31   4
   2   5   2 14209.5 665.534   1
   2   5   2 15210.6 709.943   4
   2   5   3 55518.8 1475.99   1
   2   5   3 59738.5 1546.64   4
  -2  -5  -3 56263.4 1520.85   5
   2   5   4 54892.3 1467.64   1
  -2  -5  -4 56564.8 1502.66   5
   2   5   4 53884.1 1450.20   4
  -2  -5  -5 42417.6 1316.51   5
   2   5   5 44325.2 1221.25   4
   2   5   6 10663.2 506.808   4
  -2  -5  -6 10751.8 605.738   5
   2   5   6 11784.0 514.453   2
   2   5   6 12366.2 634.896   1
   2   5   7 12100.4 519.762   4
  -2  -5  -7 11763.6 660.114   5
   2   5   7 12794.9 584.291   2
   2   5   7 13057.1 679.668   1
  -2  -5  -8 20799.5 916.638   5
   2   5   8 22353.9 898.989   1
   2   5   8 22514.0 856.413   2
   2   5   9 2703.03 324.368   2
  -2  -5  -9 2167.76 306.492   5
   2   5   9 3113.85 361.262   1
   2   5  10 176.123 166.393   2
   2   5  10 365.480 190.047   1
  -2  -5 -10 569.517 221.653   5
   2   5  11 83.5920 189.131   2
  -2  -5 -11-229.905 218.057   5
   2   5  11 265.966 193.923   1
   2   5  12 3407.18 454.898   2
   2   5  12 3164.98 403.052   1
  -2  -5 -12 3041.47 405.522   5
   2   5  13 1081.04 300.900   2
   2   5  13 1382.94 295.616   1
  -2  -5 -13 737.947 228.141   5
   2   5  14 192.629 239.166   2
  -2  -5 -14 211.249 218.529   5
   2   5  14 91.1638 251.048   1
   2   5  15-537.558 330.490   2
  -2  -5 -15 256.435 266.561   5
   2   5  16 961.022 367.616   2
  -2  -5 -16 693.105 329.974   5
  -2  -5 -17 7593.56 736.886   5
  -2  -5 -17 8699.76 828.106   6
   2   5  17 9929.59 895.903   2
  -2  -5 -18 6031.05 722.066   6
  -2  -5 -19 455.678 331.862   6
   2   6 -13 1736.03 500.375   7
  -2  -6  12 523.245 320.639   3
   2   6 -12 166.135 231.309   4
   2   6 -12 347.477 361.366   7
   2   6 -11 1281.17 362.730   4
   2   6 -11 777.328 351.131   7
  -2  -6  11 1764.96 429.458   3
  -2  -6  10 19582.1 1082.87   3
   2   6 -10 20689.2 1150.02   4
   2   6 -10 19938.5 1318.04   7
  -2  -6   9 207.104 248.778   3
   2   6  -9 116.066 224.371   4
   2   6  -9-55.3089 292.807   7
   2   6  -8 6047.31 681.787   7
  -2  -6   8 7151.28 604.962   3
   2   6  -8 6028.68 594.958   4
   2   6  -7 10151.3 748.666   4
  -2  -6   7 10930.4 703.933   3
   2   6  -7 9925.08 813.569   7
   2   6  -6 21980.6 1165.34   7
  -2  -6   6 25323.5 1045.02   3
   2   6  -6 22436.2 1113.43   4
   2   6  -5 29360.1 1290.97   7
   2   6  -5 31432.0 1296.43   4
   2   6  -4 62797.6 1916.48   7
   2   6  -4 61794.2 1912.78   4
   2   6  -3 13691.2 811.631   4
   2   6  -2 23842.6 1069.37   4
   2   6  -1 18973.9 936.475   4
   2   6   0 8154.29 596.937   4
   2   6   0 8102.89 554.160   1
   2   6   1 3973.96 417.790   4
   2   6   1 4195.96 410.734   1
   2   6   2 503.539 223.477   1
   2   6   2 958.820 223.373   4
   2   6   3 4294.50 408.986   4
   2   6   3 4584.75 425.211   1
   2   6   4 2788.80 347.466   1
   2   6   4 2522.55 314.266   4
  -2  -6  -5 883.921 210.499   5
   2   6   5 909.392 211.378   4
   2   6   5 1044.37 254.137   1
   2   6   6 79.7637 98.5065   2
   2   6   6 11.4617 191.745   1
  -2  -6  -6 24.9313 139.881   5
   2   6   6 127.663 135.374   4
  -2  -6  -7 853.159 220.772   5
   2   6   7 793.093 172.782   2
   2   6   7 1008.41 196.696   4
   2   6   7 871.489 265.936   1
  -2  -6  -8 13449.9 746.690   5
   2   6   8 15840.7 832.857   1
   2   6   8 15603.0 692.490   2
   2   6   9 75408.8 2049.36   1
   2   6   9 75366.7 1884.93   2
  -2  -6 -10 9989.09 679.051   5
   2   6  10 11796.3 749.516   1
   2   6  10 11591.8 681.412   2
  -2  -6 -11 4815.22 493.555   5
   2   6  11 5300.44 497.607   2
   2   6  11 5177.68 522.391   1
  -2  -6 -12 7696.15 625.760   5
   2   6  12 9311.50 681.846   1
   2   6  12 9225.52 690.948   2
   2   6  13 41.5352 254.895   2
   2   6  13 77.6726 238.662   1
  -2  -6 -13 10.6902 189.728   5
   2   6  14-42.0474 236.746   2
   2   6  14-274.141 317.437   1
  -2  -6 -14 345.509 205.387   5
   2   6  15 1664.02 405.772   2
  -2  -6 -15 953.571 284.986   5
   2   6  15 751.777 321.392   1
   2   6  16-50.1319 294.006   2
  -2  -6 -16 67.4044 208.146   5
   2   6  17 750.216 408.483   2
  -2  -6 -19-154.711 284.220   6
   2   7 -12 1058.41 456.288   7
   2   7 -12 2192.59 432.271   4
   2   7 -11 6541.93 840.724   7
   2   7 -11 7223.75 745.602   4
  -2  -7  11 6413.03 737.460   3
  -2  -7  10 9880.88 816.677   3
   2   7 -10 10851.7 902.042   4
   2   7 -10 10559.5 1025.56   7
   2   7  -9 4331.67 655.186   7
  -2  -7   9 3176.63 487.130   3
   2   7  -9 3639.29 540.703   4
  -2  -7   8 1512.24 369.117   3
   2   7  -8 1154.21 352.263   4
   2   7  -8 1346.22 383.972   7
   2   7  -7 2218.68 443.664   4
  -2  -7   7 2512.71 412.548   3
   2   7  -6 1416.72 342.157   4
   2   7  -5 378.950 255.926   4
   2   7  -4 3745.71 494.313   4
   2   7  -3-11.6508 217.553   4
   2   7  -2 15201.0 927.014   4
   2   7  -2 15032.9 856.955   1
   2   7  -1 41019.4 1557.31   4
   2   7  -1 42556.9 1480.99   1
   2   7   0 24292.1 1091.38   1
   2   7   0 23616.9 1141.28   4
   2   7   1 19002.5 938.960   1
   2   7   1 19000.9 1001.60   4
   2   7   2 53017.5 1747.81   4
   2   7   2 52452.4 1642.08   1
   2   7   3 64388.5 1922.33   4
   2   7   3 63762.2 1842.92   1
   2   7   4 33.9493 238.916   1
   2   7   4 161.363 176.837   4
   2   7   5 3274.48 402.546   4
   2   7   5 2950.19 401.452   1
   2   7   6 527.077 121.597   2
   2   7   6 511.249 218.956   4
   2   7   6 313.716 250.742   1
   2   7   7 302.940 127.345   2
  -2  -7  -7 3.57483 174.817   5
   2   7   7-77.9417 221.678   1
  -2  -7  -8 1099.54 259.943   5
   2   7   8 1405.69 226.663   2
   2   7   8 1442.60 345.951   1
   2   7   9 258.971 240.524   1
   2   7   9 240.698 175.028   2
  -2  -7  -9 619.040 244.356   5
   2   7  10-59.4965 182.121   2
  -2  -7 -10-63.7193 181.492   5
   2   7  10 106.858 229.334   1
  -2  -7 -11 6016.50 560.971   5
   2   7  11 7153.94 647.762   1
   2   7  11 6516.93 545.539   2
   2   7  12-172.328 224.325   2
  -2  -7 -12 294.564 217.624   5
   2   7  12 399.764 288.416   1
   2   7  13 891.227 318.679   2
  -2  -7 -13 375.631 230.676   5
   2   7  13 232.166 300.109   1
   2   7  14 262.882 258.936   2
   2   7  14-263.690 265.275   1
  -2  -7 -14-7.92388 195.675   5
   2   7  15 4826.42 585.346   2
   2   7  15 4101.58 547.263   1
  -2  -7 -15 4209.11 522.365   5
   2   7  16 1484.19 421.100   2
   2   7  16 898.432 303.738   1
   2   7  17 1187.99 401.775   2
   2   7  18 1982.80 531.906   2
  -2  -8  11-222.754 378.044   3
   2   8 -10 3274.85 568.074   4
  -2  -8  10 3153.44 512.081   3
   2   8  -9 252.168 278.783   4
  -2  -8   9 289.827 307.330   3
  -2  -8   8 4039.56 586.091   3
   2   8  -8 4053.93 590.931   4
  -2  -8   7 35465.9 1505.46   3
   2   8  -7 34223.0 1644.83   4
  -2  -8   6 29285.3 1326.52   3
   2   8  -6 26976.0 1426.49   4
   2   8  -5 7868.98 723.318   1
   2   8  -5 8498.76 780.373   4
   2   8  -4 6653.09 650.237   1
   2   8  -4 5578.32 651.927   4
   2   8  -3 1124.51 319.690   4
   2   8  -3 840.627 315.900   1
   2   8  -2 167.538 290.615   1
   2   8  -2 83.5612 254.541   4
   2   8  -1 2964.46 448.054   1
   2   8  -1 2635.48 430.527   4
   2   8   0 280.731 282.753   1
   2   8   0 487.130 282.710   4
   2   8   1 431.123 265.492   1
   2   8   1 1061.77 358.714   4
   2   8   2 6432.28 598.992   1
   2   8   2 6661.47 638.583   4
   2   8   3 4945.38 540.633   1
   2   8   3 5515.31 588.827   4
   2   8   4 296.904 247.415   1
   2   8   4 432.378 250.226   4
   2   8   5 1533.80 328.062   4
   2   8   5 1553.74 363.468   1
   2   8   6 15824.7 960.702   1
   2   8   7 5350.36 604.092   1
   2   8   8 6023.55 635.668   1
   2   8   9 4025.24 524.858   1
  -2  -8 -10 16428.3 953.757   5
   2   8  10 18704.5 1112.16   1
  -2  -8 -11 3261.71 453.283   5
   2   8  11 4184.18 570.464   1
  -2  -8 -12 9073.88 726.262   5
   2   8  12 10190.2 847.672   1
  -2  -8 -13 58.5187 206.570   5
   2   8  13 584.569 344.710   1
   2   8  14 149.394 250.782   1
  -2  -8 -14 155.118 211.984   5
   2   8  15 444.284 302.537   1
   2   8  16-234.101 287.768   1
  -2  -9  10-73.1457 325.252   3
   2   9 -10 520.022 332.459   1
   2   9  -9 626.052 365.615   1
  -2  -9   9 206.834 325.363   3
   2   9  -8 455.681 333.943   1
  -2  -9   8 710.911 412.730   3
   2   9  -7 2135.16 463.240   1
   2   9  -7 2736.08 540.091   4
  -2  -9   7 3065.77 538.951   3
   2   9  -6 1885.10 509.624   4
   2   9  -6 1190.15 425.341   1
  -2  -9   6 2010.42 434.317   3
   2   9  -5 609.709 347.435   4
   2   9  -5 443.088 320.451   1
   2   9  -4 2052.67 450.184   1
   2   9  -4 2043.59 493.301   4
   2   9  -3 12774.8 971.610   1
   2   9  -3 10006.0 909.207   4
   2   9  -2 5419.38 638.769   1
   2   9  -2 5436.48 673.847   4
   2   9  -1 682.781 340.737   4
   2   9  -1 186.073 284.380   1
   2   9   0 4443.37 574.479   1
   2   9   0 4966.13 654.208   4
   2   9   1 71438.7 2283.19   1
   2   9   1 73682.4 2471.26   4
   2   9   2 724.650 344.292   1
   2   9   2 154.154 327.840   4
   2   9   3 288.015 309.848   1
   2   9   3 693.376 325.291   4
   2   9   4 70.5525 283.303   1
   2   9   5 2695.22 519.705   1
   2   9   6 14851.7 974.441   1
   2   9   7 323.694 348.921   1
   2   9   8-422.931 353.805   1
   2   9   9 1586.02 426.203   1
   2   9  10 2072.74 452.280   1
   2   9  11 665.019 347.422   1
   2   9  12 781.814 364.574   1
   2   9  13 2665.41 520.221   1
   2   9  14 141.543 273.507   1
   2   9  15 208.511 322.535   1
   2   9  16-588.590 387.941   1
   2   9  17 88.6135 308.798   1
   2  10  -8 4111.73 695.546   1
   2  10  -7 1056.56 400.186   1
  -2 -10   7 1345.82 446.034   3
   2  10  -6 6463.49 794.714   1
  -2 -10   6 6012.66 695.459   3
   2  10  -5 2396.21 525.345   1
   2  10  -4 1377.05 451.901   1
   2  10  -3 7548.32 796.160   1
   2  10  -2 1509.78 426.916   1
   2  10  -1 2215.70 481.813   1
   2  10   0 2141.46 471.771   1
   2  10   1 1674.41 449.484   1
   2  10   2-155.106 306.102   1
   2  10   3 2173.09 473.989   1
   2  10   4 5931.66 676.919   1
   2  10   5 488.901 322.117   1
   2  10   6-355.284 356.725   1
   2  10   7 3827.01 596.229   1
   2  10   8 2380.51 513.535   1
   2  10   9 104.634 349.640   1
   2  10  10 858.470 379.451   1
   2  10  11 1120.26 423.242   1
   2  10  12 934.069 456.395   1
   2  10  13 4613.54 692.486   1
   2  10  14 3168.65 593.332   1
   2  10  15 336.129 394.207   1
   2  11  -5 1686.65 521.813   1
   2  11  -4 792.760 429.946   1
   2  11  -3 1219.19 448.902   1
   2  11  -2 5201.97 733.283   1
   2  11  -1 3871.16 667.265   1
   2  11   0 214.858 323.736   1
   2  11   1-40.9996 306.170   1
   2  11   2 999.759 410.283   1
   2  11   3 148.190 355.803   1
   2  11   4 20704.3 1324.70   1
   2  11   5-18.7610 342.902   1
   2  11   6 946.891 404.095   1
   2  11   7 2752.05 567.823   1
   2  11   8 229.559 342.602   1
   2  11   9 926.319 408.647   1
   2  11  10 577.458 403.881   1
   2  11  11 2383.87 556.420   1
   2  11  12 978.561 480.595   1
   2  12   1 69.1885 328.301   1
   2  12   2 666.197 421.241   1
   2  12   3 391.835 370.503   1
   2  12   4 654.006 409.486   1
   2  12   5 653.110 420.210   1
   2  12   6 912.343 485.197   1
   2  12   7 482.830 381.708   1
  -3  10   3 267.819 344.846   1
   3  -9  -9 676.799 382.499   4
   3  -9  -8 450.392 434.614   4
  -3   9   8 791.865 427.991   1
  -3   9   7-599.718 412.738   1
  -3   9   6 2766.79 591.181   1
  -3   9   5-126.884 317.867   1
  -3   9   4 883.197 371.193   1
  -3   9   3 535.665 336.966   1
  -3   9   2 932.146 360.142   1
  -3   9   1 3891.42 567.284   1
   3  -9   0 1133.65 346.717   3
   3  -9   1 191.162 285.399   3
   3  -9   2 60.9368 265.434   3
  -3   8  12 673.011 446.165   2
  -3   8  11 1077.34 416.746   2
   3  -8 -10 936.750 384.358   4
  -3   8  10 889.014 388.582   2
  -3   8  10 723.263 412.694   1
  -3   8   9 183.920 341.289   1
   3  -8  -9 430.843 357.371   4
   3  -8  -8 492.365 385.305   4
  -3   8   8-373.658 366.016   1
  -3   8   7 352.544 319.763   1
  -3   8   6 241.785 323.021   1
  -3   8   5 2427.80 494.888   1
  -3   8   4 3431.88 547.504   1
  -3   8   3 2780.03 508.766   1
  -3   8   2 656.134 319.134   1
  -3   8   1 938.628 317.418   1
  -3   8   0 3599.20 507.361   1
   3  -8   0 3802.63 536.414   3
   3  -8   1 1976.14 416.051   3
   3  -8   2 1213.34 408.969   3
   3  -8   3 182.689 332.534   3
   3  -8   4 429.300 325.414   3
   3  -8   5-36.1942 313.501   3
   3  -8   6 4836.99 683.258   3
  -3   7  13 1345.39 466.374   2
  -3   7  12 754.541 463.598   2
  -3   7  11 455.735 335.041   2
   3  -7 -10 1391.26 401.110   4
  -3   7  10 2005.89 499.143   2
   3  -7  -9 4681.57 657.219   4
  -3   7   9 4082.20 644.681   1
   3  -7  -8 1928.82 466.860   4
  -3   7   8 1483.08 433.752   1
   3  -7  -7 372.437 353.947   4
  -3   7   7-217.103 298.313   1
  -3   7   6-166.465 357.433   1
  -3   7   5 336.488 289.632   1
  -3   7   4 118.110 265.182   1
  -3   7   3 17249.9 1072.16   1
  -3   7   2-41.1366 245.472   1
  -3   7   1 1929.13 379.220   1
  -3   7   0 5006.22 538.437   1
  -3   7  -1 630.448 249.908   1
   3  -7   1 151.972 218.209   3
  -3   7  -2 1806.03 336.373   1
   3  -7   2 1946.11 385.393   3
   3  -7   3 3043.73 508.726   3
   3  -7   4 5140.40 619.964   3
   3  -7   5 1926.70 465.691   3
   3  -7   6 880.811 364.580   3
   3  -7   7 2905.93 567.905   3
   3  -7   8 496.582 380.124   3
  -3   6  14 1988.20 536.595   2
  -3   6  13 1827.16 467.203   2
  -3   6  12 846.729 409.292   2
  -3   6  11 619.495 388.071   2
   3  -6 -10 4651.45 587.402   4
   3  -6  -9 5379.17 636.596   4
   3  -6  -8 334.501 270.955   4
  -3   6   8-103.972 364.989   1
   3  -6  -7 684.532 343.186   4
  -3   6   7 170.669 318.549   1
  -3   6   6 2441.02 458.350   1
  -3   6   5 1411.03 382.832   1
  -3   6   4 588.635 275.189   1
  -3   6   3 1813.79 380.432   1
  -3   6   2 22540.7 1118.30   1
  -3   6   1 236.556 221.832   1
  -3   6   0 3000.33 391.876   1
   3  -6   1 661.672 279.297   3
  -3   6  -1 86.3026 177.179   1
  -3   6  -2 1115.74 256.996   1
   3  -6   2 804.056 300.498   3
   3  -6   3 11646.1 828.369   3
  -3   6  -3 8870.51 596.340   1
   3  -6   4 10246.4 799.118   3
   3  -6   5 987.191 389.838   3
   3  -6   6 1537.48 386.122   3
   3  -6   7 3928.14 582.871   3
   3  -6   8 5931.55 699.413   3
   3  -6   9 1593.56 519.439   3
   3  -6  10 4036.99 709.241   3
  -3   5  15 50.7181 349.865   2
   3  -5 -15 657.427 362.323   6
  -3   5  14 571.078 434.339   2
  -3   5  13 227.122 338.542   2
  -3   5  12 3016.62 550.297   2
  -3   5  11 8117.75 793.004   2
   3  -5 -11 6504.40 637.022   4
   3  -5 -10 307.466 230.014   4
  -3   5  10 662.436 355.971   2
   3  -5  -9 557.560 267.189   4
   3  -5  -8 528.517 264.598   4
   3  -5  -7 570.212 308.526   4
  -3   5   7 449.680 292.650   1
  -3   5   6 7542.28 704.467   1
   3  -5  -6 9623.16 831.393   4
  -3   5   5 17819.5 1027.61   1
  -3   5   4 1391.22 304.880   1
  -3   5   3 1302.32 302.830   1
  -3   5   2 10144.0 703.492   1
  -3   5   1 34400.2 1277.42   1
  -3   5   0 7592.04 564.639   1
   3  -5   1 4115.58 447.762   3
  -3   5  -1 3181.66 371.675   1
  -3   5  -2 1660.64 259.250   1
   3  -5   2 2182.82 363.616   3
  -3   5  -3 172.234 149.441   1
   3  -5   3 360.268 271.311   3
  -3   5  -4 1056.78 199.468   1
   3  -5   4 1006.30 319.056   3
   3  -5   5 8456.16 708.092   3
   3  -5   6 425.089 302.678   3
   3  -5   7 6729.96 694.063   3
   3  -5   8 2063.25 441.455   3
   3  -5   9 4145.66 684.370   3
   3  -5  10 12153.1 1075.77   3
   3  -5  11 18079.2 1350.99   3
   3  -5  12 401.575 410.076   3
  -3   4  15 1591.76 444.237   2
   3  -4 -15 1521.43 472.864   6
   3  -4 -14 5362.32 730.869   6
  -3   4  14 5066.30 704.748   2
   3  -4 -13 1484.60 458.844   6
  -3   4  13 1070.19 402.586   2
  -3   4  12 199.068 322.184   2
  -3   4  11 18320.9 1123.06   2
   3  -4 -11 16124.4 966.686   4
   3  -4 -10 1752.22 348.694   4
  -3   4  10 2253.02 436.763   2
   3  -4  -9 517.874 201.732   4
   3  -4  -8 8328.43 692.627   4
   3  -4  -7 279.079 211.942   4
   3  -4  -6 500.155 259.755   4
   3  -4  -5 646.827 307.276   4
  -3   4   5 38.7990 223.173   1
  -3   4   4 10864.4 736.646   1
  -3   4   3 378.964 218.169   1
  -3   4   2 747.770 229.789   1
  -3   4   1 18.4878 178.009   1
  -3   4   0 6660.16 491.972   1
   3  -4   1 74091.3 1853.51   3
  -3   4  -1 67599.8 1747.30   1
   3  -4   2 25295.3 1028.28   3
  -3   4  -2 25289.3 891.216   1
  -3   4  -3 2357.50 254.420   1
   3  -4   3 2236.12 362.869   3
   3  -4   4 21027.7 998.038   3
  -3   4  -4 19720.6 709.980   1
   3  -4   5 11168.7 745.915   3
  -3   4  -5 10797.1 477.492   1
   3  -4   6-87.7144 264.946   3
   3  -4   7 68.4430 295.261   3
   3  -4   8 2794.60 501.963   3
   3  -4   9 648.815 399.345   3
   3  -4  10-170.222 380.434   3
   3  -4  11 5156.48 733.018   3
   3  -4  12 753.340 483.358   3
   3  -4  13 2518.39 580.806   3
   3  -3 -16 1468.76 459.281   6
  -3   3  16 980.357 415.376   2
   3  -3 -15-55.3884 303.927   6
  -3   3  15-561.430 422.416   2
   3  -3 -14-57.7874 320.029   6
  -3   3  14-82.0470 329.385   2
   3  -3 -13 2846.96 540.208   6
  -3   3  13 3046.70 533.980   2
  -3   3  12-106.166 298.888   2
   3  -3 -12-675.655 385.933   6
   3  -3 -11 2029.50 444.481   6
  -3   3  11 1980.26 438.715   2
   3  -3 -11 1561.08 308.600   4
   3  -3 -10 518.651 210.995   4
  -3   3  10 1157.61 322.109   2
   3  -3  -9 1766.69 351.756   4
   3  -3  -8 21032.6 1046.23   4
   3  -3  -7 16397.5 904.722   4
   3  -3  -6 15490.9 866.427   4
   3  -3  -5 34961.7 1336.31   4
   3  -3  -4 16387.5 894.037   4
  -3   3   3 10589.6 666.190   1
   3  -3  -3 13212.5 825.093   4
  -3   3   2 3000.48 348.743   1
  -3   3   1 3445.41 346.839   1
   3  -3   0 12247.2 579.889   3
  -3   3   0 11324.6 593.609   1
  -3   3  -1 43.4773 121.939   1
   3  -3   1 329.899 181.783   3
   3  -3   2 37508.1 1202.97   3
  -3   3  -2 35656.4 1050.61   1
   3  -3   3 10790.5 633.493   3
  -3   3  -3 11077.2 492.821   1
  -3   3  -4 3177.95 246.279   1
   3  -3   4 2576.23 348.646   3
   3  -3   5 5730.17 507.454   3
  -3   3  -5 6187.05 308.336   1
   3  -3   6 3484.44 422.648   3
   3  -3   7 15408.8 948.181   3
   3  -3   8 35111.3 1516.78   3
   3  -3   9 39319.9 1709.88   3
   3  -3  10 2933.60 516.047   3
   3  -3  11 1682.21 493.911   3
   3  -3  12 3673.20 632.178   3
   3  -3  13-314.065 435.247   3
   3  -3  14 7552.22 906.855   3
   3  -3  15-108.411 419.057   3
   3  -2 -16 2393.50 554.862   6
  -3   2  16 2026.98 496.506   2
   3  -2 -15 2102.25 504.740   6
  -3   2  15 1395.24 462.202   2
   3  -2 -14 6083.92 735.090   6
  -3   2  14 4311.50 613.517   2
  -3   2  13 21981.1 1267.21   2
   3  -2 -13 24873.8 1377.78   6
   3  -2 -12 4756.79 638.213   6
  -3   2  12 3459.91 521.010   2
   3  -2 -12 3733.97 421.402   4
   3  -2 -11 1679.36 427.958   6
  -3   2  11 2174.55 431.918   2
   3  -2 -11 1234.14 268.819   4
   3  -2 -10 1043.73 348.502   6
  -3   2  10 1496.07 345.078   2
   3  -2 -10 757.608 227.588   4
  -3   2   9 20355.0 1015.75   2
   3  -2  -9 18269.4 1030.28   6
   3  -2  -9 19152.6 966.673   4
   3  -2  -8 2557.94 354.951   4
   3  -2  -7 920.401 248.933   4
   3  -2  -6 1234.04 262.751   4
   3  -2  -5 4057.95 434.874   4
   3  -2  -4 3569.96 395.836   4
  -3   2   3 3241.63 161.171   5
   3  -2  -3 5273.43 484.168   4
   3  -2  -2 2558.08 375.259   4
   3  -2  -1 78009.7 1643.72   3
   3  -2  -1 81957.8 2155.00   4
   3  -2   0 95582.1 1978.39   3
   3  -2   1 27627.4 897.322   3
   3  -2   2 51360.8 1349.74   3
  -3   2  -2 48645.1 1212.39   1
   3  -2   3 30243.5 741.550   7
   3  -2   3 29750.3 1022.70   3
  -3   2  -3 30479.0 822.532   1
   3  -2   4 23.7790 200.676   3
   3  -2   5 6530.54 302.413   6
   3  -2   5 7731.42 576.627   3
   3  -2   6 1326.08 335.554   3
   3  -2   7 4282.43 534.284   3
   3  -2   8 4318.50 527.621   3
   3  -2   9 1135.88 372.203   3
   3  -2  10 1713.78 420.276   3
   3  -2  11 4812.89 650.849   3
   3  -2  12 7072.58 757.803   3
   3  -2  13 4089.57 636.678   3
   3  -2  14 1284.22 477.102   3
   3  -2  15 6683.30 857.455   3
   3  -2  16 12634.7 1234.37   3
  -3   1  16 413.188 366.596   2
   3  -1 -16-732.925 432.030   6
   3  -1 -15 1690.20 435.720   6
  -3   1  15 2593.77 500.477   2
   3  -1 -14 1079.64 390.676   6
  -3   1  14 233.348 320.389   2
   3  -1 -13 2975.02 509.348   6
  -3   1  13 2505.40 493.257   2
   3  -1 -12-8.35471 268.838   6
  -3   1  12-516.750 300.992   2
   3  -1 -12 43.9912 146.629   4
   3  -1 -11 356.936 318.994   6
  -3   1  11 274.431 243.891   2
   3  -1 -11 176.688 160.997   4
  -3   1  10 16945.0 956.229   2
   3  -1 -10 16669.1 1013.12   6
   3  -1 -10 16545.1 855.227   4
  -3   1   9 11440.1 738.619   2
   3  -1  -9 11059.2 785.890   6
   3  -1  -9 11374.6 696.850   4
   3  -1  -8 35226.4 1382.05   6
   3  -1  -8 34142.2 1271.55   4
   3  -1  -7 42357.5 1474.81   6
   3  -1  -7 42037.4 1439.71   4
   3  -1  -6 37985.1 1272.30   6
   3  -1  -6 40298.5 1345.55   4
   3  -1  -5 3906.35 166.442   3
   3  -1  -5 6712.30 539.069   4
   3  -1  -4 732.669 191.468   4
   3  -1  -4 794.421 70.9427   3
   3  -1  -4 545.507 69.7706   3
   3  -1  -3 169.881 139.961   4
  -3   1   3 166.405 43.0404   5
   3  -1  -3 400.144 70.3190   3
   3  -1  -2 14649.6 431.358   3
  -3   1   2 13391.2 420.044   5
   3  -1  -2 13909.3 720.521   4
   3  -1  -1 585.301 203.279   4
   3  -1  -1 336.903 87.6490   3
   3  -1   0 33796.6 894.169   3
   3  -1   0 34822.1 1190.04   4
   3  -1   1 2041.24 324.609   4
   3  -1   1 1694.36 182.910   3
   3  -1   2 7198.16 432.990   3
   3  -1   2 6803.88 509.892   4
   3  -1   3 62064.6 1544.68   3
   3  -1   3 54495.6 1119.26   1
   3  -1   4 32246.4 624.499   1
   3  -1   4 28118.0 573.721   6
   3  -1   5 1422.26 279.844   3
   3  -1   6 81671.8 2200.68   3
   3  -1   7 30767.5 1278.17   3
  -3   1  -8 16928.0 574.893   7
   3  -1   8 16072.0 947.742   3
  -3   1  -9 15270.3 603.041   7
   3  -1   9 14315.5 949.354   3
  -3   1 -10 3002.27 290.779   7
   3  -1  10 2397.26 442.064   3
   3  -1  11 3.43393 349.741   3
   3  -1  12 17791.9 1193.99   3
   3  -1  13 1018.62 418.325   3
   3  -1  14 411.601 339.356   3
   3  -1  15 4490.14 744.934   3
   3  -1  16 5005.77 822.610   3
  -3   0  16 7803.86 868.626   2
  -3   0  15 16574.9 1204.84   2
   3   0 -14 1444.10 443.452   6
  -3   0  14 1165.98 351.307   2
   3   0 -13 167.738 266.322   6
  -3   0  13 441.620 274.330   2
   3   0 -12 2156.21 458.211   6
  -3   0  12 1249.42 327.424   2
   3   0 -12 2530.02 350.032   4
   3   0 -11 608.115 277.240   6
  -3   0  11 124.962 223.365   2
   3   0 -11 86.1461 140.324   4
  -3   0  10 16280.1 932.015   2
   3   0 -10 16422.1 990.406   6
   3   0 -10 16103.8 835.958   4
  -3   0   9 9957.06 689.095   2
   3   0  -9 9274.12 708.610   6
   3   0  -9 9328.89 628.660   4
  -3   0   8 5258.69 493.816   2
   3   0  -8 4254.25 473.029   6
   3   0  -8 4072.06 406.508   4
   3   0  -7 304.973 169.920   6
   3   0  -7 380.550 75.3121   5
   3   0  -7 122.876 154.750   4
   3   0  -6 48414.4 1478.31   6
   3   0  -6 44585.4 931.184   5
   3   0  -6 47483.7 1466.43   4
   3   0  -5 10503.9 607.187   6
   3   0  -5 11384.2 679.144   4
   3   0  -4 10534.7 575.445   6
   3   0  -4 11215.1 668.936   4
   3   0  -3 70162.5 1860.97   4
   3   0  -3 66284.0 1631.81   6
  -3   0   2 58119.9 1113.01   5
   3   0  -2 59187.3 1370.85   6
   3   0  -1 26799.0 775.030   6
  -3   0   1 27803.1 734.366   5
   3   0  -1 27214.7 661.553   3
   3   0  -1 27748.4 1033.43   4
   3   0   0 45616.2 1054.37   3
   3   0   0 43825.8 985.347   6
   3   0   0 46067.6 1345.70   4
   3   0   1 86901.8 1551.98   6
   3   0   1 89639.5 1847.93   3
   3   0   1 89875.8 2070.89   4
   3   0   2 738.843 182.281   4
   3   0   2 504.499 93.0530   1
   3   0   2 485.758 127.136   3
   3   0   3 52728.9 1425.29   3
   3   0   3 51844.6 1053.74   1
   3   0   3 53122.3 1430.79   4
   3   0   4 3664.54 355.958   3
   3   0   4 3496.08 326.511   4
   3   0   4 2725.02 116.355   1
   3   0   5 14676.4 768.453   3
   3   0   5 14732.5 677.105   4
   3   0   6 38748.4 1379.78   3
   3   0   6 40715.7 1212.33   4
  -3   0  -7 30211.4 713.100   7
   3   0   7 31087.1 1260.77   3
   3   0   7 31701.8 1039.99   4
   3   0   8 1761.11 253.345   4
  -3   0  -8 1382.85 149.680   7
   3   0   9 8568.25 709.715   3
   3   0   9 8235.55 501.937   4
   3   0  10 6368.83 665.229   3
   3   0  10 6448.19 437.727   4
   3   0  11 10566.4 880.027   3
   3   0  12 13826.7 1052.81   3
   3   0  13 5222.30 712.468   3
   3   0  14 7014.73 851.440   3
   3   0  15-172.599 454.737   3
   3   0  16-657.230 538.353   3
   3   0  17 580.989 425.278   3
  -3  -1  16 1533.98 506.097   2
  -3  -1  15 1830.93 491.940   2
  -3  -1  14 368.004 323.571   2
  -3  -1  13 1227.30 372.001   2
   3   1 -12 32753.9 1252.26   4
  -3  -1  12 30826.2 1451.20   2
   3   1 -11 10363.8 670.312   4
  -3  -1  11 9742.69 781.698   2
  -3  -1  10 3281.01 441.256   2
   3   1 -10 3839.73 402.478   4
  -3  -1   9 27379.1 1161.18   2
   3   1  -9 27085.9 1257.03   6
   3   1  -9 27982.2 1109.51   4
  -3  -1   8 47784.1 1529.05   2
  -3  -1   8 48112.3 1053.50   3
   3   1  -8 49196.2 1686.32   6
   3   1  -8 48916.6 1526.64   4
   3   1  -7 2900.92 383.635   6
  -3  -1   7 2930.02 363.658   2
   3   1  -7 2405.59 313.685   4
   3   1  -6 67.9463 169.262   6
   3   1  -6 12.2378 141.347   4
   3   1  -5 4210.39 408.636   6
   3   1  -5 4669.73 428.300   4
   3   1  -4 9654.13 555.803   6
   3   1  -4 9730.57 602.751   4
   3   1  -3 59965.4 1530.82   6
   3   1  -3 66726.4 1770.57   4
  -3  -1   2 73116.3 1488.00   5
   3   1  -2 77885.2 1949.04   4
  -3  -1   1 8160.19 255.450   3
  -3  -1   1 8207.59 364.832   5
   3   1   0 18436.7 525.767   3
  -3  -1   0 17688.2 524.480   3
  -3  -1   0 17407.5 615.662   5
   3   1   0 18321.1 835.127   4
   3   1   1 7898.50 393.227   3
   3   1   1 8549.72 302.168   7
  -3  -1  -1 8533.16 439.958   5
   3   1   1 8618.53 540.461   4
   3   1   2 85628.9 2064.27   4
   3   1   2 92756.6 1980.91   3
   3   1   3 5972.76 415.182   3
   3   1   3 5476.32 406.944   4
   3   1   4 89795.6 2129.88   3
   3   1   4 82992.7 1963.99   4
   3   1   5 71683.4 1926.60   3
   3   1   5 67561.1 1675.92   4
   3   1   6 4811.73 466.083   3
   3   1   6 4686.23 355.621   4
   3   1   7 3994.99 446.277   3
   3   1   7 3537.64 304.611   4
   3   1   8 11673.7 816.949   3
   3   1   8 10903.6 536.720   4
   3   1   9 13319.8 586.198   4
   3   1   9 14371.8 955.104   3
   3   1  10 13283.0 964.185   3
   3   1  10 12184.9 543.553   4
   3   1  11 13344.1 1001.95   3
   3   1  12 13661.0 1042.29   3
   3   1  13 12158.3 1023.66   3
   3   1  14 10449.5 982.036   3
   3   1  15 314.896 358.932   3
   3   1  16 905.762 448.820   3
   3   1  17 3350.33 688.579   3
   3   1  18 592.436 458.321   3
  -3  -2  16 4192.18 652.526   2
  -3  -2  15 682.634 376.740   2
  -3  -2  14 1934.23 450.738   2
  -3  -2  13 903.864 360.016   2
   3   2 -12 18539.9 953.763   4
  -3  -2  12 18749.0 1160.68   2
  -3  -2  11 6066.01 622.474   2
   3   2 -11 5981.44 530.959   4
  -3  -2  10 2667.70 407.683   2
   3   2 -10 3472.52 389.909   4
   3   2  -9 15704.6 826.608   4
  -3  -2   9 16083.2 891.869   2
  -3  -2   8 23596.7 1031.83   2
   3   2  -8 22373.6 982.398   4
  -3  -2   8 25753.1 845.809   3
  -3  -2   7 2972.41 242.266   3
  -3  -2   7 2423.12 322.149   2
   3   2  -7 2336.29 322.195   4
  -3  -2   6 1081.21 134.603   3
  -3  -2   6 1085.43 228.164   2
   3   2  -6 1101.60 232.248   4
  -3  -2   5 67394.7 1634.46   2
  -3  -2   5 62939.8 1248.05   3
   3   2  -5 65683.3 1815.83   4
  -3  -2   4 69234.7 1244.16   3
   3   2  -4 75339.8 1938.02   4
   3   2  -3 7236.55 518.934   4
  -3  -2   2 22850.1 552.863   3
   3   2  -2 26534.1 1011.18   4
  -3  -2   1 26523.2 677.525   3
  -3  -2   1 26493.3 777.082   5
   3   2  -1 26641.9 1031.55   4
   3   2   0 331.061 101.326   7
  -3  -2   0 258.631 113.531   5
  -3  -2   0 369.726 74.1944   3
   3   2   0 316.553 159.075   4
   3   2   1 44965.7 1011.59   7
  -3  -2  -1 45697.4 1202.04   5
   3   2   1 48444.6 1420.55   4
   3   2   2 8095.49 404.637   3
  -3  -2  -2 7963.97 458.505   5
   3   2   2 7386.11 495.947   4
   3   2   3 39054.0 1117.05   3
  -3  -2  -3 40474.0 1184.49   5
   3   2   3 39657.8 1248.02   4
  -3  -2  -4 171947. 2808.16   7
   3   2   4 168361. 3395.40   3
   3   2   4 166683. 3375.39   4
   3   2   5 84414.7 1576.07   1
   3   2   5 84927.4 1996.90   4
   3   2   6 709.916 86.5500   1
   3   2   6 691.577 240.880   3
   3   2   6 509.263 144.778   4
   3   2   7 15036.8 870.669   3
   3   2   7 15305.7 647.517   4
   3   2   7 14632.2 429.081   1
   3   2   8 35095.7 1428.54   3
   3   2   8 30898.0 735.228   1
   3   2   8 33163.9 964.051   4
   3   2   9 8993.29 747.361   3
  -3  -2  -9 9331.11 489.096   6
   3   2   9 8458.07 415.538   4
  -3  -2 -10 417.497 152.790   6
   3   2  10 398.127 96.9666   4
  -3  -2 -11 6754.57 469.053   6
   3   2  11 7372.85 728.021   3
   3   2  12 8646.90 838.574   3
  -3  -2 -12 8225.50 547.237   6
  -3  -2 -13 2239.51 324.949   6
   3   2  13 1287.64 392.647   3
  -3  -2 -14 34.6500 154.349   6
   3   2  14 896.942 436.822   3
   3   2  15 2445.10 565.616   3
   3   2  16 393.267 344.031   3
   3   2  17 9398.07 1021.79   3
   3   2  18 3287.04 690.231   3
  -3  -3  16 130.506 347.566   2
  -3  -3  15-91.5554 304.211   2
  -3  -3  14 9433.95 928.326   2
  -3  -3  13 5022.57 655.734   2
  -3  -3  12 4860.65 620.081   2
   3   3 -12 4778.24 499.445   4
   3   3 -11 19867.4 1017.90   4
  -3  -3  11 19893.7 1146.17   2
   3   3 -10 22019.2 1037.94   4
  -3  -3  10 21774.4 1149.15   2
  -3  -3   9 4201.33 376.180   3
  -3  -3   9 4110.96 470.369   2
   3   3  -9 3989.68 430.792   4
  -3  -3   8-41.1013 239.842   2
  -3  -3   8 573.840 176.879   3
   3   3  -8 327.262 179.562   4
  -3  -3   7-98.1400 215.358   2
  -3  -3   7 348.648 143.601   3
   3   3  -7 0.66617 155.193   4
  -3  -3   6 23143.5 926.183   2
  -3  -3   6 24284.9 729.024   3
   3   3  -6 24088.3 1013.38   4
  -3  -3   5 115604. 2443.64   2
   3   3  -5 109727. 2624.66   4
  -3  -3   5 112525. 2108.97   3
  -3  -3   4 65518.7 1535.73   2
   3   3  -4 59374.4 1754.23   4
   3   3  -3 11638.3 673.778   4
   3   3  -3 11145.5 616.576   7
   3   3  -2 25741.0 900.655   7
   3   3  -2 24520.7 1003.58   4
   3   3  -1 86118.5 1922.41   7
   3   3  -1 88522.2 2185.88   4
   3   3   0 10967.9 490.257   7
  -3  -3   0 9983.27 488.632   5
   3   3   0 10778.3 632.920   4
  -3  -3  -1 330.278 127.126   5
   3   3   1 506.418 214.785   4
  -3  -3  -2 32952.3 1042.65   5
   3   3   2 35177.9 1191.31   4
  -3  -3  -3 34805.5 1104.34   5
   3   3   3 33427.6 1144.21   4
   3   3   4 22381.0 675.316   1
  -3  -3  -4 23546.1 910.759   5
   3   3   4 23105.4 891.957   4
   3   3   5 1432.26 260.151   3
  -3  -3  -5 1080.20 216.638   5
   3   3   5 1277.43 158.565   1
   3   3   5 1471.47 219.869   4
   3   3   6 7257.97 559.061   3
   3   3   6 7159.33 434.879   4
   3   3   6 7939.38 368.987   1
   3   3   7 15292.8 852.757   3
   3   3   7 14660.3 594.700   4
   3   3   7 13956.0 517.205   1
   3   3   8 46795.4 1669.40   3
   3   3   8 44684.3 1093.96   4
   3   3   8 42973.8 1074.23   1
   3   3   9 16209.6 991.458   3
   3   3   9 15878.9 584.014   1
   3   3   9 14504.7 493.626   4
   3   3  10 25244.7 818.325   1
   3   3  10 27282.0 1354.63   3
   3   3  11 43050.5 1827.39   3
  -3  -3 -12 5510.16 467.537   6
   3   3  12 5431.92 691.163   3
  -3  -3 -13 2029.13 315.263   6
   3   3  13 2298.25 504.122   3
  -3  -3 -14 251.018 196.246   6
   3   3  14 549.606 409.480   3
  -3  -3 -15 478.120 207.509   6
   3   3  15 997.175 464.728   3
   3   3  16 1220.26 512.795   3
   3   3  17 722.527 432.089   3
   3   3  18 1272.54 482.934   3
  -3  -4  15 1315.96 434.472   2
  -3  -4  14 4695.15 689.407   2
   3   4 -14 5323.00 806.504   7
   3   4 -13 15198.0 1245.92   7
  -3  -4  13 15882.7 1115.24   2
  -3  -4  12 2503.27 468.007   2
   3   4 -12 3170.28 452.933   4
   3   4 -12 3713.85 631.787   7
   3   4 -11 22491.3 1413.75   7
   3   4 -11 20773.9 1089.70   4
  -3  -4  11 22773.4 1241.50   2
   3   4 -10 12711.8 1009.13   7
   3   4 -10 13705.5 856.519   4
  -3  -4  10 12969.7 896.835   2
  -3  -4   9 1164.92 302.356   2
   3   4  -9 778.355 291.812   7
  -3  -4   9 1392.31 287.707   3
   3   4  -9 949.738 278.567   4
   3   4  -8 4116.25 532.776   7
  -3  -4   8 3920.69 471.649   2
  -3  -4   8 4093.15 377.212   3
   3   4  -8 4109.24 461.259   4
   3   4  -7 15085.5 950.655   7
  -3  -4   7 14357.2 627.615   3
  -3  -4   7 15388.9 827.918   2
   3   4  -7 14710.2 832.601   4
   3   4  -6 6173.42 572.915   7
  -3  -4   6 7874.95 441.900   3
   3   4  -6 6179.43 531.610   4
  -3  -4   6 7413.97 520.805   2
   3   4  -5 1902.91 326.503   7
  -3  -4   5 1802.73 246.689   2
   3   4  -5 1996.93 322.124   4
   3   4  -4 9365.58 629.596   7
   3   4  -4 8968.27 634.894   4
  -3  -4   4 9941.02 515.800   2
  -3  -4   3 17110.4 634.503   2
   3   4  -3 16610.9 797.868   7
   3   4  -3 16119.6 832.913   4
  -3  -4   2 5650.08 315.171   2
   3   4  -2 5083.14 455.258   4
   3   4  -2 5345.31 429.568   7
   3   4  -1 45287.6 1279.58   7
   3   4  -1 41918.0 1406.48   4
   3   4   0 17339.6 850.612   4
   3   4   0 17938.5 707.032   7
  -3  -4  -1 75964.7 1819.76   5
   3   4   1 75413.9 1970.21   4
  -3  -4  -2 116416. 2498.59   5
   3   4   2 115504. 2617.53   4
  -3  -4  -3 90865.7 2128.58   5
   3   4   3 91349.6 2164.68   4
   3   4   4 2739.06 260.079   1
   3   4   4 3247.01 332.454   4
   3   4   5 29000.6 897.729   1
  -3  -4  -5 29969.7 1113.80   5
   3   4   5 29290.8 971.701   4
   3   4   6 19049.1 694.113   1
   3   4   6 18757.8 708.832   4
  -3  -4  -6 17425.7 851.058   5
  -3  -4  -7 632.930 202.296   5
   3   4   7 537.664 146.535   1
   3   4   7 620.458 132.538   4
   3   4   8 3220.39 414.241   3
  -3  -4  -8 3073.09 386.557   5
   3   4   8 3516.70 252.361   4
   3   4   8 2872.03 285.323   1
   3   4   9 14012.7 925.889   3
  -3  -4  -9 12474.2 774.108   5
   3   4   9 13526.2 465.294   4
   3   4   9 13915.2 606.176   1
   3   4  10 6459.94 692.086   3
   3   4  10 5637.79 389.557   1
   3   4  11 5472.51 659.623   3
   3   4  11 4035.84 364.441   1
   3   4  12 5682.40 695.136   3
   3   4  12 4561.05 400.086   1
   3   4  13 259.974 341.525   3
   3   4  14 2346.07 562.985   3
   3   4  15 11762.8 1074.02   3
  -3  -4 -15 11238.0 788.523   6
   3   4  16 8857.15 992.369   3
   3   4  17 1731.27 516.238   3
   3   4  18 1466.28 543.586   3
  -3  -5  13 1748.23 411.692   2
   3   5 -13 1274.99 474.027   7
   3   5 -12 5923.67 783.668   7
   3   5 -12 8222.49 716.545   4
  -3  -5  12 6466.06 698.636   2
  -3  -5  11 255.971 241.154   2
   3   5 -11-90.4760 314.569   7
   3   5 -11-238.229 247.496   4
  -3  -5  10 262.954 250.910   2
   3   5 -10 563.179 239.603   4
   3   5 -10-272.168 382.587   7
  -3  -5   9 2417.14 390.798   2
   3   5  -9 1732.59 423.166   7
  -3  -5   9 2046.32 303.506   3
   3   5  -9 2174.20 340.403   4
   3   5  -8 28487.3 1421.11   7
  -3  -5   8 27962.2 1050.14   3
   3   5  -8 27417.9 1247.61   4
  -3  -5   8 29077.7 1230.05   2
   3   5  -7 69036.1 2263.01   7
  -3  -5   7 73402.9 1824.24   3
   3   5  -7 68010.2 2103.43   4
  -3  -5   7 71503.8 2003.67   2
   3   5  -6 13135.6 873.131   7
  -3  -5   6 13372.3 630.721   3
   3   5  -6 11691.3 774.089   4
  -3  -5   6 12973.1 712.284   2
   3   5  -5 25611.3 1169.82   7
   3   5  -5 25532.4 1141.67   4
  -3  -5   5 26405.3 980.842   2
   3   5  -4 57835.0 1832.23   4
  -3  -5   4 61052.4 1530.81   2
   3   5  -4 59301.6 1820.42   7
   3   5  -3 20584.3 957.362   7
   3   5  -3 21069.1 1005.50   4
  -3  -5   3 22400.6 748.552   2
  -3  -5   2 1019.69 141.119   2
   3   5  -2 1351.73 267.130   7
   3   5  -2 796.875 256.306   4
   3   5  -1 3681.11 409.603   4
  -3  -5   1 3259.62 198.476   2
   3   5   0 24921.6 1059.66   4
  -3  -5   0 24833.8 565.746   2
  -3  -5  -1 17215.0 386.139   2
   3   5   1 18286.5 871.990   4
  -3  -5  -2 17260.8 787.859   5
   3   5   2 15712.7 773.003   4
   3   5   3 627.555 189.374   1
  -3  -5  -3 890.462 221.093   5
   3   5   3 482.163 191.272   4
  -3  -5  -3 700.739 88.3503   2
  -3  -5  -4 3087.41 354.462   5
   3   5   4 2992.22 312.168   1
   3   5   4 2809.67 315.330   4
  -3  -5  -4 2939.01 197.226   2
   3   5   5 13434.6 629.892   1
  -3  -5  -5 12603.4 716.274   5
   3   5   5 12708.8 637.796   4
   3   5   6 39180.8 1183.10   1
  -3  -5  -6 35468.3 1296.24   5
   3   5   6 37740.3 1144.54   4
  -3  -5  -7 25999.8 1112.98   5
   3   5   7 28306.7 915.067   4
   3   5   7 29198.0 1001.15   1
  -3  -5  -8 11938.6 755.745   5
   3   5   8 12533.5 533.887   4
   3   5   8 13169.9 656.277   1
   3   5   9 58466.9 1304.34   4
  -3  -5  -9 58211.2 1833.57   5
   3   5   9 58214.0 1582.42   1
  -3  -5 -10 11811.3 790.924   5
   3   5  10 11770.5 636.502   1
  -3  -5 -11 365.510 232.235   5
   3   5  11 62.4088 153.207   1
  -3  -5 -12 1273.44 336.995   5
   3   5  12 953.382 232.257   1
   3   5  13 14.6313 181.900   1
  -3  -5 -13 576.091 309.127   5
  -3  -5 -14 2905.25 454.978   5
  -3  -5 -15 950.427 361.980   5
  -3  -5 -16 607.355 392.945   5
  -3  -5 -17 708.776 329.322   5
  -3  -5 -18 666.514 375.192   5
  -3  -5 -19 1576.58 420.617   5
   3   6 -12 8709.69 983.568   7
   3   6 -12 8385.49 782.364   4
   3   6 -11 396.956 366.194   7
   3   6 -11 1018.33 328.940   4
   3   6 -10 1284.67 473.944   7
   3   6 -10 897.376 284.086   4
   3   6  -9 9356.03 891.513   7
   3   6  -9 9603.56 793.898   4
  -3  -6   9 9650.58 668.246   3
  -3  -6   8 31.3789 176.261   2
   3   6  -8 580.013 346.863   7
  -3  -6   8 300.575 201.207   3
   3   6  -8 402.135 258.135   4
  -3  -6   7 370.952 211.028   2
  -3  -6   7 220.883 204.892   3
   3   6  -7 331.671 262.160   4
   3   6  -7 127.217 279.767   7
  -3  -6   6 1142.79 231.826   2
   3   6  -6 1145.08 354.438   7
   3   6  -6 1641.45 353.258   4
  -3  -6   6 1710.00 304.043   3
  -3  -6   5 277.964 139.023   2
   3   6  -5 333.706 229.645   7
   3   6  -5 265.428 234.893   4
   3   6  -4 5356.65 538.345   7
   3   6  -4 5780.65 576.240   4
  -3  -6   4 5414.32 367.957   2
   3   6  -3 13927.4 825.011   7
   3   6  -3 13637.2 856.469   4
  -3  -6   3 14122.2 521.606   2
   3   6  -2 12561.2 802.412   4
   3   6  -1 42823.1 1568.64   4
   3   6   0 70463.0 2055.14   4
   3   6   1 44926.6 1539.59   4
   3   6   2 9927.70 598.551   1
   3   6   2 10803.6 708.047   4
   3   6   3 21932.5 994.522   4
   3   6   3 23580.5 944.127   1
  -3  -6  -4 2841.11 379.514   5
   3   6   4 2532.58 326.189   1
   3   6   4 2602.43 345.992   4
  -3  -6  -5 2579.39 372.631   5
   3   6   5 2198.05 295.675   1
   3   6   5 2422.93 315.970   4
   3   6   6 13818.9 716.724   1
  -3  -6  -6 13180.1 774.207   5
   3   6   6 13106.0 677.281   4
  -3  -6  -7 1348.46 272.299   5
   3   6   7 1442.50 238.480   4
   3   6   7 1414.88 268.462   1
  -3  -6  -8 490.901 227.171   5
   3   6   8 367.238 216.028   1
   3   6   8 75.1474 104.213   4
   3   6   9 1781.79 316.388   1
  -3  -6  -9 1358.76 297.832   5
   3   6   9 1405.95 198.028   4
  -3  -6 -10 1152.94 292.255   5
   3   6  10 1208.90 255.090   1
  -3  -6 -11 358.129 271.209   5
   3   6  11 406.579 208.652   1
  -3  -6 -12 6935.30 649.245   5
   3   6  12 6762.78 558.917   1
  -3  -6 -13 15160.4 979.786   5
   3   6  13 15679.5 865.516   1
   3   6  14 832.684 254.373   1
  -3  -6 -14 1690.30 375.670   5
  -3  -6 -15 653.637 323.048   5
  -3  -6 -16 4905.92 609.801   5
  -3  -6 -17 1438.27 404.882   5
  -3  -6 -18 414.713 292.733   5
   3   7 -12 1909.25 443.284   4
   3   7 -11 1550.84 493.876   7
   3   7 -11 2073.44 475.074   4
   3   7 -10 3546.99 651.104   7
   3   7 -10 4402.78 596.557   4
   3   7  -9 22307.9 1432.08   7
   3   7  -9 22317.0 1280.95   4
   3   7  -8 17856.6 1223.08   7
  -3  -7   8 18542.1 987.373   3
   3   7  -8 17787.1 1108.18   4
  -3  -7   7 15538.9 865.552   3
   3   7  -7 14904.8 1061.95   7
   3   7  -7 14399.1 979.026   4
   3   7  -6 18786.7 1152.30   7
   3   7  -6 19306.8 1116.23   4
   3   7  -5 4622.90 556.021   4
   3   7  -4 2358.55 402.023   4
   3   7  -3 266.148 231.061   4
   3   7  -2 168.163 217.997   4
   3   7  -1 3964.34 496.093   4
   3   7   0 5376.01 559.646   4
   3   7   1-43.0219 260.122   1
   3   7   1-40.2885 219.534   4
   3   7   2 4542.49 487.609   1
   3   7   2 3793.40 477.439   4
   3   7   3 18414.3 915.396   1
   3   7   3 20112.0 1016.69   4
   3   7   4 55233.8 1667.85   1
   3   7   4 54966.7 1743.36   4
   3   7   5 2107.16 344.542   1
   3   7   5 2506.90 355.069   4
   3   7   6 14492.6 810.441   1
   3   7   6 14932.4 785.812   4
  -3  -7  -6 14787.9 865.066   5
  -3  -7  -7 26831.3 1198.61   5
   3   7   7 30316.9 1105.79   4
   3   7   7 28580.4 1179.28   1
  -3  -7  -8 5942.20 567.030   5
   3   7   8 6374.11 472.901   4
   3   7   8 6097.76 561.060   1
   3   7   9 105.062 211.629   1
  -3  -7  -9 111.268 228.024   5
   3   7   9 133.476 139.919   4
   3   7  10 1590.34 338.420   1
  -3  -7 -10 1144.77 298.705   5
  -3  -7 -11 1399.05 331.515   5
   3   7  11 1793.04 342.501   1
  -3  -7 -12 10651.1 811.923   5
   3   7  12 11667.1 786.792   1
  -3  -7 -13 2764.59 456.657   5
   3   7  13 3531.61 461.301   1
   3   7  14-9.15543 215.375   1
  -3  -7 -14 131.637 233.459   5
  -3  -7 -15-338.931 281.497   5
  -3  -7 -16 1439.15 342.593   5
  -3  -7 -17-41.2721 233.343   5
   3   8 -11 462.662 276.781   4
   3   8 -10 1299.59 402.200   4
   3   8  -9 6025.78 715.393   4
  -3  -8   8 348.783 262.607   3
   3   8  -8-6.46240 297.307   4
   3   8  -7 4277.53 598.504   4
  -3  -8   7 4817.88 555.332   3
   3   8  -6 9947.04 872.859   4
   3   8  -5 3822.97 532.372   4
   3   8  -4 7778.01 746.269   4
   3   8  -3 18733.2 1142.96   4
   3   8  -2 21795.2 1225.70   4
   3   8  -1 12505.8 836.581   1
   3   8  -1 11263.2 873.886   4
   3   8   0 4125.96 511.254   4
   3   8   0 4058.81 521.720   1
   3   8   1 10416.3 758.369   1
   3   8   1 10500.7 822.728   4
   3   8   2 117.103 278.431   1
   3   8   2 216.676 216.890   4
   3   8   3 3360.86 458.994   4
   3   8   3 3758.69 481.951   1
   3   8   4 9923.56 710.437   1
   3   8   4 8400.46 700.194   4
   3   8   5 462.111 242.519   1
   3   8   5 499.009 215.932   4
   3   8   6 5861.67 547.800   4
   3   8   6 6411.74 597.523   1
   3   8   7 7976.09 616.506   4
   3   8   7 7960.96 662.999   1
  -3  -8  -8 1525.70 362.931   5
   3   8   8 1623.55 364.255   1
   3   8   8 1069.30 259.044   4
  -3  -8  -9 752.439 258.605   5
   3   8   9 422.874 277.783   1
   3   8  10 1896.40 382.748   1
  -3  -8 -10 1918.90 369.797   5
  -3  -8 -11 3742.05 511.517   5
   3   8  11 5150.01 591.043   1
  -3  -8 -12 5299.92 609.205   5
   3   8  12 6353.68 655.716   1
  -3  -8 -13 1218.81 336.344   5
   3   8  13 1653.42 379.122   1
  -3  -8 -14 1815.06 417.936   5
   3   8  14 1199.49 350.060   1
  -3  -8 -15-252.929 252.628   5
   3   8  15-240.332 242.484   1
  -3  -8 -16 971.585 327.651   5
   3   9  -9 2390.48 516.179   4
   3   9  -8 2731.74 538.641   4
  -3  -9   8 3543.57 542.687   3
   3   9  -7 3554.00 624.133   4
  -3  -9   7 3310.16 525.146   3
   3   9  -6 717.142 375.806   4
  -3  -9   6 882.718 330.785   3
   3   9  -5 1785.25 432.180   1
   3   9  -5 2812.62 528.668   4
   3   9  -4 477.522 331.642   1
   3   9  -4 753.632 381.855   4
   3   9  -3 7004.02 732.901   1
   3   9  -3 6392.18 727.110   4
   3   9  -2 6189.01 672.729   1
   3   9  -2 6261.23 724.335   4
   3   9  -1 2423.79 473.463   4
   3   9  -1 1887.88 442.962   1
   3   9   0 1262.44 353.451   1
   3   9   0 1499.79 412.798   4
   3   9   1 201.472 280.780   1
   3   9   1 136.489 277.060   4
   3   9   2 7810.36 733.689   1
   3   9   2 7112.97 715.261   4
   3   9   3 4592.91 551.760   1
   3   9   3 3592.09 523.454   4
   3   9   4 5264.44 576.278   1
   3   9   4 5165.76 621.718   4
   3   9   5 22450.9 1158.26   1
   3   9   5 22208.5 1194.47   4
   3   9   6 3630.39 500.105   4
   3   9   6 3541.83 521.654   1
   3   9   7 3518.36 507.493   1
   3   9   7 2596.26 419.334   4
   3   9   8 613.399 325.034   1
   3   9   9 698.319 315.504   1
   3   9  10 4257.08 571.174   1
   3   9  11 1935.95 464.400   1
  -3  -9 -11 1395.89 354.494   5
  -3  -9 -12 547.943 291.150   5
   3   9  12 540.206 349.689   1
  -3  -9 -13 2424.07 471.812   5
   3   9  13 3297.60 546.093   1
  -3  -9 -14 4599.88 606.072   5
   3   9  14 4680.93 637.083   1
  -3  -9 -15 204.600 257.820   5
   3   9  15-504.731 288.257   1
   3  10  -7 976.542 407.449   1
  -3 -10   7 1947.19 450.991   3
   3  10  -6 540.917 366.594   1
   3  10  -6 1179.58 439.422   4
  -3 -10   6 554.788 339.624   3
   3  10  -5 1853.14 513.981   1
   3  10  -5 1478.72 467.101   4
   3  10  -4 23472.5 1428.17   1
   3  10  -4 22077.2 1462.07   4
   3  10  -3 2385.53 521.253   1
   3  10  -3 2398.79 542.534   4
   3  10  -2 2155.75 474.715   1
   3  10  -2 2621.35 581.435   4
   3  10  -1 1175.90 449.791   1
   3  10  -1 623.808 439.676   4
   3  10   0 1518.52 503.661   4
   3  10   0 1083.29 397.776   1
   3  10   1 3203.34 530.816   1
   3  10   1 3287.50 592.265   4
   3  10   2 3079.57 510.699   1
   3  10   2 2319.85 533.902   4
   3  10   3 914.396 374.126   1
   3  10   3 387.173 363.928   4
   3  10   4 8681.25 800.918   1
   3  10   4 8352.05 837.534   4
   3  10   5 5192.13 661.275   4
   3  10   5 5099.37 632.454   1
   3  10   6 935.782 353.058   1
   3  10   7 514.882 337.826   1
   3  10   8 2331.74 489.396   1
   3  10   9 339.354 354.789   1
   3  10  10-276.755 323.164   1
   3  10  11 12.7659 320.151   1
   3  10  12 2371.35 522.026   1
   3  10  13 1062.58 396.988   1
   3  10  14-180.528 287.269   1
   3  10  15 2021.59 475.063   1
   3  11  -4 5360.21 777.683   1
   3  11  -3 1146.29 465.536   4
   3  11  -3 962.692 412.971   1
   3  11  -2 294.780 386.718   4
   3  11  -2 267.100 351.487   1
   3  11  -1 2836.50 584.379   1
   3  11  -1 2638.13 640.405   4
   3  11   0 1502.79 442.582   1
   3  11   0 1086.47 444.050   4
   3  11   1 279.441 319.253   1
   3  11   1 355.683 381.913   4
   3  11   2 628.911 390.346   1
   3  11   2 145.926 357.856   4
   3  11   3 346.391 370.964   1
   3  11   4 9514.46 908.399   1
   3  11   5 552.227 319.090   1
   3  11   6 100.285 323.912   1
   3  11   7 648.532 410.547   1
   3  11   8 5811.10 726.067   1
   3  11   9 4143.98 651.757   1
   3  11  10 399.789 326.360   1
   3  11  11 1803.17 498.621   1
   3  11  12 858.398 389.888   1
   3  11  13 491.775 363.129   1
   3  11  14-39.6146 357.716   1
   3  12   1 2712.14 583.777   1
   3  12   2 2335.56 557.206   1
   3  12   3 171.827 352.787   1
   3  12   4-916.881 453.746   1
   3  12   5 61.5935 332.660   1
   3  12   6 1645.84 455.672   1
   3  12   7-212.767 336.672   1
   3  12   8-384.421 327.987   1
   3  12   9 287.245 353.914   1
  -4   9   4 97.0879 292.456   1
   4  -9  -1 785.499 348.538   3
   4  -8  -9 474.374 351.463   4
   4  -8  -8 332.109 391.554   4
   4  -8  -7 462.533 443.600   4
   4  -8  -6 658.264 387.586   4
   4  -8  -5 1593.21 594.356   4
  -4   8   5 1215.38 432.725   1
  -4   8   4-516.399 344.439   1
  -4   8   3 940.669 367.577   1
  -4   8   2-134.812 244.196   1
   4  -8  -2 990.373 331.724   3
   4  -8  -1 272.331 259.309   3
   4  -8   0 89.6162 256.153   3
   4  -8   1 1793.74 442.953   3
   4  -8   2 194.868 278.205   3
   4  -8   3 849.625 387.085   3
  -4   7  11 1098.56 455.075   2
   4  -7 -10 199.607 297.482   4
   4  -7  -9-416.985 313.341   4
   4  -7  -8 1155.36 451.618   4
   4  -7  -7 427.759 354.242   4
   4  -7  -6 269.651 338.538   4
   4  -7  -5 1793.07 557.696   4
  -4   7   5 1343.68 368.418   1
   4  -7  -4 2627.18 634.646   4
  -4   7   4 1711.01 423.697   1
  -4   7   3 54.9744 246.547   1
   4  -7  -3 244.522 219.304   3
  -4   7   2-326.453 283.206   1
   4  -7  -2 229.658 231.725   3
  -4   7   1 438.231 251.252   1
   4  -7  -1 388.259 278.852   3
   4  -7   0 196.638 285.790   3
   4  -7   1 6951.53 693.031   3
   4  -7   2 5604.24 655.499   3
   4  -7   3 532.421 321.862   3
   4  -7   4 1447.48 431.794   3
   4  -7   5 118.844 299.831   3
   4  -7   6-836.281 466.621   3
  -4   6  12 238.068 362.670   2
  -4   6  11 484.944 413.352   2
   4  -6 -10 2428.34 516.550   4
   4  -6  -9 670.067 355.733   4
   4  -6  -8 10755.1 975.707   4
   4  -6  -7 1197.80 418.972   4
   4  -6  -6 830.425 413.397   4
   4  -6  -5 1869.62 530.438   4
   4  -6  -4 2254.88 566.491   4
  -4   6   4 1714.94 398.621   1
  -4   6   3 646.904 299.592   1
   4  -6  -3 1703.59 327.360   3
  -4   6   2 1188.64 334.668   1
   4  -6  -2 1285.65 306.868   3
  -4   6   1 4569.29 524.135   1
   4  -6  -1 6279.70 577.966   3
  -4   6   0 268.862 206.365   1
   4  -6   0 106.165 217.100   3
   4  -6   1 1111.11 331.126   3
   4  -6   2 374.660 254.429   3
   4  -6   3 2242.59 450.065   3
   4  -6   4 873.707 299.603   3
   4  -6   5-99.9018 337.222   3
   4  -6   6 147.062 353.653   3
   4  -6   7 684.148 359.086   3
   4  -6   8 4907.63 772.750   3
   4  -5 -13 3305.09 642.543   6
  -4   5  13 4145.35 759.828   2
  -4   5  12 741.603 418.031   2
   4  -5 -11 448.912 284.098   4
  -4   5  11-204.458 331.213   2
   4  -5 -10 2205.95 458.143   4
   4  -5  -9-253.345 272.811   4
   4  -5  -8 197.259 252.480   4
   4  -5  -7 2784.43 512.497   4
   4  -5  -6 3999.56 593.365   4
   4  -5  -5 943.542 398.824   4
   4  -5  -4 311.990 308.288   4
   4  -5  -3 976.263 429.092   4
   4  -5  -3 537.911 213.561   3
  -4   5   2 155.587 225.677   1
   4  -5  -2 712.881 250.054   3
   4  -5  -1 7747.53 585.758   3
  -4   5   1 5742.09 568.029   1
   4  -5   0 12852.6 781.725   3
  -4   5   0 11776.3 761.084   1
  -4   5  -1 2726.32 358.952   1
   4  -5   1 3118.82 423.548   3
   4  -5   2 7018.09 643.986   3
   4  -5   3 9452.51 742.065   3
   4  -5   4 29.6264 279.082   3
   4  -5   5 2790.83 488.462   3
   4  -5   6 2761.75 476.893   3
   4  -5   7 973.135 413.072   3
   4  -5   8 245.436 389.979   3
   4  -5   9 1250.50 483.988   3
   4  -5  10 1769.97 536.504   3
   4  -4 -14-658.242 379.562   6
  -4   4  14 78.8501 345.876   2
   4  -4 -13 762.826 391.481   6
  -4   4  13 1386.13 502.036   2
   4  -4 -12-22.9649 294.222   6
  -4   4  12-595.522 381.286   2
   4  -4 -11-224.389 222.682   4
   4  -4 -11 205.176 310.775   6
  -4   4  11 23.9097 333.667   2
   4  -4 -10 13432.7 1012.04   4
   4  -4  -9 66.2038 242.093   4
   4  -4  -8 201.638 255.705   4
   4  -4  -7 18686.5 1154.28   4
   4  -4  -6 20688.0 1216.59   4
   4  -4  -5 1318.33 366.259   4
   4  -4  -4 116.658 256.349   4
   4  -4  -3 3148.64 517.360   4
   4  -4  -3 2925.13 316.646   3
   4  -4  -2 403.326 311.342   4
   4  -4  -2 434.111 190.999   3
   4  -4  -1 246.843 313.574   4
   4  -4  -1 218.548 206.756   3
   4  -4   0 251.479 191.254   3
   4  -4   1 13132.0 758.003   3
   4  -4   2 13568.7 800.119   3
  -4   4  -2 13046.4 685.027   1
   4  -4   3 2098.66 342.763   3
   4  -4   4 1933.04 343.305   3
   4  -4   5 2932.49 433.082   3
   4  -4   6 23896.7 1256.18   3
   4  -4   7 6099.92 706.395   3
   4  -4   8 2595.51 530.867   3
   4  -4   9 2851.73 573.876   3
   4  -4  10 1035.21 416.735   3
   4  -4  11 790.893 442.152   3
   4  -4  12 1197.53 526.930   3
   4  -3 -14 523.413 329.595   6
  -4   3  14-13.6837 345.557   2
   4  -3 -13 1466.59 435.393   6
  -4   3  13 1198.87 430.373   2
   4  -3 -12 240.249 288.705   6
  -4   3  12 928.496 405.702   2
   4  -3 -11 181.009 286.936   6
  -4   3  11-1.18288 353.200   2
   4  -3 -11 94.4298 198.286   4
   4  -3 -10 2788.73 453.819   4
   4  -3 -10 3044.11 496.454   6
   4  -3  -9 4666.42 595.662   4
   4  -3  -9 4785.92 604.834   6
   4  -3  -8 1595.22 373.021   4
   4  -3  -7 3398.68 495.810   4
   4  -3  -6 145.219 243.932   4
   4  -3  -5-4.59591 220.894   4
   4  -3  -4 7983.00 420.355   3
   4  -3  -4 6351.69 667.571   4
   4  -3  -3 43432.0 1184.28   3
   4  -3  -3 43265.5 1716.04   4
   4  -3  -2 10980.7 566.736   3
   4  -3  -2 11056.8 835.596   4
   4  -3  -1 9622.56 542.194   3
   4  -3  -1 9997.50 822.501   4
   4  -3   0 6442.59 661.250   4
   4  -3   0 5882.73 451.032   3
   4  -3   1 18137.7 834.474   3
   4  -3   2 8945.24 596.487   3
   4  -3   3 8227.05 606.799   3
   4  -3   4-319.893 283.795   3
   4  -3   5 1958.67 397.498   3
   4  -3   6 9475.50 778.941   3
   4  -3   7 1004.44 405.824   3
   4  -3   8 3199.43 551.183   3
   4  -3   9 5770.52 696.519   3
   4  -3  10 3758.68 620.781   3
   4  -3  11 2854.16 578.540   3
   4  -3  12 3292.84 646.912   3
   4  -3  13 10461.7 1043.79   3
   4  -2 -15 280.639 347.906   6
   4  -2 -14-189.779 327.058   6
  -4   2  14-99.2767 322.211   2
   4  -2 -13 1284.89 412.437   6
  -4   2  13 1147.35 417.889   2
  -4   2  12 7405.15 762.654   2
   4  -2 -12 6313.32 710.561   6
   4  -2 -12 6565.32 627.430   4
   4  -2 -11 4365.48 602.384   6
  -4   2  11 4450.90 594.970   2
   4  -2 -11 3459.50 483.102   4
  -4   2  10 10837.7 867.022   2
   4  -2 -10 8745.81 790.587   6
   4  -2 -10 8837.79 730.453   4
   4  -2  -9 4556.48 528.613   4
   4  -2  -9 4810.93 573.291   6
   4  -2  -8 29393.7 1343.93   6
   4  -2  -8 29878.6 1377.82   4
   4  -2  -7 1958.43 378.727   4
   4  -2  -7 2225.28 382.105   6
   4  -2  -6 3099.08 440.148   4
   4  -2  -5 6956.20 638.490   4
   4  -2  -4 8320.39 353.970   3
   4  -2  -4 7232.64 642.425   4
   4  -2  -3 19242.4 616.013   3
   4  -2  -3 19188.9 1031.02   4
   4  -2  -2 128.259 205.515   4
   4  -2  -2-46.3458 111.529   3
   4  -2  -1 160.202 216.059   4
   4  -2  -1 214.372 113.127   3
   4  -2   0 15240.2 673.282   3
   4  -2   0 16022.8 944.728   4
   4  -2   1 2475.33 444.375   4
   4  -2   1 1581.98 235.661   3
   4  -2   2 3523.23 498.881   4
   4  -2   2 3016.46 350.257   3
   4  -2   3 16276.0 839.947   3
   4  -2   3 16056.2 975.848   4
   4  -2   4 114436. 2778.19   3
   4  -2   5 2562.61 425.239   3
   4  -2   6 3891.66 509.347   3
   4  -2   7 8422.07 720.217   3
   4  -2   8 5905.48 653.060   3
   4  -2   9 5163.48 633.361   3
   4  -2  10 1588.76 365.233   3
   4  -2  11-622.057 410.721   3
   4  -2  12 1805.61 465.800   3
   4  -2  13 3019.49 594.337   3
   4  -2  14 4956.77 776.695   3
   4  -1 -15 2366.90 539.379   6
  -4   1  15 1141.68 459.278   2
   4  -1 -14 1751.97 459.137   6
  -4   1  14 1987.22 487.757   2
   4  -1 -13 787.921 370.750   6
  -4   1  13-170.828 354.878   2
   4  -1 -12 2056.62 458.962   6
  -4   1  12 2020.78 467.446   2
   4  -1 -12 1500.23 332.233   4
   4  -1 -11 508.042 283.181   6
  -4   1  11 163.656 280.403   2
   4  -1 -11 88.1140 202.297   4
   4  -1 -10 1946.53 394.489   6
  -4   1  10 2388.11 435.308   2
   4  -1 -10 1292.33 326.178   4
   4  -1  -9 4820.61 546.180   6
   4  -1  -9 4128.76 502.696   4
   4  -1  -8 256.340 186.432   6
   4  -1  -8-6.44867 194.858   4
   4  -1  -7 902.685 277.860   4
   4  -1  -7 1040.41 300.398   6
   4  -1  -6 24110.1 1086.86   6
   4  -1  -6 26253.1 1250.43   4
   4  -1  -5 49435.3 1561.35   6
   4  -1  -5 50328.1 1776.49   4
   4  -1  -4 4853.83 517.038   4
   4  -1  -4 4545.37 414.914   6
   4  -1  -3 20222.2 547.654   3
   4  -1  -3 21791.4 871.520   6
  -4   1   3 22236.8 562.483   5
   4  -1  -3 22756.5 1088.46   4
   4  -1  -2 40549.0 1193.54   6
  -4   1   2 41892.2 979.726   5
   4  -1  -2 41284.5 991.765   3
   4  -1  -2 41982.9 1511.96   4
   4  -1  -1 13665.8 579.641   6
   4  -1  -1 13387.6 818.035   4
   4  -1  -1 14116.8 562.835   3
   4  -1   0 7216.30 372.628   6
   4  -1   0 7884.76 449.883   3
   4  -1   0 7695.57 628.602   4
   4  -1   1 3198.05 436.879   4
   4  -1   1 3304.22 215.420   6
   4  -1   1 3590.57 336.326   3
   4  -1   2 1320.79 319.612   4
   4  -1   2 1160.73 102.832   6
   4  -1   2 1399.87 254.293   3
   4  -1   3 690.614 257.662   4
   4  -1   3 713.473 229.868   3
   4  -1   4 23642.6 1032.00   3
   4  -1   4 25655.1 1130.43   4
   4  -1   5 49355.3 1655.12   3
   4  -1   5 55892.0 1749.56   4
   4  -1   6 1796.84 352.138   4
   4  -1   6 843.279 275.928   3
   4  -1   7 16384.2 976.080   3
   4  -1   7 16065.0 890.623   4
   4  -1   8 4977.17 568.984   3
   4  -1   8 6284.57 563.813   4
   4  -1   9 1334.78 303.597   4
   4  -1   9 599.960 273.674   3
   4  -1  10 4702.30 619.821   3
   4  -1  10 4082.89 487.186   4
   4  -1  11 27159.7 1491.14   3
   4  -1  12 3292.34 578.765   3
   4  -1  13 67.8497 408.447   3
   4  -1  14-1258.63 506.536   3
   4  -1  15-409.782 443.073   3
  -4   0  15 691.576 346.517   2
  -4   0  14 3749.42 585.869   2
  -4   0  13 3674.32 552.384   2
  -4   0  12 7183.36 730.472   2
   4   0 -12 7429.81 754.985   6
   4   0 -12 7747.89 662.391   4
  -4   0  11 14174.5 965.315   2
   4   0 -11 14528.6 1002.06   6
   4   0 -11 12493.6 850.799   4
  -4   0  10 15737.4 975.643   2
   4   0 -10 17577.6 1044.86   6
   4   0 -10 16558.2 981.331   4
   4   0  -9 450.982 248.617   6
  -4   0   9 219.041 264.618   2
   4   0  -9-0.49940 202.887   4
   4   0  -8 646.782 281.066   6
   4   0  -8 711.890 256.780   4
   4   0  -7 401.449 193.686   6
   4   0  -7 814.006 262.971   4
   4   0  -6 546.166 206.476   6
   4   0  -6 572.815 262.301   4
   4   0  -5 48161.4 1510.74   6
   4   0  -5 51897.4 1740.62   4
   4   0  -4 805.765 257.570   4
   4   0  -4 358.201 154.678   6
   4   0  -3 12465.8 622.972   6
   4   0  -3 14133.2 850.131   4
   4   0  -2 47414.7 1260.78   6
  -4   0   2 48432.1 1075.15   5
   4   0  -1 5367.86 287.894   3
   4   0  -1 5242.30 332.371   6
  -4   0   1 5082.82 321.248   5
   4   0  -1 4792.44 492.530   4
   4   0   0 1004.35 246.719   4
   4   0   0 1482.59 158.829   6
  -4   0   0 1676.30 209.810   5
   4   0   0 1301.66 168.896   3
   4   0   1 13518.6 598.584   3
   4   0   1 14074.7 792.108   4
   4   0   2 66055.0 1546.27   3
   4   0   2 67920.7 1793.67   4
   4   0   3 8242.96 544.683   3
   4   0   3 8425.22 584.063   4
   4   0   4 17427.7 847.611   3
   4   0   4 17877.9 879.619   4
   4   0   4 18045.5 512.362   1
   4   0   5 17718.3 890.731   3
   4   0   5 17748.1 872.654   4
   4   0   6 6381.13 556.412   3
   4   0   6 7113.59 548.209   4
   4   0   7 47784.9 1524.10   4
   4   0   7 48569.1 1735.70   3
   4   0   8 5089.85 580.647   3
   4   0   8 5348.10 473.151   4
   4   0   9 1490.72 277.033   4
   4   0   9 1519.53 332.447   3
   4   0  10 14817.5 1034.86   3
   4   0  10 12760.2 726.631   4
   4   0  11 19204.0 1244.75   3
   4   0  12 1232.25 402.882   3
   4   0  13 66.2485 380.591   3
   4   0  14 6162.24 818.855   3
   4   0  15 25.2378 361.009   3
   4   0  16 1304.37 565.293   3
  -4  -1  15 1410.84 457.725   2
  -4  -1  14 3232.11 600.400   2
  -4  -1  13 39.5842 353.480   2
  -4  -1  12 2446.28 475.651   2
   4   1 -12 2972.90 431.362   4
  -4  -1  11 8715.24 756.451   2
   4   1 -11 7929.53 667.102   4
  -4  -1  10 6502.85 648.655   2
   4   1 -10 6637.34 606.955   4
  -4  -1   9 1697.95 362.001   2
   4   1  -9 1437.50 328.522   4
  -4  -1   8 7739.87 619.380   2
   4   1  -8 7995.35 658.729   4
   4   1  -7 12794.6 806.151   4
   4   1  -6 1964.04 307.057   6
   4   1  -6 2180.31 336.511   4
   4   1  -5 30816.0 1268.04   4
   4   1  -4 51726.0 1736.63   4
   4   1  -3 4839.43 486.077   4
  -4  -1   2 17759.6 606.527   5
   4   1  -2 19386.3 988.854   4
   4   1  -1 233.382 208.545   4
  -4  -1   1 525.866 146.959   5
  -4  -1   0 17422.1 527.281   3
  -4  -1   0 18639.3 697.305   5
   4   1   0 19311.4 593.538   3
   4   1   0 18759.2 961.146   4
   4   1   1 66608.7 1546.66   3
   4   1   1 68787.1 1346.29   7
  -4  -1  -1 69511.3 1682.88   5
   4   1   1 64215.3 1915.54   4
   4   1   2 52383.1 1394.36   3
   4   1   2 51388.9 1618.01   4
   4   1   3 14202.3 785.472   4
   4   1   3 16004.4 750.800   3
   4   1   4 5888.08 304.648   1
   4   1   4 6008.62 491.041   4
   4   1   5 19975.0 957.625   3
   4   1   5 17140.0 460.175   1
   4   1   5 19059.3 885.514   4
   4   1   6 31276.5 1301.78   3
   4   1   6 31992.7 1173.51   4
   4   1   7 6411.98 610.014   3
   4   1   7 6661.68 510.871   4
   4   1   8 1452.50 246.380   4
   4   1   8 1154.87 328.791   3
   4   1   9 36041.2 1599.63   3
   4   1   9 33278.7 1189.54   4
   4   1  10 12.9266 130.975   4
   4   1  10-0.46897 297.638   3
   4   1  11 643.129 331.729   3
   4   1  12 1857.38 465.069   3
   4   1  13 125.691 346.346   3
   4   1  14 12868.2 1110.45   3
   4   1  15 9763.94 1000.74   3
   4   1  16 1698.46 539.704   3
   4   1  17 1292.55 544.750   3
  -4  -2  15 120.389 348.656   2
  -4  -2  14 3353.07 593.994   2
  -4  -2  13 14249.7 1068.51   2
  -4  -2  12 6809.05 729.044   2
   4   2 -12 7721.39 667.218   4
  -4  -2  11-138.573 330.108   2
   4   2 -11-50.3050 218.227   4
  -4  -2  10-132.039 271.277   2
   4   2 -10 55.4798 176.497   4
  -4  -2   9 1151.61 326.522   2
   4   2  -9 1582.99 350.531   4
  -4  -2   8 10231.4 723.598   2
   4   2  -8 10527.6 746.138   4
  -4  -2   7 58069.0 1736.59   2
   4   2  -7 58578.4 1878.88   4
   4   2  -6 15593.4 895.415   4
   4   2  -5 4576.76 502.294   4
   4   2  -4 11372.5 743.871   4
   4   2  -3 62546.4 1916.65   4
  -4  -2   2 183.579 33.4107   3
   4   2  -2 8.09193 190.491   4
  -4  -2   1 28521.7 709.634   3
  -4  -2   1 28900.6 888.789   5
   4   2  -1 26601.7 1185.15   4
   4   2   0 25029.1 787.363   7
  -4  -2   0 26285.6 795.866   3
  -4  -2   0 25087.5 849.579   5
   4   2   0 25828.4 1118.89   4
   4   2   1 162.762 84.5663   7
  -4  -2  -1 364.925 146.083   5
   4   2   1-20.8314 169.947   4
   4   2   2 7657.15 433.897   3
  -4  -2  -2 7859.35 376.217   6
  -4  -2  -2 7509.88 499.540   5
   4   2   2 7023.47 571.191   4
   4   2   3 11433.5 595.759   3
  -4  -2  -3 11228.2 401.502   6
  -4  -2  -3 12251.1 655.278   5
   4   2   3 12395.7 743.112   4
   4   2   4 9268.23 569.102   3
   4   2   4 8668.75 610.956   4
   4   2   5 37484.4 1307.77   3
   4   2   5 36754.3 1315.16   4
   4   2   6 18240.8 484.050   1
   4   2   6 18934.3 954.021   3
   4   2   6 19175.7 893.065   4
   4   2   7 18660.3 997.530   3
   4   2   7 18161.5 850.830   4
   4   2   7 16295.6 385.901   1
   4   2   8 36191.3 1498.99   3
   4   2   8 36478.4 1233.34   4
   4   2   9 57810.9 2057.59   3
   4   2   9 60325.0 1649.02   4
   4   2  10 1126.33 373.776   3
   4   2  10 1172.99 213.319   4
   4   2  11 1847.73 449.707   3
   4   2  12 7009.45 783.761   3
   4   2  13 1098.24 448.079   3
   4   2  14 433.843 361.080   3
   4   2  15 1576.61 497.091   3
   4   2  16 1371.47 536.163   3
   4   2  17 1088.68 530.748   3
  -4  -3  15 2812.82 580.775   2
  -4  -3  14 814.184 370.735   2
  -4  -3  13 10970.4 966.816   2
  -4  -3  12 3073.69 507.100   2
   4   3 -12 3890.78 495.335   4
  -4  -3  11 111.450 240.572   2
   4   3 -11-155.021 197.736   4
   4   3 -10 7766.65 667.139   4
  -4  -3  10 7505.53 692.832   2
   4   3  -9 12907.4 835.157   4
  -4  -3   9 13209.0 871.566   2
  -4  -3   8 2050.53 349.668   2
   4   3  -8 1913.77 345.755   4
  -4  -3   7 333.764 225.538   2
   4   3  -7 560.981 232.430   4
  -4  -3   6 12080.3 689.875   2
   4   3  -6 11249.3 751.871   4
  -4  -3   5 4448.35 409.710   2
   4   3  -5 3965.88 472.131   4
  -4  -3   4 5624.27 212.003   3
   4   3  -4 6045.34 567.665   4
   4   3  -3 133.775 168.129   7
  -4  -3   3 269.186 77.5494   3
   4   3  -3 281.537 199.906   4
  -4  -3   2 29611.6 793.656   3
   4   3  -2 31665.9 1289.36   4
   4   3  -1 87966.4 2000.51   7
  -4  -3   1 89106.7 2013.22   5
   4   3  -1 88780.7 2400.97   4
   4   3   0 102498. 2140.41   7
  -4  -3   0 101002. 2231.08   5
   4   3   0 103297. 2639.06   4
   4   3   1 19503.4 675.670   7
  -4  -3  -1 19494.0 800.297   5
   4   3   1 20593.9 1008.36   4
  -4  -3  -2 41919.6 1325.07   5
   4   3   2 44683.0 1533.19   4
  -4  -3  -3 20133.4 893.486   5
   4   3   3 18675.3 940.132   4
   4   3   4 1089.87 218.800   3
  -4  -3  -4 778.650 238.920   5
   4   3   4 525.052 167.133   4
  -4  -3  -5 3769.64 223.993   7
   4   3   5 3161.67 246.283   1
   4   3   5 3303.44 373.359   3
  -4  -3  -5 3426.52 412.732   5
   4   3   5 3432.24 386.531   4
  -4  -3  -6 1887.91 154.461   7
   4   3   6 1996.49 337.944   3
  -4  -3  -6 1748.44 313.153   5
   4   3   6 1684.54 175.474   1
   4   3   6 1753.75 287.527   4
   4   3   7 11251.8 756.733   3
   4   3   7 10748.4 627.753   4
   4   3   7 10796.2 417.606   1
   4   3   8 338.602 87.9253   1
   4   3   8 144.767 124.790   4
   4   3   9 2119.17 408.134   3
   4   3   9 1835.48 235.373   4
  -4  -3 -10 624.567 137.033   6
   4   3  10 926.182 353.776   3
   4   3  10 462.837 140.405   4
   4   3  11 1282.55 419.951   3
   4   3  12 32641.8 1635.53   3
   4   3  13 2893.17 576.400   3
   4   3  14 5685.80 773.892   3
   4   3  15 9453.89 1011.65   3
   4   3  16 9350.73 988.851   3
   4   3  17 1936.98 629.590   3
  -4  -4  15 2559.02 596.307   2
  -4  -4  14 149.336 294.842   2
  -4  -4  13-174.991 306.619   2
   4   4 -13 740.321 407.351   7
  -4  -4  12-49.3214 261.100   2
   4   4 -12 265.888 325.061   7
   4   4 -12 127.776 216.656   4
   4   4 -11 14.0127 310.143   7
  -4  -4  11 274.309 329.353   2
   4   4 -11 475.635 241.209   4
   4   4 -10 17746.5 1199.00   7
   4   4 -10 18455.9 1057.87   4
  -4  -4  10 19249.1 1113.93   2
   4   4  -9 39576.5 1757.19   7
   4   4  -9 37684.6 1535.24   4
  -4  -4   9 38460.6 1549.58   2
   4   4  -8 13186.8 960.199   7
   4   4  -8 11908.3 820.908   4
  -4  -4   8 12332.7 809.798   2
   4   4  -7 22444.7 1185.76   7
   4   4  -7 20794.5 1077.28   4
  -4  -4   7 20058.6 981.955   2
  -4  -4   6 23219.0 992.582   2
   4   4  -6 25471.3 1198.97   7
   4   4  -6 21687.7 1095.83   4
  -4  -4   5 18511.8 832.819   2
   4   4  -5 20621.8 1038.28   7
  -4  -4   5 19335.4 600.405   3
   4   4  -5 17783.3 972.958   4
   4   4  -4 1310.60 261.833   7
  -4  -4   4 2255.12 291.740   2
   4   4  -4 1984.43 355.006   4
   4   4  -3 974.040 218.593   7
   4   4  -3 1000.29 276.438   4
   4   4  -2 15213.3 764.737   7
   4   4  -2 14283.0 853.857   4
   4   4  -1 6849.23 474.560   7
   4   4  -1 7053.04 620.014   4
   4   4   0 5524.37 402.703   7
  -4  -4   0 5662.55 459.273   5
   4   4   0 6076.84 567.001   4
  -4  -4  -1 5218.78 420.638   5
   4   4   1 4687.60 501.496   4
  -4  -4  -2 4328.64 395.975   5
   4   4   2 4466.22 480.666   4
  -4  -4  -3 28999.7 1123.06   5
   4   4   3 29488.3 1231.19   4
  -4  -4  -4 10982.4 687.183   5
   4   4   4 10741.8 700.330   4
   4   4   5 21491.0 761.855   1
  -4  -4  -5 24169.2 1071.40   5
   4   4   5 22309.8 995.912   4
   4   4   6 41696.6 1125.31   1
  -4  -4  -6 41872.2 1484.20   5
   4   4   6 42362.8 1378.98   4
   4   4   7 94409.1 2479.52   3
  -4  -4  -7 96094.7 2517.78   5
   4   4   7 90447.9 2197.14   4
   4   4   7 92101.9 1956.95   1
   4   4   8 7883.92 683.259   3
  -4  -4  -8 7613.36 634.893   5
   4   4   8 7852.73 490.394   4
   4   4   8 7077.28 402.766   1
   4   4   9 555.779 139.540   1
   4   4   9 1028.55 354.480   3
  -4  -4  -9 785.415 259.173   5
   4   4   9 787.098 178.020   4
   4   4  10 4589.69 641.905   3
   4   4  10 3552.75 277.191   1
   4   4  11 1426.76 447.342   3
   4   4  12 4669.04 670.521   3
   4   4  13 233.163 388.142   3
   4   4  14 102.242 367.168   3
   4   4  15 530.858 419.116   3
   4   4  16-134.373 369.538   3
   4   4  17 419.462 414.990   3
   4   5 -12 516.153 387.131   7
   4   5 -12 381.194 262.958   4
  -4  -5  11 5718.84 665.309   2
   4   5 -11 5773.72 769.043   7
   4   5 -11 5725.22 646.208   4
   4   5 -10 354.110 336.093   7
  -4  -5  10 663.728 292.065   2
   4   5 -10 417.210 241.787   4
   4   5  -9 314.711 292.869   7
  -4  -5   9 73.5726 212.489   2
   4   5  -9 173.437 223.168   4
   4   5  -8 6354.53 680.509   7
   4   5  -8 6410.43 653.072   4
  -4  -5   8 6507.88 596.914   2
   4   5  -7 22.4259 225.967   7
  -4  -5   7 36.2155 171.106   2
   4   5  -7 472.366 284.673   4
   4   5  -6 19128.5 1079.73   7
   4   5  -6 17460.4 1005.55   4
  -4  -5   6 17761.0 871.088   2
   4   5  -5 5835.61 578.446   7
   4   5  -5 5882.29 578.372   4
  -4  -5   5 6055.73 458.808   2
   4   5  -4 3737.36 442.552   7
   4   5  -4 3481.57 442.342   4
  -4  -5   4 3431.17 333.485   2
  -4  -5   3 49962.2 1316.82   2
   4   5  -3 51753.3 1635.97   7
  -4  -5   2 96640.4 1993.22   2
   4   5  -2 95885.9 2390.02   7
   4   5  -2 92066.5 2568.67   4
   4   5  -1 23033.2 959.036   7
   4   5  -1 20872.4 1082.81   4
   4   5   0 30348.8 1308.47   4
   4   5   1 13374.1 835.967   4
  -4  -5  -2 5718.00 485.681   5
   4   5   2 5833.78 555.706   4
  -4  -5  -3 4377.83 452.086   5
   4   5   3 4964.08 511.473   4
  -4  -5  -4 243.159 184.664   5
   4   5   4 358.436 201.134   4
  -4  -5  -5 319.046 193.589   5
   4   5   5 722.481 240.413   4
   4   5   5 820.561 195.570   1
  -4  -5  -6 1000.62 268.102   5
   4   5   6 1435.70 243.533   1
   4   5   6 1014.81 239.975   4
   4   5   7 556.668 181.471   1
  -4  -5  -7 254.088 207.357   5
   4   5   7 36.5676 130.113   4
  -4  -5  -8 2737.39 413.141   5
   4   5   8 3628.93 335.203   4
   4   5   8 3329.39 323.394   1
   4   5   9 1073.59 210.425   1
  -4  -5  -9 684.165 286.547   5
   4   5   9 1109.01 184.137   4
  -4  -5 -10 17987.7 1029.87   5
   4   5  10 15110.9 688.911   1
  -4  -5 -11 9854.50 792.938   5
   4   5  11 9429.78 535.839   1
  -4  -5 -12 4550.46 590.393   5
  -4  -5 -13 8468.49 791.025   5
  -4  -5 -14 13981.6 1032.94   5
  -4  -5 -15 1299.08 420.611   5
  -4  -5 -16 761.210 331.273   5
  -4  -5 -17 688.152 434.129   5
  -4  -5 -18 803.626 383.965   5
   4   6 -12 10039.6 1076.96   7
   4   6 -12 9451.58 853.973   4
   4   6 -11 5633.27 790.400   7
   4   6 -11 6208.15 672.211   4
   4   6 -10 11618.7 1052.70   7
   4   6 -10 12155.7 940.223   4
   4   6  -9 14005.4 1097.74   7
   4   6  -9 13370.0 958.134   4
   4   6  -8 23504.5 1373.96   7
   4   6  -8 22564.8 1239.94   4
   4   6  -7 3139.85 491.858   7
   4   6  -7 3718.04 511.596   4
   4   6  -6 2401.89 471.143   7
   4   6  -6 2622.67 449.858   4
   4   6  -5 571.001 267.469   7
   4   6  -5 624.494 281.382   4
   4   6  -4-110.888 226.955   7
  -4  -6   4 258.429 144.995   2
   4   6  -4 415.948 251.531   4
   4   6  -3 2137.15 355.977   7
  -4  -6   3 2041.84 244.354   2
   4   6  -3 1807.17 374.288   4
   4   6  -2 8833.82 670.154   7
   4   6  -2 8424.33 722.644   4
  -4  -6   2 8971.35 427.343   2
  -4  -6   1 559.657 95.0486   2
   4   6  -1 716.406 309.573   4
  -4  -6   0 321.851 70.2185   2
   4   6   0 313.240 210.229   4
  -4  -6  -1 19196.1 488.018   2
   4   6   1 21559.2 1102.93   4
   4   6   2 25465.4 1181.56   4
  -4  -6  -3 11612.0 766.987   5
   4   6   3 10749.7 760.477   4
   4   6   4 47803.6 1449.42   1
  -4  -6  -4 51939.1 1699.01   5
   4   6   4 48160.5 1628.84   4
   4   6   5 31279.2 1108.78   1
  -4  -6  -5 30302.2 1285.86   5
   4   6   5 30349.5 1210.30   4
   4   6   6 5785.09 449.029   1
  -4  -6  -6 6485.62 590.562   5
   4   6   6 5916.01 501.499   4
   4   6   7 2929.38 334.320   1
  -4  -6  -7 2622.82 402.587   5
   4   6   7 2782.76 338.814   4
  -4  -6  -8 2717.37 412.899   5
   4   6   8 2868.58 346.873   1
   4   6   8 3050.39 335.192   4
   4   6   9 190.525 177.367   1
  -4  -6  -9 165.974 220.175   5
   4   6   9 209.255 134.969   4
  -4  -6 -10 14775.0 966.564   5
   4   6  10 15159.2 762.643   1
  -4  -6 -11 2045.63 394.905   5
   4   6  11 2610.78 336.317   1
  -4  -6 -12 303.397 266.616   5
  -4  -6 -13 646.587 307.751   5
  -4  -6 -14 4699.14 618.871   5
  -4  -6 -15 631.520 316.365   5
  -4  -6 -16 375.762 363.488   5
  -4  -6 -17 1181.53 414.416   5
  -4  -6 -18 740.190 392.839   5
   4   7 -12 1027.53 354.131   4
   4   7 -11 1006.28 335.858   4
   4   7 -10 16.5519 332.422   7
   4   7 -10 590.407 340.731   4
   4   7  -9 86.5778 362.580   7
   4   7  -9-19.2249 289.695   4
   4   7  -8 6668.58 765.467   7
   4   7  -8 7137.81 725.190   4
   4   7  -7 1261.87 423.372   7
   4   7  -7 1127.70 371.023   4
   4   7  -6 5527.68 663.113   7
   4   7  -6 5279.84 635.976   4
   4   7  -5 37223.1 1602.85   7
   4   7  -5 37110.9 1639.51   4
   4   7  -4 42497.0 1759.71   4
   4   7  -3 1764.40 401.212   4
   4   7  -2 10092.1 828.491   4
   4   7  -1 26427.0 1326.31   4
   4   7   0 684.251 342.007   4
   4   7   1 18297.8 1098.54   4
   4   7   2 3030.76 456.799   4
   4   7   3 652.308 278.383   4
   4   7   3 467.661 227.084   1
  -4  -7  -4 2906.07 445.304   5
   4   7   4 2497.43 362.163   1
   4   7   4 2465.38 390.860   4
   4   7   5 18001.9 883.925   1
  -4  -7  -5 17790.3 1013.54   5
   4   7   5 16323.1 919.365   4
  -4  -7  -6 1013.08 322.648   5
   4   7   6 520.248 217.300   1
   4   7   6 961.615 275.214   4
   4   7   7 1000.25 272.084   1
  -4  -7  -7 955.042 280.578   5
   4   7   7 1417.25 289.474   4
  -4  -7  -8 3959.93 507.064   5
   4   7   8 5107.78 452.446   4
   4   7   8 5653.87 524.985   1
  -4  -7  -9 4681.87 538.043   5
   4   7   9 5069.26 421.622   4
   4   7   9 5765.09 534.728   1
  -4  -7 -10 7114.71 694.350   5
   4   7  10 8350.15 635.486   1
   4   7  11 1925.86 328.684   1
  -4  -7 -11 2353.09 426.626   5
  -4  -7 -12 8440.99 775.724   5
   4   7  12 8490.69 645.024   1
  -4  -7 -13-244.076 307.635   5
  -4  -7 -14 141.260 277.761   5
  -4  -7 -15-185.594 271.598   5
  -4  -7 -16 778.612 352.354   5
  -4  -7 -17 4123.76 620.577   5
  -4  -7 -18 409.233 308.155   5
   4   8 -10 5639.57 732.570   4
   4   8  -9 246.428 352.795   7
   4   8  -9 486.967 322.164   4
   4   8  -8 357.163 374.821   7
   4   8  -8 85.7957 252.993   4
   4   8  -7 831.947 351.139   4
   4   8  -6-179.125 301.157   4
   4   8  -5 12059.1 977.011   4
   4   8  -4 7489.64 763.044   4
   4   8  -3 292.607 255.767   4
   4   8  -2 5505.90 650.708   4
   4   8  -1 9086.53 828.680   4
   4   8   0 6677.45 698.481   4
   4   8   1 1825.56 362.807   1
   4   8   1 2219.52 468.255   4
   4   8   2 20588.4 1071.95   1
   4   8   2 22008.3 1220.59   4
   4   8   3 20908.4 1066.38   1
   4   8   3 20644.5 1164.65   4
   4   8   4 2411.04 389.307   1
   4   8   4 3202.38 471.976   4
   4   8   5 797.324 296.650   1
   4   8   5 185.269 206.900   4
   4   8   6 1915.86 344.090   1
   4   8   6 1711.01 330.025   4
   4   8   7 3541.53 463.649   1
  -4  -8  -7 4470.71 561.959   5
   4   8   7 3184.26 425.361   4
  -4  -8  -8 8123.18 734.905   5
   4   8   8 7867.84 612.167   4
   4   8   8 9216.36 716.507   1
  -4  -8  -9 4944.74 599.131   5
   4   8   9 4932.95 452.291   4
   4   8   9 4909.59 540.652   1
   4   8  10 1153.18 331.636   1
  -4  -8 -10 299.919 269.505   5
   4   8  11 2590.87 427.211   1
  -4  -8 -11 2328.14 430.453   5
  -4  -8 -12 1965.34 419.585   5
   4   8  12 2441.08 419.982   1
  -4  -8 -13 159.134 289.252   5
   4   8  13 422.836 244.375   1
  -4  -8 -14 184.533 263.518   5
  -4  -8 -15 1543.59 425.090   5
  -4  -8 -16 1205.78 382.598   5
  -4  -8 -17 69.3804 297.141   5
   4   9  -8 1212.61 429.592   4
   4   9  -7 4825.46 713.512   4
   4   9  -6 8016.73 851.514   4
   4   9  -5 2058.16 469.953   4
   4   9  -4 7558.81 800.827   4
   4   9  -3 4946.24 651.109   4
   4   9  -2 1085.66 405.979   4
   4   9  -1 12698.3 922.589   1
   4   9  -1 13620.8 1077.55   4
   4   9   0-591.814 366.927   4
   4   9   0 146.788 268.440   1
   4   9   1 3630.78 517.615   1
   4   9   1 3255.60 539.876   4
   4   9   2 20059.4 1119.75   1
   4   9   2 16976.4 1132.77   4
   4   9   3 10585.3 811.302   1
   4   9   3 10257.0 861.951   4
   4   9   4 222.900 254.126   1
   4   9   4 39.9638 241.487   4
   4   9   5 218.754 278.463   1
   4   9   5-2.71464 247.881   4
   4   9   6 6861.77 654.349   1
   4   9   6 6830.89 662.417   4
   4   9   7 7581.35 669.987   4
   4   9   7 7990.08 692.129   1
   4   9   8-236.734 290.731   1
   4   9   8 291.853 207.154   4
  -4  -9  -9 1436.58 405.315   5
   4   9   9 2299.59 432.646   1
   4   9  10 2867.60 486.789   1
  -4  -9 -10 2244.63 482.837   5
   4   9  11-288.604 261.598   1
  -4  -9 -11-62.5838 244.458   5
  -4  -9 -12 149.240 239.108   5
   4   9  12 72.2006 244.384   1
  -4  -9 -13 366.966 298.486   5
   4   9  13 645.513 324.684   1
  -4  -9 -14 123.115 306.296   5
  -4  -9 -15 4851.67 683.967   5
  -4  -9 -16 513.049 315.486   5
  -4  -9 -17-386.023 321.643   5
   4  10  -6 4961.29 716.212   1
   4  10  -5-339.072 470.265   1
   4  10  -5 548.158 377.872   4
   4  10  -4 48.1854 338.552   1
   4  10  -4 171.723 351.133   4
   4  10  -3 5677.98 716.992   1
   4  10  -3 6976.46 850.787   4
   4  10  -2-174.494 311.983   1
   4  10  -2 89.2020 333.427   4
   4  10  -1 716.914 357.472   1
   4  10  -1 818.859 410.673   4
   4  10   0 9559.97 877.305   1
   4  10   0 8305.13 888.721   4
   4  10   1 2713.23 509.008   1
   4  10   1 2759.95 540.557   4
   4  10   2-16.9667 285.984   4
   4  10   2-302.383 318.908   1
   4  10   3 258.679 289.693   1
   4  10   3 386.914 330.330   4
   4  10   4 2357.92 472.712   1
   4  10   4 2277.52 488.313   4
   4  10   5 3321.11 515.452   1
   4  10   5 2513.72 513.284   4
   4  10   6 7431.05 734.725   4
   4  10   6 8011.64 750.233   1
   4  10   7 1929.31 425.692   4
   4  10   7 2855.23 501.611   1
   4  10   8 1358.37 423.270   1
   4  10   8 1683.60 375.376   4
   4  10   9 5412.22 645.458   1
   4  10  10 680.100 341.978   1
   4  10  11-24.2086 263.758   1
  -4 -10 -12 158.563 284.273   5
   4  10  12-368.381 321.895   1
  -4 -10 -13-148.315 343.748   5
   4  10  13 622.876 338.000   1
  -4 -10 -14 225.974 285.607   5
   4  10  14 401.450 325.970   1
  -4 -10 -15 326.348 290.826   5
  -4 -10 -16 614.816 387.656   5
   4  11  -3 2159.86 534.961   1
   4  11  -2 1712.50 501.181   1
   4  11  -2 729.263 439.376   4
   4  11  -1 4077.42 666.699   1
   4  11  -1 4533.86 748.998   4
   4  11   0 10551.2 962.578   1
   4  11   0 9561.07 1040.58   4
   4  11   1 2248.60 512.324   1
   4  11   1 2895.07 607.339   4
   4  11   2 21.4923 289.009   1
   4  11   2 127.353 325.341   4
   4  11   3 3328.63 586.957   1
   4  11   3 2707.66 586.255   4
   4  11   4-353.373 341.048   1
   4  11   4 626.780 364.939   4
   4  11   5-302.243 332.898   1
   4  11   5 334.323 299.536   4
   4  11   6-83.4168 278.254   4
   4  11   6 179.786 304.614   1
   4  11   7 1322.51 424.065   4
   4  11   7 1579.37 460.946   1
   4  11   8 3131.11 537.933   1
   4  11   9 310.825 346.885   1
   4  11  10 1018.06 401.484   1
   4  11  11-317.712 341.926   1
   4  11  12 691.332 403.895   1
   4  11  13 2163.88 528.766   1
   4  11  14-603.086 353.021   1
   4  12   1 1707.32 549.002   4
   4  12   2-71.9608 347.964   4
   4  12   3 3827.53 622.542   1
   4  12   3 3587.05 695.546   4
   4  12   4 2388.15 607.498   4
   4  12   4 2736.29 572.593   1
   4  12   5 262.024 323.181   1
   4  12   6 69.1004 354.897   1
   4  12   7 4328.51 676.665   1
   4  12   8 382.240 367.659   1
   4  12   9 707.332 396.217   1
   5  -7  -4 1357.57 537.342   4
   5  -7  -3 3225.09 685.347   4
   5  -7  -2 1644.91 555.667   4
   5  -7   2 453.491 306.279   3
   5  -7   3-467.501 331.745   3
   5  -6 -10-557.476 357.930   4
   5  -6  -9 119.199 287.313   4
   5  -6  -8 448.047 361.398   4
   5  -6  -7 211.434 325.518   4
   5  -6  -6 1153.56 436.612   4
   5  -6  -5 82.3476 346.053   4
   5  -6  -4 783.890 437.212   4
   5  -6  -3 1632.87 537.585   4
   5  -6  -2 1425.77 520.091   4
   5  -6  -1 3155.42 715.226   4
   5  -6   0 4465.37 805.402   4
   5  -6   1 1099.81 535.404   4
   5  -6   1-266.390 285.523   3
   5  -6   2 1038.85 475.360   4
   5  -6   2 243.574 271.174   3
   5  -6   3 64.1302 310.014   3
   5  -6   4 269.584 305.945   3
   5  -6   5 3492.75 665.878   3
   5  -6   6 903.852 505.210   3
   5  -5 -11 123.961 302.817   6
   5  -5 -10 1227.85 459.478   4
   5  -5 -10-188.026 363.140   6
   5  -5  -9 1919.05 516.797   4
   5  -5  -8 1353.57 471.666   4
   5  -5  -7 449.311 314.471   4
   5  -5  -6 2231.65 551.055   4
   5  -5  -5 408.060 353.332   4
   5  -5  -4 755.527 423.988   4
   5  -5  -3 162.683 395.431   4
   5  -5  -2 5151.68 761.878   4
   5  -5  -1 365.756 366.786   4
   5  -5   0 5855.34 848.454   4
   5  -5   0 4649.33 524.277   3
   5  -5   1 732.285 460.292   4
   5  -5   1 299.753 256.866   3
   5  -5   2 796.615 458.811   4
   5  -5   2 57.7561 256.183   3
   5  -5   3 3438.78 715.613   4
   5  -5   3 2072.91 441.949   3
   5  -5   4 12844.7 1002.85   3
   5  -5   5 2691.91 566.934   3
   5  -5   6 1479.79 468.834   3
   5  -5   7 1607.64 515.498   3
   5  -5   8 962.898 456.636   3
   5  -5   9 276.524 391.264   4
   5  -4 -12 11.3796 325.716   6
   5  -4 -11 673.673 309.220   4
   5  -4 -11 1823.99 484.845   6
  -5   4  11 2161.49 566.419   2
   5  -4 -10-26.1187 256.369   4
   5  -4 -10 67.5694 317.598   6
   5  -4  -9 629.336 362.847   4
   5  -4  -9-60.1571 330.382   6
   5  -4  -8-16.7418 255.113   4
   5  -4  -8-77.2396 307.418   6
   5  -4  -7 248.232 305.692   4
   5  -4  -6 967.452 379.608   4
   5  -4  -5 13000.4 1063.04   4
   5  -4  -4 814.646 346.260   4
   5  -4  -3 6756.27 806.072   4
   5  -4  -2 4402.50 713.813   4
   5  -4  -1 1083.48 476.782   4
   5  -4   0 129.323 355.291   4
   5  -4   0 165.055 190.368   3
   5  -4   1 741.580 423.967   4
   5  -4   1 47.4574 233.071   3
   5  -4   2 848.513 452.542   4
   5  -4   2-287.095 218.281   3
   5  -4   3 5792.45 787.888   4
   5  -4   3 5786.44 635.368   3
   5  -4   4 359.530 324.328   4
   5  -4   4 620.639 329.390   3
   5  -4   5 1135.61 435.317   4
   5  -4   5 911.617 431.761   3
   5  -4   6 1022.68 446.674   4
   5  -4   6 1814.62 452.930   3
   5  -4   7 5920.79 805.573   4
   5  -4   7 5898.43 747.059   3
   5  -4   8 1070.42 423.876   4
   5  -4   8-16.3901 319.393   3
   5  -4   9 2313.95 571.790   4
   5  -4   9 1779.27 505.799   3
   5  -4  10 2770.38 561.530   4
   5  -4  10 1495.80 490.637   3
   5  -3 -13-140.105 312.724   6
   5  -3 -12 3190.44 564.939   6
  -5   3  12 3388.46 645.676   2
   5  -3 -11 1656.11 433.246   6
  -5   3  11 2905.02 586.310   2
   5  -3 -11 1679.58 442.815   4
   5  -3 -10 3839.34 597.745   4
   5  -3 -10 4764.54 657.824   6
   5  -3  -9-101.866 244.622   4
   5  -3  -9 243.970 321.521   6
   5  -3  -8 1393.79 430.149   4
   5  -3  -8 1609.20 375.167   6
   5  -3  -7-281.482 300.227   4
   5  -3  -7-113.201 233.189   6
   5  -3  -6 53.9977 266.244   4
   5  -3  -6 189.952 230.375   6
   5  -3  -5 1484.87 400.950   4
   5  -3  -4 1390.78 410.355   4
   5  -3  -3 2924.18 521.931   4
   5  -3  -2 1640.60 440.266   4
   5  -3  -1 185.055 344.072   4
   5  -3  -1-36.6262 148.331   3
   5  -3   0 1732.46 473.321   4
   5  -3   0 1739.91 298.975   3
   5  -3   1 14693.1 847.854   3
   5  -3   1 14273.2 1088.03   4
   5  -3   2 10982.0 785.527   3
   5  -3   2 11986.8 993.799   4
   5  -3   3 1064.18 392.860   4
   5  -3   3 1726.99 402.891   3
   5  -3   4 11047.1 861.497   3
   5  -3   4 11394.5 986.748   4
   5  -3   5 6097.36 777.876   4
   5  -3   5 6589.52 696.940   3
   5  -3   6 2240.25 512.323   4
   5  -3   6 2170.29 460.416   3
   5  -3   7 6082.64 747.096   4
   5  -3   7 4825.17 640.536   3
   5  -3   8 1367.53 443.478   4
   5  -3   8 1166.75 415.829   3
   5  -3   9 679.186 345.616   4
   5  -3   9 503.342 369.003   3
   5  -3  10 2595.16 522.259   4
   5  -3  10 2114.40 518.478   3
   5  -3  11 1001.13 450.712   3
   5  -3  12-1093.16 464.369   3
   5  -2 -13 826.104 386.516   6
  -5   2  13 894.971 449.428   2
   5  -2 -12 2318.07 498.453   6
  -5   2  12 3207.31 594.951   2
   5  -2 -11 1108.34 380.025   6
  -5   2  11 1376.28 465.613   2
   5  -2 -11 1004.18 339.737   4
   5  -2 -10 552.182 289.977   6
   5  -2 -10 101.497 227.575   4
   5  -2  -9 238.263 260.656   6
   5  -2  -9-119.349 240.021   4
   5  -2  -8 6864.75 696.000   6
   5  -2  -8 7310.36 780.420   4
   5  -2  -7 12932.1 888.271   6
   5  -2  -7 12307.6 962.850   4
   5  -2  -6 505.830 290.100   4
   5  -2  -6 1554.92 330.128   6
   5  -2  -5 2075.09 435.295   4
   5  -2  -5 2562.63 383.474   6
   5  -2  -4 25161.8 1092.43   6
   5  -2  -4 21285.6 1256.58   4
   5  -2  -3 10895.9 666.800   6
   5  -2  -3 9624.82 847.190   4
   5  -2  -2 7151.97 510.514   6
   5  -2  -2 7250.29 726.473   4
   5  -2  -1 455.598 309.809   4
   5  -2  -1 409.451 147.152   6
   5  -2  -1 674.875 201.495   3
   5  -2   0 4951.45 617.345   4
   5  -2   0 3577.87 371.889   3
   5  -2   1 5336.59 643.854   4
   5  -2   1 5689.04 487.463   3
   5  -2   2 4926.68 632.767   4
   5  -2   2 5206.61 508.248   3
   5  -2   3 250.000 286.688   4
   5  -2   3 411.919 235.571   3
   5  -2   4 2461.93 492.236   4
   5  -2   4 2141.34 375.784   3
   5  -2   5 15659.2 972.420   3
   5  -2   5 16592.3 1093.32   4
   5  -2   6 136.289 257.179   4
   5  -2   6-104.460 264.637   3
   5  -2   7 4537.07 622.744   4
   5  -2   7 3525.68 532.897   3
   5  -2   8 8026.64 805.206   3
   5  -2   8 9588.24 855.698   4
   5  -2   9 6644.77 755.596   3
   5  -2   9 7095.40 739.630   4
   5  -2  10 233.489 280.058   4
   5  -2  10-705.859 415.622   3
   5  -2  11 2500.98 528.448   3
   5  -2  12 2.98412 396.519   3
   5  -2  13 96.3256 434.534   3
  -5   1  13 11961.1 1042.30   2
   5  -1 -13 11615.9 1017.35   6
   5  -1 -12 219.114 292.078   6
  -5   1  12 618.921 372.699   2
   5  -1 -12 417.468 301.105   4
   5  -1 -11 207.428 266.874   6
  -5   1  11 789.201 378.986   2
   5  -1 -11 407.274 265.420   4
   5  -1 -10 1771.89 424.553   6
  -5   1  10 2025.64 457.290   2
   5  -1 -10 1782.80 427.074   4
   5  -1  -9 437.012 249.129   6
   5  -1  -9 1093.37 354.727   4
   5  -1  -8 1977.74 384.275   6
   5  -1  -8 2006.16 423.469   4
   5  -1  -7 12002.1 801.830   6
   5  -1  -7 12146.8 938.171   4
   5  -1  -6 582.782 302.617   4
   5  -1  -6 816.744 243.949   6
   5  -1  -5 5910.85 535.930   6
   5  -1  -5 6450.92 689.655   4
   5  -1  -4 7235.54 539.833   6
   5  -1  -4 6679.82 705.661   4
   5  -1  -3 3366.53 497.084   4
   5  -1  -3 3671.80 371.674   6
   5  -1  -2 31.4432 275.173   4
   5  -1  -2 215.613 129.576   6
   5  -1  -1 22737.4 791.589   3
   5  -1  -1 23103.1 808.954   6
  -5   1   1 24141.1 813.258   5
   5  -1  -1 24747.6 1270.50   4
   5  -1   0 16226.8 716.987   3
   5  -1   0 15322.8 579.958   6
   5  -1   0 14885.8 963.683   4
   5  -1   1 4256.21 558.226   4
   5  -1   1 3640.89 368.572   3
   5  -1   2 7114.25 538.628   3
   5  -1   2 7234.10 684.127   4
   5  -1   3 2944.17 450.478   4
   5  -1   3 2460.48 364.628   3
   5  -1   4 838.706 325.913   4
   5  -1   4 494.030 208.173   3
   5  -1   5 1016.07 314.497   4
   5  -1   5 688.901 267.326   3
   5  -1   6 1981.64 409.384   4
   5  -1   6 1972.33 377.782   3
   5  -1   7 11328.3 865.600   3
   5  -1   7 10755.2 831.619   4
   5  -1   8 8357.57 774.486   3
   5  -1   8 9167.98 768.824   4
   5  -1   9 13989.0 1053.41   3
   5  -1   9 14813.6 962.145   4
   5  -1  10 254.307 263.095   4
   5  -1  10-31.5460 338.102   3
   5  -1  11 467.486 365.544   3
   5  -1  12 3667.49 642.960   3
   5  -1  13 243.614 382.111   3
   5  -1  14 570.504 442.022   3
  -5   0  13 1348.96 444.009   2
  -5   0  12-24.0538 288.708   2
   5   0 -12 62.2617 233.283   4
  -5   0  11 1019.94 372.977   2
   5   0 -11 524.285 284.331   4
  -5   0  10 11378.4 900.122   2
   5   0 -10 10550.2 853.950   6
   5   0 -10 10542.9 867.102   4
   5   0  -9 2510.09 439.521   6
  -5   0   9 3164.72 519.823   2
   5   0  -9 1655.49 353.535   4
   5   0  -8 3077.81 457.431   6
   5   0  -8 2358.35 455.481   4
   5   0  -7 11517.9 773.772   6
   5   0  -7 11400.2 885.361   4
   5   0  -6 9649.76 685.937   6
   5   0  -6 10191.8 807.349   4
   5   0  -5 4496.49 457.575   6
   5   0  -5 4598.86 563.522   4
   5   0  -4 8614.32 579.124   6
   5   0  -4 9190.73 771.890   4
   5   0  -3 344.283 258.162   4
   5   0  -3 511.828 177.186   6
   5   0  -2 70.0106 243.925   4
   5   0  -2 264.513 146.452   6
  -5   0   2 135.128 99.4054   5
   5   0  -1 35064.4 905.467   3
  -5   0   1 36346.8 1047.72   5
   5   0  -1 33776.0 1476.79   4
   5   0   0 50561.0 1327.20   3
  -5   0   0 52754.9 1411.99   5
   5   0   0 52698.4 1866.42   4
   5   0   1 197.857 231.460   4
  -5   0  -1 86.0367 151.444   5
   5   0   1 166.842 156.859   3
   5   0   2 18015.3 829.558   3
   5   0   2 18539.7 1033.84   4
   5   0   3 8029.59 577.111   3
   5   0   3 6830.16 628.300   4
   5   0   4 1026.05 262.357   4
   5   0   4 982.345 240.308   3
   5   0   5 446.066 219.416   4
   5   0   5 570.762 221.358   3
   5   0   6 16763.8 983.732   3
   5   0   6 14839.6 913.693   4
   5   0   7 21146.7 1180.59   3
   5   0   7 21830.5 1098.85   4
   5   0   8 1836.17 338.830   4
   5   0   8 1791.49 400.160   3
   5   0   9 1867.77 339.462   4
   5   0   9 2615.01 489.745   3
   5   0  10 91.3352 207.765   4
   5   0  10 82.6816 322.825   3
   5   0  11 286.443 390.211   3
   5   0  12 8946.34 941.218   3
   5   0  13 588.593 387.145   3
   5   0  14 3498.58 670.455   3
   5   0  15 2722.67 683.759   3
  -5  -1  13-100.134 306.954   2
  -5  -1  12 1741.17 445.047   2
   5   1 -12 2709.09 472.269   4
  -5  -1  11 261.375 292.535   2
   5   1 -11 29.1645 211.477   4
  -5  -1  10 14490.0 972.618   2
   5   1 -10 13811.2 969.786   4
  -5  -1   9 4757.91 559.425   2
   5   1  -9 4712.00 592.572   4
   5   1  -8 4298.52 547.669   4
   5   1  -7 22606.5 1209.41   4
   5   1  -6 8091.72 713.590   4
   5   1  -5 1737.03 367.914   4
   5   1  -4 2082.18 411.227   4
   5   1  -3 43762.3 1701.84   4
  -5  -1   2 9462.82 475.666   5
   5   1  -2 9812.43 777.191   4
   5   1  -1 54.3269 262.162   4
  -5  -1   1 611.318 151.443   5
   5   1   0 3279.81 446.812   4
   5   1   0 3135.49 248.355   3
  -5  -1   0 3129.45 323.459   5
   5   1   1 19249.8 740.746   3
   5   1   1 20570.2 591.974   7
  -5  -1  -1 19714.6 844.125   5
   5   1   1 20436.4 1090.37   4
   5   1   2 1960.88 376.154   4
   5   1   2 2038.82 276.311   3
  -5  -1  -2 1121.75 221.342   5
   5   1   3 21719.1 931.579   3
   5   1   3 23134.5 1131.42   4
   5   1   4 5139.06 477.834   3
   5   1   4 6149.71 577.400   4
   5   1   5 14550.5 844.632   3
   5   1   5 15296.6 903.177   4
   5   1   6 9199.86 716.788   3
   5   1   6 9665.07 709.761   4
   5   1   7 28535.0 1352.65   3
   5   1   7 27837.5 1228.41   4
   5   1   8 18630.8 1135.88   3
   5   1   8 19223.4 1003.19   4
   5   1   9 3908.58 462.532   4
   5   1   9 4077.33 558.237   3
   5   1  10 1220.35 283.224   4
   5   1  10 815.066 358.094   3
   5   1  11 72.6931 343.865   3
   5   1  12 632.104 325.884   3
   5   1  13 1598.06 492.019   3
   5   1  14 2300.47 534.667   3
   5   1  15-74.5429 387.968   3
  -5  -2  14 248.030 402.642   2
  -5  -2  13-192.010 331.999   2
  -5  -2  12 4626.41 634.245   2
   5   2 -12 4882.67 582.525   4
  -5  -2  11-94.0140 280.983   2
   5   2 -11 539.951 261.689   4
  -5  -2  10 1103.34 336.958   2
   5   2 -10 1598.97 385.209   4
  -5  -2   9 7050.88 687.429   2
   5   2  -9 6020.17 652.940   4
  -5  -2   8 10504.8 762.072   2
   5   2  -8 9461.02 788.208   4
   5   2  -7 256.083 226.274   4
   5   2  -6 940.408 324.054   4
   5   2  -5 3648.69 522.724   4
   5   2  -4 10514.2 809.950   4
   5   2  -3 17456.1 1032.41   4
   5   2  -2 67760.8 2189.86   4
   5   2  -1 1252.59 195.132   7
  -5  -2   1 1515.28 210.176   5
   5   2  -1 1580.23 344.791   4
   5   2   0 37659.8 1038.40   7
  -5  -2   0 35624.7 1147.44   5
   5   2   0 35324.1 1493.37   4
   5   2   1 42404.8 1039.03   7
  -5  -2  -1 40352.4 1295.96   5
   5   2   1 40712.9 1589.41   4
   5   2   2 1429.16 234.544   3
  -5  -2  -2 957.413 230.621   5
   5   2   2 791.468 281.332   4
   5   2   3 5694.38 444.952   3
  -5  -2  -3 5682.78 495.443   5
   5   2   3 5456.88 554.742   4
   5   2   4 15780.7 789.075   3
  -5  -2  -4 15515.7 840.850   5
   5   2   4 16145.0 939.496   4
   5   2   5 1497.92 310.695   4
   5   2   5 1429.64 286.637   3
   5   2   6 6.16499 173.369   4
   5   2   6 12.1835 191.536   3
   5   2   7 1098.94 280.174   4
   5   2   7 1554.64 332.610   3
   5   2   8 3435.24 430.090   4
   5   2   8 3242.99 494.462   3
   5   2   9 3267.94 420.170   4
   5   2   9 3867.37 542.586   3
   5   2  10 41123.0 1785.88   3
   5   2  10 39797.3 1411.74   4
   5   2  11 579.485 351.356   3
   5   2  12 7266.00 789.885   3
   5   2  13 7049.79 820.424   3
   5   2  14 7934.20 891.460   3
   5   2  15 498.442 451.375   3
   5   2  16 1642.07 534.886   3
  -5  -3  14 226.188 325.341   2
  -5  -3  13 771.239 397.559   2
   5   3 -12 16930.1 1090.43   4
  -5  -3  12 15897.1 1187.83   2
  -5  -3  11 4305.77 601.456   2
   5   3 -11 4218.09 566.333   4
  -5  -3  10 1559.05 402.130   2
   5   3 -10 1758.45 395.681   4
  -5  -3   9 21252.6 1173.28   2
   5   3  -9 21249.8 1191.42   4
  -5  -3   8 16300.7 968.833   2
   5   3  -8 15510.7 1009.17   4
  -5  -3   7 1244.09 331.521   2
   5   3  -7 1076.19 345.627   4
  -5  -3   6 2451.18 409.490   2
   5   3  -6 2474.17 426.656   4
   5   3  -5 8243.31 737.684   4
   5   3  -4 1146.64 315.768   4
   5   3  -3 507.701 193.822   7
   5   3  -3 2.74222 235.750   4
   5   3  -2 3727.97 379.858   7
   5   3  -2 4758.13 561.099   4
   5   3  -1 33008.4 1067.53   7
  -5  -3   1 30441.1 1077.74   5
   5   3  -1 30793.5 1396.74   4
   5   3   0 23507.5 841.350   7
  -5  -3   0 22942.1 924.975   5
   5   3   0 24606.4 1217.56   4
   5   3   1 27625.1 868.274   7
  -5  -3  -1 26579.1 1025.63   5
   5   3   1 26853.5 1284.91   4
  -5  -3  -2 4095.36 419.046   5
   5   3   2 3563.14 489.510   4
  -5  -3  -3 21955.3 1010.93   5
   5   3   3 22319.8 1143.79   4
   5   3   4 80852.4 2040.07   3
  -5  -3  -4 84369.5 2261.43   5
   5   3   4 77760.3 2330.43   4
   5   3   5 32956.3 1232.46   3
  -5  -3  -5 33269.3 1335.55   5
   5   3   5 34854.4 1402.71   4
   5   3   6 1410.03 317.045   3
  -5  -3  -6 1285.35 305.569   5
   5   3   6 1372.92 170.064   1
   5   3   6 1448.80 313.580   4
   5   3   7 8240.02 662.546   3
  -5  -3  -7 8038.65 657.874   5
   5   3   7 7965.67 621.343   4
   5   3   8 2297.27 421.250   3
   5   3   8 1960.49 312.167   4
   5   3   9 5800.20 631.302   3
   5   3   9 5613.98 500.572   4
   5   3  10 666.655 338.020   3
   5   3  11 3296.20 554.570   3
   5   3  12 413.492 339.446   3
   5   3  13 1314.46 451.689   3
   5   3  14 647.263 393.794   3
   5   3  15 881.124 476.704   3
   5   3  16 1174.39 505.932   3
  -5  -4  13 119.173 311.293   2
   5   4 -12 901.708 411.590   7
  -5  -4  12 1404.06 422.220   2
   5   4 -12 184.658 228.471   4
   5   4 -11 1874.55 505.930   7
  -5  -4  11 2516.45 485.348   2
   5   4 -11 3062.81 499.294   4
   5   4 -10 5353.80 676.938   7
  -5  -4  10 3945.24 548.536   2
   5   4 -10 3916.69 533.349   4
   5   4  -9 882.514 302.344   7
  -5  -4   9 1701.35 366.831   2
   5   4  -9 1422.95 379.658   4
   5   4  -8-41.7815 293.366   7
  -5  -4   8 431.045 251.104   2
   5   4  -8 332.990 242.145   4
   5   4  -7 1490.11 338.295   7
  -5  -4   7 1834.31 334.203   2
   5   4  -7 1287.12 329.333   4
  -5  -4   6 14038.3 824.000   2
   5   4  -6 14639.3 926.510   7
   5   4  -6 12543.0 922.232   4
  -5  -4   5 44955.3 1485.77   2
   5   4  -5 48953.3 1693.64   7
   5   4  -5 43467.3 1739.60   4
   5   4  -4 34507.4 1336.28   7
   5   4  -4 34080.7 1492.75   4
   5   4  -3 16972.3 865.066   7
   5   4  -3 17320.7 1043.74   4
   5   4  -2 11899.2 686.352   7
   5   4  -2 11714.0 862.033   4
   5   4  -1 8439.35 542.196   7
   5   4  -1 8316.19 739.813   4
   5   4   0 15324.0 708.077   7
  -5  -4   0 15756.4 781.921   5
   5   4   0 15968.5 1006.67   4
  -5  -4  -1 9816.09 632.582   5
   5   4   1 9980.71 797.108   4
  -5  -4  -2 14126.3 795.851   5
   5   4   2 13114.4 904.836   4
  -5  -4  -3 2262.74 343.596   5
   5   4   3 2904.51 456.258   4
  -5  -4  -4 17048.0 926.706   5
   5   4   4 16322.0 983.077   4
  -5  -4  -5 1063.26 293.087   5
   5   4   5 383.064 218.357   4
   5   4   6 4326.56 330.530   1
  -5  -4  -6 3790.06 472.765   5
   5   4   6 4379.35 477.386   4
   5   4   7 8269.07 443.563   1
   5   4   7 8717.64 688.064   3
  -5  -4  -7 8973.67 709.444   5
   5   4   7 8509.83 643.658   4
   5   4   8 17522.4 1013.36   3
  -5  -4  -8 17383.6 1010.03   5
   5   4   8 18204.3 915.436   4
   5   4   9 6262.23 636.745   3
  -5  -4  -9 5483.86 606.949   5
   5   4   9 5742.05 479.477   4
   5   4  10 11574.8 904.423   3
  -5  -4 -10 10899.5 845.376   5
   5   4  11 24540.9 1377.79   3
  -5  -4 -11 20788.5 1189.57   5
   5   4  12 13449.2 1080.34   3
   5   4  13 3163.53 555.964   3
   5   4  14 903.395 425.673   3
   5   4  15-42.0234 364.799   3
   5   4  16 1374.67 564.398   3
   5   5 -12 8247.78 808.533   4
   5   5 -11 3354.02 593.143   7
   5   5 -11 3016.68 499.360   4
   5   5 -10 14922.2 1150.91   7
   5   5 -10 14490.3 1021.97   4
   5   5  -9-149.025 329.790   7
  -5  -5   9 341.011 268.831   2
   5   5  -9 69.0359 262.410   4
   5   5  -8-82.1054 314.592   7
  -5  -5   8-78.9072 216.861   2
   5   5  -8 353.800 254.434   4
   5   5  -7 5010.05 595.092   7
  -5  -5   7 4115.64 462.767   2
   5   5  -7 4331.28 561.874   4
   5   5  -6 1054.25 341.563   7
  -5  -5   6 719.715 222.931   2
   5   5  -6 870.956 286.997   4
   5   5  -5 3799.41 496.001   7
  -5  -5   5 2976.96 381.360   2
   5   5  -5 2995.38 508.345   4
   5   5  -4 539.777 250.642   7
  -5  -5   4 647.492 228.920   2
   5   5  -4 865.541 317.463   4
   5   5  -3-218.513 225.430   7
  -5  -5   3 461.668 213.631   2
   5   5  -3 246.222 241.763   4
   5   5  -2 14732.1 800.457   7
   5   5  -2 14390.7 987.294   4
   5   5  -1 3266.77 376.182   7
   5   5  -1 3297.88 482.290   4
   5   5   0 1322.80 344.395   4
  -5  -5  -1 26592.0 1136.55   5
   5   5   1 25827.2 1308.21   4
  -5  -5  -2 115614. 2848.64   5
   5   5   2 117490. 3151.29   4
  -5  -5  -3 17199.2 926.471   5
   5   5   3 15536.8 986.625   4
  -5  -5  -4 1815.74 356.558   5
   5   5   4 1356.85 311.595   4
   5   5   5 17889.7 769.514   1
  -5  -5  -5 18450.6 1022.89   5
   5   5   5 18178.3 1003.69   4
   5   5   6 3805.79 349.115   1
  -5  -5  -6 3334.09 453.863   5
   5   5   6 3208.74 425.735   4
   5   5   7 7730.43 473.312   1
  -5  -5  -7 7797.45 705.278   5
   5   5   7 7303.29 593.982   4
  -5  -5  -8 4373.58 554.769   5
   5   5   8 4431.75 436.120   4
   5   5   8 4325.70 359.423   1
  -5  -5  -9 51.9827 279.602   5
   5   5   9 126.870 152.294   4
  -5  -5 -10 1303.24 360.538   5
  -5  -5 -11 653.054 284.153   5
  -5  -5 -12 6215.62 699.422   5
  -5  -5 -13 830.694 408.536   5
  -5  -5 -14 446.948 360.031   5
  -5  -5 -15 7240.82 809.564   5
  -5  -5 -16 366.401 346.309   5
  -5  -5 -17 708.254 382.282   5
   5   6 -12 145.603 262.883   4
   5   6 -11 5472.66 687.799   4
   5   6 -10 321.400 369.737   7
   5   6 -10 113.209 240.289   4
   5   6  -9-107.534 320.819   7
   5   6  -9-32.0436 256.975   4
   5   6  -8 8156.83 824.553   7
   5   6  -8 6424.17 696.722   4
   5   6  -7 31720.7 1549.86   7
   5   6  -7 29132.4 1491.89   4
   5   6  -6 12200.2 918.746   7
   5   6  -6 12110.9 948.484   4
   5   6  -5 15528.9 1007.38   7
   5   6  -5 14294.6 1011.85   4
   5   6  -4 19306.9 1072.99   7
   5   6  -4 17671.9 1112.31   4
   5   6  -3 6109.25 580.592   7
   5   6  -3 5436.69 635.661   4
   5   6  -2 20.2238 183.206   7
   5   6  -2-68.8784 246.716   4
   5   6  -1 5137.79 608.525   4
   5   6   0 1409.34 370.216   4
   5   6   1 880.243 264.579   4
  -5  -6  -2 2041.52 396.234   5
   5   6   2 1800.26 384.842   4
  -5  -6  -3 19274.7 1058.39   5
   5   6   3 16084.9 1020.60   4
  -5  -6  -4 1452.91 358.629   5
   5   6   4 1550.98 330.456   4
   5   6   5 30126.7 1107.79   1
  -5  -6  -5 30403.8 1386.75   5
   5   6   5 28280.9 1297.93   4
   5   6   6 8996.26 583.859   1
  -5  -6  -6 9235.25 754.950   5
   5   6   6 8669.31 666.081   4
  -5  -6  -7 470.765 253.599   5
   5   6   7 561.749 192.051   1
   5   6   7-30.4812 197.145   4
  -5  -6  -8 4606.51 566.829   5
   5   6   8 4989.28 480.447   4
   5   6   8 4457.55 410.491   1
  -5  -6  -9 24024.0 1272.50   5
   5   6   9 22540.5 971.923   4
   5   6   9 23816.9 953.169   1
  -5  -6 -10 9038.54 812.431   5
  -5  -6 -11-407.579 304.093   5
  -5  -6 -12 725.830 348.873   5
  -5  -6 -13 98.1422 311.222   5
  -5  -6 -14 822.062 370.783   5
  -5  -6 -15 6447.47 753.758   5
  -5  -6 -16 72.4293 322.621   5
  -5  -6 -17 386.249 298.304   5
   5   7 -10 880.088 376.261   4
   5   7  -9 393.398 345.407   7
   5   7  -9 78.5606 271.866   4
   5   7  -8 97.2068 309.771   7
   5   7  -8 475.357 349.501   4
   5   7  -7 9435.63 926.886   7
   5   7  -7 8918.04 860.825   4
   5   7  -6 590.400 325.146   7
   5   7  -6 339.789 282.660   4
   5   7  -5 349.693 306.161   7
   5   7  -5 409.728 352.523   4
   5   7  -4 11201.6 847.338   7
   5   7  -4 9893.50 875.915   4
   5   7  -3 7739.45 794.289   4
   5   7  -2 3921.04 562.677   4
   5   7  -1 5678.41 674.228   4
   5   7   0 27227.4 1438.85   4
   5   7   1 9048.55 814.660   4
   5   7   2 4919.94 602.873   4
   5   7   3 12047.9 897.793   4
   5   7   4 2360.04 356.845   1
  -5  -7  -4 1756.83 412.556   5
   5   7   4 1240.04 349.652   4
   5   7   5 14025.8 804.168   1
  -5  -7  -5 13589.8 966.860   5
   5   7   5 13922.4 916.034   4
   5   7   6 6729.97 556.517   1
  -5  -7  -6 6407.13 675.693   5
   5   7   6 6803.58 619.399   4
   5   7   7 290.119 222.470   1
  -5  -7  -7 315.712 273.246   5
   5   7   7 333.754 213.278   4
  -5  -7  -8 11126.6 906.674   5
   5   7   8 10890.8 714.901   4
   5   7   8 11107.5 702.089   1
  -5  -7  -9 6138.54 665.672   5
   5   7   9 6009.67 508.630   4
   5   7   9 6901.87 558.485   1
   5   7  10 259.078 214.371   1
  -5  -7 -10 12.4007 253.231   5
  -5  -7 -11-24.3722 313.714   5
  -5  -7 -12 3087.35 521.689   5
  -5  -7 -13 1389.69 402.487   5
  -5  -7 -14 1058.34 396.867   5
  -5  -7 -15 204.787 306.128   5
  -5  -7 -16 1028.46 423.032   5
   5   8  -8 579.067 352.887   7
   5   8  -8 276.778 315.828   4
   5   8  -7 8053.19 858.429   7
   5   8  -7 6641.85 776.484   4
   5   8  -6 9465.11 908.161   4
   5   8  -5 5005.53 690.782   4
   5   8  -4 2316.78 500.605   4
   5   8  -3 2469.88 513.279   4
   5   8  -2 2953.58 567.776   4
   5   8  -1 10343.4 940.509   4
   5   8   0 7982.49 819.564   4
   5   8   1 6114.14 699.024   4
   5   8   2 527.321 328.066   4
   5   8   2 472.546 275.266   1
   5   8   3 3781.19 467.371   1
   5   8   3 3063.60 510.647   4
   5   8   4 4220.44 574.814   4
   5   8   4 4868.32 518.386   1
   5   8   5 5308.02 538.551   1
   5   8   5 5441.08 627.028   4
  -5  -8  -6 234.791 305.971   5
   5   8   6 590.596 264.487   1
   5   8   6 769.276 290.069   4
   5   8   7 22076.7 1066.94   1
  -5  -8  -7 20033.6 1216.91   5
   5   8   7 19969.4 1078.57   4
  -5  -8  -8 210.627 285.196   5
   5   8   8 347.049 227.124   4
   5   8   8 199.327 221.921   1
  -5  -8  -9-327.599 343.603   5
   5   8   9 102.832 211.625   1
  -5  -8 -10 591.036 336.810   5
   5   8  10 1348.17 324.520   1
   5   8  11 57.0769 208.529   1
  -5  -8 -11 68.1587 269.077   5
  -5  -8 -12 4159.27 599.213   5
  -5  -8 -13 4662.23 651.314   5
  -5  -8 -14-125.769 310.708   5
  -5  -8 -15-68.8180 296.494   5
  -5  -8 -16 582.252 370.906   5
   5   9  -6 1601.53 471.221   4
   5   9  -5 5011.32 703.728   4
   5   9  -4-115.882 298.607   4
   5   9  -3 4429.43 710.531   4
   5   9  -2 12152.2 1063.23   4
   5   9  -1 2562.07 536.439   4
   5   9   0-37.7170 319.263   4
   5   9   1 1017.79 321.469   1
   5   9   1 1023.72 412.390   4
   5   9   2 2426.80 436.657   1
   5   9   2 2290.88 515.222   4
   5   9   3 4914.45 597.954   1
   5   9   3 5045.78 676.124   4
   5   9   4 9093.10 757.368   1
   5   9   4 7469.65 797.674   4
   5   9   5 2742.63 468.856   4
   5   9   5 3716.35 498.934   1
   5   9   6 6246.34 615.237   1
   5   9   6 6021.64 645.479   4
   5   9   7 6599.67 639.593   1
   5   9   7 6750.56 652.597   4
  -5  -9  -8 1053.01 403.214   5
   5   9   8 1112.90 315.019   4
   5   9   8 922.026 279.901   1
  -5  -9  -9 53.5171 287.649   5
   5   9   9-150.985 238.271   1
  -5  -9 -10 1519.31 426.510   5
   5   9  10 1774.66 383.115   1
   5   9  11 104.496 251.695   1
  -5  -9 -11-269.867 338.904   5
  -5  -9 -12-294.067 344.022   5
  -5  -9 -13 1755.16 490.802   5
  -5  -9 -14 601.009 360.248   5
  -5  -9 -15-508.690 401.761   5
   5  10  -4 2422.19 565.760   4
   5  10  -3 5082.65 686.916   1
   5  10  -3 5582.38 789.565   4
   5  10  -2 11750.5 995.593   1
   5  10  -2 12714.8 1155.03   4
   5  10  -1 2467.40 494.461   1
   5  10  -1 2416.72 559.480   4
   5  10   0 87.5688 307.292   1
   5  10   0 328.160 334.163   4
   5  10   1 2662.81 511.148   1
   5  10   1 2012.71 475.138   4
   5  10   2-665.258 346.248   1
   5  10   2-85.8483 325.670   4
   5  10   3 588.953 338.803   1
   5  10   3 345.504 315.685   4
   5  10   4 264.805 295.885   4
   5  10   4-298.149 310.810   1
   5  10   5 3620.54 527.322   1
   5  10   5 2557.06 481.563   4
   5  10   6 38.5368 255.380   1
   5  10   6 680.840 306.986   4
   5  10   7-251.216 280.682   1
   5  10   7-112.595 233.766   4
   5  10   8 8.32349 214.989   4
   5  10   8-207.109 298.363   1
   5  10   9 281.945 287.672   1
   5  10  10 8753.34 808.916   1
   5  10  11 55.6691 243.694   1
  -5 -10 -11 605.404 405.154   5
   5  10  12-264.557 295.005   1
  -5 -10 -12 53.8338 288.153   5
  -5 -10 -13 846.024 404.049   5
  -5 -10 -14 1250.66 464.956   5
   5  11  -1 2188.40 546.758   4
   5  11  -1 1522.75 516.478   1
   5  11   0-32.6069 327.294   1
   5  11   0-74.5793 358.627   4
   5  11   1 4794.79 697.830   1
   5  11   1 5163.97 826.200   4
   5  11   2 4770.35 734.612   4
   5  11   2 5220.55 699.930   1
   5  11   3 636.923 384.410   1
   5  11   3 190.984 320.751   4
   5  11   4 1820.34 449.622   1
   5  11   4 2736.01 579.172   4
   5  11   5 8992.22 851.499   1
   5  11   5 9078.48 921.138   4
   5  11   6 1537.17 429.514   1
   5  11   6 1221.89 437.393   4
   5  11   7 890.276 365.902   4
   5  11   7-34.5828 274.819   1
   5  11   8-148.829 314.981   1
   5  11   9-198.229 296.298   1
   5  11  10-24.4489 309.123   1
   5  11  11-354.620 294.665   1
   5  11  12 4.71030 270.190   1
   5  12   3 628.202 429.215   4
   5  12   4 117.033 370.679   4
   5  12   5-134.216 320.483   4
   5  12   6 1014.81 418.611   4
   5  12   7 425.259 323.769   4
   5  12   7 306.689 328.197   1
   6  -5  -6-492.729 440.884   4
   6  -5  -5 3101.87 688.812   4
   6  -5  -4 1087.77 475.495   4
   6  -5  -3 297.662 376.314   4
   6  -5  -2-74.1515 413.479   4
   6  -5  -1 1495.92 556.650   4
   6  -5   0 973.335 505.281   4
   6  -5   1 1819.80 575.779   4
   6  -5   2 930.472 462.437   4
   6  -5   3 1928.65 583.993   4
   6  -5   4 1462.10 608.442   4
   6  -5   5 624.966 383.568   3
   6  -5   6 666.269 395.561   3
   6  -4  -9 856.490 399.447   4
   6  -4  -8-8.23807 325.408   4
   6  -4  -7 1267.35 476.602   4
   6  -4  -6-119.986 399.093   4
   6  -4  -5 1969.28 533.937   4
   6  -4  -4-316.950 391.203   4
   6  -4  -3 621.145 394.621   4
   6  -4  -2 357.231 337.198   4
   6  -4  -1 5375.38 797.830   4
   6  -4   0 113.992 363.257   4
   6  -4   1 2232.05 570.181   4
   6  -4   2 2919.64 661.638   4
   6  -4   3 4080.40 738.041   4
   6  -4   4 1109.63 474.671   4
   6  -4   4 313.173 305.768   3
   6  -4   5 1828.24 567.035   4
   6  -4   5 1146.17 410.748   3
   6  -4   6 677.896 451.496   4
   6  -4   6 172.968 315.554   3
   6  -4   7 217.035 388.856   4
   6  -4   7 28.9935 364.938   3
   6  -4   8 2510.16 598.819   4
   6  -4   8 1855.43 535.022   3
   6  -4   9 376.976 377.361   4
   6  -3 -11 976.291 407.217   6
   6  -3 -11 933.465 366.357   4
   6  -3 -10 506.507 338.589   6
   6  -3 -10 670.982 376.713   4
   6  -3  -9 53.5464 306.143   4
   6  -3  -8 229.572 335.408   4
   6  -3  -7 3433.61 631.335   4
   6  -3  -6 2611.59 575.221   4
   6  -3  -5 152.722 304.936   4
   6  -3  -4-233.863 333.150   4
   6  -3  -3 1608.18 481.081   4
   6  -3  -2 4506.98 706.158   4
   6  -3  -1 2496.74 555.855   4
   6  -3   0 134.400 347.730   4
   6  -3   1 2136.23 525.378   4
   6  -3   2 4581.81 727.640   4
   6  -3   3 6844.62 678.999   3
   6  -3   3 7583.81 887.486   4
   6  -3   4 436.159 388.000   4
   6  -3   4 773.947 328.354   3
   6  -3   5-37.2924 299.787   4
   6  -3   5 138.653 281.934   3
   6  -3   6 7185.44 871.740   4
   6  -3   6 8029.43 839.240   3
   6  -3   7 3078.92 622.534   4
   6  -3   7 2894.22 596.306   3
   6  -3   8-68.5635 289.315   4
   6  -3   8-139.928 343.496   3
   6  -3   9 794.053 380.388   4
   6  -3   9 1327.15 459.414   3
   6  -3  10-88.7447 332.634   3
   6  -2 -11 991.050 440.378   6
   6  -2 -11 1100.99 397.921   4
   6  -2 -10 3509.49 559.961   6
   6  -2 -10 2992.74 561.625   4
   6  -2  -9 244.996 252.689   6
   6  -2  -9 147.289 310.333   4
   6  -2  -8 203.132 261.971   6
   6  -2  -8-101.081 285.372   4
   6  -2  -7 4667.08 674.963   4
   6  -2  -7 4794.03 571.193   6
   6  -2  -6 711.154 392.478   4
   6  -2  -5 271.582 315.481   4
   6  -2  -4 1978.92 505.123   4
   6  -2  -3 6812.92 810.374   4
   6  -2  -2 462.849 319.004   4
   6  -2  -1 1547.14 417.357   4
   6  -2   0 5653.51 739.910   4
   6  -2   1 920.502 385.775   4
   6  -2   2 1276.21 453.655   4
   6  -2   3-38.5859 296.746   4
   6  -2   3-321.550 248.658   3
   6  -2   4 12.9302 311.728   4
   6  -2   4 30.7099 237.889   3
   6  -2   5 3700.05 603.498   4
   6  -2   5 3867.76 536.780   3
   6  -2   6 11117.9 928.256   3
   6  -2   6 11637.9 1012.82   4
   6  -2   7 579.309 325.266   4
   6  -2   7-535.907 378.137   3
   6  -2   8 249.802 341.527   4
   6  -2   8-405.938 351.242   3
   6  -2   9 5527.94 709.302   4
   6  -2   9 5630.69 747.473   3
   6  -2  10 891.005 447.813   3
   6  -2  11 566.691 398.704   3
  -6   1  11 591.161 398.869   2
   6  -1 -11 153.685 247.313   4
   6  -1 -10 1862.09 448.895   6
  -6   1  10 1886.01 558.241   2
   6  -1 -10 1644.69 450.980   4
   6  -1  -9 5948.19 664.257   6
   6  -1  -9 4293.81 638.411   4
   6  -1  -8 992.516 328.875   6
   6  -1  -8 259.851 268.280   4
   6  -1  -7 270.250 272.113   6
   6  -1  -7 364.783 311.033   4
   6  -1  -6 268.003 272.993   4
   6  -1  -6 351.443 242.468   6
   6  -1  -5 404.758 325.061   4
   6  -1  -4 4581.78 672.441   4
   6  -1  -3 6817.49 770.812   4
   6  -1  -2 1583.69 416.426   4
   6  -1  -1 1448.91 400.702   4
   6  -1   0 18119.9 1207.47   4
   6  -1   1-22.9913 272.470   4
   6  -1   2-133.492 323.033   4
   6  -1   3 857.319 354.817   4
   6  -1   3 1374.38 313.111   3
   6  -1   4 18122.4 1031.57   3
   6  -1   4 18076.8 1177.15   4
   6  -1   5 254.273 285.696   4
   6  -1   5 771.075 266.538   3
   6  -1   6 471.422 289.311   4
   6  -1   6 901.135 347.640   3
   6  -1   7 2707.93 481.347   4
   6  -1   7 3636.32 566.420   3
   6  -1   8 2009.76 434.248   4
   6  -1   8 2449.68 511.210   3
   6  -1   9 1050.62 371.389   4
   6  -1   9 1290.48 420.845   3
   6  -1  10 5121.02 739.717   3
   6  -1  11 321.843 385.808   3
   6  -1  12 1591.88 483.564   3
  -6   0  11 311.614 401.523   2
   6   0 -11-87.6092 259.036   4
  -6   0  10 1946.12 446.814   2
   6   0 -10 1793.88 447.121   4
   6   0  -9 8842.94 882.349   4
   6   0  -8 1525.86 444.968   4
   6   0  -7 1089.69 382.172   4
   6   0  -6 3375.42 564.422   4
   6   0  -5 11114.3 946.651   4
   6   0  -4 230.638 272.237   4
   6   0  -3 1531.10 421.928   4
   6   0  -2 2518.66 502.707   4
   6   0  -1 5629.99 668.499   4
   6   0   0 1056.16 404.044   4
  -6   0   0 525.422 159.243   5
   6   0   1 3147.43 518.835   4
  -6   0  -1 2949.75 356.063   5
   6   0   2 2211.64 493.123   4
  -6   0  -2 2054.46 309.588   5
   6   0   2 1794.32 302.082   3
   6   0   3 14840.5 857.551   3
   6   0   3 16299.7 1083.37   4
   6   0   4 14925.9 895.574   3
   6   0   4 15219.3 1036.73   4
   6   0   5 1417.05 366.878   4
   6   0   5 2325.59 396.963   3
   6   0   6 1833.01 377.274   4
   6   0   6 2544.66 444.412   3
   6   0   7 7272.83 702.914   4
   6   0   7 8288.47 758.961   3
   6   0   8 1899.05 401.457   4
   6   0   8 2929.96 542.069   3
   6   0   9 737.588 302.178   4
   6   0   9 1182.02 416.019   3
   6   0  10 521.794 393.276   3
   6   0  11 5089.23 752.711   3
   6   0  12-756.453 401.432   3
   6   0  13 237.777 357.731   3
   6   1 -12 339.414 286.296   4
  -6  -1  11 876.909 394.980   2
   6   1 -11 1429.36 445.190   4
  -6  -1  10 5650.42 684.305   2
   6   1 -10 5073.12 670.542   4
  -6  -1   9 2183.36 446.346   2
   6   1  -9 1503.41 424.314   4
   6   1  -8 248.636 279.105   4
   6   1  -7 147.986 266.510   4
   6   1  -6 8692.44 850.127   4
   6   1  -5 8004.86 787.255   4
   6   1  -4 8204.78 823.844   4
   6   1  -3 5727.43 678.204   4
   6   1  -2 14422.3 1018.27   4
   6   1  -1 1360.81 382.307   4
  -6  -1   1 1737.17 248.187   5
   6   1   0 1007.98 358.977   4
  -6  -1   0 991.641 221.446   5
   6   1   1 1973.11 424.395   4
  -6  -1  -1 1967.25 306.458   5
   6   1   2 8647.11 544.102   3
  -6  -1  -2 9235.90 632.481   5
   6   1   2 9841.77 825.776   4
   6   1   3 2794.60 479.264   4
   6   1   3 2077.14 305.241   3
  -6  -1  -3 2144.24 340.509   5
   6   1   4 1131.51 366.865   4
   6   1   4 813.241 248.328   3
  -6  -1  -4 889.208 273.161   5
   6   1   5 1080.67 344.092   4
   6   1   5 1474.95 324.456   3
   6   1   6 312.424 257.558   4
   6   1   6 800.783 317.853   3
   6   1   7 9392.92 780.689   3
   6   1   7 9281.97 783.990   4
   6   1   8 1445.70 352.724   4
   6   1   8 1585.59 409.771   3
   6   1   9 1230.16 372.075   4
   6   1   9 886.051 363.230   3
   6   1  10 12983.0 1036.09   3
   6   1  11 11370.4 1023.42   3
   6   1  12 4165.00 674.974   3
   6   1  13 473.219 402.245   3
   6   1  14-7.54539 367.873   3
  -6  -2  12 1935.87 458.612   2
   6   2 -12 3094.60 518.846   4
  -6  -2  11 3903.26 621.061   2
   6   2 -11 5069.08 661.988   4
  -6  -2  10 3363.19 564.429   2
   6   2 -10 2827.63 504.699   4
  -6  -2   9 508.852 319.056   2
   6   2  -9-278.118 271.280   4
  -6  -2   8 5679.06 657.005   2
   6   2  -8 5460.97 690.592   4
   6   2  -7 3512.13 579.944   4
   6   2  -6 1027.45 383.980   4
   6   2  -5-164.902 292.794   4
   6   2  -4 6638.82 716.838   4
   6   2  -3 152.326 251.248   4
   6   2  -2 6544.40 479.684   7
   6   2  -2 5720.86 657.666   4
   6   2  -1 3627.53 328.839   7
  -6  -2   1 3454.70 360.050   5
   6   2  -1 3975.85 546.386   4
  -6  -2   0 4844.58 426.865   5
   6   2   0 4804.56 605.675   4
  -6  -2  -1 6569.19 505.471   5
   6   2   1 6916.00 684.388   4
  -6  -2  -2 45452.5 1515.17   5
   6   2   2 43445.2 1782.21   4
   6   2   3 19014.2 848.149   3
  -6  -2  -3 20043.6 991.544   5
   6   2   3 18702.2 1126.06   4
   6   2   4 3347.74 475.596   4
   6   2   4 4090.79 420.136   3
  -6  -2  -4 4600.54 509.871   5
   6   2   5 12163.5 763.604   3
  -6  -2  -5 11832.3 802.880   5
   6   2   5 11349.9 857.551   4
   6   2   6 237.878 218.066   4
   6   2   6 276.975 231.707   3
  -6  -2  -6 257.822 245.484   5
   6   2   7 1548.53 350.987   4
   6   2   7 1963.66 395.844   3
   6   2   8 611.151 279.606   4
   6   2   8 249.805 292.838   3
   6   2   9 3102.06 533.095   3
   6   2   9 3115.75 447.822   4
   6   2  10 614.632 386.800   3
   6   2  11 3931.79 618.193   3
   6   2  12 448.618 353.262   3
   6   2  13 1474.52 505.964   3
   6   2  14 6456.47 868.654   3
  -6  -3  12 1713.93 437.175   2
   6   3 -12 1654.84 403.833   4
  -6  -3  11 1148.38 389.470   2
   6   3 -11 1006.95 363.946   4
  -6  -3  10 335.838 324.029   2
   6   3 -10 114.236 241.885   4
  -6  -3   9 577.403 332.661   2
   6   3  -9 412.208 311.059   4
  -6  -3   8 2791.29 473.067   2
   6   3  -8 2890.30 526.107   4
  -6  -3   7 29329.0 1355.49   2
   6   3  -7 29412.4 1548.94   4
   6   3  -6 2903.62 503.946   4
   6   3  -5 17856.1 996.533   7
   6   3  -5 19138.6 1215.53   4
   6   3  -4 19063.8 982.319   7
   6   3  -4 18048.9 1188.98   4
   6   3  -3 1740.45 311.565   7
   6   3  -3 1968.82 460.332   4
   6   3  -2-201.187 175.970   7
   6   3  -2 371.882 354.263   4
   6   3  -1 264.269 151.210   7
  -6  -3   1 361.911 185.810   5
   6   3  -1 703.484 315.678   4
   6   3   0 5303.96 386.950   7
  -6  -3   0 5223.46 453.136   5
   6   3   0 4230.12 595.971   4
  -6  -3  -1 2644.18 354.584   5
   6   3   1 2485.88 451.205   4
  -6  -3  -2 149.481 184.593   5
   6   3   2-3.91478 244.142   4
  -6  -3  -3 93.0659 189.071   5
   6   3   3 97.7472 231.959   4
  -6  -3  -4 31.2339 212.712   5
   6   3   4 148.744 252.923   4
   6   3   5 17942.8 901.300   3
  -6  -3  -5 19333.2 1038.07   5
   6   3   5 17142.3 1046.79   4
   6   3   6 3661.73 453.420   3
  -6  -3  -6 3525.82 500.657   5
   6   3   6 2644.96 449.642   4
   6   3   7 9448.90 722.532   3
  -6  -3  -7 8690.50 732.881   5
   6   3   7 8744.08 725.784   4
   6   3   8 11389.1 840.436   3
  -6  -3  -8 10029.7 800.896   5
   6   3   8 10597.3 787.231   4
   6   3   9 10298.0 850.049   3
  -6  -3  -9 7628.83 725.297   5
   6   3   9 9966.37 741.052   4
   6   3  10 2144.41 456.241   3
   6   3  11 6202.15 738.369   3
   6   3  12 3358.06 627.312   3
   6   3  13 1285.34 467.130   3
   6   3  14 2183.51 596.584   3
   6   3  15 1600.48 521.862   3
   6   4 -12 4523.82 635.555   4
   6   4 -11-27.8917 341.711   7
  -6  -4  11-515.687 354.957   2
   6   4 -11 293.740 313.606   4
   6   4 -10 1010.57 322.144   7
  -6  -4  10 718.111 290.060   2
   6   4 -10 1778.03 445.461   4
   6   4  -9 85.2363 295.646   7
  -6  -4   9 181.377 260.421   2
   6   4  -9 74.0007 259.035   4
   6   4  -8 632.135 277.976   7
  -6  -4   8 1130.01 322.552   2
   6   4  -8 1308.55 395.096   4
   6   4  -7 350.547 275.986   7
  -6  -4   7 255.626 245.179   2
   6   4  -7 500.629 319.884   4
   6   4  -6 2766.28 449.493   7
  -6  -4   6 3214.29 464.592   2
   6   4  -6 2329.65 487.940   4
   6   4  -5 84.5223 240.262   7
   6   4  -5 228.980 304.104   4
   6   4  -4 10637.3 728.987   7
   6   4  -4 10127.6 910.609   4
   6   4  -3 900.061 245.196   7
   6   4  -3 1422.53 435.283   4
   6   4  -2 7038.59 542.531   7
   6   4  -2 6590.57 725.612   4
   6   4  -1 22796.3 943.905   7
   6   4  -1 20677.2 1277.29   4
   6   4   0 24568.1 947.354   7
  -6  -4   0 24192.5 1086.55   5
   6   4   0 25767.2 1391.75   4
  -6  -4  -1 13466.9 804.653   5
   6   4   1 15248.0 1064.98   4
  -6  -4  -2 6060.23 566.175   5
   6   4   2 6632.76 711.950   4
  -6  -4  -3 8041.24 652.435   5
   6   4   3 9191.14 807.860   4
  -6  -4  -4 10101.6 755.616   5
   6   4   4 9829.44 835.356   4
  -6  -4  -5 4495.20 561.399   5
   6   4   5 4697.39 573.626   4
  -6  -4  -6 5753.63 600.960   5
   6   4   6 5194.53 587.970   4
  -6  -4  -7 229.854 261.559   5
   6   4   7-306.044 276.974   4
   6   4   8 7236.71 666.508   3
  -6  -4  -8 6933.63 679.641   5
   6   4   8 6617.03 614.455   4
   6   4   9 547.420 281.763   3
  -6  -4  -9 697.330 331.906   5
   6   4   9 1034.83 281.093   4
   6   4  10 613.145 384.775   3
  -6  -4 -10 345.743 321.003   5
   6   4  11 482.373 339.613   3
  -6  -4 -11 323.126 321.429   5
   6   4  12 10450.4 959.702   3
  -6  -4 -12 9235.56 890.662   5
   6   4  13 5106.91 701.796   3
  -6  -4 -13 6139.01 745.785   5
   6   4  14 294.141 432.830   3
  -6  -4 -14 367.342 375.766   5
   6   4  15 4153.80 728.193   3
  -6  -4 -15 3062.85 588.370   5
   6   5 -11 746.378 335.022   4
   6   5 -10 3159.15 562.891   7
   6   5 -10 3863.09 612.887   4
   6   5  -9 21888.9 1365.61   7
   6   5  -9 20680.1 1304.14   4
   6   5  -8 1999.82 433.594   7
   6   5  -8 1814.94 414.592   4
   6   5  -7 3914.62 570.849   7
   6   5  -7 3823.58 587.046   4
   6   5  -6 17714.7 1100.65   7
   6   5  -6 16102.0 1121.14   4
  -6  -5   5 7626.94 627.839   2
   6   5  -5 8434.87 716.857   7
   6   5  -5 7812.38 777.773   4
   6   5  -4 4048.33 485.473   7
  -6  -5   4 4149.78 458.736   2
   6   5  -4 3683.97 559.287   4
   6   5  -3 1867.58 329.890   7
   6   5  -3 2267.82 477.751   4
   6   5  -2 1512.63 306.641   7
   6   5  -2 1839.68 436.546   4
   6   5  -1 15866.2 829.261   7
   6   5  -1 15826.3 1123.57   4
   6   5   0 5686.47 698.007   4
  -6  -5  -1 178.054 197.999   5
   6   5   1 376.293 319.487   4
  -6  -5  -2 806.640 273.794   5
   6   5   2 1307.41 412.738   4
  -6  -5  -3 31633.7 1388.60   5
   6   5   3 31811.6 1570.45   4
  -6  -5  -4 5955.08 615.531   5
   6   5   4 4924.92 605.238   4
  -6  -5  -5 5219.82 600.214   5
   6   5   5 5373.94 621.241   4
   6   5   6 8369.12 537.915   1
  -6  -5  -6 9480.50 819.728   5
   6   5   6 9100.41 773.386   4
  -6  -5  -7 29408.1 1417.01   5
   6   5   7 26432.7 1301.25   4
  -6  -5  -8 772.795 306.580   5
   6   5   8 723.784 275.956   4
  -6  -5  -9 429.339 266.109   5
   6   5   9 1043.39 265.067   4
  -6  -5 -10 90.8907 268.548   5
  -6  -5 -11 240.946 268.835   5
  -6  -5 -12 1320.33 431.332   5
  -6  -5 -13 707.052 385.844   5
  -6  -5 -14 3467.36 630.510   5
  -6  -5 -15 2352.59 533.956   5
   6   6  -9 5790.35 776.362   7
   6   6  -9 4723.47 662.376   4
   6   6  -8 680.058 347.521   7
   6   6  -8 495.160 324.271   4
   6   6  -7 1453.71 424.707   7
   6   6  -7 1746.22 461.257   4
   6   6  -6 6527.51 700.355   7
   6   6  -6 5526.59 701.822   4
   6   6  -5 778.788 292.407   7
   6   6  -5 977.529 382.716   4
   6   6  -4 1663.67 350.653   7
   6   6  -4 1955.25 460.979   4
   6   6  -3 21088.5 1115.76   7
   6   6  -3 20738.1 1318.30   4
   6   6  -2 23578.5 1372.77   4
   6   6  -1 3532.89 566.563   4
   6   6   0 8320.42 839.062   4
   6   6   1 1063.56 376.078   4
  -6  -6  -2 194.123 244.869   5
   6   6   2 11.9092 306.034   4
  -6  -6  -3 534.702 267.937   5
   6   6   3 276.757 265.998   4
  -6  -6  -4 6310.71 654.881   5
   6   6   4 6209.02 674.146   4
   6   6   5 633.342 236.527   1
  -6  -6  -5 273.502 247.684   5
   6   6   5 454.138 287.557   4
   6   6   6 8657.65 595.622   1
  -6  -6  -6 8984.62 805.296   5
   6   6   6 7844.99 730.364   4
   6   6   7 17568.2 827.945   1
  -6  -6  -7 17208.4 1103.53   5
   6   6   7 15970.4 986.909   4
  -6  -6  -8 406.757 360.536   5
   6   6   8 815.644 277.222   4
  -6  -6  -9 427.922 341.310   5
  -6  -6 -10 6061.59 719.472   5
  -6  -6 -11 290.428 307.559   5
  -6  -6 -12 487.739 304.637   5
  -6  -6 -13 2294.42 549.570   5
  -6  -6 -14 4049.69 654.031   5
  -6  -6 -15 271.999 364.193   5
   6   7  -8 2152.87 505.759   7
   6   7  -8 2106.12 468.309   4
   6   7  -7 4098.01 611.185   7
   6   7  -7 2684.58 526.792   4
   6   7  -6 5430.85 662.062   7
   6   7  -6 5088.30 695.493   4
   6   7  -5 86.1578 250.772   7
   6   7  -5-135.950 305.600   4
   6   7  -4 342.891 268.187   7
   6   7  -4 178.607 289.321   4
   6   7  -3 12085.1 1025.99   4
   6   7  -2 12937.0 1070.86   4
   6   7  -1 152.420 276.390   4
   6   7   0 10998.4 966.069   4
   6   7   1 9957.49 929.717   4
   6   7   2-63.2164 283.668   4
   6   7   3 194.226 270.241   4
   6   7   4 10681.1 728.975   1
  -6  -7  -4 11643.0 928.095   5
   6   7   4 9982.28 869.922   4
   6   7   5 35751.4 1365.55   1
  -6  -7  -5 36449.5 1651.51   5
   6   7   5 32988.9 1584.50   4
   6   7   6 757.127 256.252   1
  -6  -7  -6 277.850 302.599   5
   6   7   6 432.418 256.372   4
  -6  -7  -7-109.203 297.498   5
   6   7   7 314.983 219.475   1
   6   7   7-113.895 212.235   4
   6   7   8 508.838 213.605   1
  -6  -7  -8 757.960 399.038   5
   6   7   8 787.218 287.469   4
  -6  -7  -9 191.072 302.779   5
  -6  -7 -10 11306.3 954.066   5
  -6  -7 -11 1199.69 400.932   5
  -6  -7 -12 258.120 339.867   5
  -6  -7 -13 1482.30 425.668   5
  -6  -7 -14 1032.05 405.626   5
   6   8  -6 661.376 363.119   4
   6   8  -5 10968.9 1020.22   4
   6   8  -4 7482.80 867.914   4
   6   8  -3 552.882 393.153   4
   6   8  -2 4995.55 728.146   4
   6   8  -1 4197.24 677.553   4
   6   8   0 708.094 372.777   4
   6   8   1 7006.11 843.371   4
   6   8   2 2344.21 514.500   4
   6   8   3 8747.47 729.290   1
   6   8   3 9670.75 887.556   4
   6   8   4 2929.15 435.104   1
   6   8   4 2543.32 518.581   4
  -6  -8  -5 4741.15 676.110   5
   6   8   5 4334.21 521.589   1
   6   8   5 4061.35 572.388   4
   6   8   6 5128.88 535.441   1
  -6  -8  -6 5478.25 711.983   5
   6   8   6 4787.95 597.695   4
  -6  -8  -7 138.093 285.876   5
   6   8   7 160.119 212.523   1
   6   8   7-67.2078 212.693   4
   6   8   8 7290.26 621.416   1
  -6  -8  -8 8249.91 879.886   5
   6   8   8 7651.08 687.485   4
  -6  -8  -9 86.8072 306.749   5
  -6  -8 -10 507.349 355.767   5
  -6  -8 -11 253.870 390.138   5
  -6  -8 -12 4022.92 645.565   5
  -6  -8 -13 79.5582 330.280   5
  -6  -8 -14-268.593 364.962   5
   6   9  -4 12850.9 1155.12   4
   6   9  -3 282.200 339.123   4
   6   9  -2 6661.74 871.551   4
   6   9  -1 7032.51 868.287   4
   6   9   0 477.019 429.828   4
   6   9   1-409.515 364.937   4
   6   9   2 4588.75 693.733   4
   6   9   2 3975.47 540.076   1
   6   9   3 930.490 349.220   1
   6   9   3 873.029 382.588   4
   6   9   4 348.055 262.711   1
   6   9   4 590.883 330.109   4
   6   9   5 1174.40 329.575   1
   6   9   5 1254.47 402.129   4
   6   9   6 2316.80 419.022   1
   6   9   6 1932.02 424.190   4
  -6  -9  -7 303.033 353.820   5
   6   9   7 213.199 247.634   1
   6   9   7 380.862 322.454   4
   6   9   8 18132.1 1052.41   1
  -6  -9  -8 19961.3 1346.57   5
   6   9   8 16197.5 1037.94   4
  -6  -9  -9 773.304 381.249   5
   6   9   9 264.747 258.982   1
  -6  -9 -10 1311.39 447.804   5
  -6  -9 -11 3447.89 614.058   5
  -6  -9 -12 2459.24 553.147   5
  -6  -9 -13 261.905 342.042   5
   6  10  -2 834.538 464.548   4
   6  10  -1 5852.57 720.630   1
   6  10  -1 4409.72 753.981   4
   6  10   0 358.977 321.412   1
   6  10   0-387.204 447.033   4
   6  10   1 5334.50 823.041   4
   6  10   1 6123.31 722.188   1
   6  10   2 11116.1 935.575   1
   6  10   2 11376.2 1128.08   4
   6  10   3 3820.78 591.268   1
   6  10   3 3138.99 632.076   4
   6  10   4 397.496 283.912   1
   6  10   4 858.499 385.634   4
   6  10   5 569.379 317.826   4
   6  10   5 1132.08 379.391   1
   6  10   6 33.5507 253.081   1
   6  10   6-551.427 315.066   4
   6  10   7-22.1796 291.937   1
   6  10   7 657.765 313.378   4
   6  10   8-155.918 259.587   1
   6  10   9 559.300 332.033   1
  -6 -10 -10 1958.91 533.827   5
  -6 -10 -11 2267.31 560.881   5
   6  11   1-78.0624 425.010   4
   6  11   2 1214.59 442.730   1
   6  11   2 723.462 395.152   4
   6  11   3-54.2914 319.306   1
   6  11   3 91.2472 352.418   4
   6  11   4-45.7126 284.313   1
   6  11   4-626.842 417.689   4
   6  11   5 430.795 315.485   1
   6  11   5 115.559 288.999   4
   6  11   6 2381.21 498.369   1
   6  11   6 1550.06 431.623   4
   6  11   7 330.433 292.705   1
   6  11   7 142.133 267.566   4
   6  11   8 1165.33 392.222   1
   6  11   9 3061.04 539.531   1
   6  11  10 2020.86 467.834   1
   6  12   6-244.485 320.022   4
   7  -3  -3 200.035 361.932   4
   7  -3  -2 4747.51 794.328   4
   7  -3  -1-112.935 393.378   4
   7  -3   0 474.789 479.607   4
   7  -3   1-491.073 425.310   4
   7  -3   2 500.869 452.053   4
   7  -3   3-47.4604 455.038   4
   7  -3   4 1837.13 557.597   4
   7  -3   5-371.750 486.197   4
   7  -2  -6 2454.81 597.535   4
   7  -2  -5 1017.81 436.357   4
   7  -2  -4 1363.93 479.600   4
   7  -2  -3 2839.80 653.038   4
   7  -2  -2 7457.76 955.465   4
   7  -2  -1 123.116 362.170   4
   7  -2   0 210.953 418.576   4
   7  -2   1 2966.24 622.035   4
   7  -2   2 602.433 429.454   4
   7  -2   3-291.704 409.128   4
   7  -2   4 1718.06 461.408   4
   7  -2   5 535.690 378.728   4
   7  -2   6-291.683 368.133   4
   7  -2   7-116.405 328.712   4
   7  -2   8-171.631 441.283   4
   7  -2   8 673.131 341.284   3
   7  -2   9 187.421 349.442   3
   7  -1  -8 3108.30 627.606   4
   7  -1  -7 252.407 339.315   4
   7  -1  -6 231.166 325.969   4
   7  -1  -5 151.403 330.991   4
   7  -1  -4 2307.35 561.995   4
   7  -1  -3 1008.83 410.861   4
   7  -1  -2 246.410 348.465   4
   7  -1  -1 366.437 405.528   4
   7  -1   0-109.124 340.602   4
   7  -1   1 12117.8 1100.58   4
   7  -1   2 4048.79 681.572   4
   7  -1   3-143.530 322.561   4
   7  -1   4 407.697 314.775   4
   7  -1   5 2336.61 572.769   4
   7  -1   6 2917.55 594.134   4
   7  -1   7 42.9346 307.239   4
   7  -1   7 21.3315 313.385   3
   7  -1   8-132.270 300.564   4
   7  -1   8-219.398 400.098   3
   7  -1   9 847.503 382.831   4
   7  -1   9 620.322 410.155   3
   7  -1  10-89.0039 369.501   3
   7   0  -9-28.7846 275.195   4
   7   0  -8 3770.83 638.776   4
   7   0  -7 5442.03 789.363   4
   7   0  -6 64.9817 298.435   4
   7   0  -5 2605.20 595.434   4
   7   0  -4 7435.35 880.980   4
   7   0  -3-87.7432 324.327   4
   7   0  -2-77.2948 310.370   4
   7   0  -1 7554.85 848.483   4
   7   0   0 863.959 431.473   4
   7   0   1 1470.90 446.957   4
   7   0   2 1229.08 413.243   4
   7   0   3 2018.26 513.466   4
   7   0   4 207.572 343.739   4
  -7   0  -4 472.346 231.288   5
   7   0   5 2578.84 537.913   4
   7   0   6-326.313 357.151   4
   7   0   7 4014.77 615.340   4
   7   0   7 2942.24 511.919   3
   7   0   8 5299.04 700.890   4
   7   0   8 4180.59 640.100   3
   7   0   9 5341.51 719.818   4
   7   0   9 6244.57 766.563   3
   7   0  10 369.143 353.551   3
   7   0  11-102.082 349.978   3
  -7  -1   9 508.761 432.781   2
   7   1  -9 12.6785 324.632   4
   7   1  -8 51.1862 274.692   4
   7   1  -7 656.775 353.448   4
   7   1  -6 2813.18 563.187   4
   7   1  -5 1165.67 414.966   4
   7   1  -4 305.463 386.299   4
   7   1  -3 39.7267 301.535   4
   7   1  -2 1560.76 417.477   4
   7   1  -1 11899.7 1028.17   4
   7   1   0 8378.55 864.819   4
   7   1   1 1591.20 455.515   4
   7   1   2 6029.73 750.863   4
  -7  -1  -3 12066.9 801.844   5
   7   1   3 11735.2 987.682   4
   7   1   4 737.328 378.011   4
  -7  -1  -4 1082.99 317.157   5
   7   1   5 851.874 358.750   4
  -7  -1  -5 973.117 332.571   5
   7   1   6 1143.11 396.033   4
   7   1   6 898.296 277.405   3
  -7  -1  -6 901.380 319.706   5
   7   1   7 945.410 358.497   4
   7   1   7 2517.86 463.947   3
   7   1   8 577.390 320.349   4
   7   1   8-47.5132 256.274   3
   7   1   9 2981.68 521.135   4
   7   1   9 2721.14 537.962   3
   7   1  10 509.087 355.633   3
   7   1  11 569.327 376.720   3
   7   1  12 2365.51 573.084   3
  -7  -2   9 3921.96 634.041   2
   7   2  -9 3455.32 604.913   4
  -7  -2   8 1762.32 465.792   2
   7   2  -8 605.001 373.025   4
   7   2  -7 10793.0 1055.34   4
   7   2  -6 8510.91 908.592   4
   7   2  -5-140.918 285.932   4
   7   2  -4 1548.61 467.901   4
   7   2  -3 4161.35 642.821   4
   7   2  -2 199.161 272.913   4
   7   2  -1 3577.47 579.017   4
   7   2   0 6.18226 262.615   4
  -7  -2  -1 1175.44 266.605   5
   7   2   1 1033.01 376.793   4
  -7  -2  -2 2815.91 395.388   5
   7   2   2 2573.49 486.595   4
  -7  -2  -3 5080.63 544.340   5
   7   2   3 4443.37 611.034   4
  -7  -2  -4 724.228 291.570   5
   7   2   4 395.409 285.756   4
  -7  -2  -5 5608.56 601.949   5
   7   2   5 6939.10 769.521   4
   7   2   6 11937.3 823.184   3
  -7  -2  -6 12111.7 896.632   5
   7   2   6 13348.9 1008.56   4
   7   2   7 6384.78 632.640   3
  -7  -2  -7 5303.61 623.376   5
   7   2   7 5858.40 666.090   4
   7   2   8 685.305 327.788   3
  -7  -2  -8 272.655 263.239   5
   7   2   8-88.6949 247.197   4
   7   2   9 3322.06 543.301   3
   7   2   9 4062.14 557.708   4
   7   2  10 1702.92 453.006   3
   7   2  11 689.377 337.368   3
   7   2  12 3143.26 628.052   3
   7   2  13 882.091 447.757   3
   7   3 -10-226.716 341.987   7
  -7  -3  10-98.0977 297.136   2
   7   3  -9 310.295 345.933   7
  -7  -3   9 263.225 341.700   2
   7   3  -9 601.879 334.622   4
   7   3  -8 285.464 289.683   7
  -7  -3   8 629.593 312.561   2
   7   3  -8 255.958 307.237   4
   7   3  -7 1045.74 333.353   7
  -7  -3   7 948.468 375.966   2
   7   3  -7 429.286 321.333   4
   7   3  -6 1368.35 336.946   7
   7   3  -6 1810.29 471.854   4
   7   3  -5 150.120 361.956   4
   7   3  -4 3906.09 627.197   4
   7   3  -3 17975.6 1275.06   4
   7   3  -2 3665.31 606.281   4
   7   3  -1 4682.72 681.986   4
  -7  -3   0 12231.9 756.299   5
   7   3   0 12721.5 1008.29   4
  -7  -3  -1 5772.57 551.554   5
   7   3   1 5382.29 656.575   4
  -7  -3  -2 352.088 223.059   5
   7   3   2 480.974 325.783   4
  -7  -3  -3 1085.07 299.158   5
   7   3   3 374.405 257.335   4
  -7  -3  -4 1561.11 339.449   5
   7   3   4 1692.56 404.894   4
  -7  -3  -5 848.250 296.023   5
   7   3   5 1145.47 370.740   4
   7   3   6 11750.2 777.773   3
  -7  -3  -6 12142.5 901.384   5
   7   3   6 11590.9 924.296   4
   7   3   7 550.697 295.924   3
  -7  -3  -7 73.9763 236.849   5
   7   3   7 352.398 270.922   4
   7   3   8 809.245 337.300   3
  -7  -3  -8-158.030 271.458   5
   7   3   8 486.700 297.583   4
   7   3   9 1022.51 346.760   3
  -7  -3  -9 1187.69 366.062   5
   7   3   9 1199.73 350.051   4
  -7  -3 -10 7417.24 792.858   5
   7   3  10 6680.20 727.323   3
   7   3  11 1512.99 513.146   3
  -7  -3 -11 806.297 383.998   5
   7   3  12 224.678 363.128   3
  -7  -3 -12 403.660 345.218   5
   7   3  13 4246.99 701.613   3
   7   4  -9 6727.49 755.437   7
   7   4  -8 2568.48 508.097   7
   7   4  -8 1485.16 427.528   4
   7   4  -7 471.097 291.082   7
  -7  -4   7 471.743 298.833   2
   7   4  -7 201.927 310.327   4
   7   4  -6-174.589 261.822   7
  -7  -4   6 327.980 285.048   2
   7   4  -6 90.3353 302.329   4
   7   4  -5 3649.89 493.569   7
   7   4  -5 3865.44 630.817   4
   7   4  -4 3095.89 584.234   4
   7   4  -3 6893.29 809.010   4
   7   4  -2 1698.36 483.395   4
   7   4  -1 1769.36 505.226   4
   7   4   0 7614.82 853.632   4
  -7  -4  -1 9161.72 701.783   5
   7   4   1 8866.20 896.837   4
  -7  -4  -2 487.921 248.647   5
   7   4   2 981.676 431.971   4
  -7  -4  -3 4536.42 533.310   5
   7   4   3 5393.21 700.168   4
  -7  -4  -4 10895.3 833.344   5
   7   4   4 10702.6 924.958   4
  -7  -4  -5 9816.96 800.655   5
   7   4   5 9354.73 845.870   4
  -7  -4  -6 2357.63 450.517   5
   7   4   6 1143.01 359.824   4
  -7  -4  -7 3164.30 509.078   5
   7   4   7 4152.48 605.187   4
  -7  -4  -8 808.798 310.157   5
   7   4   8 832.210 308.349   4
  -7  -4  -9 1650.50 410.721   5
   7   4  10 3294.23 559.579   3
  -7  -4 -10 2249.95 475.662   5
   7   4  11 634.335 358.253   3
  -7  -4 -11-49.4773 292.661   5
   7   4  12 726.599 426.369   3
  -7  -4 -12 546.837 391.411   5
   7   4  13 1967.68 502.226   3
  -7  -4 -13 2085.04 564.295   5
   7   5  -8 411.913 300.626   7
   7   5  -7 1552.10 401.451   7
   7   5  -7 1479.31 451.054   4
   7   5  -6 1721.06 411.293   7
   7   5  -6 771.545 359.967   4
   7   5  -5 6040.82 617.705   7
   7   5  -5 6052.22 776.467   4
   7   5  -4 8224.17 700.714   7
   7   5  -4 8866.66 900.290   4
   7   5  -3 1703.30 349.918   7
   7   5  -3 1621.07 458.452   4
   7   5  -2 13392.4 1095.70   4
   7   5  -1 2477.03 537.241   4
   7   5   0 1540.46 428.318   4
  -7  -5  -1 820.419 321.575   5
   7   5   1-20.2424 293.559   4
  -7  -5  -2-82.8323 242.189   5
   7   5   2 207.105 330.554   4
  -7  -5  -3 4772.46 565.822   5
   7   5   3 4143.39 629.851   4
  -7  -5  -4 9424.89 798.396   5
   7   5   4 9987.42 924.544   4
  -7  -5  -5 706.424 314.693   5
   7   5   5 1161.71 395.249   4
  -7  -5  -6 48.2392 245.715   5
   7   5   6 240.983 279.924   4
  -7  -5  -7 6713.63 729.965   5
   7   5   7 6878.30 720.286   4
  -7  -5  -8 5603.13 672.652   5
   7   5   8 5550.03 635.321   4
  -7  -5  -9 288.593 294.967   5
  -7  -5 -10 3123.75 549.316   5
  -7  -5 -11 3921.38 625.223   5
  -7  -5 -12 1119.12 406.865   5
  -7  -5 -13 405.104 343.053   5
   7   6  -8-60.7954 284.799   7
   7   6  -7-146.806 310.771   7
   7   6  -6 3742.55 556.619   7
   7   6  -6 3995.46 641.666   4
   7   6  -5 3668.98 537.695   7
   7   6  -5 3270.45 551.554   4
   7   6  -4 1888.10 382.839   7
   7   6  -4 871.146 407.228   4
   7   6  -3-70.0648 225.674   7
   7   6  -3 309.894 323.949   4
   7   6  -2 12178.4 1088.91   4
   7   6  -1 2920.67 575.385   4
   7   6   0 517.150 316.435   4
   7   6   1 2695.72 544.185   4
   7   6   2 14171.0 1117.60   4
  -7  -6  -3 1935.37 421.542   5
   7   6   3 1283.94 409.899   4
  -7  -6  -4 170.553 295.282   5
   7   6   4-77.1328 339.699   4
  -7  -6  -5 3016.11 522.681   5
   7   6   5 2352.03 469.716   4
  -7  -6  -6-221.574 343.451   5
   7   6   6 180.192 274.127   4
  -7  -6  -7-390.780 353.401   5
   7   6   7 221.177 268.417   4
  -7  -6  -8 5054.98 671.262   5
   7   6   8 5034.44 600.220   4
  -7  -6  -9 1569.70 408.945   5
  -7  -6 -10 3179.31 576.943   5
  -7  -6 -11 4570.51 675.380   5
  -7  -6 -12-18.6517 326.506   5
   7   7  -6 4409.44 602.251   7
   7   7  -5 1642.54 412.784   7
   7   7  -5 1386.33 442.854   4
   7   7  -4 869.678 414.270   4
   7   7  -3 3075.76 617.545   4
   7   7  -2-463.924 360.917   4
   7   7  -1 4108.47 672.186   4
   7   7   0-66.2461 291.346   4
   7   7   1 11875.0 1100.60   4
   7   7   2 12040.5 1063.02   4
   7   7   3 2268.06 532.729   4
  -7  -7  -4-55.5202 321.741   5
   7   7   4 598.407 350.022   4
  -7  -7  -5 1835.94 451.028   5
   7   7   5 2127.33 476.870   4
   7   7   5 2483.01 381.344   1
  -7  -7  -6 3992.94 634.850   5
   7   7   6 3483.56 545.537   4
  -7  -7  -7-101.991 346.993   5
   7   7   7 168.429 233.565   4
  -7  -7  -8 1473.07 479.793   5
   7   7   8 1173.14 332.665   4
  -7  -7  -9 2540.52 537.007   5
  -7  -7 -10 45.6909 333.897   5
  -7  -7 -11 510.776 358.536   5
  -7  -7 -12 17.9298 315.371   5
   7   8  -3 765.507 428.260   4
   7   8  -2-113.993 332.271   4
   7   8  -1 947.782 474.604   4
   7   8   0 8748.71 946.713   4
   7   8   1-51.9160 312.549   4
   7   8   2-278.438 405.043   4
   7   8   3 1470.94 436.129   4
   7   8   4 41.8914 247.613   1
   7   8   4-295.474 372.153   4
   7   8   5 3205.95 486.390   1
  -7  -8  -5 3286.85 621.704   5
   7   8   5 2914.64 545.249   4
   7   8   6 1498.49 353.678   1
  -7  -8  -6 1448.75 421.639   5
   7   8   6 1066.19 355.461   4
  -7  -8  -7 1607.11 485.894   5
   7   8   7 1543.73 411.530   4
  -7  -8  -8 5426.43 748.688   5
  -7  -8  -9 3206.36 628.224   5
  -7  -8 -10 3257.11 624.324   5
  -7  -8 -11-78.6878 320.866   5
   7   9  -1 1695.31 558.045   4
   7   9   0 9437.20 1045.99   4
   7   9   1 5834.57 825.448   4
   7   9   2-43.0333 279.449   1
   7   9   2-462.291 380.249   4
   7   9   3 8375.07 775.363   1
   7   9   3 8570.00 955.143   4
   7   9   4 767.618 346.224   1
   7   9   4 961.933 416.721   4
   7   9   5 1582.62 411.357   1
   7   9   5 1306.35 448.458   4
   7   9   6 542.080 366.472   4
   7   9   6 416.898 271.827   1
  -7  -9  -7 1755.51 514.247   5
   7   9   7 1840.23 462.887   4
  -7  -9  -8 1370.77 459.935   5
  -7  -9  -9 817.780 413.979   5
  -7  -9 -10 218.514 344.367   5
   7  10   1-64.3232 322.942   1
   7  10   1-347.805 375.962   4
   7  10   2 500.676 351.692   1
   7  10   2-208.380 415.184   4
   7  10   3 3571.15 672.232   4
   7  10   3 3572.88 572.382   1
   7  10   4 1692.07 430.636   1
   7  10   4 1558.73 512.004   4
   7  10   5 867.601 355.915   1
   7  10   5 1277.42 433.296   4
   7  10   6 4382.20 586.529   1
   7  10   6 4544.81 671.945   4
   7  10   7 465.465 311.648   1
   7  10   7 962.954 360.849   4
   7  11   5 460.775 355.522   4
   7  11   6 1250.73 409.877   1
   7  11   6 1356.22 436.866   4
   7  11   7 163.479 284.356   1
   8   0  -1-473.770 425.837   4
   8   0   0 3539.29 689.336   4
   8   0   1 6306.36 871.236   4
   8   0   2 2461.10 641.509   4
   8   0   3 1167.92 497.869   4
   8   0   4 808.759 385.640   4
   8   0   5 1203.04 451.807   4
   8   0   6 399.773 379.959   4
   8   0   7 481.826 404.360   4
   8   0   8 43.0436 291.622   4
   8   1  -3 296.291 371.660   4
   8   1  -2-95.4563 322.968   4
   8   1  -1-5.43845 304.826   4
   8   1   0 54.1429 363.177   4
   8   1   1 146.634 316.537   4
   8   1   2 2287.51 539.090   4
   8   1   3 2266.88 528.091   4
   8   1   4 10028.6 1015.44   4
   8   1   5 487.438 366.523   4
   8   1   6 630.651 354.970   4
  -8  -1  -7 1255.03 412.818   5
   8   1   7 1816.67 489.698   4
  -8  -1  -8-8.62570 277.145   5
   8   1   8-51.8371 294.641   4
  -8  -1  -9-28.3857 256.151   5
   8   2  -4 517.204 347.498   4
   8   2  -3 2521.14 557.308   4
   8   2  -2 1727.91 481.046   4
   8   2  -1 2119.54 517.356   4
   8   2   0 1410.56 499.949   4
   8   2   1-220.236 314.023   4
   8   2   2 2248.82 512.467   4
   8   2   3 1322.40 427.115   4
   8   2   4 5339.86 726.885   4
  -8  -2  -5 861.502 341.536   5
   8   2   5 660.751 364.380   4
  -8  -2  -6 258.112 299.867   5
   8   2   6 375.779 352.120   4
  -8  -2  -7 3243.12 527.802   5
   8   2   7 2978.85 548.800   4
  -8  -2  -8 293.347 283.771   5
   8   2   8 123.398 261.529   4
  -8  -2  -9-216.896 286.009   5
   8   3  -4 399.555 424.952   4
   8   3  -3 231.233 386.896   4
   8   3  -2 3990.94 670.110   4
   8   3  -1 403.185 354.273   4
   8   3   0 2194.72 554.827   4
   8   3   1 2668.64 552.414   4
   8   3   2 5380.04 732.009   4
   8   3   3 2168.01 498.713   4
  -8  -3  -4 2759.18 473.225   5
   8   3   4 2987.89 569.754   4
  -8  -3  -5 1449.43 393.203   5
   8   3   5 1663.26 462.745   4
  -8  -3  -6 610.253 364.126   5
   8   3   6 1257.24 414.344   4
  -8  -3  -7 5056.24 645.636   5
   8   3   7 5055.15 681.539   4
  -8  -3  -8-423.261 320.582   5
   8   3   8-35.7780 261.279   4
  -8  -3  -9 13.5939 266.523   5
  -8  -3 -10 705.415 429.861   5
   8   4  -4 7638.88 888.421   4
   8   4  -3 1264.55 450.988   4
   8   4  -2 1728.41 550.600   4
   8   4  -1 353.212 350.176   4
   8   4   0-144.439 294.008   4
   8   4   1 946.141 409.378   4
   8   4   2 5300.30 753.115   4
  -8  -4  -3 94.1371 229.268   5
   8   4   3 214.658 311.387   4
  -8  -4  -4 400.991 276.878   5
   8   4   4 1068.14 415.299   4
  -8  -4  -5 5989.05 670.912   5
   8   4   5 5991.22 738.896   4
  -8  -4  -6 1151.78 376.380   5
   8   4   6 2177.77 490.741   4
  -8  -4  -7-74.1803 267.275   5
   8   4   7 478.162 347.793   4
  -8  -4  -8 3852.56 615.047   5
   8   4   8 3519.49 567.773   4
  -8  -4  -9 2341.51 503.033   5
  -8  -4 -10 43.4063 310.992   5
   8   5  -3 621.719 429.938   4
   8   5  -2 362.173 363.868   4
   8   5  -1 5231.22 755.789   4
   8   5   0 5659.91 762.528   4
   8   5   1-13.0834 308.279   4
  -8  -5  -2 2825.10 487.322   5
   8   5   2 3001.61 587.042   4
  -8  -5  -3 2151.46 432.301   5
   8   5   3 2158.34 556.974   4
  -8  -5  -4-186.517 286.359   5
   8   5   4 34.2954 327.610   4
  -8  -5  -5 2820.65 512.628   5
   8   5   5 2914.79 547.319   4
  -8  -5  -6 772.157 339.770   5
   8   5   6 482.328 307.576   4
  -8  -5  -7 128.100 279.408   5
   8   5   7 444.527 278.550   4
  -8  -5  -8 3873.51 630.478   5
  -8  -5  -9 6892.08 803.305   5
  -8  -5 -10 17.6222 340.676   5
   8   6  -2-63.6998 375.750   4
   8   6  -1 10535.2 1073.65   4
   8   6   0 7557.32 904.250   4
   8   6   1 563.664 422.256   4
   8   6   2-340.151 350.721   4
  -8  -6  -3 4220.35 597.954   5
   8   6   3 4117.96 684.210   4
  -8  -6  -4 2593.36 503.721   5
   8   6   4 2515.58 540.490   4
  -8  -6  -5-304.787 344.287   5
   8   6   5-502.005 409.385   4
  -8  -6  -6 564.511 321.102   5
   8   6   6 695.219 336.314   4
  -8  -6  -7 2563.76 512.640   5
   8   6   7 2060.08 477.951   4
  -8  -6  -8-568.656 360.353   5
  -8  -6  -9 147.135 289.820   5
   8   7  -1 174.563 384.950   4
   8   7   0 69.1813 397.978   4
   8   7   1 1925.43 520.683   4
   8   7   2 529.602 372.182   4
   8   7   3 4037.51 668.277   4
  -8  -7  -4 169.495 364.024   5
   8   7   4-233.673 346.815   4
  -8  -7  -5 2557.51 549.891   5
   8   7   5 2114.87 513.401   4
  -8  -7  -6 4795.34 683.434   5
   8   7   6 5350.38 702.727   4
  -8  -7  -7 4906.97 725.805   5
   8   7   7 4575.43 632.481   4
  -8  -7  -8-171.572 393.101   5
  -8  -7  -9 297.564 360.436   5
   8   8   1 8930.66 1012.83   4
   8   8   2 383.822 447.765   4
   8   8   3 1222.27 421.648   4
   8   8   4 598.852 401.688   4
   8   8   5 2878.79 584.377   4
  -8  -8  -6 86.3210 332.185   5
   8   8   6 662.250 330.451   4
  -8  -8  -7 161.333 360.509   5
   8   8   7 413.112 327.379   4
   8   9   2-361.968 308.178   1
   8   9   3 655.325 311.958   1
   8   9   4 7067.08 897.662   4
   8   9   5 2647.51 575.195   4
   8   9   6-236.505 341.297   4
  -9  -5  -6 689.921 354.677   5
  -9  -6  -5 444.961 336.818   5
   0   0   0    0.00    0.00   0
TITL VSN-E1 in P-1
REM P-1 (#2 in standard setting)
CELL 0.71073   6.015192   8.569136  13.182402  75.2499  81.4460  70.2806
ZERR    2.00   0.000750   0.001228   0.000920   0.0096   0.0081   0.0123
LATT  1
SFAC C H O S Cl Br
UNIT 26.00 16.00 2.00 2.00 2.00 2.00
TREF
HKLF 4
END
;
_shelx_hkl_checksum              40034
_shelx_res_file
;
TITLe1cg
CELL 0.71073 6.0152 8.5691 13.1824 75.250 81.446 70.281
ZERR 2 0.0008 0.0012 0.0009 0.010 0.008 0.012
LATT 1
SFAC C H Br Cl O S
UNIT 26 16 2 2 2 2
L.S. 20
PLAN  20
TEMP -100
SIZE 0.41 0.20 0.18
OMIT -2 60.0
ACTA
BOND $H
CONF
HTAB
fmap 2 53
MPLA C31 C32 C33 C34 C35 C36
MPLA S11 C12 C13 C14 C15
MPLA C12 C1 C2 C3 C31
MPLA C31 C32 C33 C34 C35 C36
WGHT    0.042800    0.383900
FVAR       5.72404
C1    1    0.307886    0.703054    0.548124    11.00000    0.02380    0.02126 =
         0.01951   -0.00361   -0.00230   -0.00591
O1    5    0.093126    0.738161    0.541955    11.00000    0.02058    0.03371 =
         0.03482    0.00043   -0.00440   -0.00584
C2    1    0.455238    0.793225    0.473995    11.00000    0.02214    0.02504 =
         0.02215   -0.00222   -0.00157   -0.00892
AFIX  43
H2    2    0.622122    0.752449    0.478085    11.00000   -1.20000
AFIX   0
C3    1    0.359356    0.931593    0.400827    11.00000    0.02382    0.02269 =
         0.02318   -0.00434   -0.00185   -0.00674
AFIX  43
H3    2    0.191415    0.973141    0.402406    11.00000   -1.20000
AFIX   0
S11   6    0.256271    0.460202    0.722711    11.00000    0.01931    0.02779 =
         0.02467   -0.00149    0.00033   -0.00935
C12   1    0.428688    0.563692    0.631990    11.00000    0.02321    0.02025 =
         0.01957   -0.00233   -0.00106   -0.00900
C13   1    0.661410    0.499642    0.654801    11.00000    0.02228    0.02547 =
         0.02256   -0.00307   -0.00153   -0.01077
AFIX  43
H13   2    0.782065    0.541211    0.614132    11.00000   -1.20000
AFIX   0
C14   1    0.704141    0.364936    0.745300    11.00000    0.02157    0.02410 =
         0.02306   -0.00291   -0.00501   -0.00538
AFIX  43
H14   2    0.855482    0.305539    0.771936    11.00000   -1.20000
AFIX   0
C15   1    0.501449    0.331614    0.789042    11.00000    0.02587    0.02161 =
         0.02055   -0.00253   -0.00220   -0.00838
CL15  4    0.472669    0.180170    0.898937    11.00000    0.04393    0.03237 =
         0.02513    0.00459   -0.00115   -0.01754
C31   1    0.488292    1.025535    0.318314    11.00000    0.02279    0.02133 =
         0.02064   -0.00428   -0.00267   -0.00705
C32   1    0.362059    1.169096    0.247634    11.00000    0.02272    0.02032 =
         0.02372   -0.00355   -0.00497   -0.00127
AFIX  43
H32   2    0.194344    1.209233    0.257465    11.00000   -1.20000
AFIX   0
C33   1    0.475368    1.254883    0.163222    11.00000    0.02788    0.02005 =
         0.02424   -0.00050   -0.00817   -0.00453
AFIX  43
H33   2    0.386835    1.350891    0.115059    11.00000   -1.20000
AFIX   0
C34   1    0.718216    1.197362    0.151263    11.00000    0.03072    0.02427 =
         0.02057   -0.00049   -0.00307   -0.01332
BR34  3    0.879856    1.312028    0.038123    11.00000    0.03904    0.04376 =
         0.02867    0.00715   -0.00236   -0.02171
C35   1    0.851931    1.056186    0.219982    11.00000    0.02244    0.02615 =
         0.03020   -0.00053   -0.00596   -0.00799
AFIX  43
H35   2    1.019678    1.017718    0.209858    11.00000   -1.20000
AFIX   0
C36   1    0.735578    0.972540    0.303666    11.00000    0.02166    0.02471 =
         0.02593    0.00178   -0.00607   -0.00538
AFIX  43
H36   2    0.825532    0.877465    0.351944    11.00000   -1.20000
AFIX   0
HKLF 4
REM e1cg
REM R1 =  0.0420 for    2817 Fo > 4sig(Fo)  and  0.0604 for all    3599 data
REM    154 parameters refined using      0 restraints
END
WGHT      0.0428      0.3839
REM No hydrogen bonds found for HTAB generation
REM Highest difference peak  1.431,  deepest hole -0.525,  1-sigma level  0.098
Q1    1   0.9353  1.2619 -0.0139  11.00000  0.05    1.43
Q2    1   0.2745  0.5408  0.6956  11.00000  0.05    0.65
Q3    1   0.3870  0.7622  0.5301  11.00000  0.05    0.42
Q4    1   0.7680  1.3250  0.0401  11.00000  0.05    0.41
Q5    1   0.6155  0.9987  0.2977  11.00000  0.05    0.40
Q6    1   0.4393  0.2380  0.8455  11.00000  0.05    0.40
Q7    1   0.7852  1.2012  0.0994  11.00000  0.05    0.39
Q8    1   0.5898  1.2202  0.1635  11.00000  0.05    0.38
Q9    1   0.7631  1.0397  0.2707  11.00000  0.05    0.37
Q10   1   0.8798  1.2341  0.1200  11.00000  0.05    0.36
Q11   1   0.8390  1.2939  0.1242  11.00000  0.05    0.35
Q12   1   0.7530  1.1620  0.0363  11.00000  0.05    0.34
Q13   1   0.6922  0.4328  0.6975  11.00000  0.05    0.34
Q14   1   1.0537  1.2975  0.0207  11.00000  0.05    0.34
Q15   1   0.9556  1.4393  0.0630  11.00000  0.05    0.33
Q16   1   0.5828  0.3581  0.7958  11.00000  0.05    0.32
Q17   1   0.4134  1.2377  0.2209  11.00000  0.05    0.32
Q18   1   0.4343  0.9970  0.3717  11.00000  0.05    0.32
Q19   1   0.5703  1.0707  0.3147  11.00000  0.05    0.31
Q20   1   0.4348  1.0809  0.2739  11.00000  0.05    0.31
;
_shelx_res_checksum              92572
_shelxl_version_number           2.014
loop_
_space_group_symop_operation_xyz
'x, y, z'
'-x, -y, -z'
loop_
_atom_site_type_symbol
_atom_site_label
_atom_site_fract_x
_atom_site_fract_y
_atom_site_fract_z
_atom_site_U_iso_or_equiv
_atom_site_adp_type
_atom_site_calc_flag
_atom_site_occupancy
C C1 0.3079(5) 0.7031(4) 0.5481(2) 0.0219(5) Uani d 1
O O1 0.0931(3) 0.7382(3) 0.54196(16) 0.0316(5) Uani d 1
C C2 0.4552(5) 0.7932(4) 0.4740(2) 0.0233(5) Uani d 1
H H2 0.6221 0.7524 0.4781 0.028 Uiso calc 1
C C3 0.3594(5) 0.9316(4) 0.4008(2) 0.0235(5) Uani d 1
H H3 0.1914 0.9731 0.4024 0.028 Uiso calc 1
S S11 0.25627(12) 0.46020(9) 0.72271(5) 0.02442(15) Uani d 1
C C12 0.4287(5) 0.5637(3) 0.63199(19) 0.0209(5) Uani d 1
C C13 0.6614(5) 0.4996(4) 0.6548(2) 0.0230(5) Uani d 1
H H13 0.7821 0.5412 0.6141 0.028 Uiso calc 1
C C14 0.7041(5) 0.3649(4) 0.7453(2) 0.0234(5) Uani d 1
H H14 0.8555 0.3055 0.7719 0.028 Uiso calc 1
C C15 0.5014(5) 0.3316(3) 0.7890(2) 0.0228(5) Uani d 1
Cl Cl15 0.47267(14) 0.18017(10) 0.89894(5) 0.03458(18) Uani d 1
C C31 0.4883(5) 1.0255(3) 0.3183(2) 0.0215(5) Uani d 1
C C32 0.3621(5) 1.1691(3) 0.2476(2) 0.0236(5) Uani d 1
H H32 0.1943 1.2092 0.2575 0.028 Uiso calc 1
C C33 0.4754(5) 1.2549(4) 0.1632(2) 0.0250(5) Uani d 1
H H33 0.3868 1.3509 0.1151 0.030 Uiso calc 1
C C34 0.7182(5) 1.1974(4) 0.1513(2) 0.0247(6) Uani d 1
Br Br34 0.87986(6) 1.31203(4) 0.03812(2) 0.03776(12) Uani d 1
C C35 0.8519(5) 1.0562(4) 0.2200(2) 0.0268(6) Uani d 1
H H35 1.0197 1.0177 0.2099 0.032 Uiso calc 1
C C36 0.7356(5) 0.9725(4) 0.3037(2) 0.0255(6) Uani d 1
H H36 0.8255 0.8775 0.3519 0.031 Uiso calc 1
loop_
_atom_site_aniso_label
_atom_site_aniso_U_11
_atom_site_aniso_U_22
_atom_site_aniso_U_33
_atom_site_aniso_U_12
_atom_site_aniso_U_13
_atom_site_aniso_U_23
C1 0.0238(13) 0.0213(13) 0.0195(12) -0.0059(10) -0.0023(10) -0.0036(10)
O1 0.0206(10) 0.0337(12) 0.0348(11) -0.0058(9) -0.0044(8) 0.0004(9)
C2 0.0221(12) 0.0250(14) 0.0221(12) -0.0089(11) -0.0016(10) -0.0022(10)
C3 0.0238(13) 0.0227(14) 0.0232(12) -0.0067(11) -0.0019(10) -0.0043(10)
S11 0.0193(3) 0.0278(4) 0.0247(3) -0.0094(3) 0.0003(2) -0.0015(3)
C12 0.0232(13) 0.0203(13) 0.0196(11) -0.0090(10) -0.0011(10) -0.0023(9)
C13 0.0223(12) 0.0255(14) 0.0226(12) -0.0108(11) -0.0015(10) -0.0031(10)
C14 0.0216(12) 0.0241(14) 0.0231(12) -0.0054(11) -0.0050(10) -0.0029(10)
C15 0.0259(13) 0.0216(13) 0.0206(12) -0.0084(11) -0.0022(10) -0.0025(10)
Cl15 0.0439(4) 0.0324(4) 0.0251(3) -0.0175(3) -0.0011(3) 0.0046(3)
C31 0.0228(13) 0.0213(13) 0.0206(12) -0.0070(10) -0.0027(10) -0.0043(10)
C32 0.0227(13) 0.0203(14) 0.0237(12) -0.0013(10) -0.0050(10) -0.0035(10)
C33 0.0279(14) 0.0201(13) 0.0242(13) -0.0045(11) -0.0082(11) -0.0005(10)
C34 0.0307(14) 0.0243(14) 0.0206(12) -0.0133(12) -0.0031(10) -0.0005(10)
Br34 0.03904(19) 0.0438(2) 0.02867(17) -0.02171(15) -0.00236(12) 0.00715(13)
C35 0.0224(13) 0.0262(15) 0.0302(14) -0.0080(11) -0.0060(11) -0.0005(11)
C36 0.0217(13) 0.0247(14) 0.0259(13) -0.0054(11) -0.0061(10) 0.0018(10)
loop_
_atom_type_symbol
_atom_type_description
_atom_type_scat_dispersion_real
_atom_type_scat_dispersion_imag
_atom_type_scat_source
C C 0.0033 0.0016 'International Tables Vol C Tables 4.2.6.8 and 6.1.1.4'
H H 0.0000 0.0000 'International Tables Vol C Tables 4.2.6.8 and 6.1.1.4'
Br Br -0.2901 2.4595 'International Tables Vol C Tables 4.2.6.8 and 6.1.1.4'
Cl Cl 0.1484 0.1585 'International Tables Vol C Tables 4.2.6.8 and 6.1.1.4'
O O 0.0106 0.0060 'International Tables Vol C Tables 4.2.6.8 and 6.1.1.4'
S S 0.1246 0.1234 'International Tables Vol C Tables 4.2.6.8 and 6.1.1.4'
loop_
_geom_angle_atom_site_label_1
_geom_angle_atom_site_label_2
_geom_angle_atom_site_label_3
_geom_angle
O1 C1 C12 120.0(2)
O1 C1 C2 123.2(2)
C12 C1 C2 116.8(2)
C3 C2 C1 121.4(2)
C3 C2 H2 119.3
C1 C2 H2 119.3
C2 C3 C31 126.4(3)
C2 C3 H3 116.8
C31 C3 H3 116.8
C15 S11 C12 90.62(13)
C13 C12 C1 131.2(2)
C13 C12 S11 111.4(2)
C1 C12 S11 117.45(19)
C12 C13 C14 113.2(2)
C12 C13 H13 123.4
C14 C13 H13 123.4
C15 C14 C13 111.4(2)
C15 C14 H14 124.3
C13 C14 H14 124.3
C14 C15 Cl15 126.9(2)
C14 C15 S11 113.4(2)
Cl15 C15 S11 119.76(16)
C32 C31 C36 117.8(2)
C32 C31 C3 119.6(2)
C36 C31 C3 122.6(2)
C33 C32 C31 121.8(3)
C33 C32 H32 119.1
C31 C32 H32 119.1
C34 C33 C32 118.4(2)
C34 C33 H33 120.8
C32 C33 H33 120.8
C33 C34 C35 122.0(2)
C33 C34 Br34 119.8(2)
C35 C34 Br34 118.3(2)
C36 C35 C34 118.7(3)
C36 C35 H35 120.6
C34 C35 H35 120.6
C35 C36 C31 121.3(3)
C35 C36 H36 119.4
C31 C36 H36 119.4
loop_
_geom_bond_atom_site_label_1
_geom_bond_atom_site_label_2
_geom_bond_distance
C1 O1 1.234(3)
C1 C12 1.469(4)
C1 C2 1.469(4)
C2 C3 1.338(4)
C2 H2 0.9500
C3 C31 1.469(4)
C3 H3 0.9500
S11 C15 1.718(3)
S11 C12 1.733(3)
C12 C13 1.369(4)
C13 C14 1.418(4)
C13 H13 0.9500
C14 C15 1.357(4)
C14 H14 0.9500
C15 Cl15 1.712(3)
C31 C32 1.398(4)
C31 C36 1.400(4)
C32 C33 1.393(4)
C32 H32 0.9500
C33 C34 1.374(4)
C33 H33 0.9500
C34 C35 1.390(4)
C34 Br34 1.898(3)
C35 C36 1.388(4)
C35 H35 0.9500
C36 H36 0.9500
loop_
_geom_torsion_atom_site_label_1
_geom_torsion_atom_site_label_2
_geom_torsion_atom_site_label_3
_geom_torsion_atom_site_label_4
_geom_torsion
O1 C1 C2 C3 6.9(4)
C12 C1 C2 C3 -173.8(3)
C1 C2 C3 C31 -175.7(2)
O1 C1 C12 C13 179.2(3)
C2 C1 C12 C13 -0.1(4)
O1 C1 C12 S11 -2.7(4)
C2 C1 C12 S11 177.99(19)
C15 S11 C12 C13 -0.4(2)
C15 S11 C12 C1 -178.8(2)
C1 C12 C13 C14 178.7(3)
S11 C12 C13 C14 0.6(3)
C12 C13 C14 C15 -0.5(3)
C13 C14 C15 Cl15 -179.8(2)
C13 C14 C15 S11 0.1(3)
C12 S11 C15 C14 0.1(2)
C12 S11 C15 Cl15 -179.89(18)
C2 C3 C31 C32 -179.7(3)
C2 C3 C31 C36 3.6(4)
C36 C31 C32 C33 1.9(4)
C3 C31 C32 C33 -175.0(2)
C31 C32 C33 C34 -1.3(4)
C32 C33 C34 C35 0.7(4)
C32 C33 C34 Br34 -179.3(2)
C33 C34 C35 C36 -0.7(4)
Br34 C34 C35 C36 179.3(2)
C34 C35 C36 C31 1.4(4)
C32 C31 C36 C35 -2.0(4)
C3 C31 C36 C35 174.9(3)

_cod_database_fobs_code 2241056
