#------------------------------------------------------------------------------
#$Date: 2016-06-18 04:19:11 +0300 (Sat, 18 Jun 2016) $
#$Revision: 183679 $
#$URL: file:///home/coder/svn-repositories/cod/cif/2/24/17/2241723.cif $
#------------------------------------------------------------------------------
#
# This file is available in the Crystallography Open Database (COD),
# http://www.crystallography.net/. The original data for this entry
# were provided by IUCr Journals, http://journals.iucr.org/.
#
# The file may be used within the scientific community so long as
# proper attribution is given to the journal article from which the
# data were obtained.
#
data_2241723
loop_
_publ_author_name
'Kerr, Jamie R.'
'Trembleau, Laurent'
'Storey, John M. D.'
'Wardell, James L.'
'Harrison, William T. A.'
_publ_section_title
;
 Weak interactions in the crystal structures of two indole derivatives
;
_journal_coeditor_code           SJ5499
_journal_issue                   7
_journal_name_full               'Acta Crystallographica Section E'
_journal_page_first              964
_journal_page_last               968
_journal_paper_doi               10.1107/S2056989016008616
_journal_volume                  72
_journal_year                    2016
_chemical_formula_iupac          'C11 H9 Cl I N O2'
_chemical_formula_moiety         'C11 H9 Cl I N O2'
_chemical_formula_sum            'C11 H9 Cl I N O2'
_chemical_formula_weight         349.54
_chemical_name_systematic
;
Ethyl 5-chloro-3-iodo-1<i>H</i>-indole-2-carboxylate
;
_space_group_crystal_system      triclinic
_space_group_IT_number           2
_space_group_name_Hall           '-P 1'
_space_group_name_H-M_alt        'P -1'
_symmetry_space_group_name_Hall  '-P 1'
_symmetry_space_group_name_H-M   'P -1'
_atom_sites_solution_hydrogens   mixed
_audit_creation_method           SHELXL-2014/7
_cell_angle_alpha                86.085(8)
_cell_angle_beta                 80.575(7)
_cell_angle_gamma                71.308(6)
_cell_formula_units_Z            2
_cell_length_a                   7.7733(5)
_cell_length_b                   7.8240(5)
_cell_length_c                   10.4594(7)
_cell_measurement_reflns_used    7985
_cell_measurement_temperature    100(2)
_cell_measurement_theta_max      27.5
_cell_measurement_theta_min      2.7
_cell_volume                     594.35(7)
_computing_cell_refinement
;
CrystalClear (Rigaku, 2012)
;
_computing_data_collection
;
CrystalClear (Rigaku, 2012)
;
_computing_data_reduction
;
CrystalClear (Rigaku, 2012)
;
_computing_molecular_graphics
;
ORTEP-3 for Windows (Farrugia, 2012) and ATOMS (Dowty, 2006)
;
_computing_publication_material
;
publCIF (Westrip, 2010)
;
_computing_structure_refinement
;
SHELXL2014 (Sheldrick, 2015)
;
_computing_structure_solution
;
SHELXS97 (Sheldrick, 2008)
;
_diffrn_ambient_temperature      100(2)
_diffrn_measured_fraction_theta_full 0.998
_diffrn_measured_fraction_theta_max 0.997
_diffrn_measurement_device_type  'Rigaku Mercury CCD'
_diffrn_measurement_method       \w
_diffrn_radiation_type           MoK\a
_diffrn_radiation_wavelength     0.71073
_diffrn_reflns_av_R_equivalents  0.0313
_diffrn_reflns_limit_h_max       10
_diffrn_reflns_limit_h_min       -8
_diffrn_reflns_limit_k_max       10
_diffrn_reflns_limit_k_min       -10
_diffrn_reflns_limit_l_max       13
_diffrn_reflns_limit_l_min       -12
_diffrn_reflns_number            7837
_diffrn_reflns_theta_full        25.242
_diffrn_reflns_theta_max         27.509
_diffrn_reflns_theta_min         2.749
_exptl_absorpt_coefficient_mu    2.902
_exptl_absorpt_correction_T_max  0.944
_exptl_absorpt_correction_T_min  0.638
_exptl_absorpt_correction_type   multi-scan
_exptl_absorpt_process_details
;
(CrystalClear; Rigaku, 2012)
;
_exptl_crystal_colour            colourless
_exptl_crystal_density_diffrn    1.953
_exptl_crystal_description       plate
_exptl_crystal_F_000             336
_exptl_crystal_size_max          0.17
_exptl_crystal_size_mid          0.10
_exptl_crystal_size_min          0.02
_refine_diff_density_max         1.181
_refine_diff_density_min         -0.440
_refine_ls_extinction_method     none
_refine_ls_goodness_of_fit_ref   1.042
_refine_ls_hydrogen_treatment    mixed
_refine_ls_matrix_type           full
_refine_ls_number_parameters     149
_refine_ls_number_reflns         2739
_refine_ls_number_restraints     0
_refine_ls_restrained_S_all      1.042
_refine_ls_R_factor_all          0.0221
_refine_ls_R_factor_gt           0.0216
_refine_ls_shift/su_max          0.002
_refine_ls_shift/su_mean         0.000
_refine_ls_structure_factor_coef Fsqd
_refine_ls_weighting_details
'w=1/[\s^2^(Fo^2^)+(0.0409P)^2^+0.1325P] where P=(Fo^2^+2Fc^2^)/3'
_refine_ls_weighting_scheme      calc
_refine_ls_wR_factor_gt          0.0577
_refine_ls_wR_factor_ref         0.0580
_reflns_number_gt                2640
_reflns_number_total             2739
_reflns_threshold_expression     'I > 2\s(I)'
_cod_data_source_file            sj5499sup1.cif
_cod_data_source_block           II
_cod_database_code               2241723
_shelx_space_group_comment
;
The symmetry employed for this shelxl refinement is uniquely defined
by the following loop, which should always be used as a source of
symmetry information in preference to the above space-group names.
They are only intended as comments.
;
_shelx_hkl_file
;
   0   1   0 26073.4 512.210   1
   0   1   0 20415.7 420.110   1
   0  -1   0 25236.1 571.150   1
   1   0   0 60002.1 807.520   1
  -1   0   0 61249.3 968.350   1
  -1   0   0 59038.5 995.240   1
   1   0   0 59806.8 902.360   1
   1   0   0 62997.5 887.310   1
   1   0   1 14927.5 380.790   1
  -1   0  -1 15352.4 347.550   1
   1   0   1 14647.0 328.190   1
  -1   0  -1 14655.1 457.090   1
   1   0   1 14303.9 420.830   1
  -1  -1   0 6038.01 273.220   1
   1   1   0 6042.22 250.460   1
   1   1   0 5980.42 247.470   1
  -1  -1   0 4165.44 193.640   1
   0   1   1 15161.5 367.100   1
   0  -1  -1 14823.1 438.300   1
   0   1   1 15096.6 382.880   1
   0   1   1 15150.4 351.730   1
   0  -1  -1 14672.3 327.500   1
   0   1   1 15456.4 370.810   1
   0  -1  -1 14047.5 376.840   1
   0   1   1 14465.5 358.260   1
   0  -1  -1 14432.0 362.430   1
   0  -1  -1 15051.5 392.510   1
   0  -1   1 122462. 1137.95   1
   0   1  -1 122650. 1177.71   1
   0  -1   1 122484. 1479.81   1
   0   1  -1 133399. 1366.56   1
   1   1   1 104501. 1019.54   1
  -1  -1  -1 102364. 1031.76   1
   1   1   1 99683.4 1025.93   1
  -1  -1  -1 105434. 1028.41   1
   1   1   1 99508.0 973.360   1
   1   0  -1 29454.9 516.810   1
  -1   0   1 27623.0 521.690   1
  -1   0   1 27732.6 521.970   1
   1   0  -1 25843.8 490.240   1
   1   0  -1 25915.9 740.060   1
  -1   0   1 26344.3 534.890   1
   0   0  -2 93646.8 1283.89   1
   0   0  -2 96078.8 1078.78   1
   0   0   2 102412. 1042.77   1
   0   0   2 96205.6 1035.70   1
   0   0  -2 99556.5 1055.04   1
   0   0   2 90877.3 1009.18   1
   1   1  -1 226997. 2003.83   1
  -1  -1   1 208500. 1542.19   1
   1   1  -1 226357. 1656.06   1
   1   1  -1 222827. 1739.90   1
  -1  -1   1 208232. 1701.68   1
  -1  -1   1 228055. 1965.45   1
   1   0   2 70151.4 823.590   1
  -1   0  -2 73725.0 929.950   1
   1   0   2 74344.7 762.190   1
  -1   0  -2 75517.7 779.160   1
   1   0   2 76674.4 799.370   1
  -1   0  -2 77071.2 839.220   1
  -1   1   0 6041.49 229.200   1
  -1   1   0 6345.21 250.810   1
   1  -1   0 5860.17 236.170   1
   1  -1   0 6452.80 227.970   1
   1   1   2 40492.6 563.050   1
  -1  -1  -2 42243.1 581.890   1
   1   1   2 40447.2 546.190   1
  -1  -1  -2 39668.6 681.220   1
   1   1   2 39578.7 598.290   1
  -1  -1  -2 42989.8 590.150   1
   1  -1   1 88839.9 958.990   1
  -1   1  -1 88812.5 907.050   1
  -1   1  -1 97159.4 1118.95   1
   1  -1   1 99678.9 1051.96   1
   0  -1  -2 219673. 1494.49   1
   0  -1  -2 220057. 1513.65   1
   0   1   2 223999. 1566.91   1
   0   1   2 215450. 1585.24   1
   0  -1  -2 206219. 1676.61   1
   0   1   2 207946. 1506.53   1
   0   1  -2 252078. 1754.78   1
   0   1  -2 246510. 1846.53   1
   0  -1   2 244515. 1774.57   1
   0  -1   2 236921. 1796.01   1
   1  -1  -1 121191. 1109.01   1
  -1   1   1 123078. 1143.58   1
  -1   1   1 121359. 1211.58   1
   1  -1  -1 120274. 1367.92   1
  -1   1   1 120861. 1118.32   1
   1  -1  -1 118744. 1160.79   1
  -1   0   2 915.190 97.9300   1
   1   0  -2 873.740 92.0300   1
  -1   0   2 798.750 92.8600   1
   1   0  -2 1016.26 99.4900   1
   1   0  -2 876.140 99.7900   1
  -1   0   2 895.510 97.5400   1
   1   2   0 380964. 2388.92   1
  -1  -2   0 386031. 3203.18   1
   1   2   0 365396. 2280.11   1
  -2  -1   0 24297.3 507.740   1
   2   1   0 24072.6 487.630   1
   2   1   0 24791.8 478.630   1
  -2  -1   0 24827.0 472.550   1
   2   1   0 24443.0 468.880   1
   2   1   0 24435.6 502.620   1
   2   1   0 23293.0 466.100   1
   2   1   0 22592.3 534.240   1
   2   1   1 473349. 3808.55   1
   2   1   1 492504. 3884.18   1
  -2  -1  -1 488763. 3902.59   1
  -1  -1   2 64383.1 816.620   1
  -1  -1   2 64799.9 766.150   1
   1   1  -2 63168.5 904.940   1
   1   1  -2 63631.1 786.960   1
  -1  -1   2 64598.4 785.990   1
   0  -2   0 189904. 1620.09   1
   0   2   0 203372. 1583.89   1
   0  -2   0 193249. 1585.15   1
   0   2   0 202456. 1504.87   1
   0   2   0 198323. 1534.22   1
  -1  -2  -1 18401.0 395.300   1
  -1  -2  -1 17972.6 396.530   1
   1   2   1 19138.4 401.040   1
   1   2   1 18580.8 396.490   1
  -1  -2  -1 19113.9 634.280   1
   1   2   1 19042.0 495.030   1
  -1  -2  -1 18189.5 412.430   1
   1   2   1 19229.8 402.330   1
   2   0   0 145926. 1392.11   1
  -2   0   0 141016. 1296.69   1
   2   0   0 143981. 1314.05   1
  -2   0   0 145380. 1238.77   1
  -2   0   0 145040. 1392.43   1
   2   0   0 134876. 1214.19   1
   2   0   0 142306. 1302.74   1
   2   0   1 126829. 1157.89   1
  -2   0  -1 124719. 1153.92   1
   2   0   1 124616. 1319.59   1
  -2   0  -1 130767. 1560.94   1
   1  -1   2 254990. 1818.63   1
  -1   1  -2 259602. 1800.73   1
   1  -1   2 260249. 1861.64   1
  -1   1  -2 268734. 1822.46   1
  -1   1  -2 269081. 1906.91   1
   0  -2  -1 288998. 2071.54   1
   0   2   1 300696. 1974.20   1
   0  -2  -1 309443. 1967.83   1
   0  -2  -1 301807. 2003.82   1
   0   2   1 302833. 2114.02   1
   0   2   1 298614. 1961.46   1
   0   2   1 296784. 1940.75   1
   0  -2  -1 297650. 2200.13   1
  -1  -2   1 11852.2 333.430   1
  -1  -2   1 11613.0 310.660   1
   1   2  -1 11660.9 309.060   1
  -1  -2   1 10894.7 291.050   1
   1   2  -1 12607.7 335.820   1
   0   2  -1 3599.04 182.130   1
   0  -2   1 3247.55 160.350   1
   0   2  -1 2810.90 149.260   1
   0  -2   1 3461.59 185.390   1
   0   0  -3 109927. 1185.13   1
   0   0   3 118502. 1115.13   1
   0   0   3 114568. 1087.15   1
   0   0  -3 116706. 1095.30   1
   0   0  -3 108410. 1254.73   1
   0   0  -3 110558. 1100.74   1
  -2  -1   1 72229.5 955.340   1
   2   1  -1 68770.1 873.930   1
   2   1  -1 71849.1 1056.53   1
  -2  -1   1 65832.8 812.570   1
   2   1  -1 70393.5 836.080   1
  -2  -1   1 67679.4 934.750   1
  -2  -1   1 70763.7 819.990   1
  -1   0  -3 252728. 2000.99   1
   1   0   3 249560. 1753.85   1
  -1   0  -3 252173. 1683.66   1
  -1   0  -3 247771. 1826.41   1
  -2   0   1 135318. 1430.04   1
   2   0  -1 133948. 1242.07   1
  -2   0   1 126760. 1213.66   1
   2   0  -1 126395. 1186.65   1
  -2   0   1 128207. 1196.20   1
  -2   0   1 132093. 1273.88   1
   2   0  -1 126139. 1277.29   1
  -2   0   1 125621. 1356.00   1
   1  -1  -2 301483. 2062.80   1
  -1   1   2 301392. 2031.90   1
   1  -1  -2 292520. 2422.43   1
  -1  -2  -2 1162.81 101.080   1
   1   2   2 1079.13 90.2600   1
   1   2   2 1156.85 100.010   1
   1   2   2 1207.40 105.710   1
  -1  -2  -2 1132.74 104.320   1
   1   2   2 1099.16 97.9200   1
  -1  -2  -2 1111.96 129.720   1
   1   2   2 1176.03 96.7600   1
  -1  -2  -2 1112.72 121.550   1
  -1  -1  -3 1932.81 123.270   1
   1   1   3 1807.87 115.980   1
  -1  -1  -3 1809.32 133.620   1
   1   1   3 1810.20 123.820   1
  -1  -1  -3 1804.61 114.490   1
   1   1   3 1951.67 119.210   1
   1   1   3 2110.25 135.160   1
   2   0   2 53102.9 677.180   1
  -2   0  -2 52869.0 654.440   1
   2   0   2 51082.7 651.240   1
  -2   0  -2 52810.8 834.220   1
   2   0   2 50213.4 675.110   1
   0  -1  -3 22259.5 397.880   1
   0  -1  -3 23002.3 425.410   1
   0   1   3 22439.5 418.930   1
   0  -1  -3 22966.5 520.490   1
   0   1   3 22012.4 419.110   1
   0  -1  -3 20635.5 519.320   1
   2   2   0 277669. 1883.11   1
  -2  -2   0 290510. 1998.82   1
  -2  -2  -1 36304.6 579.290   1
   2   2   1 35437.1 582.460   1
   2   2   1 35918.6 568.980   1
  -2  -2  -1 35937.3 561.770   1
   2   2   1 37195.1 575.170   1
  -2  -2  -1 35867.1 551.690   1
   0   1  -3 10800.2 335.240   1
   0  -1   3 10832.7 325.370   1
   0   1  -3 10618.2 326.830   1
   0  -1   3 11615.8 335.450   1
   0  -2  -2 942.770 85.1500   1
   0   2   2 877.490 82.6200   1
   0   2   2 835.610 76.1400   1
   0   2   2 986.000 96.3900   1
   0  -2  -2 1024.17 99.8100   1
   0  -2  -2 942.490 81.7700   1
   0  -2  -2 954.080 96.6600   1
   0   2   2 1067.12 97.8500   1
   0   2   2 840.770 76.4600   1
   1  -2   0 292948. 1976.49   1
  -1   2   0 294547. 1973.65   1
   1  -2   0 289934. 2117.25   1
  -1   2   0 296455. 2060.04   1
  -1   0   3 340665. 2295.21   1
   1   0  -3 353596. 2270.12   1
  -1   0   3 360347. 2357.96   1
  -1  -2   2 197711. 1661.27   1
   1   2  -2 203157. 1550.92   1
  -1  -2   2 217176. 1659.29   1
  -1  -2   2 202198. 1565.22   1
   1   2  -2 207692. 1581.61   1
   2  -1   0 38097.6 670.260   1
   2  -1   0 38715.8 607.860   1
  -2   1   0 38655.8 608.040   1
   2  -1   0 41498.8 676.580   1
  -2   1   0 40465.1 665.060   1
  -2   1   0 39014.4 610.610   1
   2  -1   0 37520.2 699.210   1
   2  -1   1 338364. 2219.60   1
  -2   1  -1 340310. 2138.93   1
  -2   1  -1 357988. 2300.81   1
   2  -1   1 332032. 2119.81   1
   2   2  -1 10305.5 312.710   1
  -2  -2   1 9840.20 337.660   1
  -2  -2   1 9192.78 305.570   1
   2   2  -1 9791.98 280.900   1
   2   2  -1 10348.3 320.390   1
  -2  -2   1 9522.04 299.580   1
   1  -2   1 24130.1 467.730   1
  -1   2  -1 24665.1 454.550   1
   1  -2   1 23407.6 437.800   1
  -1   2  -1 26192.1 536.760   1
  -1   2  -1 25681.3 526.530   1
   2   2   2 157.720 48.4300   1
   2   2   2 188.890 54.8800   1
   2   2   2 198.670 54.2700   1
  -2  -2  -2 226.200 65.0900   1
   2   2   2 207.030 66.2800   1
  -1   1  -3 13548.8 371.800   1
  -1   1  -3 12991.2 332.870   1
   1  -1   3 13059.1 324.330   1
   1  -1   3 12844.0 337.490   1
  -1   1  -3 12006.0 321.210   1
  -1  -1   3 2982.03 161.750   1
   1   1  -3 3142.66 185.270   1
   1   1  -3 3162.21 200.810   1
  -1  -1   3 3058.53 176.950   1
   1   1  -3 3262.98 165.550   1
  -1  -1   3 3015.73 165.770   1
   2   1  -2 276032. 1996.10   1
  -2  -1   2 279490. 1968.63   1
   2   1  -2 285354. 1943.97   1
  -2  -1   2 271193. 1882.39   1
   2   1  -2 267100. 2010.06   1
   1  -2  -1 53095.6 757.330   1
   1  -2  -1 52959.4 679.930   1
   1  -2  -1 56756.1 672.430   1
   1  -2  -1 55108.4 735.930   1
  -1   2   1 56692.5 747.820   1
   2   0  -2 78308.4 881.740   1
  -2   0   2 73601.6 872.340   1
  -2   0   2 72278.9 874.410   1
  -2   0   2 74629.7 892.930   1
   2   0  -2 70765.9 889.120   1
   2   0  -2 65423.6 993.430   1
  -2   0   2 69132.1 840.270   1
   2   1   3 468.600 73.1400   1
  -2  -1  -3 544.950 77.6100   1
   2   1   3 548.540 68.7300   1
  -2  -1  -3 552.750 82.4600   1
   2   1   3 527.660 67.3800   1
  -2  -1  -3 513.130 68.0100   1
   2  -1  -1 117251. 1173.37   1
  -2   1   1 119978. 1153.12   1
   2  -1  -1 126758. 1136.92   1
   2  -1  -1 116378. 1170.97   1
  -2   1   1 121429. 1238.76   1
  -2   1   1 122248. 1175.89   1
  -2   0  -3 131117. 1115.32   1
   2   0   3 126679. 1094.66   1
   2   0   3 125428. 1111.97   1
  -2   0  -3 132764. 1311.01   1
   2   0   3 127680. 1064.30   1
  -2   0  -3 131990. 1106.94   1
   2   0   3 124669. 1045.53   1
  -1  -2  -3 160256. 1237.49   1
   1   2   3 159327. 1321.27   1
  -1  -2  -3 159853. 1435.77   1
   1   2   3 160279. 1263.24   1
   1   2   3 164249. 1311.62   1
  -1  -2  -3 163193. 1581.29   1
   2  -1   2 57601.1 685.220   1
   2  -1   2 55092.1 705.030   1
  -2   1  -2 55257.0 695.580   1
  -2   1  -2 56794.5 713.920   1
  -1   1   3 26466.4 466.920   1
  -1   1   3 25946.9 465.960   1
   1  -1  -3 26373.3 503.570   1
   1  -1  -3 26201.6 509.330   1
   1  -1  -3 26711.5 499.480   1
  -1   1   3 25517.4 493.640   1
  -1   1   3 26436.5 472.280   1
   1  -2   2 73227.6 867.960   1
   1  -2   2 72023.9 963.960   1
  -1   2  -2 74079.8 853.390   1
  -1   2  -2 75627.6 841.910   1
   1   3   0 40736.4 585.340   1
  -1  -3   0 40533.0 663.590   1
   1   3   0 40548.4 597.880   1
   1   3   0 39337.8 580.360   1
  -1  -3   0 39390.6 598.570   1
   3   1   1 54757.3 1020.99   1
  -3  -1  -1 55118.9 721.160   1
   3   1   1 55235.5 721.650   1
   3   1   1 56256.5 762.550   1
   3   1   1 54161.2 724.370   1
   3   1   1 52838.3 844.160   1
   0   0   4 153126. 1306.70   1
   0   0  -4 152831. 1570.86   1
   0   0  -4 145727. 1269.25   1
   0   0  -4 154636. 1284.34   1
   1   3   1 12601.6 308.550   1
   1   3   1 12667.6 330.990   1
  -1  -3  -1 12678.5 341.520   1
  -1  -3  -1 12558.7 325.810   1
  -1  -3  -1 13036.9 413.710   1
  -1  -3  -1 12231.6 320.720   1
   1   3   1 12955.8 370.430   1
   1   3   1 12958.1 326.770   1
   3   1   0 41587.4 605.450   1
   3   1   0 42846.7 678.830   1
   3   1   0 43071.6 661.340   1
   3   1   0 42298.0 671.460   1
  -1   0  -4 1732.94 156.820   1
   1   0   4 1768.20 120.720   1
  -1   0  -4 1471.72 135.740   1
   1   0   4 1779.42 129.970   1
  -1   0  -4 1718.28 125.570   1
   0  -2  -3 219138. 1581.87   1
   0   2   3 217621. 1648.30   1
   0   2   3 209213. 1540.27   1
   0   2   3 219203. 1592.65   1
   0  -2  -3 224933. 1552.25   1
   0  -2  -3 211769. 1734.80   1
   0   2   3 216816. 1620.15   1
   0   2   3 215763. 1603.21   1
   0   2   3 215659. 1553.01   1
  -2  -2   2 1417.91 117.320   1
  -2  -2   2 1485.16 125.840   1
   2   2  -2 1573.82 128.880   1
   2   2  -2 1404.61 133.840   1
  -2  -2   2 1411.21 119.800   1
   1   1   4 35860.0 658.370   1
  -1  -1  -4 36200.8 658.200   1
   1   1   4 40515.8 613.010   1
  -1  -1  -4 39477.5 544.640   1
   1   1   4 38282.8 618.340   1
  -1  -1  -4 34952.4 661.790   1
   1   1   4 38908.5 609.540   1
   1  -2  -2 30222.8 486.130   1
  -1   2   2 31666.8 560.800   1
  -1   2   2 30544.5 564.770   1
   1  -2  -2 28544.9 559.070   1
   1  -2  -2 28794.8 450.520   1
  -1   2   2 30787.8 516.310   1
   1  -2  -2 29331.0 531.820   1
  -2  -2  -3 24590.4 456.790   1
   2   2   3 21550.2 397.760   1
   2   2   3 25551.2 507.940   1
  -2  -2  -3 23919.8 452.960   1
   2   2   3 22903.9 455.540   1
   2   2   3 23081.7 457.540   1
   2   2   3 22685.8 420.220   1
   0   2  -3 299234. 2185.29   1
   0  -2   3 287307. 2180.88   1
   0   2  -3 308193. 2030.44   1
   0  -2   3 283381. 1970.94   1
   1   3  -1 104459. 1006.39   1
  -1  -3   1 98058.3 1053.80   1
   1   3  -1 106541. 1094.42   1
  -1  -3   1 100337. 1062.41   1
   0  -3   0 154172. 1357.08   1
   0   3   0 158134. 1297.50   1
   0   3   0 155856. 1317.67   1
   0  -3   0 156792. 1455.45   1
   0   3   0 158240. 1305.72   1
   0   3   0 150570. 1257.91   1
   3   1   2 16377.3 422.390   1
  -3  -1  -2 16074.7 426.850   1
   3   1   2 16923.7 359.520   1
  -3  -1  -2 18095.0 404.700   1
   0   1   4 186400. 1543.28   1
   0  -1  -4 180951. 1354.46   1
   0   1   4 181772. 1463.06   1
   0   1   4 186544. 1573.69   1
   3   0   1 18676.6 412.010   1
   3   0   1 18660.5 398.510   1
  -3   0  -1 19047.7 422.920   1
   3   0   1 18754.2 416.330   1
   3   0   1 18534.2 441.030   1
  -3   0  -1 19713.3 449.890   1
   1   2  -3 247760. 1779.44   1
  -1  -2   3 227853. 1697.34   1
   1   2  -3 233762. 1822.63   1
  -1  -2   3 230478. 1818.45   1
  -1  -2   3 238739. 1779.14   1
   3   2   1 61270.1 774.580   1
  -3  -2  -1 58594.0 739.340   1
   3   2   1 58401.8 728.580   1
   3   2   1 59061.7 763.100   1
  -3  -2  -1 60966.6 749.180   1
  -2  -3   0 32000.0 548.950   1
   2   3   0 31274.0 519.460   1
   2   3   0 31616.1 535.760   1
  -2  -3   0 31684.7 539.010   1
   2   3   0 33170.5 622.060   1
   2   3   0 31312.3 556.320   1
   2   3   1 25545.9 461.810   1
   2   3   1 28020.9 490.410   1
  -2  -3  -1 27323.2 479.990   1
  -2  -3  -1 27413.3 484.850   1
   2   3   1 27771.4 592.500   1
  -2  -3  -1 25915.6 474.390   1
  -2   1   2 78789.2 918.210   1
   2  -1  -2 84095.6 1021.67   1
  -2   1   2 76890.2 872.230   1
  -2   1   2 81191.6 875.580   1
  -2   1   2 79530.8 936.170   1
   3   0   0 267065. 1904.68   1
  -3   0   0 259705. 1906.89   1
   3   0   0 267713. 1967.64   1
   3   0   0 266421. 2016.66   1
  -3   0   0 263579. 1975.39   1
   3   0   0 257548. 1859.26   1
   3   0   0 257863. 1818.86   1
   0   1  -4 26691.2 578.150   1
   0  -1   4 25485.5 543.080   1
   0   1  -4 25915.7 509.720   1
   0  -1   4 29656.0 547.680   1
   0  -3  -1 16183.3 397.830   1
   0   3   1 20018.1 406.240   1
   0  -3  -1 19908.6 405.370   1
   0   3   1 19498.6 448.360   1
   0  -3  -1 18617.7 460.580   1
   0  -3  -1 16592.5 585.870   1
   0   3   1 19282.4 392.420   1
  -3  -2   0 81554.6 910.430   1
   3   2   0 76416.6 879.380   1
   3   2   0 79816.8 873.310   1
   3   2   0 82166.6 964.060   1
   3   2   0 82257.4 897.820   1
   3   2   0 80848.3 929.090   1
  -3  -2   0 82069.9 899.010   1
   0  -3   1 125858. 1185.34   1
   0   3  -1 134823. 1209.42   1
   0  -3   1 132091. 1150.29   1
   0   3  -1 135799. 1262.64   1
   1   3   2 293238. 1927.15   1
  -1  -3  -2 294753. 2051.96   1
  -1  -3  -2 294911. 2029.82   1
  -1  -3  -2 298613. 2247.02   1
   1   3   2 294785. 1923.17   1
  -1  -3  -2 299357. 1923.04   1
   1   3   2 291735. 1962.41   1
  -3  -1   1 168808. 1686.53   1
  -3  -1   1 166200. 1620.21   1
   3   1  -1 172482. 1712.53   1
  -3  -1   1 173278. 1450.49   1
   3   1  -1 176750. 1793.70   1
   3   1  -1 172702. 1957.10   1
  -3  -1   1 178890. 1919.15   1
  -3  -1   1 177771. 1456.45   1
   2  -1   3 48490.1 717.990   1
  -2   1  -3 47090.6 766.670   1
  -2   1  -3 45810.6 703.040   1
  -2   1  -3 46109.2 644.380   1
   2  -1   3 45893.2 701.890   1
   2  -1   3 46174.9 661.830   1
   2   1  -3 16696.0 406.080   1
   2   1  -3 15518.5 437.190   1
  -2  -1   3 16060.1 385.230   1
  -2  -1   3 16257.5 390.420   1
   2   1  -3 16755.8 414.420   1
  -2  -1   3 15437.8 412.840   1
   3   0   2 29631.3 511.160   1
  -3   0  -2 31291.2 588.600   1
   3   0   2 29984.4 552.070   1
  -3   0  -2 31549.2 631.780   1
  -2   0   3 117050. 1327.17   1
  -2   0   3 114399. 1274.97   1
   2   0  -3 120388. 1296.34   1
  -2   0   3 115872. 1314.20   1
   2   0  -3 113187. 1341.29   1
   3   2   2 11039.9 305.240   1
  -3  -2  -2 10592.9 305.320   1
   3   2   2 10938.1 309.420   1
   3   2   2 9996.58 303.710   1
   3   2   2 10990.5 319.770   1
  -1   1  -4 245968. 2247.21   1
   1  -1   4 249068. 2292.82   1
  -1   1  -4 255284. 2400.99   1
   1   0  -4 25101.8 512.880   1
  -1   0   4 24726.4 525.950   1
   1   0  -4 22846.7 585.710   1
   1   0  -4 25196.4 593.910   1
  -1   0   4 24079.5 477.790   1
  -1   0   4 21020.7 492.370   1
   2   1   4 107175. 1137.05   1
   2   1   4 109299. 1132.54   1
  -2  -1  -4 110303. 1150.18   1
   2   1   4 103053. 1099.42   1
  -2  -1  -4 100663. 1364.17   1
   2   1   4 108767. 1280.82   1
  -2  -1  -4 106769. 1198.16   1
   2   3  -1 264989. 2241.17   1
  -2  -3   1 261333. 2335.64   1
   2   3  -1 258885. 2296.10   1
  -2  -3  -2 169904. 1681.51   1
   2   3   2 166186. 1582.47   1
   2   3   2 173880. 1675.29   1
  -2  -3  -2 168979. 1649.98   1
   2   3   2 169167. 1723.02   1
  -2  -3  -2 171354. 1687.03   1
   2   3   2 166308. 1612.47   1
   2   3   2 171667. 1652.83   1
   1  -2   3 86942.4 1051.82   1
  -1   2  -3 82822.3 1007.08   1
  -1   2  -3 85469.2 1087.19   1
   1  -2   3 89147.6 1222.53   1
  -3   0   1 71438.3 947.160   1
  -3   0   1 70645.5 916.570   1
   3   0  -1 73503.9 965.050   1
  -3   0   1 72459.8 968.680   1
   3   0  -1 70255.5 934.630   1
  -3   0   1 75127.6 950.250   1
   3   0  -1 71671.7 952.400   1
  -3   0   1 70997.1 989.740   1
   1   1  -4 80610.6 1124.97   1
   1   1  -4 87090.8 1032.33   1
  -1  -1   4 79380.1 1044.27   1
  -1  -1   4 79718.8 997.130   1
  -1  -1   4 78797.8 1039.29   1
   1   1  -4 79670.2 1129.19   1
  -2   0  -4 34837.2 622.900   1
   2   0   4 33669.3 628.860   1
  -2   0  -4 36020.4 568.870   1
   2   0   4 34617.3 528.520   1
  -2   0  -4 33405.0 681.930   1
   2   0   4 33499.7 571.250   1
   2  -2   0 60784.6 901.180   1
  -2   2   0 62433.7 871.220   1
  -2   2   0 62804.3 849.750   1
  -2   2   0 64716.0 1048.73   1
   2  -2   0 62952.5 831.820   1
   2  -2   0 62135.2 842.280   1
  -3  -2   1 12488.1 413.670   1
  -3  -2   1 11545.2 334.210   1
  -3  -2   1 12373.6 335.650   1
   3   2  -1 12326.3 347.530   1
   3   2  -1 12501.8 337.850   1
  -3  -2   1 11512.5 342.310   1
   3   2  -1 12062.0 343.780   1
  -1  -3   2 112237. 1273.71   1
   1   3  -2 119002. 1314.14   1
   1   3  -2 112986. 1213.85   1
  -1  -3   2 110303. 1226.53   1
   2  -2   1 5690.95 219.700   1
  -2   2  -1 5578.59 213.190   1
   2  -2   1 5687.91 230.290   1
   0   3   2 100360. 1138.29   1
   0  -3  -2 95749.0 1164.73   1
   0  -3  -2 99091.5 1292.74   1
   0   3   2 95642.5 1111.06   1
   0   3   2 89068.5 1020.16   1
   0  -3  -2 89464.4 1354.46   1
   0  -3  -2 95156.6 1219.64   1
   0   3   2 97884.9 1162.26   1
   0  -3  -2 100545. 1117.77   1
   1   2   4 147965. 1458.65   1
  -1  -2  -4 144937. 1474.93   1
  -1  -2  -4 148393. 1422.40   1
   1   2   4 144880. 1472.78   1
  -1  -2  -4 148521. 1758.36   1
   1   2   4 145446. 1492.95   1
   1   2   4 141636. 1509.07   1
  -3  -1  -3 569.300 95.0500   1
   3   1   3 618.400 85.2200   1
  -3  -1  -3 649.070 79.9200   1
   3   1   3 593.800 72.2300   1
   3   1   3 604.840 71.2400   1
   0   3  -2 3504.10 168.410   1
   0  -3   2 3496.11 172.430   1
   0  -3   2 3965.79 191.370   1
   0   3  -2 4119.11 199.440   1
   0  -3   2 3716.96 192.980   1
   1  -2  -3 72998.3 1054.09   1
   1  -2  -3 73403.3 977.620   1
  -1   2   3 77523.2 1033.13   1
  -1   2   3 75552.9 973.870   1
   1  -2  -3 77438.8 892.480   1
  -1   2   3 76307.5 936.210   1
  -2   2   1 196841. 1899.25   1
   2  -2  -1 197121. 1912.01   1
   2  -2  -1 209722. 1908.19   1
   2  -2  -1 202358. 1903.60   1
  -2   2   1 203143. 1923.12   1
   2  -2  -1 186918. 1970.93   1
  -2   2   1 205766. 1994.06   1
  -2  -2   3 96667.8 1203.44   1
  -2  -2   3 98410.4 1177.43   1
   2   2  -3 95575.9 1251.21   1
   2   2  -3 99228.4 1217.71   1
  -2  -2   3 99771.8 1176.20   1
   2   2  -3 102081. 1190.94   1
   1  -1  -4 49926.7 729.990   1
   1  -1  -4 47749.5 735.040   1
  -1   1   4 50205.7 734.180   1
  -1   1   4 50091.2 788.830   1
   1  -1  -4 50597.6 736.230   1
  -1   1   4 49064.7 744.370   1
   1  -1  -4 43415.8 827.420   1
   3   1  -2 122001. 1365.58   1
   3   1  -2 112902. 1457.69   1
  -3  -1   2 117949. 1299.89   1
   3   1  -2 124640. 1348.84   1
  -3  -1   2 119625. 1436.26   1
  -3  -1   2 126097. 1532.03   1
  -3  -1   2 122492. 1305.81   1
   1   3   3 3246.04 158.400   1
  -1  -3  -3 3066.08 163.130   1
  -1  -3  -3 3534.30 163.040   1
   1   3   3 3237.33 164.920   1
  -1  -3  -3 3466.23 199.550   1
  -1  -3  -3 3344.42 180.520   1
   1   3   3 3468.97 175.330   1
   1   3   3 3347.26 153.320   1
   1   3   3 3361.29 175.940   1
   2   2   4 85474.2 988.730   1
  -2  -2  -4 84679.4 979.510   1
   2   2   4 85547.8 1066.93   1
  -2  -2  -4 87394.1 1016.74   1
   2   2   4 91990.9 1171.23   1
   1  -3   0 20729.3 447.600   1
  -1   3   0 21761.0 456.910   1
  -1   3   0 21965.3 451.960   1
   1  -3   0 22322.2 522.430   1
  -1   3   0 22938.4 476.720   1
   2  -2   2 176898. 1736.76   1
  -2   2  -2 176622. 1838.42   1
   2  -2   2 183252. 1757.72   1
  -2   2  -2 180089. 1771.18   1
   3   0   3 91049.4 1010.71   1
   3   0   3 89879.5 1068.85   1
   3   0   3 87840.5 1043.03   1
  -3   0  -3 90090.6 1058.27   1
  -3   0  -3 89813.8 1211.97   1
   3   2   3 115796. 1275.02   1
  -3  -2  -3 122452. 1311.04   1
   3   2   3 117885. 1228.67   1
   3   2   3 118530. 1224.73   1
   3   2   3 112968. 1301.70   1
   0   2   4 39190.0 646.510   1
   0  -2  -4 36567.1 685.480   1
   0   2   4 38857.0 654.180   1
   0   2   4 37277.1 628.950   1
   0   2   4 37356.4 667.700   1
   0   2   4 39254.8 647.800   1
   0  -2  -4 39530.0 759.950   1
   0  -2  -4 40152.5 611.540   1
   3  -1   1 101640. 1123.94   1
   3  -1   1 110732. 1281.77   1
   3  -1   1 105629. 1202.19   1
  -3   1  -1 110874. 1219.60   1
   3  -1   1 106629. 1135.73   1
  -3   1  -1 104390. 1193.81   1
   3  -1   0 37.6200 63.7200   1
  -3   1   0 125.990 53.2700   1
   3  -1   0 112.320 49.6600   1
   3  -1   0 102.640 45.3700   1
  -3   1   0 101.370 43.7600   1
   3  -1   0 84.7200 49.0600   1
  -3   1   0 157.860 54.3600   1
   2  -1  -3 109751. 1346.32   1
   2  -1  -3 114033. 1335.57   1
  -2   1   3 108190. 1175.35   1
  -2   1   3 107334. 1235.60   1
  -2   1   3 109638. 1439.50   1
  -2   1   3 112243. 1283.96   1
   1  -3   1 128595. 1361.70   1
  -1   3  -1 136565. 1404.82   1
  -1   3  -1 129498. 1380.28   1
   1  -3   1 128088. 1358.90   1
  -1   3  -1 132835. 1443.01   1
   3   3   1 88938.6 1086.63   1
  -3  -3  -1 95998.3 1144.34   1
   3   3   1 95024.1 1125.53   1
   3   3   1 90131.2 1092.55   1
  -3  -3  -1 92813.3 1124.92   1
  -2  -3   2 15665.8 404.980   1
  -2  -3   2 15848.3 431.450   1
   2   3  -2 15385.9 381.540   1
   2   3  -2 16559.9 397.300   1
  -2  -3   2 15427.8 392.530   1
   2   3   3 74234.2 894.660   1
   2   3   3 81147.1 979.000   1
   2   3   3 77649.0 1006.67   1
   2   3   3 78259.8 913.110   1
   2   3   3 80605.6 1113.06   1
  -2  -3  -3 78604.7 979.310   1
  -2  -3  -3 78849.3 1074.70   1
  -2  -3  -3 82222.6 1003.73   1
   0   2  -4 8709.47 273.350   1
   0  -2   4 8259.51 289.160   1
   0   2  -4 8536.99 311.270   1
   0  -2   4 7898.93 260.630   1
   3   3   0 51661.3 743.920   1
   3   3   0 57140.1 867.480   1
  -3  -3   0 54133.1 787.680   1
  -3  -3   0 52159.7 747.360   1
   3   3   0 51382.2 791.030   1
   3   3   0 48579.9 733.720   1
  -1   3   1 3285.52 170.410   1
   1  -3  -1 3436.44 158.340   1
  -1   3   1 3629.34 180.960   1
  -1   3   1 3807.84 185.350   1
   1  -3  -1 3302.39 185.710   1
   1  -3  -1 3469.94 176.740   1
  -1   3   1 3601.43 159.000   1
   3   0  -2 376.760 75.9700   1
  -3   0   2 301.350 75.8100   1
  -3   0   2 328.090 69.4800   1
   3   0  -2 360.580 112.500   1
  -3   0   2 296.930 62.4900   1
  -3   0   2 306.430 58.9400   1
  -3   0   2 323.270 71.6800   1
   1   0   5 24451.0 488.500   1
  -1   0  -5 24321.5 609.070   1
  -1   0  -5 23217.7 483.460   1
   1   0   5 23609.7 517.890   1
  -1   0  -5 23048.5 429.790   1
   0   0   5 1143.78 113.210   1
   0   0  -5 1110.59 103.870   1
   0   0   5 1171.07 107.180   1
   0   0  -5 1195.09 135.830   1
   0   0  -5 1065.18 90.0700   1
   0   0  -5 991.560 114.230   1
   0   0   5 1206.07 116.870   1
  -3  -2   2 20461.2 492.710   1
   3   2  -2 20942.5 467.720   1
  -3  -2   2 21356.2 519.150   1
   3   2  -2 21629.0 474.990   1
   3   2  -2 20832.5 456.040   1
   2  -1   4 144362. 1432.67   1
  -2   1  -4 149063. 1648.92   1
  -2   1  -4 152449. 1511.55   1
   2  -1   4 156732. 1625.55   1
  -2   1  -4 150604. 1529.43   1
  -3   1  -2 85899.8 1108.21   1
   3  -1   2 82113.8 1023.95   1
  -3   1  -2 85167.3 1095.47   1
   3  -1   2 80787.5 928.680   1
   3  -1   2 84544.4 1073.42   1
   3  -1   2 86995.4 1032.42   1
  -1  -1  -5 207468. 1915.37   1
   1   1   5 210756. 1902.50   1
   1   1   5 213940. 2043.56   1
   1   1   5 203546. 1870.03   1
  -1  -1  -5 200909. 1877.29   1
   1   1   5 215871. 2053.83   1
  -1  -2   4 43505.4 662.900   1
   1   2  -4 41359.7 725.610   1
  -1  -2   4 44724.8 721.930   1
  -1  -2   4 43152.6 787.510   1
   1   2  -4 46689.6 723.750   1
   3   3   2 168823. 1597.57   1
   3   3   2 171233. 1678.27   1
  -3  -3  -2 173354. 1745.96   1
   3   3   2 163665. 1608.39   1
   3   3   2 162588. 1664.03   1
  -3  -3  -2 167187. 1638.07   1
   3  -1  -1 15344.9 383.130   1
   3  -1  -1 14443.1 374.090   1
   3  -1  -1 14985.2 415.830   1
  -3   1   1 14989.2 386.660   1
   3  -1  -1 14266.7 363.990   1
  -3   1   1 14477.1 375.960   1
  -3   1   1 14602.7 385.530   1
   0   3   3 144096. 1492.80   1
   0  -3  -3 142196. 1449.42   1
   0  -3  -3 139305. 1507.04   1
   0   3   3 143444. 1504.41   1
   0   3   3 140950. 1438.53   1
   0  -3  -3 143948. 1406.87   1
   0   3   3 143119. 1516.42   1
  -2   2   2 83584.2 1094.48   1
  -2   2   2 89179.1 1186.42   1
   2  -2  -2 91657.6 1072.75   1
   2  -2  -2 85514.6 1198.62   1
  -2   2   2 84460.6 1000.92   1
   2  -2  -2 85626.3 1021.71   1
   2  -2  -2 83337.1 1146.34   1
   1   3  -3 99904.7 1165.77   1
  -1  -3   3 91415.4 1114.54   1
   1   3  -3 90387.0 1082.27   1
  -1  -3   3 93983.7 1081.01   1
   1  -3   2 1707.16 131.820   1
  -1   3  -2 1679.12 119.530   1
   1  -3   2 1778.75 125.570   1
  -1   3  -2 1923.48 131.080   1
   0   1   5 72146.4 947.360   1
   0  -1  -5 66855.8 1105.05   1
   0  -1  -5 71416.1 913.420   1
   0   1   5 63893.4 880.860   1
   0   1   5 73473.6 954.560   1
   0  -1  -5 74241.4 1154.47   1
   3   3  -1 170798. 1714.61   1
  -3  -3   1 172536. 1712.58   1
  -3  -3   1 151419. 1952.17   1
  -3  -3   1 154237. 1630.64   1
   3   3  -1 157906. 1716.17   1
   0   3  -3 158.410 54.3400   1
   0  -3   3 127.190 57.5200   1
   0   3  -3 205.610 58.1800   1
   0  -3   3 219.000 71.7600   1
   1  -2   4 8442.80 270.280   1
  -1   2  -4 8224.52 287.890   1
   1  -2   4 8091.07 312.430   1
  -1   2  -4 8131.77 284.100   1
   3   1   4 126664. 1248.12   1
   3   1   4 120825. 1353.90   1
   3   1   4 123621. 1294.93   1
  -3  -1  -4 113994. 1510.64   1
  -3  -1  -4 119173. 1258.33   1
  -3  -1  -4 126153. 1329.81   1
   2   1  -4 112036. 1433.17   1
   2   1  -4 125185. 1536.95   1
  -2  -1   4 118554. 1451.67   1
   2   1  -4 119883. 1331.88   1
  -2  -1   4 116054. 1336.07   1
  -2  -1   4 116743. 1340.27   1
   0  -1   5 77628.1 998.270   1
   0   1  -5 75769.5 1129.01   1
   0  -1   5 74832.8 1028.98   1
   0   1  -5 71316.4 968.160   1
   2   0  -4 5764.11 256.640   1
  -2   0   4 5417.39 230.390   1
   2   0  -4 5661.81 233.830   1
  -2   0   4 5550.75 221.090   1
   2   0  -4 4770.96 253.940   1
  -2   0   4 5839.82 247.920   1
  -2   2  -3 57710.5 825.960   1
   2  -2   3 59747.5 807.410   1
   2  -2   3 61676.3 1012.31   1
  -2   2  -3 60255.6 813.190   1
  -1   3   2 131712. 1381.76   1
  -1   3   2 137011. 1454.86   1
   1  -3  -2 130966. 1617.56   1
   1  -3  -2 130401. 1481.92   1
  -1   3   2 131637. 1492.34   1
   1  -3  -2 142250. 1412.93   1
   1  -3  -2 131984. 1493.24   1
  -2  -1  -5 61010.9 814.670   1
   2   1   5 63730.4 864.010   1
  -2  -1  -5 57730.2 936.580   1
   2   1   5 64777.8 931.690   1
  -2  -1  -5 61192.8 880.980   1
   2   1   5 58929.7 764.300   1
  -1  -4   0 43070.0 669.790   1
   1   4   0 40829.0 654.450   1
   1   4   0 41032.0 648.350   1
  -1  -4   0 44633.6 738.590   1
  -1   1  -5 98066.4 1208.74   1
  -1   1  -5 93722.0 1206.28   1
  -1   1  -5 104544. 1324.27   1
   1  -1   5 104046. 1157.29   1
   1  -1   5 102107. 1237.08   1
   4   1   1 165799. 1629.03   1
   4   1   1 166211. 1645.16   1
   4   1   1 162414. 1605.00   1
   4   1   1 160390. 1654.24   1
  -1  -4  -1 90198.7 1076.01   1
   1   4   1 91686.4 1085.06   1
   1   4   1 96233.8 1073.37   1
  -1  -4  -1 93313.5 1196.14   1
  -1  -4  -1 87835.3 1120.14   1
   1   4   1 95550.2 1107.61   1
   2   0   5 44872.2 661.270   1
  -2   0  -5 45531.5 687.420   1
  -2   0  -5 42335.4 648.030   1
   2   0   5 40998.3 680.650   1
  -2   0  -5 41545.0 825.760   1
   2   0   5 44524.9 648.700   1
   3   2   4 8243.01 268.750   1
   3   2   4 7702.97 270.710   1
  -3  -2  -4 6727.69 297.420   1
   3   2   4 7727.13 265.980   1
  -3  -2  -4 8142.95 280.730   1
  -3   0  -4 39666.2 628.450   1
   3   0   4 40438.1 588.430   1
  -3   0  -4 38670.7 769.990   1
   3   0   4 38773.2 599.250   1
  -3   0  -4 38004.0 629.030   1
   3   0   4 38934.4 565.160   1
   3   0   4 39682.2 632.250   1
   3  -1   3 94858.5 1061.34   1
  -3   1  -3 91664.2 1088.71   1
  -3   1  -3 93677.5 1151.92   1
   3  -1   3 90013.2 1040.53   1
   3  -1   3 95158.5 1043.61   1
  -2  -4  -1 110974. 1216.15   1
   2   4   1 114465. 1243.88   1
   2   4   1 106486. 1413.90   1
   2   4   1 111641. 1227.02   1
  -2  -4  -1 116787. 1283.71   1
   3   3   3 79.4400 51.8200   1
   3   3   3 76.1000 58.3900   1
   3   3   3 82.7600 51.0200   1
   3   3   3 42.1800 50.1600   1
   3   3   3 71.4100 59.9600   1
  -3  -3  -3 131.830 59.1100   1
   3   3   3 91.1600 45.3600   1
   4   1   0 637.420 111.610   1
   4   1   0 611.140 86.6900   1
   4   1   0 554.600 83.4900   1
   4   1   0 583.420 90.1100   1
   2   4   0 28442.4 614.500   1
   2   4   0 29978.4 537.650   1
   2   4   0 29743.9 571.320   1
  -2  -4   0 30936.0 550.850   1
   2   4   0 29777.5 636.050   1
   1   0  -5 50406.6 903.560   1
   1   0  -5 46681.6 850.650   1
   1   0  -5 53404.5 836.470   1
  -1   0   5 47378.3 731.620   1
   4   2   1 16863.1 420.320   1
   4   2   1 16133.0 387.540   1
   4   2   1 16175.9 378.530   1
   4   2   1 17061.3 440.750   1
   4   2   1 14799.4 410.750   1
  -3  -1   3 7951.96 291.570   1
   3   1  -3 8120.12 293.390   1
   3   1  -3 7554.15 336.140   1
  -3  -1   3 8145.91 309.750   1
  -3  -1   3 7424.20 260.690   1
   3   1  -3 8421.26 287.260   1
  -1  -3  -4 76901.9 1307.60   1
   1   3   4 78983.6 1015.11   1
   1   3   4 79758.4 923.690   1
  -1  -3  -4 79467.7 948.480   1
   1   3   4 79931.8 974.010   1
   1   3   4 79359.2 902.030   1
   1   3   4 76830.6 978.190   1
   1   3   4 78622.5 974.640   1
   1   3   4 80330.2 979.450   1
  -1  -3  -4 79203.9 931.600   1
  -1   2   4 97068.9 1195.48   1
   1  -2  -4 88055.6 1042.82   1
   1  -2  -4 91098.1 1270.18   1
   1  -2  -4 88922.6 989.880   1
  -1   2   4 90311.0 1100.53   1
  -1   2   4 88627.5 1087.06   1
  -1   2   4 94047.4 1120.49   1
  -4  -1  -2 19454.2 444.430   1
   4   1   2 19001.1 471.600   1
   4   1   2 19377.9 413.030   1
  -4  -1  -2 18239.1 539.920   1
   1   4  -1 95151.3 1129.11   1
   1   4  -1 87825.9 1052.57   1
  -1  -4   1 87644.2 1039.32   1
   1   2   5 849.060 82.1700   1
  -1  -2  -5 716.530 102.230   1
   1   2   5 676.860 72.4300   1
  -1  -2  -5 765.160 120.130   1
  -1  -2  -5 777.490 83.9700   1
  -1  -2  -5 688.760 86.0100   1
   1   2   5 794.890 98.1400   1
   1   2   5 987.000 101.350   1
   4   2   0 171303. 1669.38   1
  -4  -2   0 176005. 1735.61   1
   4   2   0 163991. 2404.58   1
   4   2   0 170568. 1719.57   1
   4   2   0 177237. 1756.93   1
  -4  -2   0 174350. 1995.07   1
   4   2   0 172473. 1733.07   1
  -2  -3   3 90499.6 1224.31   1
   2   3  -3 93323.8 1118.15   1
  -2  -3   3 96162.6 1172.19   1
   2   3  -3 101688. 1202.19   1
  -2  -3   3 93334.6 1090.44   1
  -2  -3  -4 44027.4 644.660   1
   2   3   4 45784.1 675.940   1
   2   3   4 43342.9 639.060   1
   2   3   4 42519.4 695.440   1
   2   3   4 45281.6 680.150   1
   2   3   4 40694.2 701.930   1
   2   3   4 44246.2 679.220   1
  -2  -3  -4 43346.2 662.460   1
  -1  -1   5 92709.4 1104.25   1
  -1  -1   5 90435.7 1074.34   1
   1   1  -5 96431.6 1390.90   1
   1   1  -5 91141.3 1204.37   1
  -1  -1   5 90221.8 1103.29   1
   1   1  -5 87550.3 1112.23   1
  -3   1   2 101538. 1150.53   1
  -3   1   2 97994.0 1175.91   1
   3  -1  -2 100068. 1171.01   1
  -3   1   2 99498.8 1116.53   1
  -3   1   2 100273. 1138.85   1
   3  -1  -2 103692. 1246.12   1
  -4  -2  -2 3304.86 182.730   1
   4   2   2 3313.36 184.670   1
   4   2   2 3639.75 172.630   1
   4   2   2 3430.37 197.260   1
   4   2   2 3214.26 170.510   1
  -2  -2   4 49281.3 726.800   1
  -2  -2   4 53005.2 781.080   1
  -2  -2   4 53395.3 728.690   1
   2   2  -4 51271.4 776.460   1
   2   2  -4 51475.8 897.370   1
   2   2  -4 52189.3 820.180   1
  -1  -4  -2 142.760 59.0400   1
  -1  -4  -2 170.200 61.0300   1
   1   4   2 164.990 53.0000   1
  -1  -4  -2 145.270 51.4500   1
   1   4   2 143.720 64.0800   1
  -1  -4  -2 221.100 62.8600   1
   1   4   2 202.380 49.9600   1
  -3   0   3 197812. 1763.03   1
  -3   0   3 194378. 1819.13   1
   3   0  -3 194987. 1904.34   1
   3   0  -3 204486. 1848.29   1
  -3   0   3 194890. 1795.02   1
  -3   0   3 201619. 1913.44   1
   0  -4   0 106261. 1148.24   1
   0  -4   0 109206. 1264.00   1
   0   4   0 109284. 1164.91   1
   0   4   0 103608. 1157.61   1
   0   4   0 110350. 1156.08   1
   2   4   2 37128.2 607.910   1
   2   4   2 34486.2 592.050   1
  -2  -4  -2 35136.7 589.340   1
   2   4   2 34387.2 657.470   1
  -2  -4  -2 32631.7 881.280   1
  -2  -4  -2 34120.1 600.940   1
   2   4   2 32056.8 623.380   1
  -2  -4  -2 33798.8 604.980   1
   2   2   5 4311.03 173.740   1
   2   2   5 4425.92 225.150   1
   2   2   5 4295.26 174.010   1
  -2  -2  -5 4098.72 186.660   1
   2   2   5 4252.59 200.330   1
  -2  -2  -5 3835.23 235.560   1
  -2  -4   1 7989.97 264.470   1
   2   4  -1 7618.12 276.830   1
  -2  -4   1 8828.55 426.870   1
   2   4  -1 7388.46 255.130   1
  -3  -3   2 113333. 1661.24   1
  -3  -3   2 114125. 1244.92   1
   3   3  -2 108455. 1491.96   1
  -3  -3   2 104598. 1160.71   1
   3   3  -2 115141. 1277.09   1
  -1   3  -3 206956. 1812.19   1
  -1   3  -3 196897. 1770.06   1
   1  -3   3 198089. 2020.94   1
   4   0   1 9270.64 288.490   1
  -4   0  -1 9442.49 321.270   1
   4   0   1 9073.39 301.820   1
   4   0   1 9230.02 315.970   1
   4   0   1 9142.09 281.260   1
  -3  -2   3 125198. 1307.03   1
   3   2  -3 116988. 1373.40   1
  -3  -2   3 123540. 1402.90   1
   3   2  -3 124247. 1358.00   1
  -3  -2   3 122676. 1374.74   1
  -2   1   4 556.630 86.1300   1
  -2   1   4 462.670 74.9100   1
  -2   1   4 573.930 85.4100   1
   2  -1  -4 507.880 75.8800   1
   2  -1  -4 509.990 96.1100   1
   0   4   1 59798.1 797.900   1
   0  -4  -1 58974.7 854.740   1
   0   4   1 61044.2 786.330   1
   0  -4  -1 58998.1 806.660   1
   0   4   1 57550.6 734.330   1
   4   1  -1 50266.8 762.800   1
  -4  -1   1 49879.9 717.340   1
   4   1  -1 48495.1 746.830   1
  -4  -1   1 48644.7 744.560   1
  -2   2   3 144647. 1429.89   1
   2  -2  -3 130070. 1308.40   1
   2  -2  -3 141109. 1520.57   1
   2  -2  -3 142069. 1376.52   1
  -2   2   3 144228. 1416.10   1
  -1   1   5 235320. 1994.46   1
   1  -1  -5 225225. 2319.00   1
  -1   1   5 234130. 1945.35   1
   1  -1  -5 220993. 1765.60   1
   4   0   0 64803.0 963.060   1
  -4   0   0 65661.8 1064.36   1
   4   0   0 60557.7 792.700   1
   4   0   0 63630.0 871.560   1
   4   0   0 62153.7 824.850   1
   0  -4   1 41.2600 58.2900   1
   0   4  -1 68.0700 41.5200   1
   0   4  -1 51.8900 49.2300   1
   0   2   5 31016.8 559.030   1
   0  -2  -5 27974.1 535.910   1
   0  -2  -5 31644.3 709.170   1
   0   2   5 28472.5 529.870   1
   0   2   5 31311.9 591.970   1
   4   0   2 81700.6 1027.61   1
   4   0   2 76607.7 972.760   1
  -4   0  -2 80043.9 1110.44   1
   4   0   2 81909.8 938.100   1
  -4   0  -2 79906.3 976.820   1
  -4  -2   1 54454.0 805.120   1
   4   2  -1 56566.5 803.300   1
  -4  -2   1 54974.2 816.910   1
   4   2  -1 53686.0 800.470   1
  -4  -2   1 55628.6 770.560   1
  -4  -1  -3 101903. 1275.98   1
   4   1   3 110434. 1127.13   1
   4   1   3 105876. 1288.87   1
  -4  -1  -3 114906. 1258.07   1
   4   1   3 111123. 1164.60   1
   0   3   4 2027.13 131.420   1
   0   3   4 1828.56 136.470   1
   0   3   4 1947.81 138.580   1
   0  -3  -4 1927.28 169.150   1
   0  -3  -4 1784.96 144.150   1
   0  -3  -4 1895.56 124.560   1
   0   3   4 1826.81 118.140   1
   0   3   4 1805.89 125.400   1
   2  -3   0 71150.7 899.710   1
  -2   3   0 70669.2 898.230   1
   2  -3   0 68461.8 924.820   1
   2  -3   0 73419.7 871.880   1
  -1   3   3 151689. 1508.58   1
  -1   3   3 155003. 1661.42   1
  -1   3   3 152825. 1509.74   1
   1  -3  -3 152294. 1468.63   1
   1  -3  -3 153044. 1593.87   1
   1  -3  -3 157783. 1438.89   1
   1  -3  -3 154717. 1562.01   1
  -3   2  -1 15934.5 380.610   1
   3  -2   1 16377.7 394.160   1
   3  -2   1 15710.8 386.160   1
   2  -3   1 53734.8 749.300   1
  -2   3  -1 54582.1 762.280   1
   2  -3   1 53904.3 763.980   1
   0  -2   5 132600. 1500.10   1
   0  -2   5 140381. 1374.71   1
   0   2  -5 134877. 1365.48   1
  -3   2   0 62807.5 828.770   1
   3  -2   0 65139.9 905.110   1
   3  -2   0 64161.1 857.610   1
  -3   2   0 66235.9 886.340   1
   3  -2   0 68226.1 842.090   1
   3  -2   0 65208.4 878.080   1
  -3   2   0 65573.3 933.100   1
  -1  -4   2 77278.3 896.520   1
   1   4  -2 83010.8 1003.89   1
  -1  -4   2 73542.3 914.690   1
   2  -1   5 99039.4 1105.05   1
  -2   1  -5 97410.5 1067.56   1
   2  -1   5 103028. 1277.66   1
  -2   1  -5 97268.5 1053.91   1
  -2   1  -5 102134. 1313.42   1
   4   2   3 332793. 2465.02   1
   4   2   3 327093. 2386.45   1
   4   2   3 342995. 2408.32   1
   4   2   3 340607. 2693.40   1
   2  -2   4 5220.98 214.060   1
  -2   2  -4 5155.48 232.120   1
  -2   2  -4 5095.45 205.780   1
   2  -2   4 5397.54 284.070   1
  -2   2  -4 5178.00 237.060   1
  -2   2  -4 5228.33 227.880   1
   3   4   1 48386.9 729.020   1
  -3  -4  -1 50658.0 713.450   1
  -3  -4  -1 51544.9 733.250   1
   3   4   1 50374.9 710.750   1
   4   3   1 54302.4 747.500   1
   4   3   1 51606.2 783.030   1
   4   3   1 55514.8 845.090   1
  -4  -3  -1 55110.9 767.550   1
  -4  -3  -1 52225.4 747.370   1
  -1  -3   4 108648. 1164.03   1
  -1  -3   4 115636. 1292.12   1
  -1  -3   4 101196. 1270.74   1
   1   3  -4 113227. 1224.55   1
   0  -3   4 52685.4 878.270   1
   0  -3   4 54276.1 753.470   1
   0   3  -4 55529.0 792.110   1
   3   4   0 174544. 1639.40   1
   3   4   0 176348. 1628.26   1
  -3  -4   0 184288. 1687.97   1
  -3  -4   0 172705. 1628.13   1
  -2   3   1 2250.35 144.490   1
   2  -3  -1 2227.00 128.250   1
   2  -3  -1 2076.07 138.310   1
   2  -3  -1 2187.60 152.710   1
  -2   3   1 2320.41 163.730   1
   0   4   2 24256.8 454.960   1
   0  -4  -2 21008.9 566.290   1
   0  -4  -2 23523.1 537.790   1
   0  -4  -2 23276.2 546.230   1
   0   4   2 23756.6 521.910   1
   0  -4  -2 21354.2 537.760   1
   0   4   2 23145.6 471.220   1
   0  -4  -2 22236.7 539.950   1
  -3  -1  -5 95635.8 1095.96   1
   3   1   5 93825.1 1083.02   1
   3   1   5 91768.2 1000.00   1
   3   1   5 97918.3 1202.91   1
   3   1   5 99926.0 1018.66   1
   3   3   4 14523.0 337.660   1
   3   3   4 13490.0 353.490   1
   3   3   4 13925.8 356.810   1
   3   3   4 14807.2 404.090   1
   3   3   4 13451.7 367.190   1
  -4  -3   0 3712.47 193.670   1
   4   3   0 3486.71 215.940   1
  -4  -3   0 3798.29 180.830   1
   4   3   0 3961.70 201.020   1
   4   3   0 3964.92 184.800   1
  -3   1  -4 61372.3 900.530   1
  -3   1  -4 59696.3 834.960   1
   3  -1   4 61342.5 844.290   1
   3  -1   4 63986.1 845.600   1
  -4   0   1 127994. 1411.23   1
  -4   0   1 128182. 1415.65   1
   4   0  -1 122994. 1324.08   1
  -4   0   1 124946. 1277.47   1
   4   0  -1 118625. 1276.00   1
  -4   0   1 121346. 1316.36   1
   4   0  -1 120342. 1365.72   1
  -1  -2   5 22800.3 526.580   1
  -1  -2   5 20716.3 451.580   1
  -1  -2   5 22952.8 563.560   1
   3  -2   2 36611.9 596.050   1
  -3   2  -2 35151.5 736.770   1
   3  -2   2 36643.0 583.600   1
  -3   2  -2 36256.6 587.780   1
  -2  -4  -3 57590.1 797.690   1
  -2  -4  -3 57320.3 1156.10   1
   2   4   3 57690.4 837.700   1
   2   4   3 58943.0 786.810   1
   2   4   3 55487.6 872.780   1
  -2  -4  -3 58488.4 847.100   1
   2   4   3 58723.7 768.760   1
   4   3   2 142615. 1382.49   1
   4   3   2 128612. 1312.99   1
   4   3   2 129575. 1399.00   1
   2   4  -2 27028.7 532.790   1
   2   4  -2 24707.5 472.060   1
  -2  -4   2 23521.8 568.130   1
  -2  -4   2 26441.5 706.500   1
  -2  -4   2 23030.9 552.080   1
   1   4   3 39747.8 581.810   1
  -1  -4  -3 37065.2 739.210   1
  -1  -4  -3 39104.4 719.570   1
   1   4   3 36904.5 591.990   1
   1   4   3 38285.9 661.330   1
  -1  -4  -3 39416.9 742.150   1
  -3  -4  -2 3118.09 171.920   1
   3   4   2 2790.63 171.450   1
   3   4   2 3227.20 159.190   1
  -3  -4  -2 3228.73 168.850   1
   3   4   2 3304.86 212.240   1
   3   4   2 3101.57 172.630   1
   0  -4   2 163176. 1531.98   1
   0  -4   2 154369. 1462.08   1
  -3   2   1 218222. 1837.84   1
   3  -2  -1 204478. 1872.62   1
   3  -2  -1 212463. 1948.56   1
   3  -2  -1 217499. 1797.18   1
   3  -2  -1 211372. 1985.41   1
  -3   2   1 214563. 1874.39   1
   1   0   6 96857.4 1079.11   1
   1   0   6 105730. 1231.82   1
   2  -3   2 38615.3 612.070   1
   2  -3   2 37075.3 601.570   1
  -2   3  -2 34510.6 735.610   1
  -2   3  -2 35322.4 591.330   1
  -1   2  -5 138128. 1401.22   1
   1  -2   5 144626. 1392.85   1
  -1   2  -5 133776. 1382.05   1
   1  -2   5 136518. 1487.73   1
   1   1   6 1616.31 134.470   1
   1   1   6 1769.70 130.470   1
   0   0   6 146425. 1503.22   1
   0   0   6 146679. 1481.63   1
  -4   0  -3 173553. 1845.68   1
  -4   0  -3 178822. 1678.53   1
   4   0   3 169780. 1567.02   1
   4   0   3 174402. 1562.75   1
   4   0   3 179118. 1561.13   1
  -3   1   3 56918.0 831.940   1
  -3   1   3 55616.3 839.490   1
   3  -1  -3 56968.3 890.150   1
   3  -1  -3 54894.1 842.250   1
  -3   1   3 59663.4 902.250   1
   3   2   5 7269.82 284.880   1
   3   2   5 6806.29 215.810   1
   3   2   5 6703.67 260.130   1
   3   2   5 6563.82 260.020   1
  -3  -2  -5 5704.54 325.370   1
  -4  -1   2 21809.9 445.670   1
   4   1  -2 24103.8 512.190   1
  -4  -1   2 23166.3 514.820   1
   4   1  -2 24859.1 507.690   1
  -4  -1   2 25323.2 571.490   1
  -4  -1   2 24943.4 531.200   1
  -3  -4   1 6124.85 283.230   1
   3   4  -1 5929.18 223.270   1
  -3   0  -5 45176.4 646.500   1
   3   0   5 44398.8 713.620   1
  -3   0  -5 44045.9 675.990   1
   3   0   5 47501.1 736.670   1
  -3   0  -5 44097.7 843.600   1
   3   0   5 48060.1 642.620   1
  -2  -1   5 79958.4 991.070   1
   2   1  -5 72137.9 1043.91   1
  -2  -1   5 79181.1 991.610   1
   2   1  -5 79672.3 1160.53   1
   2   0  -5 16.7700 56.5600   1
   2   0  -5 46.7700 40.3400   1
  -2   0   5 66.4200 56.4800   1
  -2   0   5 82.3000 56.0500   1
  -4  -3   1 49618.4 763.010   1
   4   3  -1 46222.5 698.070   1
   4   3  -1 50343.1 758.130   1
  -4  -3   1 48321.9 716.780   1
  -4  -2   2 37295.7 640.220   1
  -4  -2   2 38545.0 633.170   1
  -4  -2   2 37744.0 726.050   1
  -4  -2   2 35750.4 644.400   1
   4   2  -2 40101.2 665.060   1
   4   2  -2 38424.8 730.640   1
  -3  -1   4 43419.9 744.960   1
   3   1  -4 38389.2 738.540   1
   3   1  -4 43676.8 763.320   1
  -3  -1   4 42535.3 731.560   1
  -3  -1   4 42325.6 679.090   1
   3   3  -3 475.620 91.4600   1
  -3  -3   3 115.330 51.2700   1
  -3  -3   3 155.000 78.0800   1
  -3  -3   3 151.020 64.2800   1
   3   3  -3 110.440 55.5200   1
   0   1   6 224.280 68.9400   1
   0   1   6 462.770 80.8300   1
   0  -1  -6 288.120 76.2800   1
  -1  -3  -5 69682.3 1144.02   1
   1   3   5 74870.9 872.390   1
   1   3   5 72634.3 854.860   1
   1   3   5 68233.3 876.360   1
   1   3   5 74380.6 910.730   1
   1   3   5 66712.8 949.310   1
  -1   4   0 37589.2 601.950   1
   1  -4   0 35015.5 678.280   1
   1  -4   0 36878.0 613.330   1
  -2  -3   4 45331.6 704.740   1
   2   3  -4 40684.8 694.710   1
  -2  -3   4 40941.2 722.300   1
  -2  -3   4 45880.7 760.160   1
  -1   3  -4 68858.2 991.580   1
   1  -3   4 67006.6 835.990   1
   1  -3   4 61903.4 996.880   1
   2   3   5 134818. 1292.72   1
   2   3   5 125123. 1420.19   1
   2   3   5 139166. 1332.66   1
   2   3   5 133739. 1370.76   1
   2   1   6 31216.5 541.580   1
   2   1   6 30333.8 586.530   1
   2   1   6 31478.6 519.440   1
   4   1   4 54135.9 729.370   1
   4   1   4 52399.8 788.300   1
  -4  -1  -4 50583.1 946.570   1
   4   1   4 54949.5 753.120   1
   4   3   3 1788.22 128.590   1
   4   3   3 1963.59 124.010   1
   4   3   3 1666.62 111.840   1
   4   3   3 1827.72 141.230   1
   0  -1   6 473.830 77.8700   1
   0  -1   6 370.230 76.5900   1
  -2   3   2 73360.9 917.570   1
  -2   3   2 69849.5 932.200   1
   2  -3  -2 76085.2 998.990   1
   2  -3  -2 75870.2 975.890   1
   2  -3  -2 77493.8 900.570   1
   2  -3  -2 73305.8 1000.50   1
   4  -1   1 115281. 1235.89   1
   4  -1   1 119589. 1337.77   1
  -4   1  -1 116634. 1239.30   1
   4  -1   1 114654. 1158.31   1
   4  -1   1 120463. 1248.26   1
  -3   2  -3 80523.0 1065.36   1
  -3   2  -3 79091.3 988.430   1
   3  -2   3 88850.3 1035.22   1
   3  -2   3 91791.5 1588.25   1
   1  -4   1 5961.54 220.750   1
  -1   4  -1 5766.82 308.050   1
  -1   4  -1 6708.95 259.030   1
  -1   4  -1 6443.99 223.250   1
   4   2   4 271123. 1983.13   1
   4   2   4 285436. 2085.92   1
   4   2   4 283706. 2349.00   1
   3   4   3 63722.8 793.050   1
   3   4   3 59249.2 982.060   1
   3   4   3 59560.0 841.230   1
   3   4   3 56554.9 822.920   1
  -3  -4  -3 61431.4 864.090   1
   1  -2  -5 7732.05 242.980   1
  -1   2   5 10116.2 318.090   1
   1  -2  -5 9607.09 375.930   1
  -1   2   5 9668.79 333.890   1
  -1  -4   3 72768.8 866.770   1
  -1  -4   3 71391.4 956.770   1
   1   4  -3 74605.2 968.140   1
  -1  -4   3 72745.5 891.830   1
   1  -1   6 60.9000 60.0300   1
   1  -1   6 79.7500 57.1900   1
  -1   1  -6 119.870 52.4600   1
   2   0   6 44268.6 755.560   1
  -2   0  -6 44653.3 699.530   1
   2   0   6 44487.4 689.210   1
   4  -1   0 156516. 1549.73   1
   4  -1   0 152917. 1544.91   1
  -4   1   0 156960. 1575.14   1
   4  -1   0 149425. 1476.01   1
  -4   1   0 159071. 1680.22   1
   4  -1   0 157391. 1727.87   1
   3   0  -4 194570. 1923.13   1
  -3   0   4 204757. 1959.57   1
  -3   0   4 200399. 1911.00   1
   1  -4  -1 204752. 1822.26   1
   1  -4  -1 206739. 1844.28   1
   1  -4  -1 206111. 1934.18   1
  -1   4   1 214320. 1861.43   1
  -1   4   1 219806. 1745.13   1
   0  -4  -3 40207.1 679.190   1
   0   4   3 37046.3 566.680   1
   0  -4  -3 40299.7 706.280   1
   0   4   3 42953.7 635.410   1
   0  -4  -3 39298.4 581.720   1
   0  -4  -3 39988.4 648.250   1
   0  -4  -3 41388.3 804.500   1
   0   4   3 39761.5 675.550   1
  -4   0   2 20705.0 461.560   1
  -4   0   2 21368.3 556.960   1
   4   0  -2 20932.4 500.740   1
  -4   0   2 22109.8 501.750   1
   4   0  -2 21458.4 484.330   1
  -4   0   2 21519.2 464.830   1
   3  -2  -2 4897.11 227.740   1
   3  -2  -2 4198.31 218.490   1
  -3   2   2 4861.89 208.460   1
   3  -2  -2 4702.84 232.640   1
   3  -2  -2 4599.93 225.650   1
  -3   2   2 4802.23 215.410   1
   4  -1   2 6884.46 228.740   1
  -4   1  -2 6740.39 254.420   1
   4  -1   2 6812.13 246.060   1
  -4   1  -2 6558.19 255.500   1
   4  -1   2 6789.22 274.800   1
   4  -1   2 7087.12 246.600   1
   2  -2  -4 49088.4 707.550   1
   2  -2  -4 50181.4 845.060   1
   2  -2  -4 44410.3 690.790   1
  -2   2   4 51080.7 754.860   1
  -2   2   4 47215.9 770.430   1
  -2   2   4 47800.4 760.490   1
   2  -3   3 28720.8 515.190   1
   2  -3   3 28309.7 514.080   1
  -2   3  -3 27380.7 595.420   1
   3   2  -4 1941.85 167.620   1
   3   2  -4 1618.69 145.440   1
  -3  -2   4 1888.78 135.090   1
  -3  -2   4 1879.77 150.560   1
  -3  -2   4 1808.09 144.560   1
   1   2   6 94021.4 1022.14   1
   1   2   6 94860.0 1103.31   1
   1   2   6 99214.4 1090.64   1
  -1  -2  -6 96120.1 1262.14   1
  -1   3   4 16670.4 419.300   1
   1  -3  -4 15930.6 472.910   1
   1  -3  -4 13087.8 330.410   1
  -1   3   4 15804.7 386.490   1
  -2  -2   5 68896.0 984.030   1
   2   2  -5 66662.3 1145.78   1
   2   2  -5 63219.0 980.060   1
  -2  -2   5 62689.7 915.910   1
  -1   0   6 76539.7 1002.14   1
   1   0  -6 72526.3 1136.61   1
  -1   0   6 74383.4 991.250   1
   0  -4   3 62637.6 812.760   1
   0  -4   3 58163.0 898.250   1
   0   4  -3 65693.6 834.440   1
   0  -4   3 64100.0 827.680   1
   2   4   4 69253.3 827.780   1
   2   4   4 64641.1 897.160   1
   2   4   4 66700.0 829.300   1
  -2  -4  -4 65446.6 1179.11   1
   2   4   4 67761.2 846.840   1
  -3  -4   2 88430.3 1250.95   1
   3   4  -2 84952.0 1045.87   1
  -3  -4   2 96108.4 1060.80   1
   2   2   6 172859. 1777.49   1
   2   2   6 166598. 1721.06   1
   2   2   6 164765. 1798.04   1
  -2  -4   3 125183. 1580.62   1
  -2  -4   3 124790. 1320.81   1
  -2  -4   3 119972. 1360.77   1
   4   0   4 156.580 56.8900   1
  -4   0  -4 146.320 63.7300   1
   4   0   4 98.9400 46.3200   1
  -4   0  -4 156.920 66.4900   1
   4   0   4 143.030 49.0600   1
   2  -1  -5 144636. 1474.40   1
  -2   1   5 146722. 1435.61   1
  -1   4  -2 88501.3 1087.03   1
   1  -4   2 94276.2 1022.77   1
   1  -4   2 88903.6 994.830   1
  -1  -1   6 9922.78 322.100   1
  -1  -1   6 10074.2 338.730   1
   1   1  -6 10655.6 450.680   1
  -1  -4  -4 116826. 1292.60   1
   1   4   4 108023. 1234.96   1
   1   4   4 116054. 1169.93   1
   1   4   4 112458. 1243.35   1
  -1  -4  -4 113845. 1142.50   1
  -1  -4  -4 119897. 1542.83   1
  -4   1   1 29601.7 541.620   1
   4  -1  -1 29022.2 586.770   1
   4  -1  -1 31353.2 597.380   1
  -4   1   1 31322.4 583.610   1
   4  -1  -1 30959.7 590.310   1
  -4   1   1 32318.6 634.530   1
   4  -1  -1 30829.1 579.400   1
   4  -1  -1 30191.3 545.530   1
   0  -3  -5 157521. 1976.83   1
   0   3   5 155771. 1422.76   1
   0  -3  -5 153366. 1357.30   1
   0   3   5 157574. 1735.45   1
   0   3   5 161749. 1745.82   1
   0   3   5 154742. 1446.53   1
  -2   2  -5 6865.39 271.050   1
   2  -2   5 6701.98 274.970   1
  -2   2  -5 6793.62 250.110   1
   2  -2   5 7426.67 251.300   1
   3   3   5 95653.6 1202.26   1
   3   3   5 108080. 1060.28   1
   3   3   5 103170. 1118.78   1
   3   3   5 103760. 1210.81   1
  -4  -3   2 105675. 1386.53   1
   4   3  -2 116836. 1253.70   1
  -4  -3   2 111381. 1186.06   1
  -4  -3   2 112849. 1193.05   1
  -4  -3   2 114095. 1158.87   1
  -4  -4  -1 113075. 1171.40   1
   4   4   1 113784. 1151.93   1
   4   4   1 120247. 1484.66   1
  -4  -4  -1 114460. 1150.56   1
   1  -4  -2 53314.4 1151.18   1
   1  -4  -2 61396.7 849.540   1
   1  -4  -2 64318.6 976.350   1
   1  -4  -2 58629.3 1054.20   1
  -1   4   2 58419.1 762.260   1
   1  -4  -2 60365.9 781.160   1
   3  -1   5 19040.4 462.700   1
  -3   1  -5 17590.6 419.810   1
   3  -1   5 19067.4 399.120   1
   3  -1   5 19312.5 427.230   1
  -3   1  -5 17662.4 494.090   1
  -4   1  -3 37401.3 731.530   1
   4  -1   3 38366.5 598.800   1
   4  -1   3 37998.0 585.200   1
   4  -1   3 36370.0 530.390   1
  -4   1  -3 37796.8 689.010   1
   0   3  -5 60902.5 833.470   1
   0  -3   5 62261.9 896.990   1
   0  -3   5 56411.6 743.440   1
   0   2   6 33633.9 619.110   1
   0  -2  -6 29910.6 731.110   1
   0   2   6 33717.3 673.200   1
   4   4   0 56068.4 756.360   1
  -4  -4   0 57212.8 754.620   1
   4   4   0 54259.3 766.900   1
   4   3   4 19976.7 468.510   1
   4   3   4 17960.5 424.260   1
   4   3   4 19197.3 452.090   1
   4   3   4 18192.2 354.950   1
  -4  -1   3 17769.5 406.880   1
  -4  -1   3 17871.6 431.670   1
   4   1  -3 18020.5 451.930   1
   4   1  -3 15773.2 538.770   1
  -4  -1   3 17350.2 445.510   1
  -1   1   6 81972.0 1039.88   1
   1  -1  -6 78453.2 1259.32   1
  -1   1   6 76976.1 1125.86   1
  -4  -4  -2 187.310 61.3900   1
   4   4   2 161.420 62.3200   1
   4   4   2 324.750 67.6900   1
   4   4   2 223.920 74.0800   1
  -1  -3   5 8408.13 319.170   1
  -1  -3   5 8762.53 274.400   1
  -1  -3   5 8830.88 328.680   1
   2  -1   6 52234.3 738.050   1
  -2   1  -6 44973.3 740.810   1
  -2  -5  -1 20574.0 432.910   1
   2   5   1 18379.7 537.510   1
  -2  -5  -1 21069.5 481.460   1
  -2  -5  -1 22260.1 672.080   1
   2   5   1 20360.8 420.180   1
   2   5   1 20089.3 409.500   1
   2  -3  -3 42926.4 627.690   1
   2  -3  -3 42606.2 678.980   1
  -2   3   3 45636.6 751.640   1
   2  -3  -3 43589.3 768.520   1
   2  -3  -3 41846.6 747.100   1
   2   5   0 82175.5 926.250   1
  -2  -5   0 84934.2 952.100   1
   2   5   0 87011.9 960.570   1
  -1  -5   0 58203.4 1041.55   1
   1   5   0 62954.6 748.410   1
   1   5   0 59989.5 959.950   1
   1   5   0 58542.8 949.450   1
  -1  -5   0 56620.8 781.830   1
   0  -2   6 43572.8 662.080   1
   0  -2   6 44120.0 769.140   1
   5   2   1 27359.4 496.470   1
   5   2   1 26888.3 543.590   1
   5   2   1 26801.7 510.760   1
   3   4   4 138803. 1288.98   1
   3   4   4 135388. 1331.87   1
   3   4   4 130190. 1206.46   1
   3   1   6 8713.30 260.900   1
   3   1   6 7988.14 286.410   1
  -3  -1  -6 8160.18 273.210   1
   3   1   6 8664.10 299.150   1
  -4  -2   3 82111.2 981.850   1
  -4  -2   3 80484.6 1109.67   1
  -4  -2   3 88638.7 1036.41   1
   4   2  -3 91067.0 1124.07   1
   4   2  -3 85268.9 1133.20   1
   3  -2   4 17303.7 384.280   1
  -3   2  -4 15964.3 412.930   1
   3  -2   4 16695.2 468.940   1
   1   5   1 5717.26 206.060   1
  -1  -5  -1 5659.69 246.230   1
  -1  -5  -1 5951.96 267.930   1
  -1  -5  -1 6237.78 247.210   1
   1   5   1 5856.57 243.390   1
  -3   1   4 35622.2 615.980   1
  -3   1   4 39916.6 682.830   1
   3  -1  -4 37476.1 667.120   1
  -3   1   4 39090.6 650.980   1
   5   1   1 70212.8 855.500   1
   5   1   1 72895.3 953.910   1
   5   1   1 71702.6 905.760   1
   5   1   1 66183.9 891.220   1
   5   2   2 66292.1 819.650   1
   5   2   2 65661.1 975.990   1
   5   2   2 60428.3 925.010   1
   4   1   5 53840.3 700.260   1
  -4  -1  -5 48122.0 940.930   1
   4   1   5 56632.7 696.030   1
   4   1   5 53953.6 804.920   1
   5   2   0 127996. 1319.20   1
   5   2   0 123325. 1218.96   1
   5   1   2 86989.2 1116.01   1
   5   1   2 96592.8 1017.42   1
   5   1   2 86372.3 1045.14   1
   5   1   2 92372.3 1107.55   1
  -3   2   3 68624.5 871.550   1
  -3   2   3 75196.1 917.360   1
   3  -2  -3 67784.0 1011.48   1
  -3   2   3 75180.9 1013.57   1
   3  -2  -3 68220.9 910.160   1
   2   5   2 104050. 1471.53   1
   2   5   2 115429. 1105.03   1
  -2  -5  -2 116474. 1292.99   1
  -2  -5  -2 113462. 1165.91   1
   2   5   2 112955. 1289.99   1
  -2  -5  -2 118168. 1791.49   1
  -1  -5   1 125148. 1206.25   1
   1   5  -1 122861. 1348.15   1
  -1  -5   1 122058. 1288.93   1
   1   5  -1 120571. 1240.46   1
   5   1   0 13732.8 369.570   1
   5   1   0 13948.5 364.940   1
   5   1   0 14975.6 361.740   1
   5   1   0 15189.7 385.870   1
   4   2   5 25522.3 453.900   1
   4   2   5 25254.5 450.270   1
   4   2   5 26090.5 593.250   1
  -3  -3   4 114314. 1381.05   1
  -3  -3   4 126245. 1318.90   1
   3   3  -4 124611. 1580.62   1
  -3  -3   4 126644. 1314.01   1
   3   3  -4 121012. 1268.69   1
  -2   3  -4 123640. 1389.20   1
   2  -3   4 120215. 1561.83   1
  -2   3  -4 115421. 1475.30   1
   2  -3   4 132444. 1258.93   1
   3   2   6 65316.2 909.800   1
   3   2   6 61395.1 794.140   1
   3   2   6 66151.1 767.450   1
   2   5  -1 100719. 1079.60   1
  -2  -5   1 99008.3 1084.54   1
  -4  -4   1 14491.8 361.710   1
  -4  -4   1 13038.8 345.410   1
   4   4  -1 11858.6 368.240   1
   4   4  -1 14596.4 480.370   1
   4   4  -1 12776.9 329.870   1
   4   0  -3 94149.1 1158.95   1
  -4   0   3 95898.7 1091.50   1
  -4   0   3 93232.1 1121.64   1
  -4   0   3 96010.8 1188.91   1
  -1   2  -6 56831.3 762.720   1
   1  -2   6 61087.3 940.440   1
   1  -2   6 66248.1 828.370   1
   0  -4  -4 81925.7 1095.67   1
   0  -4  -4 84896.7 946.560   1
   0   4   4 90033.2 946.350   1
   0  -4  -4 87376.4 1109.18   1
   0   4   4 89290.4 997.180   1
  -1   4  -3 64177.4 847.710   1
   1  -4   3 62205.5 792.870   1
   1  -4   3 61897.0 763.810   1
   4  -1  -2 74338.2 985.670   1
  -4   1   2 79912.1 1021.91   1
  -4   1   2 76791.6 923.710   1
   4  -1  -2 78969.5 1011.58   1
  -4   1   2 76323.4 923.480   1
  -4   1   2 76296.5 917.580   1
  -1  -2   6 127436. 1245.48   1
  -1  -2   6 130151. 1406.87   1
  -3   0  -6 142719. 1391.93   1
   3   0   6 144700. 1409.87   1
   3   0   6 149066. 1285.68   1
   3   0   6 147036. 1439.04   1
  -1  -4   4 65.5500 52.7200   1
  -1  -4   4 135.600 66.7700   1
   3  -3   1 154015. 1430.56   1
   3  -3   1 154830. 1521.43   1
   4   4   3 60239.3 996.740   1
   4   4   3 57641.9 784.920   1
   4   4   3 61664.1 789.710   1
   4   4   3 59510.0 737.190   1
   3  -3   0 129401. 1327.50   1
  -3   3   0 124509. 1229.86   1
   3  -3   0 129767. 1235.82   1
  -3   3   0 140043. 2260.28   1
   3  -3   0 128466. 1204.84   1
   1  -3   5 28462.3 506.870   1
   1  -3   5 23743.1 542.210   1
  -1   3  -5 24669.5 514.810   1
   1   5   2 69776.3 806.150   1
  -1  -5  -2 74770.8 954.170   1
  -1  -5  -2 74910.0 1110.16   1
  -1  -5  -2 73575.2 904.530   1
   1   5   2 76217.1 858.640   1
  -3  -5  -1 7680.62 274.920   1
   3   5   1 8075.54 267.410   1
  -3  -5  -1 7161.65 296.100   1
   3   5   1 6986.29 278.670   1
  -3  -4   3 23866.4 686.510   1
  -3  -4   3 25858.1 511.700   1
  -3  -4   3 26871.2 520.800   1
   1  -4  -3 38920.6 761.420   1
   1  -4  -3 40135.5 720.790   1
   1  -4  -3 38191.2 778.400   1
  -1   4   3 42802.8 645.460   1
  -1   4   3 40131.9 652.170   1
   0  -4   4 8310.69 305.110   1
   0  -4   4 9697.91 292.910   1
   0   4  -4 9792.04 310.540   1
   5   3   1 39903.8 679.860   1
   5   3   1 40709.1 618.480   1
   5   3   1 41381.9 892.260   1
   5   3   1 42762.8 706.620   1
   5   2   3 35311.5 547.460   1
   5   2   3 31502.2 583.670   1
   5   2   3 35225.2 749.210   1
   5   2   3 35135.2 566.930   1
   3   1  -5 89892.4 1232.66   1
  -3  -1   5 92804.2 1166.04   1
   3   1  -5 97923.8 1183.82   1
  -3  -1   5 95877.2 1151.52   1
  -3  -5   0 41098.2 686.870   1
  -3  -5   0 39062.8 633.960   1
   3   5   0 41402.0 636.710   1
  -2  -3   5 62309.5 807.620   1
  -2  -3   5 63298.2 874.960   1
   1   0   7 23173.7 449.150   1
   1   0   7 24255.6 602.230   1
   2   3   6 9415.55 264.720   1
   2   3   6 8236.39 300.250   1
   2   3   6 9496.69 313.140   1
  -1  -3  -6 46555.4 1002.82   1
   1   3   6 46916.0 693.730   1
   1   3   6 49873.2 720.670   1
   1   3   6 48068.3 713.650   1
   3  -3   2 714.630 93.4800   1
   3  -3   2 636.870 84.8100   1
   4  -1   4 103642. 1079.86   1
  -4   1  -4 98392.1 1211.28   1
   4  -1   4 106462. 1082.41   1
  -4   1  -4 103458. 1183.20   1
   4  -1   4 108696. 1074.17   1
   5   1   3 468.670 70.8600   1
   5   1   3 391.260 66.4800   1
   5   1   3 431.030 76.7600   1
  -5  -1  -3 365.720 72.6800   1
   0  -5   0 66896.9 995.040   1
   0  -5   0 71186.3 868.270   1
   5   3   2 35464.2 675.200   1
   5   3   2 41697.9 627.190   1
   5   3   2 41494.7 696.550   1
   4   0   5 59528.3 696.740   1
  -4   0  -5 54052.9 914.770   1
   4   0   5 60180.4 783.110   1
   4   0   5 58892.8 774.100   1
   5   2  -1 4616.41 202.740   1
   5   2  -1 4765.18 212.090   1
   3  -3  -1 3617.06 200.010   1
  -3   3   1 4107.01 219.020   1
   3  -3  -1 3547.43 174.590   1
   3  -3  -1 3759.27 193.460   1
  -3   3   1 3473.45 179.190   1
   2   1  -6 9582.13 393.190   1
  -2  -1   6 10316.9 331.480   1
  -2  -1   6 9646.32 343.010   1
  -3  -5  -2 69647.7 935.520   1
   3   5   2 72449.7 817.770   1
  -3  -5  -2 76393.9 936.450   1
   3   5   2 66906.7 1209.52   1
   3   5   2 72740.4 849.670   1
   2   4   5 34346.3 588.910   1
   2   4   5 32855.8 538.490   1
  -2  -4  -5 31602.6 716.640   1
   2   4   5 29449.7 623.270   1
   2   4   5 32973.0 573.820   1
   2   4   5 29738.4 536.120   1
   2  -4   0 15900.2 409.110   1
  -2   4   0 17752.0 421.950   1
   2  -4   0 15764.7 383.270   1
   0   0   7 23090.3 470.760   1
   0   0   7 26821.9 519.560   1
   5   3   0 120.560 66.5600   1
   5   3   0 89.6600 58.3500   1
  -5  -3   0 116.840 57.2800   1
   5   0   1 2472.25 184.330   1
  -5   0  -1 2293.54 221.470   1
   5   0   1 2470.31 145.090   1
   5   0   1 2265.65 159.830   1
   5   0   1 2484.60 168.950   1
  -5  -1   1 54149.8 786.900   1
   5   1  -1 55876.1 820.920   1
   5   1  -1 54413.4 742.550   1
   2   0  -6 125277. 1564.71   1
  -4   2  -1 15122.6 376.490   1
   4  -2   1 15075.1 373.920   1
   4  -2   1 16623.0 420.410   1
   4  -2   1 16716.2 366.830   1
   4  -2   1 16713.7 542.420   1
   0   5   1 21445.1 433.900   1
   0  -5  -1 21251.9 444.540   1
   0  -5  -1 20322.1 482.260   1
   0   5   1 20063.7 480.110   1
   4   3  -3 8275.07 302.100   1
   4   3  -3 9390.14 435.310   1
  -4  -3   3 8079.42 387.670   1
  -4  -3   3 9407.83 287.970   1
  -4  -3   3 8127.73 319.220   1
  -4  -3   3 9063.90 306.320   1
  -2  -4   4 4146.00 205.450   1
  -2  -4   4 4305.58 248.800   1
  -2  -4   4 4028.30 209.690   1
   2  -4   1 97797.9 1066.55   1
   2  -4   1 95938.7 1105.26   1
  -3   0   5 108.680 70.9400   1
   3   0  -5 61.3600 52.7000   1
  -3   0   5 50.1600 61.9300   1
   3   0  -5 117.190 58.7100   1
   2  -2  -5 698.410 86.6100   1
  -2   2   5 773.320 104.100   1
   2  -2  -5 791.400 106.020   1
  -2   2   5 773.990 88.5400   1
  -1  -5   2 9354.33 279.010   1
   1   5  -2 9253.37 305.040   1
  -1  -5   2 9392.75 289.250   1
  -1   3   5 105570. 1167.42   1
   1  -3  -5 97672.2 1278.77   1
  -1   3   5 105501. 1338.27   1
   0   5  -1 29035.6 504.450   1
   0   5  -1 27714.2 542.290   1
   0  -5   1 25264.7 685.770   1
   0  -5   1 30286.9 543.440   1
   0   5  -1 29660.2 535.030   1
   4  -2   0 30768.7 536.400   1
  -4   2   0 30288.5 562.420   1
   4  -2   0 31675.0 521.490   1
   4  -2   0 30946.7 592.800   1
   4  -2   0 30068.7 691.510   1
  -2  -5  -3 29407.5 768.430   1
   2   5   3 30215.0 511.250   1
  -2  -5  -3 29717.4 545.620   1
   2   5   3 26419.2 662.070   1
   2   5   3 26026.5 613.030   1
  -2  -5  -3 29839.3 598.380   1
   5   0   2 15112.6 350.250   1
   5   0   2 15396.0 376.790   1
   5   0   2 14186.5 384.690   1
   5   0   2 14281.7 364.700   1
  -5   0  -2 14228.9 509.190   1
   1   4   5 37703.6 614.720   1
   1   4   5 37197.7 706.320   1
   1   4   5 37497.0 586.360   1
  -1  -4  -5 38610.4 809.230   1
   1   4   5 39493.2 580.130   1
   2   1   7 23717.7 464.490   1
   2   1   7 26020.8 481.290   1
   2   1   7 22962.8 544.020   1
   5   0   0 49333.0 708.630   1
   5   0   0 47922.8 732.780   1
   5   0   0 45415.2 681.980   1
   5   0   0 48109.6 737.980   1
  -1   2   6 117550. 1354.70   1
   1  -2  -6 112493. 1433.57   1
  -1   2   6 114259. 1230.04   1
   3   2  -5 20092.2 616.570   1
   3   2  -5 17314.1 492.910   1
  -3  -2   5 17125.2 421.800   1
  -3  -2   5 20153.9 446.010   1
  -2  -5   2 6893.36 295.350   1
  -2  -5   2 5918.22 229.280   1
  -3  -5   1 65425.6 825.730   1
   3   5  -1 75317.1 899.100   1
   4   3   5 30551.1 495.170   1
   4   3   5 35433.4 631.050   1
   4   3   5 32639.8 585.340   1
   4  -2   2 68819.6 817.600   1
  -4   2  -2 65673.3 837.560   1
   4  -2   2 70780.8 870.370   1
   0   1   7 18261.7 440.430   1
   0   1   7 18596.2 458.150   1
   0  -1  -7 18010.3 573.370   1
   2  -4  -1 88347.2 1015.00   1
   2  -4  -1 88368.7 1084.79   1
   2  -4  -1 87836.7 962.830   1
  -2   4   1 89383.5 1094.82   1
   2   0   7 18690.1 492.360   1
   2   0   7 18558.9 430.600   1
   4   4  -2 22888.8 727.950   1
   4   4  -2 20790.4 454.960   1
  -4  -4   2 24430.7 496.680   1
  -4  -4   2 18731.7 783.290   1
  -4  -4   2 26490.7 522.450   1
   5   3   3 3493.89 192.680   1
   5   3   3 3346.21 163.610   1
   5   3   3 2955.54 177.050   1
   5   3   3 3353.86 158.060   1
   0  -1   7 109456. 1368.49   1
   0  -1   7 103663. 1112.16   1
   1   5   3 137047. 1480.19   1
   1   5   3 137070. 1459.05   1
  -1  -5  -3 145226. 1389.85   1
  -1  -5  -3 142274. 1624.16   1
  -1  -5  -3 139500. 1338.07   1
   1   5   3 148926. 1380.11   1
  -1  -5  -3 146318. 1419.69   1
   1  -1   7 39554.0 618.600   1
   1  -1   7 35565.7 723.010   1
   2  -4   2 70411.2 958.350   1
   2  -4   2 69104.7 846.880   1
   4   4   4 62950.9 906.670   1
   4   4   4 74526.5 931.680   1
   4   4   4 68046.0 1084.07   1
   4   4   4 69742.9 1007.33   1
  -2   3   4 294.850 75.3600   1
   2  -3  -4 283.280 70.2700   1
  -2   3   4 281.600 71.6100   1
   2  -3  -4 229.790 55.7700   1
   3   3   6 31000.9 610.860   1
   3   3   6 30836.5 547.170   1
   3   3   6 31608.8 530.070   1
   3   4   5 5888.63 278.180   1
   3   4   5 7305.90 238.600   1
   3   4   5 7091.30 270.450   1
   3   4   5 7422.85 236.950   1
   0  -5  -2 57642.6 999.210   1
   0   5   2 65425.2 949.550   1
   0  -5  -2 62052.4 962.280   1
   0   5   2 54245.3 964.040   1
   0  -5  -2 63585.0 1042.13   1
  -4  -1   4 51280.1 908.840   1
   4   1  -4 44120.9 975.410   1
  -4  -1   4 52104.7 789.910   1
  -4  -1   4 51736.9 852.140   1
   4   1  -4 52143.6 924.060   1
   2  -2   6 46917.4 986.290   1
  -2   2  -6 40611.3 690.240   1
   2  -2   6 48655.9 763.120   1
   3  -3   3 36232.6 605.820   1
  -3   3  -3 31064.1 683.200   1
   3  -3   3 36765.5 630.300   1
  -5  -3   1 69395.0 964.290   1
  -5  -3   1 67462.4 997.340   1
   5   3  -1 69433.8 975.090   1
   5   3  -1 71369.5 971.410   1
   5   3  -1 67580.9 968.250   1
   3  -2   5 171346. 1181.96   1
  -3   2  -5 162231. 2042.52   1
  -3   2  -5 157934. 1862.52   1
   3  -2   5 164315. 1476.17   1
   3  -1   6 9075.25 321.870   1
   3  -1   6 8461.27 284.920   1
  -3   1  -6 8120.23 296.510   1
   3   5   3 28460.9 528.040   1
   3   5   3 25052.2 800.040   1
   3   5   3 28360.9 518.060   1
  -3  -5  -3 28169.3 612.200   1
   4  -2  -1 41573.9 808.460   1
  -4   2   1 46481.9 795.250   1
   4  -2  -1 43655.6 734.290   1
   4  -2  -1 44110.8 760.250   1
   4  -2  -1 42128.8 763.500   1
  -4   2   1 41817.5 708.940   1
  -2  -2   6 63797.1 907.110   1
   2   2  -6 64911.3 1197.66   1
  -2  -2   6 65074.9 985.540   1
   0   3   6 11772.8 364.470   1
   0   3   6 9919.61 311.430   1
   0  -3  -6 10198.4 406.370   1
   1   2   7 112773. 1351.16   1
   1   2   7 117720. 1432.96   1
   5   2   4 1024.03 93.1200   1
   5   2   4 772.740 102.380   1
   5   2   4 905.490 87.6600   1
   5   2   4 842.310 97.3500   1
   5   0   3 70098.0 942.510   1
  -5   0  -3 65257.2 937.870   1
   5   0   3 68728.9 1011.51   1
   5   0   3 69234.3 891.640   1
  -5   0  -3 66042.7 1095.04   1
   5   0   3 67463.3 932.920   1
   0  -5   2 2837.62 158.850   1
   0   5  -2 2535.22 163.840   1
   0  -5   2 2562.98 145.150   1
  -3   3   2 37891.2 765.190   1
   3  -3  -2 35078.6 596.020   1
   3  -3  -2 36267.2 679.210   1
   3  -3  -2 34195.4 671.000   1
   3  -3  -2 36790.6 688.710   1
   4  -1  -3 3664.43 205.010   1
  -4   1   3 4046.09 233.620   1
  -4   1   3 3984.74 202.550   1
  -4   1   3 3444.05 183.020   1
   1  -4   4 64470.0 894.670   1
  -1   4  -4 61266.7 928.000   1
   1  -4   4 58436.0 1060.07   1
  -4  -2   4 47304.3 789.650   1
   4   2  -4 46189.4 794.510   1
   4   2  -4 42264.0 826.040   1
   2   2   7 22044.3 515.600   1
   2   2   7 22469.7 467.680   1
   2   2   7 21905.4 455.680   1
   5   1   4 42649.0 758.340   1
  -5  -1  -4 34970.7 777.490   1
   5   1   4 41316.7 617.670   1
   5   1   4 40059.3 726.340   1
  -2   1   6 18818.8 492.500   1
  -2   1   6 16315.7 476.710   1
   2  -1  -6 17196.8 515.230   1
   5   0  -1 73197.8 1022.64   1
   5   0  -1 75166.3 1141.95   1
   5   0  -1 79880.6 1055.73   1
   5   0  -1 80494.1 1093.88   1
  -5   0   1 81599.9 1120.58   1
   4  -2   3 23417.8 485.870   1
  -4   2  -3 21091.0 487.160   1
   4  -2   3 23496.4 493.730   1
  -4   2  -3 20898.4 563.690   1
  -1   0   7 54879.8 931.690   1
   1   0  -7 51999.3 989.080   1
  -1   0   7 55011.8 891.110   1
  -3   2   4 73910.3 1108.17   1
  -3   2   4 67734.0 954.830   1
   3  -2  -4 69308.6 1168.71   1
   5   2  -2 6136.93 309.390   1
   5   2  -2 6926.36 287.780   1
  -5  -2   2 6670.78 246.860   1
  -5  -2   2 6208.69 257.710   1
  -5  -2   2 6169.32 318.110   1
   0  -3   6 54115.9 798.880   1
   0  -3   6 51845.2 970.150   1
  -2   4   2 22208.6 587.720   1
   2  -4  -2 21513.3 519.690   1
   2  -4  -2 21296.1 433.440   1
   2  -4  -2 21681.6 514.570   1
   5   1  -2 210341. 1469.32   1
  -5  -1   2 210300. 1434.88   1
  -5  -1   2 196918. 1351.05   1
   2  -3   5 7120.69 248.450   1
  -2   3  -5 6040.10 268.930   1
  -2   3  -5 6422.57 243.190   1
   2  -3   5 6958.16 396.080   1
   4   1   6 176.250 53.7200   1
   4   1   6 129.160 44.9100   1
   4   1   6 218.830 76.5100   1
  -4  -5  -1 24844.6 521.460   1
  -4  -5  -1 24087.8 525.070   1
   4   5   1 24771.1 487.670   1
   4   5   1 21245.5 547.670   1
  -3   1   5 67098.2 1049.94   1
  -3   1   5 72683.8 1040.68   1
   3  -1  -5 68519.5 1058.22   1
  -3   1   5 68014.8 993.860   1
   1  -4  -4 43407.1 696.970   1
   1  -4  -4 50399.0 855.850   1
  -1   4   4 46711.2 873.290   1
   1  -4  -4 49286.3 952.210   1
  -4   0   4 42865.4 830.250   1
  -4   0   4 44577.4 830.090   1
   4   0  -4 46177.7 867.190   1
  -4   0   4 48407.6 743.520   1
  -4   0   4 42715.8 713.910   1
  -3  -5   2 27169.0 548.850   1
  -1  -1   7 47512.8 872.730   1
  -1  -1   7 51654.7 873.150   1
   0  -4  -5 16361.2 523.660   1
   0   4   5 15438.3 512.050   1
   0  -4  -5 14298.9 432.410   1
   0   4   5 15694.6 480.160   1
   0   4   5 16449.8 416.160   1
  -5  -4  -1 57116.9 848.970   1
   5   4   1 58180.1 827.440   1
   5   4   1 58074.4 916.160   1
  -5  -4  -1 55861.5 841.620   1
  -1  -3   6 1748.08 132.360   1
  -1  -3   6 1789.03 153.850   1
   4   2   6 65853.7 913.880   1
   4   2   6 63717.4 971.940   1
   4   2   6 67946.0 871.190   1
  -1  -5   3 107326. 1272.73   1
  -1  -5   3 105595. 1261.31   1
  -2  -5  -4 50.2600 63.9600   1
   2   5   4 -13.040 46.4900   1
  -2  -5  -4 7.85000 62.7300   1
   2   5   4 36.4200 43.6300   1
   4  -1   5 6673.77 247.650   1
   4  -1   5 6996.95 257.910   1
   4  -1   5 6800.72 243.920   1
   5   4   2 472.710 83.1600   1
   5   4   2 568.560 87.1000   1
   5   4   2 493.670 79.0800   1
   4   5   0 3454.24 181.000   1
  -4  -5   0 4215.26 205.370   1
  -4  -5   0 3866.80 197.070   1
   2  -1   7 99549.4 1332.19   1
   2  -1   7 97829.8 1225.65   1
   4   5   2 42885.5 678.800   1
  -4  -5  -2 41946.0 722.440   1
   4   5   2 42942.3 664.750   1
  -4  -5  -2 41523.7 673.450   1
   5   3   4 35588.4 716.620   1
   5   3   4 37485.1 590.500   1
   5   3   4 36699.4 597.820   1
  -2   4  -3 8254.40 384.030   1
   2  -4   3 9485.35 295.890   1
   2  -4   3 9668.57 290.500   1
  -2   4  -3 9457.13 419.170   1
   3   1   7 37350.9 688.310   1
   3   1   7 36020.7 728.640   1
   3   1   7 39347.6 628.680   1
  -3  -4   4 19665.1 622.180   1
  -3  -4   4 20977.3 502.960   1
  -3  -4   4 23221.9 513.170   1
   0   2   7 95649.1 1249.11   1
   0  -2  -7 91364.7 1424.26   1
   0   2   7 90693.3 1258.45   1
  -1  -4   5 173400. 1536.76   1
  -1  -4   5 175701. 1529.19   1
  -1  -4   5 179772. 1246.32   1
  -2  -5   3 43049.8 700.720   1
  -2  -5   3 40024.8 800.900   1
  -2  -5   3 44597.5 852.160   1
   5   4   0 102215. 1214.72   1
  -5  -4   0 109507. 1338.68   1
   5   4   0 112508. 1366.48   1
  -5  -4   0 104785. 1287.73   1
  -3  -3   5 34728.3 641.090   1
   3   3  -5 36296.1 893.940   1
  -3  -3   5 34899.6 607.710   1
  -3  -3   5 29017.8 727.290   1
   1  -5   0 182363. 1246.25   1
  -1   5   0 179676. 1227.84   1
   0   5   3 63967.3 822.310   1
   0  -5  -3 69699.8 1092.81   1
   0  -5  -3 66633.8 1051.37   1
   0  -5  -3 68269.3 1161.75   1
   0   5   3 65537.0 1062.17   1
  -1   1   7 16758.0 450.460   1
   1  -1  -7 19263.8 603.930   1
  -1   1   7 20857.6 511.340   1
   0  -4   5 68394.7 1054.01   1
   0  -4   5 68011.4 931.250   1
   0   4  -5 65407.8 933.010   1
   4  -2  -2 26490.3 570.420   1
  -4   2   2 27525.7 587.470   1
   4  -2  -2 24960.3 593.210   1
   4  -2  -2 27015.9 530.830   1
   4  -2  -2 24803.6 564.560   1
  -4   2   2 24838.1 513.490   1
  -5   1  -1 149939. 1653.22   1
   5  -1   1 150254. 1604.01   1
   5  -1   1 153491. 1709.17   1
   5  -1   1 155136. 1750.21   1
   5  -1   1 147622. 1721.33   1
   0  -2   7 15130.9 389.720   1
   0  -2   7 14757.6 503.850   1
   1  -3   6 21720.6 462.880   1
   1  -3   6 20583.4 565.800   1
  -1   3  -6 17767.3 465.820   1
  -1   5  -1 33215.5 634.970   1
  -1   5  -1 34605.3 621.130   1
   1  -5   1 34850.9 611.930   1
   1  -5   1 35607.1 649.990   1
  -5  -3   2 20004.1 457.950   1
  -5  -3   2 22355.3 476.030   1
   5   3  -2 22611.5 588.430   1
   5   3  -2 21617.5 516.400   1
  -5  -3   2 20131.7 517.830   1
  -1  -5  -4 2840.20 183.880   1
   1   5   4 3286.05 202.340   1
  -1  -5  -4 3284.05 234.880   1
   1   5   4 3384.34 202.270   1
   1   5   4 2867.87 193.190   1
  -5   0  -4 1423.09 161.740   1
   5   0   4 1547.68 103.250   1
   5   0   4 1521.34 109.350   1
   5   0   4 1497.72 129.840   1
   3   2   7 63965.6 998.760   1
   3   2   7 62409.3 835.500   1
   3   2   7 60651.3 884.770   1
   1  -5  -1 220.620 71.3500   1
  -1   5   1 180.280 54.4000   1
   1  -5  -1 154.130 70.5100   1
  -1   5   1 173.170 52.1700   1
  -3  -5  -4 12094.0 397.320   1
   3   5   4 12118.3 335.420   1
   3   5   4 9949.77 405.140   1
   3   5   4 12345.1 323.110   1
   4   0   6 86592.5 1092.27   1
   4   0   6 84672.9 1007.98   1
   4   0   6 83760.8 1143.27   1
   4   4  -3 72625.3 1033.15   1
   4   4  -3 75722.3 1362.74   1
  -4  -4   3 79258.3 1077.72   1
  -4  -4   3 73810.7 1021.15   1
  -4  -3   4 52580.9 870.830   1
   4   3  -4 57708.6 1052.57   1
  -4  -3   4 53197.7 824.420   1
   4   3  -4 56193.0 916.820   1
  -4  -3   4 46904.5 1049.71   1
   3  -3   4 51437.7 751.550   1
   3  -3   4 52782.0 791.400   1
   3   0   7 11362.2 345.810   1
   3   0   7 11885.6 317.620   1
   3   0   7 11858.2 369.180   1
   0   5  -3 63895.4 959.500   1
   0  -5   3 66077.5 904.420   1
   0  -5   3 56398.8 872.340   1
   5  -1   2 5290.13 196.760   1
  -5   1  -2 4916.23 213.810   1
   5  -1   2 5182.03 216.190   1
   5  -1   2 5353.70 215.740   1
   5  -1   2 5146.15 231.510   1
   5  -1   0 36662.4 830.030   1
  -5   1   0 36565.2 645.930   1
   5  -1   0 38831.1 681.200   1
   5  -1   0 35074.0 632.650   1
   5  -1   0 37419.0 686.270   1
   5  -1   0 36940.4 620.940   1
  -5   0   2 445.930 84.2600   1
  -5   0   2 465.910 76.9500   1
  -5   0   2 390.980 73.7200   1
  -5   0   2 398.590 80.4100   1
   5   0  -2 503.230 90.0600   1
   5   4   3 95753.4 1224.53   1
   5   4   3 94222.7 1121.93   1
   5   4   3 99129.9 1239.46   1
   4   5  -1 103137. 1233.22   1
  -4  -5   1 105023. 1308.61   1
   4   4   5 4674.49 226.160   1
   4   4   5 4867.15 194.320   1
   4   4   5 4342.55 273.330   1
   4   4   5 4267.60 182.860   1
   2   4   6 16990.4 439.850   1
   2   4   6 17230.7 426.910   1
   2   4   6 16565.4 428.860   1
  -2  -4  -6 16786.3 603.260   1
   1  -2   7 775.190 99.9000   1
   1  -2   7 624.280 106.340   1
  -4  -5  -3 41467.4 723.020   1
   4   5   3 45562.5 684.920   1
   4   5   3 37679.8 640.530   1
   4   5   3 38878.7 904.600   1
   3  -3  -3 94543.8 1314.69   1
   3  -3  -3 85479.1 1252.26   1
   3  -3  -3 94795.9 1226.66   1
  -2  -4   5 56612.5 951.280   1
  -2  -4   5 50296.0 835.580   1
  -2  -4   5 54042.4 901.710   1
   4  -2   4 605.360 96.1200   1
   4  -2   4 493.010 80.8500   1
  -4   2  -4 534.830 82.2600   1
   5   2   5 13589.1 436.040   1
   5   2   5 14243.3 331.160   1
  -5  -2  -5 11395.5 410.110   1
   5   2   5 14536.8 344.590   1
   4   3   6 10482.3 288.330   1
   4   3   6 12793.9 324.960   1
   4   3   6 12681.0 388.500   1
   5   4  -1 17550.5 408.320   1
  -5  -4   1 17065.0 463.240   1
   5   4  -1 15838.0 417.280   1
  -5  -4   1 17751.5 425.490   1
   5   4  -1 18585.5 452.390   1
  -1  -2   7 3222.50 200.860   1
  -1  -2   7 2972.44 162.830   1
   2  -4  -3 1915.51 136.730   1
  -2   4   3 2227.38 199.260   1
   2  -4  -3 1893.75 159.310   1
   2  -4  -3 1623.90 152.520   1
  -2  -3   6 14498.8 430.130   1
  -2  -3   6 14758.8 381.780   1
   5   1   5 31339.8 606.450   1
  -5  -1  -5 26407.2 716.220   1
   5   1   5 32545.1 561.400   1
   5   1   5 32462.0 544.260   1
   2   3   7 153.610 77.5600   1
   2   3   7 94.4100 57.3300   1
   2   3   7 134.050 59.4300   1
  -3  -1   6 15452.8 405.760   1
   3   1  -6 14725.8 508.380   1
  -3  -1   6 15221.9 443.680   1
   1  -5   2 14318.6 361.040   1
  -1   5  -2 16728.1 427.280   1
  -1   5  -2 16320.4 397.710   1
   1  -5   2 16850.5 400.060   1
   1   4   6 55871.7 899.720   1
   1   4   6 66047.7 907.740   1
  -1  -4  -6 60713.0 1159.78   1
   1   4   6 57420.1 839.320   1
  -1  -3  -7 3926.88 260.280   1
   1   3   7 3801.85 178.150   1
   1   3   7 3486.84 190.290   1
   1   3   7 4127.48 207.120   1
   1  -3  -6 46819.6 910.450   1
  -1   3   6 42280.9 806.310   1
  -1   3   6 50836.1 807.230   1
  -1   3   6 43894.6 797.420   1
  -1   5   2 31505.7 553.730   1
   1  -5  -2 34723.1 702.490   1
   1  -5  -2 35335.6 668.380   1
  -1   5   2 36225.9 636.760   1
   1  -5  -2 32044.5 750.790   1
   5  -1   3 32926.3 611.640   1
   5  -1   3 38312.4 671.790   1
  -5   1  -3 33796.7 655.880   1
  -5   1  -3 33098.7 641.320   1
   5  -1   3 37634.5 586.680   1
   5  -1   3 37852.3 640.200   1
   5  -1   3 35396.7 670.550   1
  -5  -2   3 71046.9 991.560   1
   5   2  -3 79768.6 1150.11   1
   5   2  -3 67930.1 1200.42   1
  -5  -2   3 79650.9 1044.58   1
  -2   2   6 7053.53 297.560   1
  -2   2   6 6597.91 276.260   1
   2  -2  -6 6599.60 339.400   1
   3   4   6 71401.4 983.200   1
   5  -1  -1 14814.0 421.640   1
   5  -1  -1 12897.0 383.370   1
  -5   1   1 14478.1 417.190   1
   5  -1  -1 12897.0 423.760   1
  -5   1   1 14629.6 388.280   1
   5  -1  -1 12855.9 358.110   1
  -5   1   1 13277.3 388.750   1
  -3  -5   3 82344.3 1124.96   1
  -3  -5   3 79319.4 1577.00   1
  -3  -5   3 75143.0 1253.77   1
  -2   3   5 85136.8 1278.29   1
   2  -3  -5 80574.3 1290.71   1
  -5  -1   3 18663.5 458.510   1
  -5  -1   3 19781.4 430.470   1
  -5  -1   3 17483.5 475.940   1
  -5  -1   3 18306.3 478.480   1
   5   1  -3 19293.2 507.960   1
  -4   1   4 42.0000 54.0300   1
  -4   1   4 67.8600 59.6400   1
   4  -1  -4 80.3800 67.8600   1
  -4   1   4 141.230 66.7100   1
  -3   0   6 73270.6 1099.65   1
   3   0  -6 67463.4 1192.42   1
  -3   0   6 62464.0 1023.08   1
  -1   4  -5 85263.5 1184.18   1
   1  -4   5 90075.1 1361.16   1
   1  -4   5 100333. 1215.87   1
   3  -2   6 25037.6 501.090   1
   3  -2   6 22538.5 654.140   1
  -3   2  -6 22412.1 605.100   1
  -2   4  -4 6541.04 272.990   1
   2  -4   4 7224.97 257.860   1
  -2   4  -4 6795.33 344.900   1
  -2   4  -4 6078.65 297.840   1
   2  -4   4 7765.15 274.750   1
   1   0   8 35297.0 739.470   1
   1   0   8 40041.8 665.410   1
   3   2  -6 79765.1 1337.28   1
  -3  -2   6 85841.1 1163.37   1
  -3  -2   6 75872.7 1146.76   1
   5   3   5 63806.1 853.300   1
   5   3   5 63825.6 873.690   1
   5   3   5 62049.7 1000.63   1
  -2  -1   7 31998.4 643.520   1
   2   1  -7 32668.0 820.880   1
  -2  -1   7 35443.9 677.490   1
  -2  -6  -1 34091.0 781.930   1
   2   6   1 31949.5 567.100   1
  -2  -6  -1 32723.7 603.590   1
   2   6   1 33313.8 559.190   1
  -2  -6  -1 32037.5 645.940   1
   4   1  -5 75206.1 1300.22   1
  -4  -1   5 77912.8 1068.35   1
  -4  -1   5 72608.9 1206.46   1
  -4  -1   5 76940.3 1112.57   1
  -1  -5   4 30078.6 558.790   1
  -1  -5   4 28298.7 610.860   1
  -1  -5   4 30018.2 537.130   1
   1   1   8 50351.4 869.050   1
   1   1   8 53744.9 816.310   1
   2   6   0 26599.5 643.620   1
  -2  -6   0 30313.0 674.020   1
   2   6   0 29958.8 537.850   1
  -2  -6   0 27055.0 559.840   1
  -2   0   7 35118.9 777.840   1
   2   0  -7 36157.6 831.830   1
  -2   0   7 37209.4 687.400   1
   5   4   4 39347.4 730.650   1
   5   4   4 43474.8 656.920   1
   5   4   4 40826.1 752.200   1
   3   3   7 25519.2 494.030   1
   3   3   7 23619.4 452.920   1
   3   3   7 24795.8 565.690   1
   0   5   4 215.510 54.7800   1
   0  -5  -4 270.850 74.5900   1
   0   5   4 235.770 63.9400   1
   0  -5  -4 133.040 61.3100   1
   0  -5  -4 175.360 60.6000   1
   6   2   1 5922.24 256.440   1
   6   2   1 5915.68 229.080   1
  -1   2   7 49545.4 786.370   1
   1  -2  -7 47830.3 1005.19   1
  -1   2   7 51076.1 825.150   1
  -4   2   3 32480.1 623.240   1
  -4   2   3 27420.9 571.420   1
   4  -2  -3 31804.9 682.750   1
  -4   2   3 31585.0 598.850   1
   4  -2  -3 28236.4 619.550   1
   2   5   5 63572.5 932.430   1
   2   5   5 63671.3 899.140   1
   2   5   5 61598.1 967.910   1
  -2  -5  -5 61753.7 1160.27   1
  -4  -5   2 9026.88 319.960   1
  -4  -5   2 8450.98 345.760   1
   6   2   2 13750.0 392.770   1
   6   2   2 14218.3 346.820   1
   3  -4   1 26983.5 544.980   1
   3  -4   1 26939.9 484.800   1
   4  -3   1 54042.8 734.790   1
   4  -3   1 55699.9 731.380   1
   4  -3   1 54499.0 699.390   1
   4   2  -5 2777.82 194.390   1
  -4  -2   5 2821.07 178.730   1
  -4  -2   5 2910.76 173.360   1
   4   2  -5 3008.51 216.310   1
   3  -4   0 7651.10 264.170   1
   3  -4   0 5936.21 223.790   1
   3  -4   0 7191.58 262.720   1
   0   0   8 551.900 83.5500   1
   0   0   8 537.620 92.8200   1
   4   5   4 0.80000 57.0300   1
   4   5   4 16.3300 63.2200   1
   4   5   4 67.4300 63.7900   1
   3  -1   7 102946. 926.820   1
  -3   1  -7 98096.0 1083.34   1
   3  -1   7 106702. 1240.42   1
   1  -4  -5 60355.0 841.380   1
  -1   4   5 54281.7 758.390   1
  -3   2   5 61940.7 889.020   1
   3  -2  -5 65935.4 1047.87   1
   2   1   8 79200.8 949.810   1
   2   1   8 79519.8 927.180   1
   1   6   0 186.300 59.9700   1
   1   6   0 182.120 65.7500   1
  -1  -6   0 185.040 92.2800   1
  -2  -5   4 72562.4 950.250   1
  -2  -5   4 72191.9 1024.31   1
  -2  -5   4 79090.1 930.770   1
  -2  -5   4 79977.3 920.120   1
   2  -2   7 3651.75 232.180   1
   2  -2   7 3557.86 171.750   1
   4  -3   0 45099.2 623.130   1
   4  -3   0 47373.2 676.040   1
   4  -3   0 48777.2 653.980   1
   5   0   5 90246.2 854.230   1
   5   0   5 87373.7 930.470   1
   5   0   5 86673.6 769.050   1
  -1  -6  -1 79966.1 954.890   1
  -1  -6  -1 75547.3 900.310   1
  -1  -6  -1 77081.6 822.800   1
  -2   3  -6 36041.4 665.460   1
   2  -3   6 41812.8 1044.12   1
   2  -3   6 43922.4 607.120   1
  -2  -6  -2 26622.9 529.310   1
   2   6   2 25385.5 435.220   1
  -2  -6  -2 25781.1 521.100   1
  -2  -6  -2 24958.2 754.440   1
   2   6   2 25358.5 510.040   1
  -5  -3   3 692.640 113.480   1
  -5  -3   3 739.970 91.9500   1
  -5  -3   3 647.260 113.930   1
   5   3  -3 650.490 103.670   1
   5   3  -3 761.210 102.930   1
  -5  -3   3 569.000 101.300   1
  -3  -6  -1 107610. 1057.67   1
  -5  -4   2 55583.3 806.760   1
  -5  -4   2 59212.2 728.270   1
   5   4  -2 57744.3 819.260   1
  -2  -6   1 21677.3 776.600   1
   2   6  -1 19695.7 615.310   1
  -2  -6   1 22678.9 457.950   1
   1  -5   3 18423.8 399.030   1
   1  -5   3 18384.7 393.740   1
  -1   5  -3 17951.2 423.370   1
  -1   5  -3 18329.9 508.160   1
   4  -1   6 22275.6 453.260   1
   4  -1   6 21677.6 456.270   1
   4  -1   6 21474.8 457.450   1
   6   2   0 20896.9 429.470   1
   6   2   0 20517.9 445.950   1
   6   1   1 89858.9 1013.44   1
   6   1   1 84534.4 837.460   1
   2   0   8 15439.0 432.740   1
   2   0   8 14803.3 367.090   1
   4  -3   2 1372.58 116.010   1
   4  -3   2 1309.68 106.130   1
   3   5   5 49602.0 692.150   1
   3   5   5 54836.8 744.160   1
   3   5   5 53467.0 681.920   1
   0   5  -4 17303.4 405.460   1
   0  -5   4 16355.0 471.040   1
   0  -5   4 16822.8 376.150   1
   0   3   7 13370.6 381.560   1
   0  -3  -7 11906.7 477.450   1
   0   3   7 12659.4 353.900   1
   3   6   0 3981.20 252.010   1
  -3  -6   0 4400.75 190.540   1
  -3  -6   0 4698.82 233.570   1
   0   1   8 120360. 1090.09   1
   0  -1  -8 111625. 1293.54   1
   0   1   8 115663. 1179.32   1
  -5   0   3 33943.3 600.100   1
   5   0  -3 39426.8 688.300   1
  -5   0   3 36047.2 695.590   1
  -5   0   3 34331.3 622.060   1
  -5   0   3 39642.9 653.820   1
   6   1   2 16722.8 364.820   1
   6   1   2 16480.9 382.710   1
  -4   0   5 3152.81 165.380   1
   4   0  -5 3014.76 210.020   1
  -4   0   5 3139.59 190.760   1
  -4   0   5 2729.75 175.530   1
  -4   0   5 3321.15 197.480   1
   6   3   1 65325.3 816.270   1
   6   3   1 66120.4 725.610   1
   3  -4   2 159056. 1214.07   1
   3  -4   2 150896. 1175.71   1
   4   1   7 55796.2 805.210   1
   4   1   7 50781.7 586.540   1
   4   1   7 59209.5 672.110   1
   0   4   6 16431.8 408.180   1
   0  -4  -6 15934.0 507.750   1
   0   4   6 15151.0 350.960   1
   0   4   6 15986.1 377.480   1
   0   4   6 17665.1 444.280   1
   1   5   5 62334.6 703.960   1
   1   5   5 55190.6 616.180   1
  -1  -5  -5 60893.3 1063.09   1
   1   5   5 57761.0 862.750   1
   3  -3   5 5129.33 332.010   1
  -3   3  -5 4804.20 252.210   1
   3  -3   5 5578.60 223.120   1
   5  -1   4 29757.8 494.010   1
   5  -1   4 29624.1 463.550   1
   5  -1   4 28872.9 490.200   1
  -5   1  -4 26634.8 612.940   1
   5  -1   4 30432.3 463.340   1
   5  -1   4 27860.5 544.000   1
  -5   1  -4 27253.8 622.890   1
   6   3   2 64532.9 726.020   1
   6   3   2 63236.7 796.120   1
   6   3   2 66365.5 842.780   1
   6   3   2 60781.4 1008.96   1
  -1  -6   1 4838.02 217.010   1
   1   6  -1 5731.79 225.030   1
   1   6  -1 5857.09 220.990   1
  -1  -6   1 5926.44 252.140   1
   3  -4  -1 31289.1 493.230   1
  -3   4   1 35262.6 664.890   1
   3  -4  -1 35097.4 608.390   1
   3  -4  -1 35460.2 578.290   1
   1  -1   8 69783.8 977.480   1
   1  -1   8 59610.5 688.110   1
   6   2   3 87105.1 1022.02   1
   6   2   3 98269.3 1097.93   1
   6   2   3 96819.6 868.770   1
   1  -5  -3 39257.2 753.550   1
  -1   5   3 43386.3 636.570   1
   1  -5  -3 43956.6 696.750   1
  -1   5   3 44813.6 724.750   1
   1  -5  -3 39574.1 855.520   1
   1  -5  -3 43013.4 741.650   1
  -5  -5  -1 9155.55 318.810   1
  -5  -5  -1 9473.76 288.140   1
   5   5   1 7886.70 260.400   1
   5   5   1 7552.81 289.840   1
   0  -1   8 24828.4 530.720   1
   0  -1   8 28025.1 530.660   1
   4   2   7 15764.7 420.480   1
   4   2   7 13633.5 286.570   1
   4   2   7 15785.4 386.260   1
  -3  -6  -2 11933.9 342.750   1
   3   6   2 9369.06 315.440   1
  -3  -6  -2 12095.9 358.580   1
   3   6   2 11717.4 308.870   1
  -2  -2   7 186.240 89.5600   1
  -2  -2   7 70.5600 65.7000   1
  -5   1   2 52843.9 745.470   1
  -5   1   2 51249.7 737.380   1
  -5   1   2 46418.3 706.510   1
   5  -1  -2 52157.4 723.710   1
   5  -1  -2 47152.7 797.300   1
  -3  -4   5 7976.62 336.920   1
  -3  -4   5 6407.70 363.950   1
  -3  -4   5 7233.22 273.040   1
   4  -2   5 46824.8 712.060   1
  -4   2  -5 40578.9 712.340   1
   4  -2   5 46547.6 624.700   1
   6   1   0 48786.7 695.360   1
   6   1   0 46890.6 633.880   1
  -4  -4   4 1010.28 109.260   1
  -4  -4   4 783.690 146.680   1
  -4  -4   4 1067.03 119.080   1
  -1  -6  -2 90960.4 935.790   1
  -1  -6  -2 100695. 1303.22   1
  -1  -6  -2 94420.9 929.270   1
   5   5   2 126551. 1396.81   1
  -5  -5  -2 122335. 1073.08   1
   5   5   2 126926. 1042.56   1
   5   5   2 121251. 1209.63   1
   4  -3  -1 5028.69 231.390   1
   4  -3  -1 5076.56 237.770   1
   4  -3  -1 4341.36 190.620   1
  -4   3   1 5262.96 258.770   1
  -2   1   7 4249.55 227.160   1
   2  -1  -7 4116.02 272.550   1
  -2   1   7 4477.36 229.740   1
   3  -1  -6 14156.8 516.370   1
  -3   1   6 15392.5 427.660   1
  -3   1   6 13124.4 401.710   1
   1   2   8 8183.42 297.460   1
   1   2   8 6312.96 262.480   1
  -3   3   4 21062.4 550.090   1
   3  -3  -4 19893.7 516.330   1
  -3   3   4 20625.4 437.270   1
   2   2   8 8204.88 276.050   1
   2   2   8 8441.88 274.600   1
   2   2   8 8483.59 271.970   1
   6   3   0 2346.64 170.650   1
   6   3   0 2715.09 159.150   1
   0  -3   7 52798.2 705.550   1
   0  -3   7 49627.7 876.200   1
   2  -4  -4 32288.3 692.810   1
   2  -4  -4 32320.9 612.650   1
  -2   4   4 35011.8 716.220   1
  -5  -5   0 44237.0 646.830   1
  -5  -5   0 41729.7 624.780   1
   5   5   0 44296.6 620.240   1
  -1  -4   6 50810.3 683.800   1
  -1  -4   6 56748.9 874.330   1
   4   4   6 63208.9 833.760   1
   4   4   6 69933.4 701.410   1
   4   4   6 68942.6 858.940   1
   6   1   3 2746.92 145.020   1
   6   1   3 2773.51 141.790   1
   6   1   3 2422.37 161.570   1
   6   1   3 2706.78 155.610   1
  -3  -6   1 58313.7 709.370   1
   3   6  -1 61043.2 724.550   1
   0  -4   6 41673.6 591.570   1
   0  -4   6 40859.0 776.930   1
   5   2   6 87441.5 805.080   1
   5   2   6 89451.1 777.330   1
   5   2   6 83586.0 1056.18   1
   6   3   3 93.8200 52.8400   1
   6   3   3 184.190 70.3600   1
   6   3   3 105.850 48.3200   1
  -2  -6  -3 985.940 128.460   1
   2   6   3 539.120 120.360   1
   2   6   3 822.390 108.050   1
  -2  -6  -3 833.160 103.960   1
   2   6   3 1075.96 98.3900   1
  -2  -6  -3 967.340 113.460   1
  -1  -3   7 24675.5 588.690   1
  -1  -3   7 27711.0 494.990   1
   4  -3   3 124584. 1013.83   1
   4  -3   3 125174. 1043.27   1
   6   2  -1 44019.8 618.830   1
   6   2  -1 43351.0 655.620   1
  -3  -3   6 9261.43 302.050   1
  -3  -3   6 8494.96 324.070   1
   2  -5   0 48110.2 737.610   1
  -2   5   0 46122.5 769.760   1
  -2   5   0 51774.8 773.420   1
   2  -5   0 52498.5 663.970   1
   5   1   6 18.7800 56.5900   1
   5   1   6 45.1900 49.9500   1
   5   1   6 11.9700 60.8500   1
  -4  -3   5 11651.1 355.790   1
   4   3  -5 11018.1 452.890   1
  -4  -3   5 9935.80 371.700   1
  -2  -6   2 35439.3 554.980   1
   4   0   7 10930.4 313.140   1
   4   0   7 10132.9 351.010   1
  -4   0  -7 9344.33 352.610   1
   4   0   7 11196.5 303.910   1
  -2   5  -1 90900.1 1447.74   1
   2  -5   1 90572.9 984.990   1
   2  -5   1 88667.1 891.610   1
   5  -2   1 7069.31 248.550   1
   5  -2   1 7377.44 230.190   1
   5  -2   1 7027.42 264.610   1
   5  -2   1 7085.36 280.320   1
  -5   2  -1 6653.42 256.950   1
   1   0  -8 -52.900 79.5200   1
  -1   0   8 -17.440 69.9600   1
  -1   0   8 129.480 68.9300   1
   5   5   3 9091.20 353.840   1
   5   5   3 9601.74 294.180   1
   5   5   3 10273.8 282.700   1
   5   5   3 8609.95 273.850   1
   3  -4   3 1634.03 123.610   1
  -3   4  -3 1277.13 170.190   1
   3  -4   3 1732.16 139.150   1
   3   1   8 53451.7 713.070   1
   3   1   8 52380.3 760.180   1
   3   1   8 52450.0 667.560   1
  -1  -6   2 52260.9 686.660   1
  -1  -6   2 48104.6 830.710   1
   0   6   0 19771.9 406.290   1
   0  -6   0 21093.3 442.240   1
   0  -6   0 22278.0 466.520   1
   0   6   0 18786.4 468.920   1
   5   4   5 8443.72 243.560   1
   5   4   5 8297.03 247.500   1
   5   4   5 7279.03 295.260   1
   5   4   5 7652.54 295.230   1
   3   6   3 30316.2 475.220   1
   3   6   3 30378.6 467.120   1
  -3  -6  -3 30797.3 527.440   1
  -3  -6  -3 27139.0 480.040   1
  -3  -5   4 70537.3 960.710   1
   2  -1   8 17950.9 523.440   1
   2  -1   8 17923.4 398.820   1
  -3   4   2 55696.8 776.710   1
   3  -4  -2 50584.2 720.820   1
   3  -4  -2 51875.9 781.530   1
   3  -4  -2 47913.1 642.240   1
   1  -3   7 158860. 1155.63   1
   1  -3   7 149530. 1563.56   1
   5  -2   2 118197. 1051.33   1
   5  -2   2 120997. 1405.71   1
   5  -2   2 119648. 1219.43   1
   5  -2   2 118845. 964.140   1
   5  -2   2 116638. 1061.09   1
   5  -2   0 8040.29 392.680   1
   5  -2   0 9294.24 304.580   1
   5  -2   0 8673.57 259.650   1
  -5   2   0 8358.38 285.980   1
   5  -2   0 9045.24 303.070   1
   6   1  -1 26891.5 506.090   1
   6   1  -1 26390.5 510.330   1
  -5  -2   4 47754.6 707.380   1
  -5  -2   4 47749.1 659.110   1
   5   2  -4 47994.9 872.830   1
   5   2  -4 40313.4 753.930   1
  -5  -2   4 44080.6 701.250   1
  -1  -1   8 75281.9 888.090   1
  -1  -1   8 64804.0 967.930   1
   0  -6  -1 119110. 1178.94   1
   0  -6  -1 117784. 1083.08   1
  -2   5   1 13506.2 371.750   1
   2  -5  -1 13868.7 359.880   1
   2  -5  -1 13462.3 381.500   1
   6   2   4 775.780 103.240   1
   6   2   4 772.400 89.7600   1
   6   2   4 884.320 119.150   1
   6   2   4 854.900 95.5100   1
  -4  -5   3 28173.4 518.980   1
  -5  -1   4 24311.3 531.610   1
  -5  -1   4 25956.2 602.400   1
  -5  -1   4 29400.6 503.270   1
  -5  -1   4 29245.3 535.760   1
   5   1  -4 29252.5 566.490   1
   2  -4   5 65176.6 1047.86   1
  -2   4  -5 63378.9 843.910   1
   6   0   1 506.680 84.5100   1
   6   0   1 690.540 109.130   1
   6   0   1 609.620 86.4800   1
   4   3   7 27939.0 449.270   1
   4   3   7 27888.0 425.460   1
   4   3   7 27485.6 592.260   1
   4   3   7 24824.9 551.020   1
   2   4   7 83088.3 955.700   1
   2   4   7 84331.5 821.440   1
   2   4   7 75224.8 1017.70   1
   0  -2  -8 406.790 91.8200   1
   0   2   8 443.240 82.9000   1
   0   2   8 533.620 97.1900   1
  -5  -5   1 28900.3 525.800   1
  -5  -5   1 28233.6 617.920   1
   5   5  -1 28201.4 516.730   1
   0   6  -1 68116.4 793.620   1
   0   6  -1 64920.6 807.030   1
   0  -6   1 70437.7 824.620   1
   0  -6   1 71309.7 768.980   1
   0   6  -1 66287.2 974.340   1
   4   5   5 56673.0 805.430   1
   4   5   5 49936.2 637.790   1
   6   3  -1 42961.0 694.010   1
   6   3  -1 44687.9 610.190   1
   4   6   1 75747.3 784.570   1
  -4  -6  -1 74231.9 838.610   1
  -4  -6  -1 75980.1 886.240   1
   6   0   2 125476. 1136.66   1
  -6   0  -2 121039. 1499.13   1
   6   0   2 127039. 960.340   1
   6   0   2 125731. 1104.74   1
   6   0   2 130268. 1101.85   1
  -1  -6  -3 16673.2 436.480   1
   1   6   3 14960.5 479.310   1
   1   6   3 16961.9 408.290   1
  -1  -6  -3 17412.7 454.220   1
   1   6   3 17595.5 439.880   1
  -1  -6  -3 17110.7 596.650   1
  -2  -4   6 13491.4 349.560   1
  -2  -4   6 13487.0 408.520   1
   3   2   8 21673.6 523.760   1
   3   2   8 24037.9 411.930   1
   3   2   8 22990.4 490.670   1
   5   3   6 302.860 81.6200   1
   5   3   6 386.470 74.0400   1
   4  -3  -2 17101.2 512.520   1
   4  -3  -2 17307.7 461.700   1
   4  -3  -2 18053.6 455.360   1
  -4   3   2 17501.4 429.730   1
   4  -3  -2 15433.3 396.500   1
   2  -5   2 38.2600 75.9900   1
   6   4   1 8334.93 288.440   1
   6   4   1 6858.30 309.710   1
   6   4   1 8416.23 267.620   1
   6   4   1 8928.69 302.270   1
   3   0   8 10831.6 338.000   1
   3   0   8 11073.0 344.950   1
   1  -5   4 43740.6 628.890   1
  -1   5  -4 37312.5 650.960   1
   1  -5   4 42954.2 610.110   1
   6   4   2 14986.8 479.510   1
   6   4   2 11855.5 382.120   1
   6   4   2 14987.2 362.920   1
   6   4   2 14339.0 403.250   1
  -4  -6   0 37776.4 582.430   1
   4   6   0 38610.8 573.630   1
  -4  -6   0 40618.5 596.700   1
  -4  -6  -2 18510.9 419.810   1
   4   6   2 14939.9 373.180   1
   4   6   2 15067.8 396.510   1
  -4  -6  -2 19467.8 442.090   1
  -1   1   8 55582.6 716.240   1
   1  -1  -8 63941.5 1139.03   1
  -1   1   8 56856.2 842.180   1
  -4   2   4 105297. 1116.78   1
   4  -2  -4 99035.4 1187.16   1
  -4   2   4 107101. 1086.99   1
   0   5   5 17268.9 434.340   1
   0  -5  -5 15239.7 518.570   1
   0   5   5 17547.4 389.930   1
   0   5   5 14182.5 329.460   1
   6   0   0 49151.1 706.840   1
   6   0   0 47561.7 618.500   1
   4  -1  -5 33907.6 717.830   1
  -4   1   5 34682.6 647.230   1
  -4   1   5 32766.7 594.530   1
  -5  -4   3 51994.1 702.920   1
   5   4  -3 51606.6 879.810   1
  -5  -4   3 56767.1 772.760   1
   5   4  -3 47590.5 786.140   1
   6   1   4 63622.1 848.740   1
   6   1   4 62287.6 790.430   1
   0  -2   8 43173.3 822.210   1
   0  -2   8 47546.6 668.260   1
   1  -4   6 5955.02 303.620   1
   1  -4   6 8046.56 255.110   1
  -1   4  -6 6528.74 261.370   1
  -1  -5   5 14731.2 352.630   1
  -1  -5   5 14208.8 411.770   1
   6   3   4 19751.1 521.020   1
   6   3   4 22668.0 420.810   1
   6   3   4 18216.7 447.490   1
   6   3   4 22427.1 469.710   1
  -3  -6   2 35612.2 558.310   1
   1   4   7 66599.6 974.610   1
   1   4   7 64086.5 778.960   1
  -1  -4  -7 68379.9 1006.17   1
   1   4   7 66952.2 856.810   1
   5  -1   5 20709.4 429.230   1
   5  -1   5 23062.8 409.760   1
   5  -1   5 21876.9 406.860   1
   3   4   7 35610.3 497.430   1
   3   4   7 31475.3 569.530   1
   3   4   7 35790.6 624.350   1
   2  -3  -6 68782.8 1087.53   1
  -2   3   6 69347.3 789.390   1
  -2   3   6 74088.4 1044.87   1
   0  -6  -2 32746.2 612.380   1
   0   6   2 31681.9 514.960   1
   0  -6  -2 33301.1 675.000   1
   0  -6  -2 28134.0 669.460   1
   0   6   2 32410.1 514.980   1
   5  -2   3 51134.3 690.470   1
   5  -2   3 52008.5 630.310   1
   5  -2   3 51272.3 677.630   1
  -5   2   1 66901.3 806.300   1
   5  -2  -1 66632.1 780.080   1
   5  -2  -1 69066.2 898.810   1
   1  -5  -4 6091.47 396.670   1
  -1   5   4 9352.09 325.240   1
   1  -5  -4 9342.47 344.540   1
   1  -5  -4 8922.87 367.170   1
   5   0   6 24125.1 525.190   1
   5   0   6 26871.6 427.670   1
   5   0   6 25382.1 499.180   1
  -6  -4   0 94078.6 940.780   1
   6   4   0 96447.6 952.610   1
   2   5   6 49722.9 594.490   1
   2   5   6 45836.8 750.670   1
  -2  -5  -6 46407.6 930.330   1
   2   5   6 49478.8 714.320   1
   5  -1  -3 108049. 1117.45   1
  -5   1   3 104807. 1086.61   1
  -5   1   3 107632. 1047.00   1
   1  -2   8 1967.31 160.240   1
   1  -2   8 2465.51 147.890   1
   6   0   3 32464.4 553.340   1
  -6   0  -3 28017.7 618.350   1
   6   0   3 31800.3 464.260   1
   6   0   3 33644.9 551.430   1
   6   0   3 29090.3 553.940   1
   6   0   3 32008.0 510.850   1
  -2  -3   7 136173. 1133.09   1
  -2  -3   7 143856. 1387.13   1
  -3   2  -7 561.200 85.5200   1
   3  -2   7 667.170 122.090   1
   3  -2   7 714.850 105.560   1
   2   3   8 50155.8 674.390   1
   2   3   8 49836.7 738.950   1
   2   3   8 50603.7 645.810   1
   2  -5  -2 12866.5 380.630   1
   2  -5  -2 11619.6 316.780   1
   2  -5  -2 13030.7 381.280   1
  -2   5   2 12946.0 391.620   1
  -5  -3   4 43281.2 610.730   1
  -5  -3   4 37178.9 638.780   1
  -5  -3   4 41944.4 685.080   1
   5   3  -4 39146.5 780.270   1
   5   3  -4 41922.7 777.320   1
  -1   3   7 9415.46 329.830   1
  -1   3   7 12360.4 369.350   1
   1  -3  -7 11463.4 488.780   1
  -1   3   7 12174.3 431.450   1
   5   5   4 3475.99 184.860   1
   5   5   4 3004.19 232.940   1
   5   5   4 3777.12 172.880   1
   5   5   4 3690.96 193.160   1
   4  -3   4 29591.1 505.410   1
   4  -3   4 29576.0 484.620   1
   6   4   3 51466.1 617.140   1
   6   4   3 52467.2 839.950   1
   6   4   3 48259.9 591.470   1
   0   6  -2 85176.9 901.720   1
   0   6  -2 86701.8 944.790   1
   0  -6   2 82149.9 1280.44   1
   0   6  -2 87434.7 1016.97   1
   2   6   4 70968.4 738.950   1
  -2  -6  -4 65025.4 1201.94   1
   2   6   4 68231.8 794.370   1
  -2  -6  -4 68762.7 853.460   1
   6   2  -2 2923.69 174.880   1
   6   2  -2 2620.37 150.450   1
  -6  -2   2 3282.75 183.830   1
  -2  -5   5 4466.46 197.380   1
  -2  -5   5 4182.53 278.840   1
  -2  -5   5 4439.38 220.550   1
  -3  -1   7 10307.4 367.150   1
  -3  -1   7 11776.5 355.970   1
   3   1  -7 11322.3 449.640   1
   0  -5   5 10452.0 350.840   1
   0  -5   5 10361.5 307.930   1
   5   0  -4 28161.0 570.310   1
  -5   0   4 28662.0 529.840   1
  -5   0   4 26085.2 548.980   1
  -5   0   4 23506.6 489.710   1
   3   5   6 49730.2 646.710   1
   3   5   6 49929.8 687.310   1
   3   5   6 47098.0 597.300   1
  -2   2   7 38936.2 750.030   1
   2  -2  -7 36045.7 768.830   1
  -2   2   7 39420.4 660.750   1
  -4  -6   1 6971.79 251.550   1
   4   6  -1 5923.34 222.180   1
  -4  -6   1 7051.49 301.350   1
  -4  -6  -3 44269.5 670.360   1
   4   6   3 46437.8 611.020   1
   4   6   3 45876.5 578.640   1
   1   3   8 121161. 1157.97   1
  -1  -3  -8 113862. 1298.97   1
   1   3   8 105836. 1170.10   1
  -3  -6  -4 59755.7 798.370   1
   3   6   4 62120.9 664.560   1
   3   6   4 61422.6 809.630   1
  -2  -6   3 263.420 68.2500   1
  -2  -6   3 314.890 79.1000   1
  -2  -6   3 264.740 72.6300   1
  -1   4   6 146.390 69.9100   1
   1  -4  -6 79.8100 67.7100   1
  -1   4   6 94.2200 67.6500   1
  -1  -2   8 21891.6 457.110   1
  -1  -2   8 19704.9 559.510   1
  -1  -6   3 31140.3 526.860   1
  -1  -6   3 31794.5 590.020   1
  -4  -1   6 275.560 97.2800   1
   4   1  -6 384.070 88.7500   1
  -4  -1   6 197.600 83.6800   1
   3  -4   4 44930.2 619.570   1
   3  -4   4 44344.3 594.090   1
   6   0  -1 11081.9 317.020   1
   6   0  -1 12682.0 362.830   1
   3  -3   6 82689.6 1299.91   1
   6   1  -2 48960.6 738.050   1
  -6  -1   2 50013.7 749.230   1
   6   1  -2 50141.1 732.930   1
  -3   0   7 17128.4 463.480   1
   3   0  -7 20483.0 594.700   1
  -3   0   7 21183.1 472.490   1
   2  -5   3 104314. 997.980   1
   4  -2   6 58232.4 728.660   1
   4  -2   6 50972.2 909.560   1
  -3   4   3 24699.5 569.390   1
   3  -4  -3 24342.7 561.880   1
   3  -4  -3 21562.4 473.660   1
   3  -4  -3 24770.2 520.830   1
   1   5   6 32442.0 586.650   1
   1   5   6 32237.0 517.430   1
  -1  -5  -6 30387.8 757.230   1
  -3   2   6 24310.2 527.290   1
  -3   2   6 26820.9 542.060   1
   3  -2  -6 26839.6 695.760   1
   5   5  -2 40760.0 586.670   1
  -5  -5   2 41091.7 587.360   1
   4  -1   7 9450.08 334.520   1
  -4   1  -7 8637.54 350.910   1
   4  -1   7 10765.5 329.560   1
   4   2  -6 174703. 1861.57   1
  -4  -2   6 182976. 1370.39   1
  -4  -2   6 185576. 1445.71   1
   6   3  -2 61262.1 836.930   1
  -6  -3   2 60306.6 745.450   1
   6   3  -2 56531.4 893.090   1
  -6  -3   2 56632.3 1045.89   1
   6   3  -2 62526.1 721.710   1
   6   2   5 83714.8 1107.70   1
   6   2   5 83198.6 799.410   1
   2  -3   7 43469.6 599.440   1
   2  -3   7 39654.2 873.230   1
  -3  -2   7 37313.1 584.580   1
   3   2  -7 37159.6 800.780   1
  -3  -2   7 33764.7 591.480   1
   3   3   8 71955.0 885.950   1
  -2   4   5 19335.5 424.270   1
   2  -4  -5 14516.5 450.040   1
   2  -4  -5 17727.4 508.530   1
  -2   4   5 18950.5 499.280   1
   6   4  -1 3179.04 174.090   1
  -6  -4   1 3046.17 167.710   1
   6   4  -1 3201.92 183.080   1
  -6  -4   1 2873.91 171.960   1
   6   4  -1 2715.62 172.260   1
   3  -3  -5 44573.4 725.710   1
  -3   3   5 44406.6 677.610   1
  -3   3   5 42314.4 769.480   1
   1   6   4 43792.7 679.590   1
  -1  -6  -4 38679.7 573.090   1
   1   6   4 35633.9 558.080   1
  -1  -6  -4 42778.6 895.150   1
  -4  -4   5 97517.8 1147.66   1
  -4  -4   5 104599. 1058.97   1
   3  -1   8 13831.2 457.500   1
   3  -1   8 14235.2 347.750   1
   0   6   3 150.650 55.5800   1
   0  -6  -3 111.460 69.0000   1
   0   6   3 146.590 56.9800   1
   0  -6  -3 140.800 64.2300   1
   0  -6  -3 228.780 77.7000   1
   6   0   4 3166.83 164.520   1
   6   0   4 2771.77 178.470   1
  -6   0  -4 2322.52 200.020   1
   6   0   4 3139.40 151.910   1
   6   0   4 2640.82 156.600   1
   4  -3  -3 31845.8 809.340   1
   4  -3  -3 34313.5 618.240   1
  -4   3   3 40052.4 755.030   1
   4  -3  -3 38305.9 690.020   1
  -4   3   3 40597.1 597.160   1
   5  -2   4 14248.3 366.480   1
   5  -2   4 14632.8 362.890   1
   5  -2   4 14378.9 591.730   1
   5  -2   4 14841.5 504.770   1
  -5   2  -4 12207.2 446.820   1
  -4   0   6 35389.8 740.130   1
  -4   0   6 34316.3 602.820   1
  -4   0   6 34432.5 612.070   1
   4   0  -6 34313.2 632.680   1
   5  -2  -2 64106.3 823.840   1
   5  -2  -2 55104.0 1047.68   1
  -5   2   2 63003.3 751.650   1
  -5   2   2 56625.9 740.900   1
   5   4   6 22675.5 396.120   1
   5   4   6 21386.8 503.020   1
   5   4   6 23382.5 418.910   1
   6   4   4 44779.2 599.980   1
   6   4   4 42646.1 758.670   1
   2   1  -8 182980. 1918.14   1
   2  -2   8 80758.7 829.260   1
   2  -2   8 79011.4 1098.57   1
   0   4   7 74112.4 824.180   1
   0   4   7 74794.7 913.560   1
   0  -4  -7 81602.0 1223.05   1
   0   4   7 80561.1 831.150   1
   6   1   5 46353.5 694.670   1
   6   1   5 43591.5 515.610   1
   6   1   5 45245.4 621.740   1
   2   0  -8 9551.37 400.880   1
  -2   0   8 8994.55 351.020   1
  -2   0   8 10299.7 333.060   1
   1  -2  -8 692.800 126.710   1
  -1   2   8 829.350 107.430   1
  -1   2   8 816.280 111.950   1
   6   3   5 145783. 1401.39   1
  -3  -4   6 96353.8 1048.06   1
  -3  -4   6 102422. 999.530   1
   5   2   7 17591.3 335.350   1
   5   2   7 16843.4 353.910   1
   5   2   7 17092.6 355.050   1
   5   2   7 16235.3 434.210   1
   4   4   7 51156.9 639.260   1
   4   4   7 52050.5 776.880   1
   4   1   8 24046.4 507.460   1
   4   1   8 20523.0 476.290   1
   4   1   8 25256.8 427.010   1
   1   0   9 45591.3 706.340   1
   1   0   9 50958.5 726.550   1
  -3  -6   3 34288.3 558.390   1
   1  -6   0 406.460 73.0300   1
  -1   6   0 380.700 85.9100   1
  -1   6   0 396.780 83.2700   1
   1  -6   0 413.870 87.8900   1
  -1   6   0 501.620 70.3100   1
   1   1   9 10730.8 401.200   1
   1   1   9 11332.0 326.960   1
  -4  -5   4 21614.0 491.290   1
  -4  -5   4 22214.9 472.140   1
  -4  -5   4 16503.9 471.950   1
  -4  -5   4 14636.5 738.370   1
   4   2   8 612.360 78.7200   1
   4   2   8 551.130 97.3000   1
   4   2   8 582.250 99.0800   1
   0  -6   3 37678.4 593.180   1
   0   6  -3 35777.8 631.390   1
   0  -6   3 36894.3 667.530   1
   5   1   7 50737.0 774.140   1
   5   1   7 50952.3 645.640   1
   5   1   7 48851.1 602.680   1
  -2   5   3 130266. 1331.12   1
   2  -5  -3 123654. 1090.97   1
   2  -5  -3 127574. 1282.17   1
   1  -6   1 27473.9 487.830   1
  -1   6  -1 21288.1 663.250   1
   1  -6   1 24370.9 484.040   1
  -1   6  -1 25084.6 501.820   1
  -1   6  -1 26798.8 484.160   1
  -4  -6   2 77098.0 914.820   1
   4   6  -2 76928.8 858.940   1
  -4  -6   2 76059.9 936.370   1
   4   5   6 20450.0 374.380   1
   4   5   6 20074.2 445.190   1
   4   5   6 20388.5 392.670   1
   6  -1   1 21354.2 494.980   1
   6  -1   1 18853.3 504.740   1
   6  -1   1 22044.0 464.460   1
  -6   1  -1 19041.4 430.350   1
   6  -1   1 19804.2 380.690   1
  -4  -6  -4 60476.3 851.970   1
   4   6   4 55117.4 669.940   1
   0  -3  -8 13146.2 510.920   1
   0   3   8 11996.8 457.380   1
   0   3   8 13496.4 573.200   1
  -1   6   1 3626.84 167.150   1
  -1   6   1 3210.42 228.790   1
   1  -6  -1 3530.56 184.270   1
   1  -6  -1 3088.70 196.030   1
   2   1   9 750.000 93.7300   1
   2   1   9 388.860 76.1800   1
  -3  -5   5 5268.20 250.400   1
  -3  -5   5 3714.25 239.810   1
  -3  -5   5 5638.75 231.200   1
  -6   1  -2 1748.97 148.750   1
   6  -1   2 1910.19 138.560   1
   6  -1   2 1876.54 126.820   1
   6  -1   2 1935.05 153.100   1
   6  -1   2 2076.27 137.150   1
   6  -1   2 1927.32 147.380   1
  -1   5  -5 3205.94 197.430   1
   1  -5   5 3347.34 234.560   1
   1  -5   5 4083.24 184.310   1
   1  -5   5 4004.82 197.570   1
   5   5   5 60455.1 820.490   1
   5   5   5 60527.3 687.980   1
   5   5   5 52595.4 620.200   1
   5   5   5 50054.1 1018.96   1
   2  -4   6 1314.42 117.800   1
   2  -4   6 1046.23 151.970   1
  -2   4  -6 937.230 118.260   1
   0   0   9 60131.7 927.950   1
   0   0   9 67180.6 840.340   1
   0  -4   7 3112.15 167.990   1
   0  -4   7 2883.64 194.720   1
  -3   1   7 2739.55 179.280   1
   3  -1  -7 2952.83 204.730   1
  -3   1   7 2523.02 182.410   1
  -1  -4   7 1494.74 142.110   1
  -1  -4   7 1366.78 121.930   1
  -5  -6  -1 35841.7 703.730   1
   5   6   1 40734.5 574.240   1
  -5  -6  -1 40987.1 637.710   1
   2   0   9 74518.2 1075.30   1
   2   0   9 73446.2 780.890   1
  -6   0   2 8322.13 308.860   1
   6   0  -2 8858.06 316.810   1
   6   0  -2 8141.99 326.870   1
   4  -3   5 -35.770 54.6900   1
   4  -3   5 -16.970 73.1800   1
  -4   3  -5 13.6400 50.4100   1
   5   2  -5 141.020 76.6400   1
  -5  -2   5 198.090 78.5400   1
  -5  -2   5 234.850 84.0800   1
  -5  -2   5 138.970 63.4200   1
   5   2  -5 285.230 86.1600   1
   6  -1   0 41487.6 733.280   1
   6  -1   0 47467.7 686.110   1
  -6   1   0 42953.2 661.420   1
   6  -1   0 45955.9 618.610   1
  -6   1   0 43012.1 673.150   1
  -5  -4   4 48.2800 77.0300   1
  -5  -4   4 43.7800 78.1000   1
  -5  -4   4 18.7300 66.8300   1
   4   3  -6 152.690 69.8100   1
  -4  -3   6 134.800 60.3000   1
  -4  -3   6 184.110 82.5800   1
   6   5   1 650.120 98.9400   1
  -6  -5  -1 482.940 80.4300   1
   6   5   1 327.020 73.9900   1
   6   5   1 645.620 89.4400   1
  -5  -1   5 31372.9 553.330   1
  -5  -1   5 32944.9 558.090   1
   5   1  -5 32722.9 769.840   1
  -5  -1   5 30624.4 631.560   1
   5  -1   6 44703.6 606.990   1
   5  -1   6 46695.5 655.720   1
   5  -1   6 44680.6 623.330   1
   5   6   2 4759.70 258.590   1
  -5  -6  -2 7095.86 266.320   1
   5   6   2 7000.93 227.490   1
  -5  -6  -2 6565.93 253.740   1
   5   6   2 6759.67 242.580   1
   6   5   2 55468.1 667.000   1
   6   5   2 49591.6 940.750   1
   6   5   2 49796.8 758.020   1
  -6  -2   3 59965.2 788.770   1
  -6  -2   3 59663.8 717.150   1
   6   2  -3 59304.8 885.550   1
  -6  -2   3 52948.6 912.570   1
   5   3   7 18234.2 468.450   1
   5   3   7 19604.4 380.240   1
   5   3   7 19160.9 351.250   1
   2   6   5 24600.4 487.430   1
  -2  -6  -5 22225.2 644.020   1
   2   6   5 20854.6 521.330   1
  -2  -6  -5 23819.9 535.750   1
  -2  -2   8 10560.6 382.100   1
  -2  -2   8 10962.8 343.680   1
  -2   5  -4 38939.1 653.230   1
  -2   5  -4 46981.7 919.190   1
   2  -5   4 45176.5 611.830   1
   4  -4   1 32547.2 579.850   1
   4  -4   1 32460.1 550.970   1
   0   1   9 3574.33 203.980   1
   0   1   9 4235.34 212.900   1
   4   0   8 65791.5 757.650   1
   4   0   8 63229.2 801.600   1
   4   0   8 66753.6 807.940   1
   0  -3   8 819.340 138.510   1
   0  -3   8 761.870 111.750   1
  -1   5   5 65233.3 758.610   1
   1  -5  -5 64597.4 991.170   1
  -1   5   5 67154.3 854.450   1
   5  -1  -4 70.1600 73.4800   1
  -5   1   4 106.650 73.3800   1
  -5   1   4 67.6100 53.9900   1
  -5   1   4 115.630 80.6400   1
   3   6   5 51587.5 699.900   1
   3   6   5 48622.4 654.320   1
   3   6   5 48441.4 671.770   1
   1  -1   9 4572.17 287.340   1
   1  -1   9 4570.26 210.390   1
  -5  -6   0 59890.6 867.630   1
  -5  -6   0 64045.8 823.050   1
   5   6   0 62425.9 739.100   1
  -4   2   5 106.380 71.8500   1
   4  -2  -5 84.1400 73.6900   1
  -4   2   5 130.130 78.2000   1
  -2   1   8 67083.6 879.870   1
  -2   1   8 67180.1 1115.17   1
   2  -1  -8 61408.8 1053.91   1
   1  -6   2 59378.0 774.070   1
  -1   6  -2 57253.2 779.820   1
  -1   6  -2 50221.0 1205.62   1
   1  -6   2 58982.7 716.570   1
  -1   6  -2 55263.1 656.710   1
   4  -4   0 28.1200 54.4000   1
   4  -4   0 88.1900 90.1000   1
   6   4  -2 23164.8 611.130   1
   6   4  -2 24836.5 452.790   1
  -6  -4   2 22929.5 532.700   1
  -6  -4   2 23456.7 480.640   1
   0   5   6 23400.4 470.940   1
   0   5   6 24390.5 495.360   1
   0   5   6 22774.7 491.030   1
   0  -5  -6 22386.2 645.440   1
   6  -1   3 40073.9 631.490   1
   6  -1   3 38247.1 516.220   1
  -6   1  -3 34856.7 649.150   1
   6  -1   3 37280.3 637.730   1
   6  -1   3 37607.7 554.280   1
  -1  -6   4 30681.1 605.400   1
  -1  -6   4 34619.4 546.480   1
  -3  -3   7 5674.57 274.290   1
  -3  -3   7 5955.22 245.060   1
   2   2   9 37738.9 767.550   1
   2   2   9 31972.5 730.370   1
   0  -1   9 15340.8 418.510   1
   0  -1   9 16440.7 496.430   1
  -2  -6   4 9845.55 316.710   1
  -2  -6   4 10386.4 425.630   1
  -2  -6   4 9871.65 328.250   1
  -1   6   2 51208.2 891.060   1
   1  -6  -2 47995.8 915.250   1
   1  -6  -2 49742.9 893.550   1
  -1   6   2 47586.8 1078.49   1
   1  -6  -2 40524.2 1033.66   1
   3  -4   5 14488.0 383.680   1
   3  -4   5 16984.3 422.500   1
  -3   4  -5 12502.7 443.950   1
   6   5   0 3997.82 231.910   1
   6   5   0 2772.51 165.670   1
  -6  -5   0 3581.99 183.530   1
  -6  -5   0 3535.17 185.000   1
   6   5   0 3782.39 189.150   1
  -6  -1   3 15143.8 489.440   1
  -6  -1   3 19879.4 507.980   1
   6   1  -3 19564.7 507.920   1
   1   2   9 41861.9 843.140   1
   1   2   9 43394.0 873.720   1
  -5  -5   3 407.470 90.9000   1
  -5  -5   3 420.860 88.8400   1
   4   3   8 89172.9 1237.86   1
   4   3   8 90123.6 1305.56   1
   4   3   8 83730.6 1264.07   1
   4  -4   2 37743.1 735.750   1
   4  -4   2 38914.7 736.800   1
   6   5   3 22186.5 570.170   1
   6   5   3 22944.9 513.120   1
   6   5   3 22608.2 478.690   1
  -1  -5   6 43311.4 773.640   1
  -1  -5   6 39271.4 834.760   1
  -1  -3   8 59698.8 1188.91   1
  -1  -3   8 53026.6 927.020   1
   5   0   7 125.880 62.2100   1
   5   0   7 156.390 64.1700   1
   5   0   7 73.3800 48.3300   1
  -3   4   4 71929.7 1244.82   1
   3  -4  -4 70325.8 1180.60   1
  -3   4   4 74922.5 1135.45   1
  -6  -3   3 4876.22 201.560   1
  -6  -3   3 4379.54 244.450   1
   6   3  -3 4654.31 231.310   1
  -6  -3   3 4907.35 240.330   1
   6   0   5 39964.4 723.900   1
   6   0   5 39836.9 671.410   1
   6   0   5 37226.3 719.980   1
  -5  -6  -3 3143.96 170.710   1
   5   6   3 3531.74 165.840   1
   5   6   3 3626.26 169.060   1
   0   6   4 39552.8 778.680   1
   0  -6  -4 36512.7 835.890   1
   0   6   4 35208.4 724.450   1
   0  -6  -4 34620.8 696.210   1
   2   4   8 510.630 91.2300   1
   2   4   8 479.310 78.9300   1
   2   4   8 522.340 110.860   1
   6   4   5 3145.88 160.370   1
   6   4   5 3156.17 217.510   1
   6   4   5 3482.84 160.490   1
   1  -3   8 17061.3 602.050   1
   1  -3   8 17486.0 438.700   1
   4  -1  -6 44807.6 882.660   1
  -4   1   6 48687.8 952.590   1
  -4   1   6 48457.7 950.980   1
   3  -5   1 1325.40 131.410   1
   3  -5   1 1295.45 133.950   1
   3  -5   0 62954.1 1015.61   1
   3  -5   0 59935.3 1000.71   1
   6  -1  -1 253.120 83.7400   1
   6  -1  -1 348.760 86.7100   1
  -6   1   1 271.420 82.6200   1
   5  -2   5 32415.1 678.570   1
   5  -2   5 33783.4 660.620   1
   5  -3   1 8741.95 293.790   1
   5  -3   1 9210.46 312.090   1
   6   2   6 27745.8 644.440   1
   6   2   6 29911.1 547.420   1
   6   2   6 29094.4 580.160   1
   1  -4   7 3.04000 79.2500   1
   1  -4   7 10.8400 71.0900   1
   3   1   9 9.26000 77.5900   1
   3   1   9 37.4700 63.1700   1
  -5  -3   5 73056.8 1219.12   1
  -5  -3   5 74535.5 1247.11   1
   5   3  -5 71849.7 1356.65   1
  -5  -3   5 65401.1 1108.35   1
  -2  -4   7 487.840 97.1800   1
  -2  -4   7 448.760 89.9800   1
   5  -2  -3 12951.9 454.530   1
  -5   2   3 12098.4 341.500   1
  -5   2   3 12346.0 372.080   1
   2   7   1 11651.4 457.720   1
  -2  -7  -1 13474.2 430.610   1
   2   7   1 12759.1 331.450   1
  -2  -7  -1 12495.0 433.030   1
  -2  -7  -1 14424.6 492.200   1
   2   5   7 279.280 72.7800   1
  -2  -5  -7 315.230 87.0400   1
   2   5   7 352.920 68.1100   1
   2   5   7 224.670 69.0200   1
   4  -4  -1 99607.9 1449.00   1
   4  -4  -1 97616.5 1452.46   1
  -4   4   1 95866.5 1669.86   1
   2   7   0 87692.3 1287.64   1
  -2  -7   0 82632.9 1218.53   1
  -2  -7   0 82647.3 1409.07   1
  -2  -7   0 76623.8 1325.81   1
   2   7   0 71700.4 1192.77   1
  -1  -6  -5 21731.7 712.900   1
  -1  -6  -5 23264.0 644.420   1
   1   6   5 21892.8 503.170   1
   1   6   5 22920.6 538.660   1
   5   0  -5 4260.13 220.660   1
  -5   0   5 3992.31 215.380   1
  -5   0   5 4339.99 224.830   1
   0  -5   6 29579.5 710.740   1
   0  -5   6 34627.4 682.340   1
  -5  -6   1 15186.6 423.930   1
  -5  -6   1 15112.1 415.770   1
   5   6  -1 15976.1 415.950   1
   2  -1   9 152.180 94.1500   1
   2  -1   9 49.5300 84.4600   1
   5  -3   0 73545.3 1174.53   1
   5  -3   0 74818.6 1178.39   1
   5  -3   2 1053.91 137.450   1
   5  -3   2 1026.75 105.900   1
   3   5   7 622.070 88.3200   1
   3   5   7 424.690 84.6600   1
   3   5   7 547.170 83.4600   1
   3   5   7 413.880 83.1400   1
   3   7   1 58.4500 62.2200   1
  -3  -7  -1 57.0900 90.9100   1
   3   7   1 35.5900 67.7600   1
   3   4   8 8934.45 325.850   1
   3   4   8 8622.51 270.320   1
   3   4   8 9248.98 285.840   1
  -2  -5   6 15210.8 438.870   1
  -2  -5   6 17682.1 500.790   1
   7   2   2 28652.0 569.630   1
   7   2   2 29075.2 651.230   1
  -4   3   4 36.5800 64.5400   1
  -4   3   4 45.9900 83.3300   1
   4  -3  -4 15.8900 81.4200   1
   7   2   1 1687.34 136.920   1
   7   2   1 1824.69 132.050   1
  -1   0   9 24137.0 541.070   1
  -1   0   9 30578.2 694.460   1
  -2   3   7 14790.4 484.120   1
   2  -3  -7 13625.0 519.420   1
  -2   3   7 13739.4 438.730   1
   0  -6   4 8480.10 276.090   1
   0  -6   4 8480.00 307.000   1
  -3  -7   0 28000.5 617.090   1
   3   7   0 26926.6 690.050   1
   3   7   0 30505.6 604.910   1
  -3  -7   0 28295.4 571.710   1
   3  -5   2 10386.0 303.190   1
   3  -5   2 9929.64 329.160   1
   3   2   9 60973.0 1074.07   1
   3   2   9 70912.6 1103.54   1
   3   2   9 68303.2 1161.30   1
  -4  -6   3 21444.9 598.940   1
   1   4   8 16299.0 498.310   1
   1   4   8 13463.0 451.480   1
  -1  -4  -8 14721.7 570.570   1
   1   4   8 14513.8 479.600   1
   3  -5  -1 15252.2 422.330   1
   3  -5  -1 14671.2 402.780   1
  -3   5   1 14231.0 495.010   1
   6   1   6 11428.9 349.000   1
   6   1   6 11344.1 301.500   1
   6   1   6 12473.4 305.830   1
   4   6   5 5563.14 194.620   1
   4   6   5 4490.85 216.290   1
   4   6   5 5702.37 237.550   1
   6   3   6 33266.0 735.240   1
   6   3   6 35815.7 625.650   1
   6   3   6 34361.1 688.860   1
   2   7   2 53517.7 890.440   1
  -2  -7  -2 54764.6 1257.43   1
   2   7   2 53505.6 877.350   1
  -2  -7  -2 50877.5 871.240   1
  -2  -7  -2 51913.8 999.470   1
   6   5  -1 51945.4 1051.49   1
  -6  -5   1 53258.8 889.180   1
  -6  -5   1 49046.4 913.130   1
   6   5  -1 55698.6 929.860   1
  -2   5   4 10112.5 412.950   1
   2  -5  -4 10147.1 380.980   1
   2  -5  -4 10342.4 361.510   1
   4  -4   3 32703.9 635.040   1
   4  -4   3 32272.3 624.190   1
   4  -2   7 3346.94 245.380   1
   4  -2   7 3688.50 190.360   1
   7   3   2 57844.1 998.400   1
   7   3   2 57777.4 937.700   1
   3   0   9 32404.0 685.070   1
   3   0   9 31595.7 710.880   1
   6  -1   4 36853.6 644.880   1
   6  -1   4 38399.0 728.130   1
   6  -1   4 37525.4 683.990   1
   6  -1   4 37693.1 693.020   1
   7   3   1 19802.0 456.160   1
   7   3   1 19313.5 500.260   1
   3  -3   7 41750.8 753.950   1
   3  -3   7 33835.6 955.040   1
  -3  -6   4 5916.60 247.410   1
  -3  -6   4 6003.02 227.200   1
  -3  -7  -2 6868.97 380.830   1
  -3  -7  -2 6742.54 254.080   1
   3   7   2 6873.39 291.710   1
   3   7   2 6575.34 225.150   1
   1  -6   3 2525.90 147.130   1
   1  -6   3 2448.94 144.350   1
  -1   6  -3 2242.52 141.800   1
   3  -2   8 39657.5 965.510   1
   3  -2   8 41231.8 751.800   1
   2   7  -1 69512.9 1071.89   1
   2   7  -1 71979.2 1113.34   1
  -2  -7   1 66509.4 1034.58   1
  -2  -7   1 63461.8 1171.99   1
   0  -2  -9 22875.3 701.150   1
   0   2   9 24874.5 651.650   1
   0   2   9 21391.9 509.170   1
  -1  -1   9 3456.54 231.240   1
  -1  -1   9 3991.34 203.740   1
  -1  -7   0 60489.7 958.850   1
   1   7   0 58643.1 951.150   1
  -1  -7   0 55122.7 1131.09   1
   1   7   0 59034.3 915.770   1
   6   5   4 14441.6 372.420   1
   6   5   4 13647.9 391.160   1
   6   5   4 13660.1 464.940   1
  -1  -7  -1 3110.76 183.600   1
   1   7   1 3584.19 161.930   1
  -1  -7  -1 3478.14 258.860   1
   1   7   1 3741.53 183.050   1
  -1  -7  -1 3678.41 193.530   1
   7   2   3 37364.3 667.170   1
   7   2   3 37410.0 719.410   1
   1   5   7 18692.1 482.010   1
   1   5   7 18754.5 462.790   1
   1   5   7 17960.4 474.280   1
  -1  -5  -7 16423.7 602.210   1
  -1   4   7 61431.6 1082.02   1
   1  -4  -7 58313.2 1225.83   1
  -1   4   7 58358.7 1117.68   1
  -1   6   3 347.600 82.3000   1
   1  -6  -3 303.720 82.9500   1
  -1   6   3 281.340 64.0600   1
   1  -6  -3 276.770 93.1700   1
   1  -6  -3 209.750 75.2000   1
   7   2   0 118206. 2265.90   1
   7   2   0 118070. 1646.60   1
  -2   4   6 15327.5 480.900   1
   2  -4  -6 14511.5 462.500   1
  -2   4   6 16143.3 446.200   1
  -6   0   3 12063.4 354.070   1
  -6   0   3 10355.1 442.430   1
   6   0  -3 11650.6 375.490   1
   5   6   4 44685.8 838.070   1
   5   6   4 46799.2 780.420   1
   5   6   4 39031.7 684.600   1
   5   4   7 38833.0 766.320   1
   5   4   7 41067.9 679.550   1
   5   4   7 38810.7 689.400   1
   5  -3  -1 108.440 73.9000   1
   5  -3  -1 149.260 80.6400   1
   5  -3   3 50153.6 859.310   1
   5  -3   3 52253.4 896.600   1
  -1   3   8 65020.0 1233.80   1
   1  -3  -8 58485.8 1210.44   1
  -1   3   8 64037.0 1087.37   1
   7   3   3 156.460 61.8800   1
   7   3   3 196.430 68.3100   1
   5   5   6 28550.0 633.020   1
   5   5   6 28783.3 569.710   1
   5   5   6 29713.5 539.760   1
  -3   3   6 39175.7 902.940   1
   3  -3  -6 37950.8 802.120   1
  -3   3   6 38523.6 792.730   1
  -1   1   9 1799.53 158.540   1
  -1   1   9 2374.99 173.100   1
   1  -1  -9 2125.14 206.070   1
   0  -2   9 96423.3 1405.02   1
   0  -2   9 101971. 1775.43   1
   3   7  -1 50893.2 1083.26   1
  -3  -7   1 51982.0 1011.16   1
  -3  -7   1 56236.2 911.280   1
   7   1   2 7598.87 308.370   1
   7   1   2 6703.72 234.280   1
   7   1   1 57519.6 920.540   1
   7   1   1 58592.6 990.900   1
   4  -1   8 15278.1 496.990   1
   4  -1   8 16142.5 443.290   1
   7   3   0 817.920 116.760   1
   7   3   0 685.310 97.1600   1
  -2  -3   8 25857.8 567.060   1
  -2  -3   8 23230.8 632.110   1
  -4   4   2 49338.5 946.340   1
   4  -4  -2 49659.1 941.650   1
   4  -4  -2 51152.4 961.010   1
   1   7  -1 3715.05 207.030   1
  -1  -7   1 4089.50 221.130   1
   1   7  -1 3554.06 244.600   1
  -1  -7   1 4022.16 186.090   1
   2   3   9 29398.6 603.620   1
   2   3   9 31988.8 654.810   1
   2   3   9 30458.2 667.930   1
   1  -2   9 24772.6 665.600   1
   1  -2   9 29341.8 595.000   1
   4   1  -7 2114.35 194.250   1
  -4  -1   7 2165.57 163.720   1
  -4  -1   7 2079.17 180.310   1
  -4  -5   5 6501.37 256.380   1
  -4  -5   5 6796.27 273.940   1
   3  -2  -7 80769.4 1459.28   1
  -3   2   7 78269.9 1285.20   1
  -3   2   7 76674.3 1319.83   1
  -4  -4   6 51729.2 951.350   1
  -4  -4   6 48208.8 889.920   1
   6  -1  -2 69676.1 1181.20   1
   6  -1  -2 75481.6 1212.87   1
  -6   1   2 72088.9 1185.08   1
  -6   1   2 68962.6 1173.09   1
  -6  -4   3 20687.1 498.280   1
  -6  -4   3 20520.7 531.350   1
   6   4  -3 23030.9 751.960   1
  -6  -4   3 24328.0 550.580   1
  -1  -7  -2 2473.90 174.360   1
  -1  -7  -2 2820.61 170.330   1
   1   7   2 2796.10 194.580   1
  -1  -7  -2 2731.72 226.290   1
   1   7   2 2873.85 159.140   1
  -2   2   8 17422.5 488.020   1
  -2   2   8 16360.6 542.090   1
   2  -2  -8 13861.4 552.070   1
  -2   5  -5 6083.81 274.680   1
   2  -5   5 6968.33 244.900   1
   2  -5   5 6883.06 243.410   1
  -3  -1   8 11985.6 388.180   1
   3   1  -8 14748.2 582.950   1
  -3  -1   8 15874.5 450.500   1
   3  -5   3 38567.2 708.150   1
   3  -5   3 42200.7 745.910   1
   4  -3   6 19349.3 754.300   1
   4  -3   6 23868.4 512.280   1
  -2  -7  -3 83704.6 1761.57   1
  -2  -7  -3 83983.4 1367.45   1
   2   7   3 78495.1 1263.30   1
  -2  -7  -3 90276.3 1487.04   1
   2   7   3 78998.2 1303.58   1
  -3  -7  -3 77194.1 1222.31   1
   3   7   3 78861.5 1198.29   1
  -3  -7  -3 77299.0 1220.83   1
   3   7   3 79719.6 1150.79   1
   3  -5  -2 33107.7 735.760   1
   3  -5  -2 31280.4 706.450   1
  -3   5   2 33587.9 826.100   1
   4   5   7 406.480 83.3500   1
   4   5   7 544.270 99.4600   1
   4   5   7 729.220 100.610   1
   2  -3   8 7600.15 248.710   1
   2  -3   8 6506.55 383.200   1
  -4  -7  -1 103.780 78.6700   1
   4   7   1 162.970 60.7500   1
  -4  -7  -1 205.250 76.1800   1
   4   7   1 183.100 80.0000   1
  -4  -2   7 34342.9 713.410   1
   4   2  -7 35571.1 888.320   1
  -4  -2   7 36116.6 706.880   1
   7   1   3 16238.9 380.740   1
   7   1   3 16849.0 454.780   1
   7   1   3 16805.2 415.820   1
  -5  -6   2 55442.0 935.780   1
  -5  -6   2 57931.2 1082.35   1
   5   6  -2 61143.2 996.320   1
   1   3   9 13699.3 521.410   1
   1   3   9 14886.0 440.350   1
   7   1   0 9460.43 278.820   1
   7   1   0 9782.74 310.570   1
  -6  -2   4 3680.63 253.590   1
   6   2  -4 4772.55 238.450   1
  -6  -2   4 4705.80 209.910   1
  -6  -2   4 4669.00 219.800   1
   5   2   8 21259.7 453.350   1
   5   2   8 22571.4 501.440   1
   5   2   8 20614.3 488.940   1
  -2  -7   2 832.280 113.830   1
  -2  -7   2 847.400 160.660   1
   2   7  -2 634.750 90.5700   1
  -2  -6  -6 8698.98 429.880   1
   2   6   6 7251.01 293.740   1
   2   6   6 8723.35 347.050   1
   2   6   6 6536.34 212.050   1
   2   6   6 9831.45 319.120   1
   3   6   6 6206.85 254.220   1
   3   6   6 6825.46 214.310   1
   3   6   6 4961.93 255.490   1
   4   4   8 31.6500 47.2000   1
   4   4   8 4.47000 64.4100   1
   4   4   8 177.270 93.0800   1
  -3   0   8 152.840 110.540   1
   3   0  -8 24.3700 83.3600   1
  -3   0   8 34.3600 73.2100   1
  -4  -7  -2 41513.7 767.770   1
  -4  -7  -2 47688.1 885.730   1
   7   4   2 7939.82 384.540   1
   7   4   2 7863.47 291.270   1
   7   4   2 9851.08 281.240   1
  -4  -7   0 21762.4 571.960   1
  -4  -7   0 24599.0 628.680   1
   4   7   0 23975.7 578.750   1
   7   2   4 16202.3 455.320   1
   7   2   4 16906.5 398.880   1
   7   2   4 16346.5 504.120   1
   7   4   1 16249.7 456.210   1
   7   4   1 16650.1 413.340   1
   5   1   8 45837.1 907.230   1
   5   1   8 51035.3 828.670   1
   5   1   8 48454.0 825.770   1
   3   3   9 22137.3 520.130   1
   3   3   9 24305.3 608.520   1
   3   3   9 25324.6 563.670   1
   2  -6   0 1181.23 115.580   1
   2  -6   0 978.700 118.020   1
  -2   6   0 1060.23 125.870   1
   5  -1   7 89004.0 1347.33   1
   5  -1   7 78288.4 1282.95   1
   7   2  -1 44682.0 827.010   1
   7   2  -1 44253.5 803.290   1
  -1  -6   5 46101.5 837.120   1
  -1  -6   5 43332.5 849.970   1
   4  -4   4 17606.4 435.160   1
   4  -4   4 16698.3 403.460   1
  -1  -2   9 8999.84 353.130   1
  -1  -2   9 8763.56 282.780   1
   6   0   6 37946.9 639.570   1
   6   0   6 37256.0 722.440   1
   6   0   6 36177.5 705.650   1
   5   4  -5 609.010 127.850   1
  -5  -4   5 452.550 91.7800   1
  -5  -4   5 494.180 103.380   1
  -3  -5   6 14123.0 422.320   1
  -3  -5   6 13067.5 458.770   1
   4   0  -7 74642.9 1418.31   1
  -4   0   7 77806.5 1231.75   1
  -4   0   7 71478.9 1233.73   1
  -4   0   7 68045.5 1216.25   1
   6   4   6 26732.1 513.000   1
   6   4   6 26709.5 497.740   1
   6   4   6 25609.7 660.820   1
  -5  -5   4 77469.5 1186.24   1
  -5  -5   4 74384.7 1267.89   1
  -5  -5   4 82189.5 1290.14   1
   2  -6   1 36061.3 736.950   1
   2  -6   1 39661.1 699.580   1
  -6  -5   2 19637.8 469.070   1
   6   5  -2 21807.0 492.560   1
  -6  -5   2 18873.2 470.940   1
   6   5  -2 18098.6 643.400   1
  -6  -1   4 3972.91 281.610   1
  -6  -1   4 4879.87 241.530   1
   6   1  -4 4977.44 256.430   1
   2  -4   7 29835.4 582.360   1
   2  -4   7 24814.4 817.930   1
   7   3   4 48382.3 767.210   1
   7   3   4 48359.9 950.960   1
   7   3   4 50072.3 789.830   1
  -3  -2   8 19562.4 551.840   1
   3   2  -8 21923.4 735.050   1
  -3  -2   8 20478.3 519.430   1
   0   6   5 94520.9 1391.91   1
   0  -6  -5 91165.0 1430.89   1
   0   6   5 96267.9 3335.08   1
   0  -6  -5 85393.1 1477.35   1
   3  -4   6 16648.4 676.390   1
   3  -4   6 11980.1 564.650   1
  -3  -4   7 606.970 115.440   1
  -3  -4   7 575.470 87.5500   1
   6  -2   1 22867.6 461.780   1
   6  -2   1 23824.4 552.590   1
   6  -2   1 25130.3 579.110   1
   0   4   8 19444.8 536.320   1
   0  -4  -8 16840.2 824.460   1
   0   4   8 19705.7 547.330   1
  -2  -6   5 57960.0 900.770   1
  -2  -6   5 57583.3 910.800   1
   3  -1   9 10030.3 357.630   1
   3  -1   9 9971.61 406.700   1
   5  -1  -5 83598.2 1413.24   1
  -5   1   5 88081.2 1369.28   1
  -5   1   5 87504.1 1405.07   1
  -1   5   6 50083.2 919.280   1
   1  -5  -6 56661.5 1173.06   1
  -1   5   6 56682.5 897.970   1
  -1  -7   2 16588.0 866.380   1
   1   7  -2 15539.7 590.340   1
  -1  -7   2 21736.7 491.690   1
   1   7  -2 18756.2 443.950   1
   7   3  -1 32124.1 686.590   1
   7   3  -1 34502.2 655.550   1
   6  -2   2 39975.9 756.970   1
   6  -2   2 38320.6 681.170   1
   6  -2   2 38715.4 722.530   1
   6  -1   5 1555.26 115.540   1
   6  -1   5 1504.65 118.370   1
   6  -1   5 1509.72 133.270   1
   5  -2   6 11766.4 442.410   1
   5  -2   6 11827.6 375.900   1
   7   4   3 36282.0 750.910   1
   7   4   3 37312.0 656.520   1
   7   4   3 32876.3 783.220   1
   7   4   3 33607.1 591.320   1
  -6  -3   4 81358.9 1356.43   1
   6   3  -4 89435.9 1496.55   1
  -6  -3   4 85251.8 1275.79   1
  -6  -3   4 94585.6 1377.34   1
  -3  -7   2 1790.36 142.660   1
   3   7  -2 2329.56 167.970   1
   5  -3  -2 43880.5 809.440   1
  -5   3   2 45422.4 880.110   1
   5  -3  -2 47990.6 933.110   1
   2  -6  -1 42763.6 801.790   1
   2  -6  -1 42090.3 740.200   1
  -2   6   1 44245.5 841.050   1
   5  -3   4 63667.8 996.280   1
   5  -3   4 63750.1 969.380   1
   4   1   9 -16.320 70.9000   1
   4   1   9 41.3600 66.7800   1
   4   1   9 132.760 94.7500   1
  -3   4   5 13832.2 513.830   1
   3  -4  -5 13958.7 517.950   1
  -3   4   5 14652.8 453.660   1
  -5   2   4 37495.1 803.450   1
   5  -2  -4 38360.1 750.210   1
  -5   2   4 36789.2 743.580   1
   6   5   5 42064.0 787.500   1
   6   5   5 43885.8 708.150   1
   6   5   5 37335.6 734.640   1
   1  -6   4 52463.1 908.950   1
  -1   6  -4 52278.8 876.110   1
   1  -6   4 61112.7 977.310   1
   7   4   0 27426.2 554.660   1
   7   4   0 25874.3 568.870   1
   4   2   9 31830.5 717.780   1
   4   2   9 33304.5 602.280   1
   4   2   9 26913.6 598.500   1
  -5  -2   6 9679.63 366.750   1
   5   2  -6 10807.3 427.990   1
  -5  -2   6 10516.4 384.670   1
  -5  -2   6 10909.6 402.260   1
   5   3   8 41992.0 689.930   1
   5   3   8 41550.6 845.270   1
   5   3   8 41207.6 667.010   1
   6  -2   0 2032.76 131.990   1
   6  -2   0 2408.72 169.700   1
   6  -2   0 2488.36 161.060   1
   2  -2   9 17048.8 711.710   1
   2  -2   9 16393.7 782.610   1
   0   7   0 72893.8 1077.11   1
   0  -7   0 73935.3 1134.81   1
   0   7   0 67920.3 1207.20   1
   0  -7   0 70285.5 1415.89   1
  -5  -1   6 7005.46 315.200   1
  -5  -1   6 6817.07 303.220   1
   5   1  -6 6530.67 375.640   1
  -5  -1   6 6086.71 298.900   1
  -1  -7  -3 9558.97 469.130   1
   1   7   3 10642.7 331.560   1
  -1  -7  -3 8358.62 329.940   1
  -1  -7  -3 9191.97 458.010   1
   1   7   3 9214.79 367.420   1
   4   7   3 16121.7 636.240   1
  -4  -7  -3 15993.4 665.110   1
   4   7   3 14476.4 473.680   1
  -4  -7  -3 15192.1 477.540   1
   4   7  -1 2448.62 163.290   1
  -4  -7   1 2172.10 173.410   1
  -4  -7   1 2355.91 174.870   1
  -4   2   6 50376.1 922.710   1
   4  -2  -6 46397.9 1011.41   1
  -4   2   6 49076.3 962.180   1
   2  -6   2 55653.2 930.360   1
   2  -6   2 59320.2 985.360   1
   7   1   4 19280.2 516.960   1
   7   1   4 19103.2 431.660   1
   7   1   4 21639.4 517.250   1
   7   1   4 20505.1 464.980   1
   6   6   1 42865.5 745.050   1
  -6  -6  -1 42889.2 781.190   1
  -6  -6  -1 39907.2 740.720   1
   6   2   7 11289.0 405.030   1
   6   2   7 12535.9 355.880   1
   6   2   7 11667.7 366.200   1
   0   7   1 10770.5 426.650   1
   0   7   1 12128.5 386.320   1
   0  -7  -1 12470.1 392.520   1
   0  -7  -1 11422.3 501.410   1
   7   1  -1 6272.51 273.720   1
   7   1  -1 5919.24 252.850   1
   5   6   5 2311.67 164.910   1
   5   6   5 1870.71 144.660   1
   5   6   5 2203.92 139.630   1
  -6  -6  -2 1365.64 121.740   1
   6   6   2 1198.80 118.300   1
   1  -6  -4 53891.5 902.340   1
  -1   6   4 56231.3 987.220   1
   1  -6  -4 54775.1 1044.43   1
   0   5   7 428.190 90.6200   1
   0  -5  -7 322.340 97.0700   1
   0   5   7 477.320 92.7400   1
  -4  -6   4 2912.95 174.740   1
   1   6   6 1708.09 134.510   1
   1   6   6 1634.61 127.230   1
  -1  -6  -6 1407.25 180.790   1
   1   6   6 1574.90 139.910   1
   0  -6   5 67962.9 1100.55   1
   0  -6   5 56867.9 919.530   1
  -1   2   9 23602.2 565.700   1
   1  -2  -9 21001.5 678.290   1
  -1   2   9 20709.6 611.080   1
   4   6   6 6456.06 316.320   1
   4   6   6 9047.18 335.790   1
   4   6   6 9423.59 357.380   1
   0  -7   1 15415.4 540.230   1
   0  -7   1 18584.2 454.060   1
   0   7  -1 15637.8 549.750   1
   0   7  -1 16345.3 643.490   1
   7   0   1 39.6600 100.780   1
   7   0   1 132.550 70.4900   1
   7   0   2 47655.7 888.260   1
   7   0   2 43745.0 733.850   1
   0  -4   8 24727.5 669.880   1
   0  -4   8 24445.1 539.690   1
   4  -4  -3 13803.3 491.110   1
   4  -4  -3 14035.1 491.710   1
  -4   4   3 14619.5 545.480   1
   6  -2   3 12755.7 414.380   1
   6  -2   3 12846.3 394.970   1
   6  -2   3 12733.0 414.930   1
  -2  -1   9 2707.84 199.110   1
   2   1  -9 2959.78 233.890   1
  -2  -1   9 3240.20 195.350   1
   3   7   4 21472.9 499.140   1
  -3  -7  -4 20088.1 496.990   1
   3   7   4 22212.2 469.900   1
   4   3  -7 29607.8 846.230   1
  -4  -3   7 26212.9 599.560   1
  -4  -3   7 31210.5 642.720   1
   2   0  -9 11788.4 503.080   1
  -2   0   9 10980.2 476.150   1
  -2   0   9 11185.1 394.150   1
  -2  -7  -4 6878.90 318.030   1
   2   7   4 6814.44 266.930   1
   2   7   4 6797.04 268.040   1
  -2  -7  -4 6074.86 372.590   1
   3  -5   4 22872.6 514.580   1
   3  -5   4 21325.5 493.260   1
  -2   5   5 46177.2 789.640   1
  -2   5   5 45682.8 973.330   1
   2  -5  -5 48482.8 1053.21   1
  -1  -4   8 33140.8 648.980   1
  -1  -4   8 25419.8 654.810   1
   0   3   9 17608.2 505.090   1
   0  -3  -9 16609.4 790.700   1
   0   3   9 17614.7 509.710   1
   5   0   8 24545.0 547.200   1
   5   0   8 26388.7 534.250   1
   5   0   8 25220.9 565.030   1
  -3   5   3 43107.2 921.500   1
   3  -5  -3 42137.2 858.160   1
   3  -5  -3 41745.0 812.020   1
  -4   3   5 22505.8 646.290   1
  -4   3   5 23299.3 548.430   1
   4  -3  -5 22388.6 562.340   1
  -6  -6   0 27104.7 579.090   1
  -6  -6   0 27311.1 590.860   1
   6   6   0 30192.8 588.830   1
   6   3   7 39230.3 679.590   1
   6   3   7 39677.5 653.330   1
   6   3   7 38601.1 782.160   1
  -3   1   8 81938.1 1304.12   1
   3  -1  -8 76328.2 1419.88   1
  -3   1   8 74670.4 1336.54   1
   6   1   7 38753.1 712.970   1
   6   1   7 39697.1 679.120   1
   6   1   7 41283.8 802.270   1
   1   0  10 24626.0 590.100   1
   1   0  10 24440.8 634.530   1
   4   0   9 40173.7 814.870   1
   4   0   9 41164.6 753.850   1
   2  -6  -2 38906.5 873.020   1
  -2   6   2 38116.4 814.220   1
   2  -6  -2 41097.2 817.720   1
  -1  -5   7 69596.3 1060.86   1
  -1  -5   7 56283.1 1255.41   1
   6   6   3 30301.8 597.360   1
   6   6   3 32516.2 616.130   1
   6   6   3 30698.5 616.170   1
   1   1  10 7479.44 326.670   1
   1   1  10 7543.04 326.040   1
   7   4   4 8793.76 294.590   1
   7   4   4 8346.73 408.040   1
   7   4   4 7523.56 261.590   1
  -2  -7   3 73207.4 1093.50   1
  -2  -7   3 57651.2 1723.94   1
   6  -1  -3 9156.32 416.770   1
  -6   1   3 10228.5 424.460   1
  -6   1   3 10557.1 381.470   1
   6  -1  -3 10424.4 370.270   1
   0  -7  -2 5166.09 284.090   1
   0   7   2 4352.99 254.000   1
   0  -7  -2 5577.04 273.260   1
   0  -7  -2 4423.82 302.700   1
   0   7   2 4818.21 236.000   1
  -3  -6   5 84646.8 1332.86   1
  -3  -6   5 85231.3 1211.62   1
  -6   2   1 34461.1 657.200   1
   6  -2  -1 35275.4 691.480   1
   7   0   0 17552.0 454.350   1
   7   0   0 16947.2 680.520   1
   7   2   5 7344.02 263.270   1
   7   2   5 7680.55 344.790   1
   7   2   5 7848.89 287.130   1
   7   0   3 55384.1 910.880   1
   7   0   3 59817.0 1006.75   1
   7   0   3 54825.7 842.040   1
   2   1  10 11239.1 497.380   1
   2   1  10 10995.9 376.010   1
  -6   0   4 45773.2 908.740   1
  -6   0   4 51709.3 949.220   1
   6   0  -4 53098.8 949.020   1
  -5  -3   6 1774.03 158.460   1
  -5  -3   6 1789.82 169.560   1
   5   3  -6 1660.38 175.010   1
   7   4  -1 4190.23 209.650   1
   7   4  -1 4040.67 240.200   1
   7   2  -2 2272.44 162.140   1
   7   2  -2 2041.25 150.280   1
   5   0  -6 47069.8 916.440   1
  -5   0   6 45146.8 850.930   1
  -5   0   6 45338.3 833.140   1
  -5   0   6 46221.6 867.680   1
  -5  -6   3 18956.7 491.030   1
  -5  -6   3 19679.6 475.990   1
   0  -5   7 48842.2 825.310   1
   0  -5   7 42088.2 892.290   1
   4   3   9 391.180 68.8200   1
   4   3   9 326.700 70.8400   1
   4   3   9 374.220 94.0400   1
   7   3   5 9655.04 319.000   1
   7   3   5 8595.97 397.670   1
   7   3   5 8797.36 283.380   1
   2   5   8 39722.8 757.380   1
   2   5   8 39182.1 766.890   1
   2   5   8 41515.8 744.200   1
   2   0  10 1888.32 173.230   1
   2   0  10 2113.07 155.850   1
  -1  -7   3 61919.3 961.460   1
  -4   1   7 1613.25 152.070   1
   4  -1  -7 1350.64 160.560   1
  -4   1   7 1216.28 151.830   1
   0   7  -2 31389.0 586.630   1
   0  -7   2 31545.0 671.300   1
   0   7  -2 31912.6 796.470   1
   0  -7   2 34198.6 656.160   1
  -3  -3   8 38955.8 862.020   1
  -3  -3   8 42673.6 784.270   1
   0  -3   9 13179.9 543.870   1
   0  -3   9 15707.3 478.910   1
   3   5   8 69904.5 1132.46   1
   3   5   8 80093.5 1143.45   1
   3   5   8 77367.4 1268.04   1
   2  -6   3 -13.040 85.5400   1
   0   0  10 94008.3 1574.17   1
   0   0  10 95587.9 3326.84   1
   7   3  -2 58726.6 1102.31   1
   7   3  -2 60044.5 966.090   1
   1  -4   8 58789.2 1301.12   1
   1  -4   8 65875.2 1008.41   1
   5   5   7 22635.1 493.070   1
   5   5   7 19412.1 410.720   1
   5   5   7 22928.1 582.270   1
   4   7   4 1231.25 110.340   1
  -4  -7  -4 924.300 136.310   1
   4   7   4 711.130 92.8400   1
  -5  -7  -1 12301.4 417.400   1
   5   7   1 12196.4 376.160   1
  -5  -7  -1 10747.0 393.240   1
  -2  -2   9 38922.0 768.410   1
  -2  -2   9 37203.1 836.640   1
   4  -4   5 85258.3 1253.72   1
   4  -4   5 86633.0 1219.39   1
  -4  -7   2 25.3900 79.3500   1
   4   7  -2 68.2500 75.1500   1
  -4  -7   2 149.130 94.3400   1
  -6  -4   4 7950.76 369.110   1
  -6  -4   4 8220.97 325.230   1
   6   4  -4 7698.09 395.290   1
  -6  -4   4 6825.24 329.720   1
  -2   1   9 33342.0 707.240   1
  -2   1   9 30440.2 707.620   1
   2  -1  -9 31456.3 813.580   1
  -2  -5   7 11414.6 374.350   1
  -2  -5   7 10107.6 396.260   1
   2   4   9 23718.9 578.790   1
   2   4   9 16974.9 703.710   1
   2   4   9 17225.8 708.010   1
  -3  -7   3 37523.2 790.700   1
  -5  -7  -2 22102.2 532.000   1
  -5  -7  -2 21383.7 506.750   1
   5   7   2 22902.4 484.340   1
  -6  -5   3 35118.3 701.860   1
   6   5  -3 35881.1 1001.58   1
  -6  -5   3 40247.6 730.820   1
   4  -2   8 46541.4 833.000   1
   4  -2   8 40627.5 1047.28   1
   7   5   2 50515.0 1010.28   1
   7   5   2 50622.6 807.420   1
   7   5   2 50996.2 900.940   1
   6  -2   4 20724.8 491.110   1
   6  -2   4 19956.2 480.450   1
   6  -2   4 20343.8 490.500   1
   2  -5   6 28007.5 559.030   1
   2  -5   6 27744.1 577.280   1
  -5   3   3 22750.8 579.620   1
   5  -3  -3 23707.0 558.400   1
  -5   3   3 24708.0 555.560   1
   7   5   1 37240.0 783.760   1
   7   5   1 40756.4 724.640   1
   7   5   1 39428.7 775.290   1
  -6  -6   1 2275.36 177.630   1
   6   6  -1 2633.22 171.070   1
  -6  -6   1 2411.26 156.370   1
  -1  -7  -4 14010.0 611.830   1
   1   7   4 14791.7 466.420   1
  -1  -7  -4 12939.6 429.730   1
   1   7   4 15076.9 468.970   1
   1   7   4 13921.2 410.190   1
   5  -3   5 6567.99 277.670   1
   5  -3   5 6404.69 258.050   1
   2   2  10 57629.1 1005.86   1
   2   2  10 48823.1 994.790   1
   1  -1  10 25733.8 727.910   1
   1  -1  10 21443.9 494.030   1
  -2  -4   8 50624.8 984.670   1
  -2  -4   8 53732.2 887.490   1
   0   1  10 20703.7 632.070   1
   0   1  10 19947.4 485.800   1
   7   1   5 20044.7 475.280   1
   7   1   5 20096.2 415.000   1
   7   1   5 19200.8 495.070   1
   3  -3   8 -7.1000 72.0600   1
   1  -3   9 17375.4 443.140   1
   1  -3   9 14371.3 593.930   1
   7   1  -2 23341.5 559.690   1
   7   1  -2 25702.3 569.120   1
  -5  -7   0 22791.1 544.660   1
   5   7   0 21147.0 519.250   1
  -5  -7   0 23425.3 511.800   1
  -1  -3   9 11595.2 493.980   1
  -1  -3   9 13616.3 430.090   1
   5   4   8 405.610 76.6500   1
   5   4   8 314.710 81.1100   1
   5   4   8 252.650 61.1400   1
   5   4   8 387.110 87.2600   1
   3   4   9 24082.2 514.950   1
   3   4   9 23129.7 540.330   1
   3   4   9 25229.8 531.830   1
   1   2  10 24008.5 623.200   1
   1   2  10 28159.6 622.980   1
   6   6   4 20308.2 502.850   1
   6   6   4 21493.4 474.380   1
   6   6   4 21059.8 512.640   1
   7   0  -1 87848.8 1326.33   1
   7   0  -1 94491.7 1383.48   1
   0  -1  10 19557.5 572.920   1
   0  -1  10 20021.5 489.450   1
   7   0   4 2625.62 143.170   1
   7   0   4 2979.52 189.400   1
   7   0   4 2572.15 158.760   1
   4  -3   7 29660.1 850.380   1
   4  -3   7 33768.0 642.500   1
  -2   3   8 70309.0 1221.92   1
   2  -3  -8 68077.0 1295.63   1
  -2   3   8 68562.8 1132.96   1
  -2   4   7 34719.6 759.760   1
   2  -4  -7 32522.7 834.120   1
  -2   4   7 37883.7 771.570   1
   6  -1   6 5051.61 232.170   1
   6  -1   6 5045.69 221.480   1
   6  -1   6 5164.29 217.030   1
   7   5   3 5964.68 286.220   1
   7   5   3 6796.54 260.450   1
   7   5   3 6034.55 274.620   1
   7   5   3 6960.91 262.160   1
   6   5   6 15511.8 464.950   1
   6   5   6 14395.8 435.410   1
   6   5   6 15670.9 506.430   1
   1   5   8 10353.0 412.970   1
  -1  -5  -8 10564.5 523.550   1
   1   5   8 10420.7 382.560   1
   1   5   8 12104.5 457.120   1
   0  -7  -3 55565.0 1004.21   1
   0   7   3 57167.9 862.720   1
   0  -7  -3 50424.4 1070.33   1
   0  -7  -3 46153.8 1009.82   1
   0   7   3 49451.9 927.760   1
   3   1  10 45699.0 771.640   1
   3   1  10 43205.9 856.740   1
   6   4   7 11550.5 417.300   1
   6   4   7 12232.2 294.170   1
   6   4   7 11525.9 314.380   1
  -2   6   3 1100.46 134.810   1
   2  -6  -3 1282.27 132.330   1
   2  -6  -3 979.660 123.640   1
  -6  -2   5 715.560 111.070   1
   6   2  -5 817.840 136.960   1
  -6  -2   5 791.580 102.610   1
  -6  -2   5 881.660 128.000   1
  -5  -7  -3 53699.9 857.340   1
  -4  -5   6 27903.2 534.910   1
  -4  -5   6 27427.2 567.720   1
   6   0   7 1362.87 115.430   1
   6   0   7 1277.91 121.560   1
   6   0   7 1356.21 130.990   1
   7   5   0 9320.56 281.530   1
   1  -6   5 51814.9 718.030   1
   1  -6   5 46701.6 686.060   1
  -1  -4  -9 657.600 129.940   1
   1   4   9 525.560 104.120   1
   1   4   9 441.310 98.8600   1
   3   6   7 40994.2 682.440   1
   3   6   7 43751.6 690.530   1
   3  -2   9 78974.7 865.190   1
   3  -2   9 73741.5 1251.85   1
  -3   3   7 4770.57 345.430   1
   3  -3  -7 4625.95 317.640   1
  -3   3   7 5099.18 296.420   1
  -6   2   2 9592.62 305.640   1
  -6   2   2 8939.69 445.940   1
   6  -2  -2 9863.29 327.780   1
   7   4   5 2514.66 208.990   1
   7   4   5 2641.83 174.510   1
   7   4   5 2740.64 176.810   1
  -1   4   8 16598.0 494.630   1
   1  -4  -8 16889.2 558.650   1
  -1   4   8 17805.4 488.660   1
  -3  -7  -5 35912.2 636.620   1
   3   7   5 39135.9 591.580   1
   3   7   5 40625.8 571.210   1
   2   6   7 17123.1 434.240   1
  -2  -6  -7 18951.1 650.740   1
   2   6   7 20715.4 459.320   1
   2   6   7 19342.7 444.480   1
   0   6   6 1544.44 151.220   1
   0   6   6 1629.31 152.000   1
   0  -6  -6 1533.70 179.620   1
   0   6   6 1625.05 168.700   1
   4   5   8 32368.3 528.660   1
   4   5   8 33250.0 680.560   1
   5   6   6 24914.0 436.910   1
   5   6   6 24025.8 511.430   1
   5   6   6 28354.2 610.870   1
   1  -5   7 17552.3 544.540   1
   1  -5   7 20592.5 426.280   1
   2  -1  10 52048.8 907.910   1
   2  -1  10 57130.9 796.340   1
  -5  -5   5 18681.0 459.310   1
  -5  -5   5 22382.8 512.000   1
  -1  -6   6 7136.78 344.080   1
  -1  -6   6 7909.39 373.760   1
  -1  -6   6 6871.03 382.500   1
   3   2  10 18274.3 475.620   1
   3   2  10 19486.0 497.000   1
   2   7   5 4376.77 249.830   1
  -2  -7  -5 4995.49 415.030   1
   2   7   5 4737.58 292.490   1
  -2  -7  -5 5691.26 332.980   1
   6   1  -5 80611.8 1057.81   1
  -6  -1   5 75891.8 857.490   1
  -6  -1   5 72455.8 1009.02   1
   4  -5   1 14069.9 392.330   1
   4  -5   1 14007.4 372.140   1
   3  -5   5 23577.4 474.820   1
   3  -5   5 23324.8 462.250   1
  -1   6   5 28403.0 626.720   1
   1  -6  -5 30629.5 680.640   1
   1  -6  -5 29316.6 744.150   1
   0  -7   3 40578.1 642.500   1
   0  -7   3 36875.7 771.590   1
   0   7  -3 36204.7 599.090   1
   7   4  -2 8925.82 415.780   1
  -7  -4   2 7855.37 377.040   1
   7   4  -2 8296.64 411.740   1
   4  -4  -4 58047.5 987.050   1
  -4   4   4 54007.5 1022.65   1
  -4   4   4 61924.4 850.470   1
   5  -4   1 42117.3 702.200   1
   5  -4   1 44046.5 723.030   1
   5  -2   7 3122.96 267.000   1
   5  -2   7 3517.15 216.670   1
   4  -1   9 5348.90 323.510   1
   4  -1   9 5401.47 287.520   1
  -5  -7   1 47934.6 789.890   1
   5   7  -1 51337.0 728.540   1
  -5  -7   1 49751.6 763.450   1
   3  -5  -4 23540.8 532.960   1
   3  -5  -4 24656.8 622.610   1
  -3   5   4 21679.5 609.370   1
   3   0  10 13972.4 455.420   1
   3   0  10 14155.0 389.150   1
   3  -4   7 2892.03 194.660   1
   4  -5   0 53439.4 773.330   1
   4  -5   0 53355.8 756.130   1
  -5   2   5 25410.5 630.570   1
  -5   2   5 26806.4 605.500   1
   5  -2  -5 26334.5 602.860   1
  -4  -4   7 1673.67 152.750   1
  -4  -4   7 1653.23 163.050   1
   1  -7   0 53314.1 826.340   1
  -1   7   0 47135.8 625.630   1
   1  -7   0 51849.6 719.210   1
   5  -1   8 1919.28 187.510   1
   5  -1   8 2497.03 179.720   1
  -2  -6   6 24079.6 476.680   1
  -2  -6   6 18647.9 681.130   1
  -2  -6   6 20401.9 546.100   1
  -6  -3   5 66015.3 864.670   1
   6   3  -5 68732.1 1123.66   1
  -6  -3   5 67415.4 876.070   1
   5  -4   0 6071.61 313.260   1
   5  -4   0 6376.67 322.800   1
   5  -4   2 31127.7 569.000   1
   5  -4   2 31171.5 589.740   1
  -1   0  10 5419.16 322.180   1
  -1   0  10 4814.25 329.500   1
  -5  -4   6 38207.4 665.940   1
   5   4  -6 34523.4 964.510   1
  -5  -4   6 33487.1 661.790   1
   7   2   6 22104.9 517.400   1
   7   2   6 21894.9 435.390   1
   7   2   6 21656.9 425.140   1
  -2  -7   4 9629.09 293.080   1
   2  -6   4 58443.0 878.690   1
   2  -6   4 67246.3 833.060   1
   4  -5   2 19726.9 430.290   1
   4  -5   2 19013.0 465.950   1
   3  -4  -6 229.990 87.6500   1
  -3   4   6 133.540 82.6500   1
  -3   4   6 242.770 79.6800   1
   5   2   9 27939.7 517.340   1
   5   2   9 28897.3 522.220   1
   5   2   9 25563.8 547.360   1
   1  -7   1 7368.09 354.080   1
   1  -7   1 6658.99 347.930   1
  -1   7  -1 6737.52 339.950   1
   7   5   4 6333.82 366.160   1
   7   5   4 6081.27 298.490   1
   7   5   4 6526.76 305.810   1
   3  -2  -8 1919.65 198.460   1
  -3   2   8 1717.16 167.980   1
  -3   2   8 1734.37 155.840   1
  -1   3   9 38495.7 853.980   1
   1  -3  -9 38087.6 881.210   1
  -1   3   9 43688.4 768.400   1
   1  -7  -1 24551.1 572.000   1
   1  -7  -1 23107.5 482.350   1
  -1   7   1 22527.2 446.070   1
   0   2  10 46768.9 993.450   1
   0   2  10 45794.3 765.620   1
   5  -1  -6 13812.0 497.910   1
  -5   1   6 14322.9 461.360   1
  -5   1   6 13743.5 456.790   1
  -1   5   7 1513.23 152.090   1
   1  -5  -7 1553.71 184.070   1
  -1   5   7 1503.46 137.410   1
  -7  -2   3 23566.1 529.270   1
   7   2  -3 22021.1 595.830   1
   7   2  -3 23866.7 512.070   1
  -4  -6   5 9706.78 332.860   1
  -4  -6   5 9211.52 451.810   1
  -4  -6   5 8963.39 474.150   1
   7   3   6 2564.34 164.740   1
   7   3   6 2486.05 202.710   1
   7   3   6 2476.36 177.520   1
   7  -1   1 27338.7 482.940   1
   7  -1   1 30726.7 610.210   1
   4   1  -8 41881.8 1027.19   1
  -4  -1   8 43708.0 777.630   1
  -4  -1   8 40616.4 809.120   1
  -6  -6   2 14306.0 402.340   1
   6   6  -2 15859.7 388.940   1
  -6  -6   2 12507.1 426.080   1
   7  -1   2 103.840 50.4800   1
   7  -1   2 42.8900 121.160   1
   4   7   5 14995.3 392.210   1
   4   7   5 16215.6 361.720   1
   4   7   5 15039.6 408.580   1
   4   6   7 47413.7 681.010   1
   4   6   7 48890.7 680.280   1
   4   6   7 43905.3 759.520   1
   4   4   9 5567.65 329.030   1
   4   4   9 5804.12 307.080   1
   4   4   9 5332.71 287.100   1
  -1  -7   4 20502.3 439.670   1
  -1  -7   4 21907.0 450.260   1
   5   1   9 648.590 95.5400   1
   5   1   9 470.130 82.7700   1
   5   1   9 668.210 99.1500   1
  -1  -1  10 41703.5 753.990   1
  -1  -1  10 40091.6 838.580   1
   0  -6   6 141.550 100.280   1
   0  -6   6 102.250 61.7400   1
   0  -6   6 224.370 86.1800   1
   4   7  -3 34360.3 573.960   1
  -4  -7   3 32562.4 609.150   1
  -3  -5   7 43090.9 698.350   1
   2  -3   9 13740.8 531.530   1
   2  -3   9 16073.4 394.290   1
   6  -2   5 75351.1 836.510   1
   6  -2   5 80859.6 851.570   1
   2  -4   8 26145.5 815.800   1
   2  -4   8 33535.7 564.620   1
   7   5  -1 43781.1 673.400   1
  -7  -5   1 40739.1 690.580   1
  -6   1   4 14174.0 418.660   1
  -6   1   4 13298.0 443.690   1
   6  -1  -4 13856.2 428.260   1
   4  -5  -1 3496.68 231.960   1
   4  -5  -1 3137.25 209.440   1
   5   7   4 360.650 90.5100   1
   5   7   4 388.500 81.3200   1
  -5  -7  -4 345.120 79.1100   1
  -2  -3   9 2568.48 213.010   1
  -2  -3   9 2424.68 192.940   1
   6   2   8 10527.2 358.840   1
   6   2   8 11076.9 297.430   1
   6   2   8 10315.4 353.120   1
   2   3  10 5088.29 345.480   1
   2   3  10 4629.64 281.710   1
   7   3  -3 5043.06 276.700   1
   7   3  -3 4395.07 296.110   1
  -7  -3   3 4219.00 248.310   1
   6   6   5 5575.56 312.290   1
   6   6   5 6677.44 329.800   1
   6   6   5 6874.35 371.510   1
  -4  -2   8 8405.65 427.150   1
  -4  -2   8 8571.40 439.220   1
   4   2  -8 9330.77 381.180   1
  -7   0   2 14888.9 410.000   1
   7   0  -2 14192.3 412.710   1
   7   0  -2 15858.2 432.570   1
   1   6   7 69203.6 892.130   1
   1   6   7 60572.1 901.860   1
  -1  -6  -7 61922.1 1113.93   1
   1   6   7 68599.1 881.750   1
  -5  -6   4 355.200 112.910   1
  -5  -6   4 121.680 55.6600   1
   7   0   5 27932.5 465.460   1
   7   0   5 30621.0 592.140   1
   7   0   5 27524.0 508.710   1
   7   0   5 26626.1 536.810   1
  -2   2   9 21057.6 627.590   1
   2  -2  -9 18556.0 628.070   1
  -2   2   9 20561.4 515.970   1
  -2   5   6 69987.0 919.840   1
   2  -5  -6 63422.0 1092.76   1
  -2   5   6 63259.1 1122.47   1
   0  -2  10 3092.73 251.070   1
   0  -2  10 2917.72 209.980   1
   1  -2  10 13302.0 470.470   1
   1  -2  10 14159.4 370.870   1
   5  -4  -1 28180.7 596.220   1
   5  -4  -1 26443.7 594.540   1
  -1   1  10 5929.04 358.530   1
  -1   1  10 7860.06 397.190   1
   1  -1 -10 7165.60 468.050   1
   7  -1   0 67367.1 868.720   1
   7  -1   0 75480.3 859.500   1
  -3  -1   9 1035.18 115.740   1
   3   1  -9 1033.26 175.730   1
  -3  -1   9 831.520 142.660   1
   5  -4   3 13767.8 346.900   1
   5  -4   3 13763.6 387.110   1
   7  -1   3 22909.1 505.790   1
   7  -1   3 22609.5 466.000   1
   7  -1   3 21190.3 419.750   1
  -3  -7   4 24744.7 485.410   1
   1  -7   2 4253.93 246.170   1
  -1   7  -2 3756.06 230.210   1
   1  -7   2 3727.48 251.240   1
   7   1   6 7613.08 383.230   1
   7   1   6 8248.64 361.060   1
   7   1   6 7909.33 414.080   1
  -1  -7  -5 15425.6 406.080   1
   1   7   5 16455.8 413.190   1
  -1  -7  -5 15683.6 544.220   1
   1   7   5 17497.8 435.730   1
   5   3   9 5669.00 301.970   1
   5   3   9 5202.65 265.610   1
   5   3   9 5234.16 310.200   1
   0  -7  -4 11130.3 391.390   1
   0   7   4 10756.5 412.110   1
   0   7   4 9856.87 392.800   1
   0  -7  -4 10696.4 457.790   1
  -7  -1   3 18975.0 478.650   1
   7   1  -3 19437.9 472.710   1
   7   1  -3 19415.6 493.340   1
  -4   0   8 114.320 100.670   1
  -4   0   8 3.85000 63.7400   1
  -4   3   6 40467.1 655.240   1
   4  -3  -6 46890.1 922.510   1
  -4   3   6 43971.7 909.140   1
   1  -7  -2 22998.8 523.850   1
   1  -7  -2 21111.8 581.380   1
  -1   7   2 22977.9 461.750   1
   6   3   8 24017.4 446.060   1
   6   3   8 23494.2 455.700   1
   6   3   8 21346.1 432.300   1
   6   3   8 23110.4 522.610   1
   4  -4   6 9217.52 411.930   1
   4  -4   6 9845.36 289.890   1
  -3  -4   8 23940.2 549.710   1
  -3  -4   8 21774.2 510.740   1
   4  -5   3 51031.7 762.910   1
   4  -5   3 52382.7 760.480   1
   6   1   8 25238.4 452.790   1
   6   1   8 24558.1 477.560   1
   6   1   8 22923.8 543.700   1
   4  -2  -7 31026.8 771.460   1
  -4   2   7 25338.7 610.990   1
  -4   2   7 31532.3 664.870   1
   1   3  10 2890.81 219.780   1
   1   3  10 3583.09 255.160   1
   6   0  -5 4870.21 321.050   1
  -6   0   5 4936.23 286.310   1
  -5  -2   7 9835.86 328.190   1
  -5  -2   7 8609.56 433.860   1
  -5  -2   7 8998.19 440.690   1
   5   2  -7 9332.76 420.120   1
  -5  -1   7 16869.5 462.230   1
  -5  -1   7 16246.4 465.320   1
   5   1  -7 17851.8 532.990   1
  -5  -1   7 16002.4 460.300   1
   3  -6   0 3043.37 199.170   1
   3  -6   0 3031.24 204.150   1
   3  -6   1 47358.1 730.420   1
   3  -6   1 45756.8 689.420   1
   3   3  10 1861.60 161.520   1
   3   3  10 2067.16 160.380   1
   3   3  10 1492.45 147.150   1
  -5   3   4 6230.28 405.260   1
   5  -3  -4 6879.26 388.690   1
  -5   3   4 6911.79 370.390   1
   0   4   9 40634.5 740.370   1
   0  -4  -9 37518.1 987.340   1
   0   4   9 37647.5 874.250   1
   5  -3   6 44865.5 683.110   1
   5  -3   6 41956.9 659.440   1
  -3   0   9 36544.2 718.420   1
  -3   0   9 44537.5 744.370   1
   3   0  -9 40603.3 807.430   1
   0   5   8 35791.0 697.820   1
   0   5   8 35342.0 598.920   1
   0  -5  -8 34692.5 899.410   1
   6  -3   1 36980.7 640.070   1
   6  -3   1 36327.9 657.330   1
  -5  -7   2 2623.59 183.860   1
  -5  -7   2 2805.91 204.480   1
   5   7  -2 2894.58 195.460   1
  -6  -5   4 42676.8 814.860   1
   6   5  -4 42655.0 1044.29   1
  -6  -5   4 46823.6 739.980   1
  -3  -6   6 6500.23 365.520   1
  -3  -6   6 7810.21 371.690   1
  -3  -6   6 6173.53 372.910   1
   2  -6  -4 7691.46 412.210   1
  -2   6   4 7012.33 415.800   1
   2  -6  -4 8032.29 414.230   1
   6  -3   2 9569.86 309.420   1
   6  -3   2 10343.7 343.160   1
   6  -2  -3 4275.66 257.840   1
  -6   2   3 4885.13 303.820   1
  -6   2   3 4594.89 270.830   1
   3  -1  10 5769.27 301.410   1
   3  -1  10 5490.10 371.560   1
   4   1  10 21623.9 537.670   1
   4   1  10 25959.1 544.250   1
   7   4   6 34562.7 561.290   1
   7   4   6 31551.2 535.600   1
   7   4   6 30648.5 694.260   1
   3   8   1 16219.3 365.970   1
  -3  -8  -1 17478.4 423.250   1
   3   8   1 14890.3 493.740   1
  -3  -8  -1 15492.2 474.440   1
  -3  -2   9 36490.3 730.080   1
  -3  -2   9 42023.2 755.240   1
   4   2  10 22008.8 476.430   1
   4   2  10 21678.2 498.480   1
   4   2  10 22077.8 537.290   1
   2   8   1 43672.6 667.980   1
  -2  -8  -1 39087.1 799.320   1
   2   8   1 43458.9 881.320   1
  -2  -8  -1 43389.8 640.340   1
   5   0   9 47886.1 823.950   1
   5   0   9 45143.7 741.920   1
   6  -3   0 67743.0 881.380   1
   6  -3   0 67767.2 892.710   1
   3  -6  -1 56963.2 884.480   1
   3  -6  -1 55968.3 765.240   1
   3  -6   2 29982.8 586.590   1
   3  -6   2 28796.1 546.280   1
  -2  -8   0 3519.05 219.630   1
  -2  -8   0 3212.63 278.010   1
   2   8   0 3968.55 232.190   1
   2   8   0 3258.86 193.750   1
  -6  -4   5 8243.10 428.980   1
   6   4  -5 7621.58 492.400   1
  -6  -4   5 8763.83 416.050   1
  -6  -4   5 9611.78 380.100   1
   0  -7   4 3646.69 224.170   1
   0   7  -4 2957.10 208.520   1
   4  -5  -2 167.500 91.4700   1
   4  -5  -2 138.750 101.100   1
   3   8   0 560.810 80.3200   1
  -3  -8   0 729.240 111.320   1
   3   8   0 717.200 113.010   1
  -3  -8   0 601.530 106.910   1
   7   5   5 51502.1 912.200   1
   7   5   5 47353.3 720.440   1
   7   5   5 54514.3 696.550   1
  -1  -2  10 15183.0 480.080   1
  -1  -2  10 18548.3 467.180   1
   5   5   8 47995.3 687.690   1
   5   5   8 47858.9 783.740   1
   5   5   8 51229.7 655.860   1
   7  -1  -1 102.700 111.410   1
   7  -1  -1 57.5900 72.8100   1
   6   5   7 1624.67 147.770   1
   6   5   7 1775.20 134.640   1
  -3  -8  -2 28617.4 590.300   1
   3   8   2 29828.8 501.700   1
  -3  -8  -2 27044.7 561.510   1
   3   8   2 26035.2 632.260   1
   8   3   2 5170.44 313.620   1
   8   3   2 5173.27 267.580   1
   6  -1   7 28791.5 565.730   1
   6  -1   7 31833.5 554.610   1
   6  -1   7 31420.3 588.560   1
   2  -2  10 4024.88 350.860   1
   2  -2  10 4218.52 245.860   1
  -7  -4   3 62345.0 864.520   1
   7   4  -3 61271.0 1127.88   1
   7  -1   4 60888.2 806.970   1
   7  -1   4 55036.2 620.480   1
  -6  -7  -1 1348.44 133.640   1
   6   7   1 1161.78 110.780   1
  -6  -7  -1 1275.44 127.880   1
   3   7   6 25684.7 540.870   1
   3   7   6 20275.9 510.630   1
   3   7   6 22144.7 525.330   1
   6   7   2 43299.7 583.400   1
   6   7   2 44529.2 588.490   1
  -4  -3   8 35114.5 692.650   1
   4   3  -8 33946.1 884.470   1
  -4  -3   8 36213.2 619.620   1
   8   2   2 50689.3 764.020   1
   8   2   2 46326.6 621.630   1
  -1  -5   8 79.7100 124.150   1
  -1  -5   8 116.630 88.8100   1
   7   6   2 6927.35 233.190   1
   7   6   2 7010.02 363.310   1
   2  -5   7 33042.0 569.710   1
   8   3   1 37035.2 621.050   1
   8   3   1 37802.5 549.310   1
   0  -4   9 4626.84 212.990   1
   0  -4   9 4754.09 291.390   1
  -2  -8  -2 48432.8 673.330   1
   2   8   2 42624.7 782.750   1
   2   8   2 44921.6 922.440   1
  -2  -8  -2 43030.2 808.150   1
   6  -3   3 29003.1 575.590   1
   6  -3   3 28559.5 518.220   1
  -7  -6  -1 13218.8 373.480   1
   7   6   1 14882.3 375.390   1
  -7  -5   2 3792.60 197.990   1
   7   5  -2 3845.76 194.690   1
   5  -4  -2 44625.3 798.310   1
   5  -4  -2 45940.9 690.570   1
  -5  -3   7 29646.0 670.000   1
   5   3  -7 30003.5 906.170   1
  -5  -3   7 26557.3 573.020   1
   8   2   1 956.950 134.040   1
   8   2   1 905.010 116.750   1
  -5   0   7 40381.5 688.630   1
  -5   0   7 40473.7 709.050   1
   5   0  -7 40986.9 839.330   1
   5  -4   4 21410.7 443.730   1
   5  -4   4 20504.7 448.020   1
   0  -5   8 2719.80 214.620   1
   0  -5   8 3259.82 201.490   1
   1  -6   6 2950.78 187.290   1
   1  -6   6 3201.66 174.630   1
   1  -7   3 52505.1 741.020   1
   1  -7   3 61592.0 745.470   1
   2   8  -1 22749.9 740.850   1
  -2  -8   1 29978.3 497.270   1
   2   8  -1 25877.2 562.500   1
   5   7   5 37979.6 596.830   1
   5   7   5 37827.8 639.890   1
   5   7   5 38587.7 547.600   1
   2   7   6 36430.0 586.210   1
   2   7   6 37580.5 531.420   1
  -2  -7  -6 33014.7 898.700   1
   8   3   3 633.630 88.2300   1
   8   3   3 452.940 97.1100   1
  -1  -4   9 31518.6 633.170   1
  -1  -4   9 39477.2 615.400   1
   2  -6   5 21034.2 425.380   1
   2  -6   5 19425.5 457.020   1
   3  -5   6 66028.0 753.220   1
   3  -5   6 69336.3 781.020   1
   5   6   7 35350.7 690.770   1
   5   6   7 34737.9 554.790   1
  -6  -6   3 16354.6 411.460   1
   6   6  -3 18071.9 405.220   1
  -6  -6   3 14989.0 386.530   1
   8   2   3 34778.9 670.110   1
   8   2   3 36389.7 525.220   1
   8   2   3 31868.4 483.360   1
   8   2   3 39021.7 672.020   1
   1  -7  -3 79837.6 1912.31   1
   1  -7  -3 74513.7 1203.66   1
  -1   7   3 65200.0 821.980   1
   3   8  -1 32541.5 648.580   1
   3   8  -1 29889.1 617.450   1
  -3  -8   1 26760.2 529.330   1
  -3  -8   1 29764.5 648.190   1
   4   0  10 2064.66 161.050   1
   4   0  10 1925.42 152.610   1
  -6  -7   0 41562.6 659.500   1
   6   7   0 41089.1 587.520   1
  -6  -7   0 40142.0 604.390   1
   2   5   9 45341.0 640.540   1
   2   5   9 42406.6 697.580   1
   2   5   9 46371.1 731.930   1
   7   6   3 25474.2 529.890   1
   7   6   3 29077.9 478.800   1
   7   6   3 28646.6 475.510   1
   3   5   9 27466.0 593.320   1
   3   5   9 24999.4 541.780   1
   3   5   9 27922.1 481.780   1
  -3   5   5 153.960 106.530   1
  -3   5   5 161.460 96.4500   1
   3  -5  -5 114.710 89.3300   1
   4   8   1 72992.4 802.840   1
  -4  -8  -1 73118.6 860.110   1
   4   8   1 73626.3 771.280   1
   6  -3  -1 5.60000 76.4300   1
   6  -3  -1 37.4500 72.7300   1
   4  -5   4 17312.2 404.370   1
   4  -5   4 15284.6 358.080   1
   6   7   3 23508.0 464.020   1
  -6  -7  -3 27851.2 576.270   1
   6   7   3 25531.2 455.350   1
  -1   2  10 63836.9 1013.98   1
   1  -2 -10 60436.2 1121.96   1
  -1   2  10 67740.1 895.210   1
  -4   4   5 54433.0 1093.37   1
  -4   4   5 58111.2 798.220   1
   4  -4  -5 58462.8 933.820   1
   6   4   8 75.5800 98.9200   1
   6   4   8 95.3500 64.3200   1
   6   4   8 141.310 73.6300   1
   3  -1  -9 20649.5 668.610   1
  -3   1   9 21112.5 570.170   1
  -3   1   9 21484.2 584.140   1
   6   0   8 20825.5 469.400   1
   6   0   8 23789.4 498.200   1
   6   0   8 21322.0 403.730   1
   4  -3   8 2923.44 168.950   1
   0   3  10 312.180 127.140   1
   0  -3 -10 233.900 118.490   1
   0   3  10 302.160 124.410   1
  -1   6   6 3229.31 183.480   1
  -1   6   6 3002.61 220.400   1
   1  -6  -6 2447.08 220.440   1
   7   6   0 41363.3 599.600   1
  -7  -6   0 38978.3 599.360   1
   1   8   0 247.390 73.8900   1
  -1  -8   0 284.800 95.0200   1
   1   8   0 288.100 66.4200   1
  -1  -8   0 208.050 93.8400   1
   3  -6  -2 53812.1 884.620   1
   3  -6  -2 53211.1 858.370   1
   6  -2   6 5234.39 213.820   1
   6  -2   6 4621.11 203.890   1
   3  -6   3 -23.420 63.9300   1
   3  -6   3 130.140 103.130   1
   4   7   6 33695.2 544.990   1
   4   7   6 31348.0 598.580   1
   8   3   0 5519.20 227.950   1
   8   3   0 5217.68 243.100   1
   4   3  10 16090.7 427.220   1
   4   3  10 14129.4 454.020   1
   4   3  10 17068.3 363.560   1
  -4   1   8 27627.5 705.930   1
   4  -1  -8 30682.1 817.950   1
  -4   1   8 28517.8 676.590   1
   7   2   7 3620.32 149.740   1
   7   2   7 3670.41 173.630   1
   7   2   7 3529.10 217.720   1
  -1  -8  -1 18368.6 604.670   1
  -1  -8  -1 19879.1 554.450   1
   1   8   1 18948.1 389.240   1
  -1  -8  -1 21568.6 438.400   1
   4  -2   9 13362.9 358.620   1
   4  -2   9 11227.8 468.240   1
   4   8   2 39784.6 658.860   1
  -4  -8  -2 35569.4 643.550   1
   4   8   2 39543.3 544.840   1
  -4  -8  -2 36310.3 728.240   1
   7   0  -3 43711.2 689.750   1
  -7   0   3 45498.6 720.160   1
   7   0  -3 43315.8 758.950   1
   3   8   3 1420.92 133.130   1
  -3  -8  -3 1266.80 144.920   1
   3   8   3 1383.39 113.580   1
  -3  -8  -3 1527.06 141.600   1
   6   6   6 8544.35 314.500   1
   6   6   6 7562.94 277.190   1
   6   6   6 8497.09 252.320   1
   8   2   0 24721.0 515.240   1
   8   2   0 24767.1 461.510   1
  -2  -1  10 22242.5 607.910   1
  -2  -1  10 25572.5 569.290   1
  -4  -8   0 16421.0 444.670   1
   4   8   0 17930.0 386.880   1
   4   8   0 18323.7 401.360   1
  -4  -7   4 33612.4 624.710   1
   7   0   6 10687.5 274.150   1
   7   0   6 9989.00 316.770   1
   7   0   6 10684.5 289.990   1
  -2   0  10 38740.0 689.740   1
   2   0 -10 36356.6 919.540   1
  -2   0  10 33819.0 687.810   1
  -2  -7   5 1961.45 149.700   1
  -2  -7   5 1973.56 171.820   1
   5   4   9 34426.8 541.200   1
   5   4   9 28754.6 431.540   1
   5   4   9 33064.5 670.070   1
   8   4   2 1929.42 169.080   1
   8   4   2 2068.52 134.320   1
  -2  -5   8 11166.3 400.480   1
  -2  -5   8 12959.0 333.460   1
   0   6   7 62213.2 779.500   1
   0   6   7 56219.5 870.130   1
   0  -6  -7 61720.7 1123.38   1
   1  -4   9 23790.5 660.950   1
   1  -4   9 27742.3 529.140   1
   7   3   7 16880.4 475.070   1
   7   3   7 18618.4 388.310   1
   7   3   7 19378.6 353.800   1
  -6  -2   6 21847.5 523.950   1
  -6  -2   6 23493.3 516.830   1
  -6  -2   6 20714.5 560.160   1
   6   2  -6 23612.2 663.650   1
   3   6   8 10108.5 415.450   1
   3   6   8 9844.69 261.280   1
   3   6   8 10254.3 388.020   1
  -1  -7   5 15233.8 365.180   1
  -1  -7   5 15316.2 369.450   1
   7   2  -4 16959.4 515.350   1
  -7  -2   4 16529.8 421.300   1
   8   4   1 8654.73 297.930   1
   8   4   1 9578.58 303.120   1
   3  -3   9 6815.21 425.260   1
   3  -3   9 8443.97 272.920   1
   2   8   3 62.3700 67.4100   1
  -2  -8  -3 37.5800 78.0000   1
   2   8   3 3.61000 60.0800   1
  -2  -8  -3 71.2600 71.6300   1
   8   1   2 11058.7 347.730   1
   8   1   2 10502.1 288.450   1
  -5  -5   6 6926.00 312.420   1
  -5  -5   6 7786.92 272.980   1
   2   6   8 5824.16 295.720   1
   2   6   8 6686.91 238.270   1
   2   6   8 6673.93 262.730   1
  -2  -6  -8 6676.80 436.110   1
   1   8  -1 43155.8 747.030   1
  -1  -8   1 46301.4 618.600   1
   1   8  -1 43144.6 557.630   1
   8   3   4 21225.3 387.100   1
   8   3   4 21225.1 391.930   1
   8   4   3 45587.7 622.690   1
   8   4   3 41577.1 567.200   1
   8   4   3 44958.6 755.920   1
   5  -2   8 68506.4 820.090   1
   8   1   1 9280.37 309.000   1
   8   1   1 9781.91 286.790   1
  -3  -3   9 239.850 91.8100   1
  -3  -3   9 -6.3600 116.960   1
  -5  -7   3 48386.9 684.050   1
   5   7  -3 40793.9 662.470   1
  -5  -7   3 46158.8 851.190   1
   2  -4  -8 28526.5 772.890   1
  -2   4   8 30090.3 569.260   1
  -2   4   8 27899.0 660.190   1
   7   3  -4 1482.90 160.280   1
  -7  -3   4 1571.81 136.000   1
  -7  -3   4 1403.06 157.420   1
  -1  -6   7 3008.72 167.790   1
  -1  -6   7 2802.14 204.990   1
   1   0  11 1518.77 185.490   1
   1   0  11 1842.64 142.040   1
   0   7   5 12180.3 362.210   1
   0  -7  -5 10726.9 444.760   1
   0   7   5 9989.70 298.740   1
   0  -7  -5 10187.9 415.960   1
  -4  -5   7 36197.3 670.770   1
  -4  -5   7 36738.6 583.000   1
  -6  -1   6 10506.3 351.890   1
   6   1  -6 9078.01 404.070   1
  -6  -1   6 9288.51 297.500   1
   6  -3   4 13585.5 344.950   1
   6  -3   4 12542.3 343.720   1
   8   2   4 117.300 82.1600   1
   8   2   4 177.920 66.5500   1
   8   2   4 121.770 77.1500   1
   1   1  11 24093.8 686.030   1
   1   1  11 22764.4 440.800   1
   1   8   2 38317.5 702.940   1
  -1  -8  -2 37053.1 809.410   1
   1   8   2 40198.5 815.700   1
  -1  -8  -2 34535.0 716.400   1
  -1  -8  -2 41384.2 802.180   1
  -5   2   6 261.870 114.300   1
  -5   2   6 141.080 90.2300   1
   5  -2  -6 287.200 102.700   1
   2   1  11 57178.9 764.190   1
   2   1  11 47756.3 855.690   1
   2   8  -2 13528.4 334.500   1
   2   8  -2 12577.0 519.970   1
  -2  -8   2 14059.0 358.000   1
   2   4  10 9041.77 305.360   1
   2   4  10 8945.22 367.230   1
   4  -5  -3 26663.4 566.530   1
   4  -5  -3 27876.8 648.220   1
   0  -3  10 43150.3 672.630   1
   0  -3  10 42760.1 1040.74   1
   7  -1  -2 17683.2 424.920   1
   7   6   4 46841.7 733.440   1
   7   6   4 48736.8 680.480   1
   7   6   4 50482.5 676.280   1
  -6  -7   1 36804.7 693.110   1
   6   7  -1 37256.9 575.740   1
  -6  -7   1 35883.0 641.880   1
   1  -5   8 -55.200 89.1000   1
   1  -5   8 39.8600 90.8200   1
   8   1   3 17948.4 439.660   1
   8   1   3 15109.3 344.120   1
   8   1   3 15689.4 357.480   1
  -6   1   5 21591.8 535.870   1
   6  -1  -5 21153.9 538.190   1
   3  -4   8 62748.8 719.340   1
  -4  -8  -3 468.430 126.070   1
   4   8   3 265.850 84.8900   1
  -4  -8  -3 384.290 92.7700   1
   4   8   3 400.490 93.2400   1
   1   5   9 39042.8 705.790   1
   1   5   9 37067.7 669.610   1
  -1  -5  -9 34387.7 830.750   1
   4   5   9 20181.7 479.300   1
   4   5   9 20164.6 399.950   1
   4   5   9 20578.0 408.090   1
   7  -1   5 3758.65 196.920   1
   7  -1   5 4144.12 205.620   1
   7  -1   5 3798.22 159.690   1
  -2  -4   9 26305.5 521.750   1
  -2  -4   9 20583.6 569.070   1
   7   1   7 49145.3 603.100   1
   7   1   7 46841.7 764.480   1
   7   1   7 49609.5 600.180   1
   7   1   7 43367.6 689.000   1
   3   4  10 70216.0 816.980   1
   3   4  10 68617.5 800.060   1
   3   4  10 64630.3 815.530   1
  -4  -8   1 28394.8 605.840   1
  -4  -8   1 32262.2 556.280   1
   4   8  -1 32518.1 638.760   1
  -6  -3   6 4.10000 116.320   1
   6   3  -6 44.8300 87.3300   1
  -6  -3   6 82.1300 68.4800   1
  -6  -3   6 50.0300 82.6500   1
   6   7   4 193.000 94.9400   1
   6   7   4 235.080 78.3900   1
   6   7   4 178.570 81.1500   1
  -3  -8   2 35544.5 615.510   1
   3   8  -2 38625.4 846.600   1
   2   0  11 33850.1 619.860   1
   2   0  11 30975.1 765.890   1
  -3   3   8 11255.5 352.380   1
  -3   3   8 12740.0 477.950   1
   3  -3  -8 11741.2 489.920   1
   7   1  -4 10062.1 347.590   1
  -7  -1   4 10112.2 395.610   1
   1   7   6 51378.8 786.050   1
  -1  -7  -6 44429.6 1005.20   1
   1   7   6 49596.0 760.480   1
  -5  -6   5 31319.1 608.240   1
  -5  -6   5 39910.4 706.230   1
   8   4   0 41122.2 618.080   1
   8   4   0 38105.6 634.620   1
  -2  -6   7 19210.4 413.330   1
  -2  -6   7 15965.1 484.220   1
  -3  -7   5 2135.15 162.460   1
  -3  -7   5 1749.74 170.100   1
  -4  -6   6 24198.3 549.820   1
  -4  -6   6 24910.5 471.800   1
   7   5   6 2367.26 198.690   1
   7   5   6 2750.06 164.640   1
   7   5   6 2797.27 180.260   1
   4   6   8 13544.7 344.670   1
   4   6   8 11263.5 348.710   1
   4   6   8 9953.09 325.250   1
   4   6   8 13527.9 394.540   1
  -2  -2  10 12134.6 362.430   1
  -2  -2  10 10466.6 489.750   1
  -2   3   9 21766.5 500.750   1
   2  -3  -9 21685.2 711.750   1
  -2   3   9 22876.3 637.080   1
   1  -3  10 26546.8 512.050   1
   1  -3  10 24153.7 687.960   1
  -7  -6   1 10017.3 306.220   1
   7   6  -1 10404.9 371.670   1
   2  -7   0 73988.0 996.700   1
   2  -7   0 75975.1 1824.87   1
  -2   1  10 8729.45 315.020   1
   2  -1 -10 9079.06 426.870   1
  -2   1  10 10055.0 385.690   1
  -2   6   5 30633.5 512.450   1
   2  -6  -5 30877.5 716.340   1
  -2   6   5 27613.8 686.640   1
   8   1   0 17011.7 448.840   1
   8   1   0 16293.8 382.930   1
  -3   4   7 33269.9 628.690   1
  -3   4   7 33109.8 777.660   1
   3  -4  -7 30909.7 634.510   1
   5  -1   9 3593.78 204.240   1
   5  -1   9 3068.57 203.740   1
   0  -6   7 12418.7 338.600   1
   0  -6   7 11823.2 362.310   1
   0  -6   7 11061.0 417.900   1
   8   3  -1 21984.8 492.980   1
   8   3  -1 22975.2 454.330   1
   6  -2  -4 41729.7 718.670   1
  -6   2   4 38409.0 724.120   1
   5  -4  -3 10009.6 322.710   1
  -5   4   3 10029.9 301.180   1
   2  -7   1 330.000 101.640   1
   2  -7   1 459.710 111.950   1
  -6   3   2 25353.4 481.530   1
   6  -3  -2 26904.9 655.290   1
   8   2  -1 23702.8 524.660   1
   8   2  -1 24109.6 476.010   1
   0   0  11 3870.55 190.040   1
   0   0  11 4626.39 314.460   1
  -1   4   9 1372.35 156.380   1
  -1   4   9 1415.33 164.040   1
   1  -4  -9 1392.50 213.740   1
   5  -3  -5 12700.9 396.550   1
  -5   3   5 11095.0 413.270   1
  -5   3   5 11236.8 437.120   1
   1  -7   4 5395.31 224.220   1
   5  -4   5 26360.4 473.300   1
   5  -4   5 26743.1 467.410   1
   5  -3   7 5959.72 220.010   1
   4  -4   7 302.260 108.570   1
  -1  -3  10 26105.2 662.090   1
  -1  -3  10 28440.8 549.090   1
   2   2  11 1518.90 135.890   1
   2   2  11 1907.70 158.980   1
   3  -2  10 616.590 111.890   1
   3  -2  10 428.940 103.980   1
   8   4   4 10900.0 305.770   1
   8   4   4 11527.5 295.060   1
   7   4   7 15627.7 450.370   1
   7   4   7 17081.5 344.140   1
   7   4   7 15862.3 372.660   1
   0  -7   5 169.290 98.9400   1
   0  -7   5 148.790 89.3100   1
  -5  -4   7 10775.1 372.300   1
  -5  -4   7 13538.9 400.420   1
   7  -2   1 10999.5 360.760   1
  -1  -8   2 26360.4 481.270   1
   1   8  -2 24161.8 465.060   1
   1   8  -2 23756.2 475.150   1
   3   8   4 5588.73 208.340   1
   3   8   4 7186.48 256.330   1
  -3  -8  -4 7021.63 332.690   1
   7  -2   2 45089.4 729.670   1
   2  -7  -1 19821.5 464.950   1
   2  -7  -1 23377.5 471.230   1
   5  -1  -7 103.600 83.3700   1
   1   4  10 57934.2 891.210   1
   1   4  10 56093.7 1074.51   1
   1  -1  11 5256.17 279.320   1
   1  -1  11 6406.77 266.980   1
   1  -7  -4 24471.9 685.590   1
   1  -7  -4 25392.6 595.980   1
  -1   7   4 22732.7 516.100   1
   7   5  -3 1382.39 124.280   1
  -7  -5   3 1416.31 151.540   1
   3  -6  -3 4212.75 247.400   1
   3  -6  -3 4233.56 212.340   1
  -1   5   8 6846.07 374.360   1
   1  -5  -8 8138.57 396.850   1
  -1   5   8 8502.23 341.620   1
   3  -6   4 15396.3 370.960   1
   3  -6   4 13903.4 362.860   1
  -2   5   7 22374.5 603.130   1
   2  -5  -7 22110.5 636.790   1
  -2   5   7 22249.5 503.770   1
   6   2   9 32887.7 669.980   1
   6   2   9 38579.1 549.610   1
   6   2   9 36870.1 643.390   1
   0   1  11 11974.8 423.790   1
   0   1  11 14218.7 388.380   1
  -4  -4   8 11289.1 374.170   1
  -4  -4   8 11063.5 364.900   1
   4  -1  10 55168.5 749.960   1
   4  -1  10 50853.7 928.850   1
  -6  -5   5 10433.2 452.300   1
  -6  -5   5 11127.3 378.400   1
  -6  -5   5 12715.7 355.560   1
   1   2  11 1761.46 142.540   1
   1   2  11 1594.53 149.640   1
   1   6   8 25681.9 535.430   1
  -1  -6  -8 21901.2 680.430   1
   1   6   8 24492.3 506.400   1
   1   6   8 24954.1 532.800   1
  -1  -8  -3 1301.45 151.160   1
  -1  -8  -3 1506.65 176.660   1
  -1  -8  -3 1274.63 189.930   1
   1   8   3 1500.21 141.020   1
   1   8   3 1379.21 109.390   1
   3   1  11 25789.5 534.830   1
   3   1  11 24363.8 609.940   1
   8   1   4 65232.0 855.970   1
   8   1   4 58889.7 711.250   1
   8   1   4 61358.8 679.720   1
   5   7   6 25534.0 671.360   1
   5   7   6 24774.3 629.780   1
   4  -5   5 10929.3 359.890   1
   4  -5   5 10908.7 349.030   1
  -5  -8  -1 48189.3 1031.82   1
  -5  -8  -1 47513.4 1054.94   1
   5   8   1 50283.6 1027.83   1
   5   8   1 41186.3 911.270   1
   2  -7   2 24318.6 706.780   1
   2  -7   2 29233.0 684.960   1
  -2  -8  -4 15626.4 523.600   1
   2   8   4 13835.5 476.840   1
   2   8   4 12427.4 428.970   1
   5   2  10 11912.7 383.580   1
   5   2  10 11852.1 373.680   1
   5   2  10 11862.7 429.040   1
  -7  -4   4 3569.53 211.930   1
   7   4  -4 3085.56 236.110   1
   0  -1  11 29414.4 726.840   1
   0  -1  11 28008.6 883.690   1
   8   3   5 34136.0 732.810   1
   8   3   5 30026.8 718.170   1
   7  -2   0 14141.3 425.200   1
   6   0  -6 11577.8 468.560   1
  -6   0   6 11583.5 392.060   1
   5   8   2 5678.08 306.180   1
   5   8   2 7323.29 297.490   1
  -5  -8  -2 6687.69 319.600   1
  -5  -8  -2 7780.20 335.770   1
   7  -2   3 28.0500 134.510   1
   8   2   5 10457.7 346.620   1
   8   2   5 10392.4 394.410   1
   8   2   5 9756.61 346.960   1
   2  -4   9 21177.7 547.960   1
   2  -4   9 16784.2 697.260   1
  -3  -5   8 4807.88 277.340   1
  -3  -5   8 3889.06 220.040   1
   0  -8   0 10669.8 350.520   1
   0   8   0 10352.4 380.380   1
   0  -8   0 9746.38 513.670   1
   8   5   2 47176.8 966.060   1
   6   3   9 410.180 98.6400   1
   6   3   9 433.430 103.640   1
   6   3   9 468.470 77.2600   1
  -4  -8  -4 55532.1 1506.94   1
   4   8   4 55086.5 1360.22   1
   4   8   4 52992.8 1072.54   1
   5   1  10 13965.3 443.520   1
   5   1  10 12338.8 461.960   1
   5   1  10 13351.8 431.970   1
   3   2  11 35.6500 91.3800   1
   3   2  11 40.0000 73.3100   1
  -4   3   7 12671.0 443.190   1
   4  -3  -7 11631.3 426.150   1
  -4   3   7 10046.7 462.420   1
   6   1   9 629.130 90.1900   1
   6   1   9 654.550 104.480   1
   6   1   9 634.980 88.0400   1
   4   4  10 27041.2 655.700   1
   4   4  10 27570.8 673.230   1
   4   4  10 27715.2 683.290   1
   8   4  -1 19896.0 517.440   1
   8   4  -1 18436.8 553.120   1
   2  -1  11 45492.8 989.290   1
   2  -1  11 41985.8 1121.83   1
  -5  -8   0 4629.56 275.180   1
   5   8   0 4579.82 281.430   1
  -5  -8   0 4488.45 240.030   1
  -4  -8   2 21220.7 685.270   1
   4   8  -2 25372.6 624.850   1
  -4  -8   2 21938.9 547.570   1
   0  -8  -1 8161.87 333.390   1
   0  -8  -1 7605.67 382.320   1
   0  -8  -1 6203.72 406.660   1
   0   8   1 7774.55 327.910   1
   8   5   1 17342.5 472.490   1
   3   7   7 2390.07 177.250   1
   3   7   7 2619.02 161.910   1
   3   7   7 2082.10 148.700   1
   3   7   7 2646.28 185.170   1
  -6  -6   4 3756.93 279.580   1
  -6  -6   4 4598.83 264.060   1
   7   6   5 55.0600 65.0300   1
   7   6   5 -25.320 90.0600   1
   7   6   5 22.5800 82.2400   1
  -3   2   9 4489.83 281.960   1
   3  -2  -9 4559.94 313.110   1
  -3   2   9 4394.44 255.260   1
   2   8  -3 6668.05 443.790   1
  -2  -8   3 6651.39 342.440   1
  -6  -7   2 1295.54 150.310   1
   6   7  -2 1901.63 151.650   1
  -6  -7   2 1160.65 119.180   1
   8   1  -1 164.420 118.290   1
   8   1  -1 110.060 80.2900   1
   6  -3   5 3500.42 203.490   1
   6  -3   5 3315.88 191.950   1
   3   0  11 17395.3 484.430   1
   3   0  11 14965.5 562.500   1
   6   5   8 51180.4 1011.52   1
   6   5   8 49582.8 1085.45   1
   6   5   8 50108.0 1023.73   1
   2  -6   6 159.350 84.4900   1
   2  -6   6 102.060 97.4900   1
   2  -7  -2 976.110 128.790   1
   2  -7  -2 1301.65 131.100   1
   0   8  -1 21026.7 552.410   1
   0  -8   1 19282.2 715.060   1
   0  -8   1 24671.2 605.900   1
  -3  -6   7 -0.8100 101.150   1
  -3  -6   7 47.1000 90.5500   1
   8   5   3 143.540 76.5900   1
   8   5   3 196.090 69.9400   1
   6  -1   8 10436.5 394.210   1
   8   0   2 29695.6 663.230   1
   8   0   2 33626.5 788.670   1
   6   7   5 43574.2 901.200   1
   6   7   5 40599.9 955.300   1
   6   7   5 41697.3 846.930   1
   2  -3  10 13962.0 421.230   1
   2  -3  10 12028.6 568.100   1
  -4  -1   9 13404.2 499.910   1
  -4  -1   9 14010.5 538.830   1
   4   1  -9 15129.4 618.500   1
  -6  -4   6 42145.9 927.200   1
  -6  -4   6 38707.3 875.110   1
   6   4  -6 35824.3 1046.61   1
  -6  -4   6 33674.0 800.290   1
  -1   3  10 2116.87 188.380   1
   1  -3 -10 2139.50 246.060   1
  -1   3  10 2207.70 186.320   1
   8   0   1 10259.6 415.200   1
   8   0   1 8754.52 319.300   1
   5   8   3 3776.71 184.770   1
  -5  -8  -3 3901.14 251.280   1
   5   8   3 4023.29 211.300   1
  -3  -8   3 473.690 112.920   1
   3   8  -3 469.400 114.920   1
   7   0  -4 22633.9 639.520   1
  -7   0   4 22844.4 641.810   1
   5   3  10 31861.6 734.840   1
   5   3  10 34476.9 793.520   1
   5   3  10 31092.9 794.590   1
   2   7   7 24613.5 593.170   1
  -2  -7  -7 25194.5 888.970   1
   2   7   7 29861.0 754.490   1
   2   7   7 31808.7 704.890   1
   7   0   7 393.880 77.7900   1
   7   0   7 467.040 75.3100   1
   7   0   7 475.840 119.080   1
   6   6   7 27369.6 645.390   1
   6   6   7 27718.1 742.400   1
   6   6   7 28979.2 636.510   1
   7   6  -2 38531.3 851.460   1
  -7  -6   2 33819.8 795.750   1
   4  -2  -8 22322.3 720.640   1
  -4   2   8 19089.3 598.540   1
  -4   2   8 21244.3 614.020   1
   6  -2   7 4969.12 243.290   1
   7  -1  -3 34490.5 829.970   1
  -7   1   3 32790.2 834.460   1
   3  -5   7 17486.3 520.850   1
   3  -5   7 18016.9 491.900   1
   8   4   5 6338.31 248.720   1
   8   4   5 5962.78 276.330   1
  -4  -2   9 17281.9 535.160   1
   4   2  -9 17471.2 692.270   1
  -4  -2   9 16355.6 550.040   1
   4   7   7 1627.85 138.920   1
   4   7   7 1607.26 125.160   1
   4   7   7 1381.43 144.220   1
   1  -6   7 35338.8 812.790   1
   1  -6   7 39155.5 844.230   1
  -4   5   4 28289.2 688.060   1
   4  -5  -4 27383.7 737.030   1
   0  -8  -2 74536.9 1835.02   1
   0  -8  -2 72386.8 1935.45   1
   0  -8  -2 57696.8 1720.78   1
   0   8   2 70191.9 1745.43   1
   8   3  -2 9941.86 433.370   1
   8   3  -2 11490.1 385.870   1
   8   0   3 3034.19 180.690   1
   8   0   3 3606.25 225.320   1
   5   2  -8 257.490 137.580   1
  -5  -2   8 164.480 87.1700   1
  -5  -2   8 112.030 102.560   1
   0  -5  -9 24775.5 866.410   1
   0   5   9 25382.7 624.500   1
   0   5   9 25943.6 740.550   1
   5   1  -8 53544.9 1219.19   1
  -5  -1   8 42680.1 987.680   1
  -5  -1   8 47844.7 1057.32   1
   3  -5  -6 39262.6 1018.77   1
  -3   5   6 37340.3 1097.92   1
  -3   5   6 41064.5 947.140   1
   8   5   0 2467.60 172.070   1
   5   5   9 7105.33 297.870   1
   5   5   9 7492.21 359.460   1
   5   5   9 8234.16 339.690   1
   7  -2  -1 18414.4 522.690   1
   7  -1   6 25302.0 645.350   1
   7  -1   6 28441.9 665.150   1
   7  -1   6 26403.7 607.920   1
   8   2  -2 1683.62 146.300   1
   8   2  -2 1575.10 142.740   1
   5   6   8 9035.79 370.930   1
   5   6   8 10893.7 320.540   1
   5   6   8 11003.1 421.680   1
   1   8  -3 1488.86 221.810   1
  -1  -8   3 1828.74 165.660   1
   1   8  -3 1526.55 160.110   1
  -4  -7   5 770.840 134.490   1
  -5  -7   4 14262.5 441.030   1
  -5  -7   4 16436.6 527.330   1
  -1   0  11 1676.48 154.120   1
  -1   0  11 1812.76 149.370   1
   0   2  11 3718.02 232.410   1
   0   2  11 2957.06 225.230   1
   2  -7   3 27376.5 645.170   1
   2  -7   3 27369.0 694.510   1
  -2  -3  10 20421.7 697.300   1
  -2  -3  10 24393.5 642.270   1
   2  -5   8 5256.78 244.370   1
   7  -2   4 10574.0 354.320   1
  -4   4   6 487.130 128.780   1
  -4   4   6 453.720 107.550   1
   4  -4  -6 610.150 112.010   1
   2   3  11 30359.0 813.790   1
   2   3  11 28446.6 848.620   1
  -5  -8   1 17569.6 617.950   1
  -5  -8   1 18676.8 501.050   1
   5   8  -1 18625.9 535.450   1
   7   2   8 7737.83 293.960   1
   7   2   8 6877.07 274.010   1
   7   2   8 6687.88 348.460   1
   8   1   5 2367.93 164.130   1
   8   1   5 2107.52 143.660   1
   6  -3  -3 66041.1 1688.86   1
   2  -2 -10 27460.5 905.480   1
  -2   2  10 28131.1 736.590   1
  -2   2  10 31353.7 875.370   1
  -3  -4   9 9754.90 422.920   1
  -3  -4   9 9016.10 413.620   1
  -4   0   9 26566.7 727.280   1
   4   0  -9 23635.1 727.630   1
  -4   0   9 22289.8 656.310   1
   8   0   0 26360.6 684.300   1
   8   0   0 25527.8 628.760   1
  -2  -7   6 24669.1 599.970   1
  -2  -7   6 24636.5 639.660   1
   5  -5   1 20984.4 557.940   1
   5  -5   1 20862.1 576.000   1
   0  -8   2 42190.3 888.380   1
   0   8  -2 34412.2 811.600   1
   0  -8   2 35962.0 929.660   1
   8   5   4 19148.3 496.210   1
   8   5   4 17505.1 493.760   1
  -1  -7   6 45832.2 1057.98   1
  -1  -7   6 49654.3 998.760   1
   7   3   8 32321.0 723.360   1
   7   3   8 34035.6 755.320   1
   7   3   8 31501.8 789.250   1
  -1  -1  11 31989.7 977.050   1
  -1  -1  11 31671.1 751.950   1
  -1  -8  -4 39116.1 877.560   1
  -1  -8  -4 36837.1 1046.02   1
   1   8   4 44519.0 935.760   1
   1   8   4 39478.9 1001.35   1
   5   0  10 312.100 90.6400   1
   5   0  10 150.370 96.2900   1
   0   7   6 15319.5 456.710   1
   0  -7  -6 14426.0 576.170   1
   0   7   6 15010.7 449.560   1
   0   7   6 15013.6 448.280   1
  -3  -8  -5 7782.04 394.710   1
   3   8   5 6397.01 302.920   1
   3   8   5 7309.82 303.050   1
   0   4  10 48926.9 1036.72   1
   0  -4 -10 50306.4 1296.88   1
   0   4  10 53934.4 1271.51   1
  -7  -2   5 1880.25 173.140   1
   7   2  -5 1913.23 197.100   1
  -1   6   7 6992.52 293.920   1
  -1   6   7 7834.40 381.560   1
   1  -6  -7 7820.06 370.570   1
  -3  -1  10 4683.68 272.910   1
   3   1 -10 5026.38 300.410   1
  -3  -1  10 5442.71 270.970   1
   1  -2  11 34078.4 811.940   1
   1  -2  11 32336.9 1063.67   1
   5  -5   0 51107.4 1067.51   1
   5  -5   0 51185.2 1063.79   1
   3   3  11 33228.9 832.210   1
   3   3  11 32084.8 838.180   1
  -5   4   4 24365.0 632.010   1
   5  -4  -4 24221.1 689.950   1
   0  -2  11 11518.4 597.840   1
   0  -2  11 10927.0 382.130   1
   6   4   9 26460.9 690.100   1
   6   4   9 29844.0 652.340   1
   6   4   9 28674.9 739.930   1
   5  -5   2 1277.05 132.310   1
   5  -5   2 1319.92 153.270   1
   7   5   7 12490.4 400.130   1
   7   5   7 14349.1 386.580   1
   7   5   7 12776.8 466.340   1
  -7  -7  -2 46497.8 1058.75   1
   7   7   2 51513.4 1047.89   1
   7   7   2 47740.3 1004.57   1
   3  -6  -4 23257.6 740.530   1
   3  -6  -4 24823.2 706.740   1
   1  -7   5 11910.1 531.100   1
   1  -7   5 12670.1 446.000   1
   3  -6   5 35416.8 771.010   1
   3  -6   5 37142.0 808.360   1
  -7  -7  -1 320.100 86.4100   1
   7   7   1 344.300 90.1700   1
   6   0   9 3712.24 232.070   1
   6   0   9 3887.88 222.040   1
   6   0   9 3927.71 234.720   1
  -1   1  11 41223.6 959.970   1
  -1   1  11 48580.0 1060.36   1
   5  -4   6 1175.76 136.740   1
   5  -4   6 1186.06 121.080   1
   7   3  -5 12943.4 527.940   1
  -7  -3   5 12940.2 432.620   1
  -7  -3   5 12809.1 422.210   1
   1   3  11 28917.4 748.420   1
   1   3  11 27822.4 679.740   1
  -5  -8  -4 11377.1 460.920   1
   5   8   4 12494.8 383.400   1
   5   8   4 13636.5 394.500   1
  -3   0  10 34818.1 962.570   1
   3   0 -10 35279.3 930.050   1
  -3   0  10 36783.8 868.050   1
   4   1  11 33317.0 802.410   1
   4   1  11 29136.6 815.000   1
   8   0   4 2323.60 184.210   1
   8   0   4 2326.18 341.340   1
   2  -7  -3 21419.2 633.200   1
   2  -7  -3 20337.1 618.200   1
   8   3   6 14774.3 424.550   1
   8   3   6 15306.6 427.050   1
   8   4  -2 27010.0 699.420   1
   8   4  -2 22393.9 633.080   1
   2   8   5 32116.3 793.260   1
  -2  -8  -5 35221.0 884.530   1
   2   8   5 31899.8 756.540   1
   4   8   5 37323.3 823.650   1
   4   8   5 40331.8 824.850   1
  -4  -8  -5 36789.4 953.840   1
  -1   7   5 648.960 115.090   1
   1  -7  -5 614.170 107.260   1
   1  -7  -5 538.340 125.520   1
   5   3  -8 15261.8 631.480   1
  -5  -3   8 14991.3 511.560   1
  -5  -3   8 16442.9 756.210   1
   4   2  11 4864.08 267.780   1
   4   2  11 4510.39 248.250   1
   3  -1  11 12384.6 575.610   1
   3  -1  11 14653.7 458.340   1
  -1  -5   9 3550.67 240.200   1
  -1  -5   9 4324.58 271.670   1
   5   0  -8 942.320 150.380   1
  -5   0   8 879.240 117.390   1
  -5   0   8 888.570 129.030   1
   4  -6   1 45646.3 975.120   1
   4  -6   1 45919.0 983.520   1
   4  -3   9 33838.8 754.080   1
   8   1  -2 31709.0 796.790   1
   8   1  -2 31893.8 794.580   1
   8   2   6 28857.0 654.210   1
   8   2   6 29444.5 645.510   1
   7   1   8 3962.99 188.550   1
   7   1   8 3334.40 197.510   1
   7   1   8 3708.04 231.390   1
   0   6   8 41340.8 953.890   1
   0   6   8 38431.5 930.590   1
   0  -6  -8 37180.3 1066.08   1
   0  -5   9 40638.3 929.890   1
   0  -5   9 38499.2 1047.04   1
   4  -6   0 2646.48 183.480   1
   4  -6   0 2412.17 173.120   1
   7   7   3 9731.90 433.170   1
   7   7   3 11196.3 373.650   1
   7   7   3 10511.8 360.980   1
   6  -4   1 13964.4 472.670   1
   6  -4   1 13361.1 448.020   1
   4   8  -3 1061.30 150.910   1
  -4  -8   3 916.110 134.480   1
  -7  -1   5 37102.8 857.120   1
   7   1  -5 37676.3 983.040   1
   0   8   3 1813.43 153.690   1
   0  -8  -3 1948.00 168.730   1
   0  -8  -3 1655.04 212.640   1
   1   7   7 8192.88 346.690   1
   1   7   7 8112.76 338.460   1
   1   7   7 8140.99 368.040   1
  -1  -7  -7 7491.89 479.730   1
   8   5  -1 15691.3 447.830   1
  -3  -2  10 4531.85 273.350   1
  -3  -2  10 5636.52 363.280   1
  -2   6   6 5098.10 243.920   1
   2  -6  -6 4411.83 346.410   1
  -2   6   6 3938.09 281.920   1
   6  -2  -5 38566.5 968.850   1
  -6   2   5 36840.5 942.320   1
  -4  -3   9 1862.70 161.580   1
  -4  -3   9 1485.96 147.450   1
  -7  -5   4 16178.2 466.200   1
   6  -4   2 35141.7 831.790   1
   6  -4   2 35719.7 830.080   1
   3   6   9 358.780 77.2200   1
   3   6   9 573.290 89.0800   1
   3   6   9 502.580 105.870   1
   7   6   6 11932.5 440.420   1
   7   6   6 12870.4 385.890   1
   7   6   6 12156.4 400.340   1
   5  -5  -1 23211.5 639.320   1
   5  -5  -1 24159.6 649.820   1
   4  -5   6 63920.0 1556.91   1
   4  -5   6 58450.2 1443.26   1
   7   7   0 23881.2 596.960   1
  -7  -7   0 22453.8 590.220   1
  -3  -7   6 53189.3 1072.13   1
  -3  -7   6 42956.7 1055.51   1
  -6  -2   7 34099.4 858.670   1
   6   2  -7 38963.1 1133.89   1
  -6  -2   7 38359.8 913.850   1
  -6   1   6 33320.3 814.880   1
   6  -1  -6 32254.6 888.660   1
   3   5  10 1059.79 106.730   1
   3   5  10 1084.44 131.160   1
   3   5  10 866.790 122.970   1
   4  -6   2 39373.5 892.330   1
   4  -6   2 40004.8 931.900   1
   6   7  -3 3626.62 217.710   1
  -6  -7   3 3243.70 229.170   1
  -6  -7   3 2877.08 205.140   1
   0  -4  10 635.930 145.940   1
   0  -4  10 822.270 117.200   1
   8   0  -1 16173.6 507.750   1
   8   0  -1 15375.7 650.550   1
   0  -7   6 35989.6 815.350   1
   0  -7   6 33630.1 889.190   1
   5  -5   3 41345.8 926.280   1
   5  -5   3 43062.7 979.910   1
   5  -2   9 7488.50 375.610   1
   6  -4   0 4019.15 254.710   1
   6  -4   0 4152.04 238.360   1
  -2  -8   4 16617.9 483.260   1
  -5  -5   7 12309.2 554.010   1
  -5  -5   7 11693.2 533.490   1
   2   5  10 102.720 76.3800   1
   2   5  10 177.820 93.8100   1
  -5  -6   6 18986.1 595.420   1
  -5  -6   6 18074.3 565.000   1
   5   4  10 26857.8 703.060   1
   5   4  10 26082.0 621.990   1
   5   4  10 31336.2 806.240   1
   7  -2  -2 20706.2 605.070   1
   7   4   8 5268.74 208.790   1
   7   4   8 5895.35 292.350   1
   7   4   8 5888.94 352.110   1
   2  -2  11 27056.0 712.390   1
   2  -2  11 21764.0 773.580   1
   5   7   7 6959.36 326.200   1
   5   7   7 6940.90 378.400   1
   5   7   7 6655.98 371.420   1
   6  -3   6 32329.7 751.440   1
   6  -3   6 30236.1 737.210   1
  -5   2   7 42557.0 1114.17   1
  -5   2   7 44865.2 1088.04   1
   5  -2  -7 43783.0 1133.59   1
  -5  -8   2 27284.3 693.840   1
  -5  -8   2 25744.1 747.280   1
   5   8  -2 26884.1 834.770   1
   4  -2  10 151.610 85.5000   1
   4  -2  10 62.6300 99.5200   1
   2   6   9 6338.24 360.550   1
   2   6   9 6535.41 354.320   1
   2   6   9 5438.16 284.630   1
   6   7   6 17665.9 509.740   1
   6   7   6 19305.0 567.410   1
   6   7   6 17465.0 471.510   1
  -1  -2  11 8117.48 404.710   1
  -1  -2  11 7688.18 428.220   1
   6   1  -7 8268.07 479.670   1
  -6  -1   7 7731.26 410.890   1
  -1  -6   8 65756.6 759.530   1
  -1  -6   8 58230.7 957.860   1
   4  -6  -1 6249.65 323.590   1
   4  -6  -1 5750.53 338.820   1
   7  -2   5 39425.7 920.350   1
   5  -3  -6 52582.0 1028.95   1
  -5   3   6 48970.9 1253.02   1
  -5   3   6 52543.0 1196.45   1
   0  -8   3 700.750 129.250   1
   0  -8   3 504.290 117.160   1
   8   5   5 25699.7 675.000   1
   8   5   5 27278.3 622.900   1
  -1  -4  10 466.370 90.9700   1
  -1  -4  10 429.550 116.540   1
   2  -7   4 17983.5 506.220   1
   2  -7   4 15874.2 675.590   1
   8   4   6 23107.1 559.330   1
   8   4   6 21843.3 555.340   1
   5  -3   8 2277.50 152.260   1
   4   0  11 6229.51 341.770   1
   4   0  11 5135.60 277.000   1
  -2  -5   9 8743.65 478.310   1
  -2  -5   9 8616.71 429.490   1
   4  -4   8 22804.4 578.810   1
   7   6  -3 45186.5 998.250   1
  -7  -6   3 39587.6 941.050   1
  -6  -8  -1 4220.34 263.400   1
   6   8   1 4254.59 221.400   1
  -6  -8  -1 4221.48 243.490   1
   6   8   1 4307.38 248.660   1
   4  -1  -9 18182.0 700.330   1
  -4   1   9 19582.9 609.400   1
  -4   1   9 18654.5 690.280   1
  -6  -8  -2 6932.56 374.390   1
   6   8   2 7141.36 348.040   1
  -6  -8  -2 6951.05 347.290   1
   6   8   2 6740.52 346.050   1
  -3  -8   4 34567.0 797.650   1
   6  -4   3 221.050 92.4400   1
   6  -4   3 262.780 110.740   1
  -4  -6   7 159.050 165.530   1
  -4  -6   7 104.960 131.660   1
   3  -4   9 1912.47 152.730   1
   6   3  -7 7961.31 530.460   1
  -6  -3   7 8494.95 475.550   1
  -6  -3   7 8665.29 422.490   1
  -4  -5   8 6185.33 327.950   1
  -4  -5   8 5451.56 320.950   1
   4   6   9 3747.18 235.430   1
   4   6   9 4286.16 202.320   1
   4   6   9 4723.05 265.410   1
   3  -3  10 32292.0 1021.15   1
   3  -3  10 41702.7 906.790   1
   1   8  -4 9293.09 569.590   1
  -1  -8   4 12942.3 548.370   1
   7   7   4 133.720 86.5000   1
   7   7   4 71.3200 83.0300   1
   7   7   4 91.9600 87.4300   1
   8   6   2 200.430 87.6400   1
   4   3  11 24089.6 625.080   1
   4   3  11 30061.2 799.200   1
   4   3  11 29851.4 780.330   1
  -7  -4   5 11435.3 516.590   1
  -7  -4   5 11064.2 499.620   1
   7   4  -5 9930.64 621.590   1
   1  -4  10 3760.49 303.600   1
   1  -4  10 5009.34 230.540   1
   8   1   6 13244.6 552.760   1
   8   3  -3 7352.96 432.010   1
   8   3  -3 7979.37 392.590   1
  -2   4   9 -0.5200 80.4400   1
  -2   4   9 18.7900 83.4800   1
   2  -4  -9 -29.980 154.710   1
   8   2  -3 46384.4 1084.52   1
   8   2  -3 52560.3 1165.75   1
   1  -5   9 16449.5 461.320   1
   1  -5   9 11821.2 619.420   1
   1  -8   0 2467.79 164.950   1
   1  -8   0 2809.39 214.560   1
  -2  -6   8 29422.7 716.990   1
  -2  -6   8 25518.1 754.800   1
   3  -1 -10 2623.83 209.010   1
  -3   1  10 2591.32 202.670   1
  -3   1  10 2807.64 239.110   1
   0  -6   8 26192.7 644.210   1
   0  -6   8 18663.8 779.460   1
   8   6   1 17078.0 485.000   1
  -6  -5   6 1128.71 143.240   1
  -6  -5   6 853.900 151.480   1
  -6  -5   6 1001.91 126.470   1
   4  -6   3 15450.9 660.630   1
   4  -6   3 13552.3 576.720   1
   4   5  10 10193.2 465.050   1
   4   5  10 9064.25 459.960   1
   4   5  10 9917.69 447.060   1
   6  -4  -1 8119.33 411.150   1
   8   0   5 29559.3 677.270   1
   8   0   5 32857.5 793.660   1
  -6  -6   5 21196.1 600.040   1
  -6  -6   5 24195.3 687.740   1
   3  -4  -8 43613.8 1066.57   1
  -3   4   8 46617.1 1102.21   1
  -3   4   8 43821.8 1197.35   1
   8   6   3 6181.70 323.280   1
   8   6   3 7167.67 347.140   1
  -7   1   4 8217.98 449.900   1
   7  -1  -4 8905.66 484.280   1
  -6  -8   0 3144.31 227.200   1
   6   8   0 3262.93 190.140   1
  -6  -8   0 3711.44 223.120   1
   1  -2 -11 3227.80 250.190   1
  -1   2  11 2827.73 194.780   1
  -1   2  11 3001.01 252.350   1
   0   3  11 31950.7 893.000   1
   0  -3 -11 31716.5 927.660   1
   0   3  11 34556.9 875.660   1
  -7  -7   1 20458.1 562.380   1
   7   7  -1 22394.5 571.940   1
   1  -8   1 25728.9 621.080   1
   1  -8   1 24434.5 662.690   1
   1  -8  -1 10221.7 520.660   1
   1  -8  -1 10574.2 462.030   1
   6   8   3 7127.06 350.580   1
   6   8   3 8435.34 382.310   1
  -6  -8  -3 7638.75 402.070   1
   1   8   5 54321.7 747.840   1
  -1  -8  -5 56886.1 928.770   1
  -1  -8  -5 48946.7 1269.67   1
   5   8   5 39889.8 932.870   1
   5   8   5 41643.1 904.750   1
   5   8   5 40179.5 870.480   1
   5  -5  -2 6335.32 375.100   1
   5  -5  -2 5609.41 338.540   1
   7  -1   7 11561.0 509.280   1
   7  -1   7 11202.4 519.290   1
   5  -1  10 24417.6 824.870   1
   5  -1  10 31439.6 787.210   1
   1   5  10 957.460 121.070   1
  -1  -5 -10 1224.54 173.710   1
   1   5  10 1095.04 127.370   1
   8  -1   2 1022.56 128.220   1
   2  -6   7 3441.64 196.320   1
   2  -6   7 3070.40 193.360   1
   6  -3  -4 6541.01 392.940   1
  -4   5   5 6966.36 347.260   1
   4  -5  -5 6629.43 400.690   1
   2  -5  -8 11928.4 624.840   1
  -2   5   8 13390.8 591.660   1
  -2   5   8 12217.4 568.050   1
   3  -3  -9 40282.7 1049.01   1
  -3   3   9 42935.4 1090.38   1
  -3   3   9 42606.5 1043.53   1
   8  -1   1 14607.7 630.110   1
   5  -5   4 4500.46 224.950   1
   5  -5   4 4369.53 254.870   1
   3   7   8 12718.5 523.120   1
   3   7   8 12036.0 531.210   1
   3   7   8 11140.8 489.600   1
   7   0  -5 5523.12 390.320   1
  -7   0   5 4935.91 234.620   1
  -2  -1  11 15504.9 704.180   1
  -2  -1  11 15983.2 596.720   1
  -2   0  11 625.810 105.070   1
  -2   0  11 495.530 132.910   1
   3   8   6 34.2500 68.3000   1
   3   8   6 131.920 74.0400   1
   3   8   6 3.60000 80.7200   1
   2  -7  -4 34212.4 942.820   1
   2  -7  -4 29974.5 859.150   1
   4  -6  -2 50053.5 1159.93   1
   4  -6  -2 48932.1 1184.26   1
  -3  -3  10 35929.1 943.540   1
  -3  -3  10 37435.6 913.820   1
   0  -8  -4 9996.56 550.170   1
   0   8   4 10678.1 491.200   1
   0  -8  -4 11085.5 538.080   1
   7   0   8 40725.7 904.120   1
   7   0   8 42478.4 982.890   1
   8   5  -2 22588.3 608.480   1
   2   4  11 2502.69 213.030   1
   2   4  11 3098.21 185.800   1
   6   2  10 4068.66 235.460   1
   6   2  10 4018.88 253.660   1
   6   2  10 4453.40 234.530   1
   6   6   8 1172.40 121.630   1
   6   6   8 1322.53 134.720   1
   6   6   8 1391.15 114.960   1
   8   6   0 30947.5 740.790   1
  -5  -4   8 25297.5 727.720   1
  -5  -4   8 22842.1 670.060   1
   1   6   9 1757.90 179.560   1
   1   6   9 1893.76 177.320   1
  -1  -6  -9 1469.06 212.970   1
  -5   1   8 9641.44 534.160   1
  -5   1   8 9337.49 489.230   1
   5  -1  -8 10235.4 561.090   1
  -5  -7   5 3496.85 205.380   1
   3  -7   0 14762.1 658.250   1
   3  -7   0 13842.0 602.980   1
   3   4  11 359.080 90.7300   1
   3   4  11 182.110 89.7300   1
   3  -7   1 829.020 161.530   1
   3  -7   1 1045.17 134.760   1
   6   0  -7 26921.9 826.040   1
  -6   0   7 27803.5 820.580   1
   6  -2   8 19477.4 529.050   1
   8  -1   3 29166.4 769.600   1
   8   0  -2 687.950 99.0900   1
  -1   5   9 31299.4 858.800   1
   1  -5  -9 34170.4 1048.69   1
  -1   5   9 41496.3 1013.29   1
   6   5   9 8936.66 418.670   1
   6   5   9 9355.06 407.880   1
   6   5   9 9623.46 480.240   1
   6   5   9 7511.97 395.940   1
  -2  -4  10 5.30000 129.990   1
  -2  -4  10 -8.0800 78.7600   1
   6  -4   4 34780.0 834.370   1
   6  -4   4 37588.4 890.180   1
   8   4  -3 65477.2 788.240   1
   1  -8   2 4548.00 389.790   1
   1  -8   2 4985.50 220.640   1
   8   1  -3 15977.7 523.010   1
   8   1  -3 15438.2 669.700   1
   0  -3  11 7918.49 398.160   1
   0  -3  11 7213.92 432.220   1
  -2   3  10 5479.53 338.820   1
   2  -3 -10 4453.68 283.320   1
  -2   3  10 4721.34 318.480   1
   4   8   6 115.830 102.270   1
   4   8   6 215.510 97.1000   1
   4   8   6 68.6000 89.9600   1
   8   6   4 22859.3 579.720   1
   8   6   4 23003.3 560.470   1
   7  -3   1 8525.88 430.300   1
   1  -8  -2 17384.4 636.800   1
   1  -8  -2 18143.2 590.760   1
   6  -1   9 15286.5 638.640   1
   4   7   8 15402.0 677.640   1
   4   7   8 16158.1 451.890   1
   4   7   8 18979.7 516.580   1
   4   7   8 18193.5 544.430   1
   3  -6  -5 41588.4 1027.62   1
  -3   6   5 43787.4 998.290   1
   2   7   8 18942.3 559.270   1
   2   7   8 18070.0 545.110   1
  -2  -7  -8 16558.9 708.380   1
   3  -6   6 664.920 136.460   1
   3  -6   6 626.200 135.040   1
   7  -3   2 150.400 112.200   1
  -1   4  10 20748.7 654.890   1
   1  -4 -10 20177.3 667.350   1
  -1   4  10 22893.5 670.160   1
   8  -1   0 17142.5 538.830   1
   8   3   7 46444.7 980.530   1
   8   3   7 50967.4 1029.49   1
   6   3  10 1838.12 141.000   1
   6   3  10 2076.48 142.390   1
   6   3  10 1721.03 144.980   1
  -4  -7   6 18491.0 509.520   1
   2   1  12 23015.7 634.530   1
   2   1  12 22165.5 845.260   1
  -5   4   5 24708.1 675.550   1
   5  -4  -5 23857.6 727.000   1
   6   8  -1 8467.18 395.860   1
  -6  -8   1 8157.66 403.940   1
  -6  -8   1 8416.90 419.530   1
   6   1  10 39515.8 993.260   1
   6   1  10 43086.7 1016.55   1
   6   1  10 44068.7 1003.91   1
   3  -5   8 1307.58 130.080   1
   4   8  -4 9644.84 470.830   1
  -4  -8   4 8425.50 436.390   1
   2   8   6 13.9600 63.2900   1
  -2  -8  -6 51.6600 92.0500   1
   2   8   6 53.6300 77.4800   1
   3   9   1 13918.7 706.680   1
  -3  -9  -1 14131.6 631.630   1
  -3  -9  -1 16833.6 519.860   1
   3   9   1 11393.6 528.990   1
   1   0  12 34491.3 1000.59   1
   1   0  12 36367.0 903.630   1
  -4   3   8 15876.9 555.130   1
  -4   3   8 14461.8 767.470   1
   4  -3  -8 14491.2 705.930   1
   8   2   7 4126.70 193.400   1
   8   2   7 4237.50 198.110   1
   1   1  12 17.8000 96.1100   1
   1   1  12 56.5200 100.650   1
   3  -7  -1 21574.5 666.980   1
   3  -7  -1 22519.8 623.240   1
   1  -3  11 10310.9 581.950   1
   1  -3  11 11410.1 500.530   1
   7   7   5 9798.56 491.910   1
   7   7   5 11061.0 473.630   1
   7   7   5 10510.6 449.000   1
   1  -7   6 18051.3 496.400   1
   1  -7   6 18079.9 498.470   1
   6   8   4 31374.6 708.110   1
   6   8   4 25094.5 662.230   1
   6   8   4 29436.1 710.470   1
  -5  -8   3 16228.4 473.530   1
  -5  -8   3 13434.5 620.760   1
   5   8  -3 13812.0 656.370   1
   7  -2  -3 226.670 113.480   1
   3  -7   2 14351.5 618.240   1
   3  -7   2 15543.3 638.250   1
   3  -2  11 21343.4 584.410   1
   3  -2  11 20088.7 748.970   1
  -4  -4   9 51318.4 1145.25   1
  -4  -4   9 55336.7 816.070   1
  -3   5   7 8700.98 440.730   1
  -3   5   7 7875.96 473.630   1
   3  -5  -7 8216.90 462.860   1
   5  -4   7 41217.7 929.630   1
   5  -4   7 40045.4 907.290   1
   8   5   6 5540.39 287.060   1
   8   5   6 5287.16 247.490   1
   0  -8   4 61248.8 784.310   1
   0  -8   4 54035.6 817.070   1
  -3  -9   0 30509.6 879.090   1
   3   9   0 31081.0 893.530   1
  -3  -9   0 32000.5 789.970   1
   3   9   0 34515.7 760.320   1
   0   7   7 15913.2 479.780   1
   0  -7  -7 14763.8 731.340   1
   0   7   7 15978.6 547.410   1
   6   4  -7 1313.58 173.220   1
  -6  -4   7 1195.12 148.450   1
  -6  -4   7 1519.79 176.530   1
   7   5   8 13518.7 643.540   1
   7   5   8 12716.3 508.560   1
   7   5   8 13275.5 570.580   1
   6  -4  -2 46055.2 1081.01   1
   2   0  12 17481.5 482.000   1
   2   0  12 17199.1 643.620   1
   4  -1  11 1110.68 122.780   1
   4  -1  11 874.100 126.560   1
   7  -3   0 39405.1 959.830   1
   4  -6   4 33593.5 798.290   1
   4  -6   4 31770.3 891.360   1
  -3  -6   8 13742.9 607.290   1
  -3  -6   8 12212.4 620.320   1
   1  -6   8 34832.7 807.990   1
   1  -6   8 33614.5 764.830   1
   5   6   9 5771.24 339.450   1
   5   6   9 5750.15 311.420   1
   5   6   9 6681.71 311.880   1
   5   2  11 6382.52 395.900   1
   5   2  11 6380.55 355.500   1
   5   2  11 6298.46 342.840   1
   7   2   9 27632.3 671.790   1
   7   2   9 27643.3 663.930   1
   7   2   9 25912.0 717.230   1
  -3  -9  -2 6834.77 386.200   1
   3   9   2 6620.56 346.460   1
  -3  -9  -2 7088.80 370.550   1
   3   9   2 6674.92 326.930   1
   7  -2   6 14169.4 594.960   1
  -2  -2  11 11965.0 548.880   1
  -2  -2  11 11506.3 608.180   1
  -1   7   6 32380.8 901.310   1
  -1   7   6 36949.7 851.950   1
   1  -7  -6 33220.2 993.490   1
   7   6   7 25827.7 707.160   1
   7   6   7 30011.5 691.150   1
   7   6   7 25768.7 681.340   1
  -2   1  11 29867.9 912.390   1
   2  -1 -11 31743.6 988.760   1
  -2   1  11 30328.8 837.570   1
   1   4  11 8074.21 408.160   1
   1   4  11 7255.19 444.860   1
   2  -4  10 1094.02 163.940   1
   2  -4  10 1692.65 146.700   1
   7  -3   3 45435.8 1022.01   1
   2   9   1 8536.10 387.910   1
  -2  -9  -1 7436.66 465.630   1
   2   9   1 7201.70 466.540   1
  -2  -9  -1 7900.25 411.000   1
  -3  -5   9 19911.2 594.650   1
  -3  -5   9 23277.3 610.330   1
  -4   4   7 34365.0 883.170   1
   4  -4  -7 30900.6 833.490   1
  -4   4   7 24905.5 759.980   1
  -1  -7   7 1287.89 160.810   1
  -1  -7   7 1056.58 157.280   1
   9   3   2 34692.3 851.370   1
   9   3   2 34829.6 779.200   1
   2   9   0 42950.0 948.500   1
   2   9   0 38371.0 1118.00   1
  -2  -9   0 47004.2 1002.61   1
  -2  -9   0 38334.0 1060.11   1
  -6  -7   4 22350.4 689.040   1
   6   7  -4 24317.1 618.780   1
  -6  -7   4 23125.7 654.670   1
   7   3   9 78.2500 66.3600   1
   7   3   9 74.6900 82.8600   1
   7   3   9 58.5300 82.6600   1
   2  -7   5 14412.4 602.520   1
   2  -7   5 13615.8 584.040   1
  -2  -7   7 33183.5 918.320   1
   8  -1   4 15595.2 446.460   1
   8  -1   4 14910.0 643.150   1
  -1  -3  11 3087.90 229.200   1
  -1  -3  11 2740.56 243.170   1
   5   1  11 11386.0 503.710   1
   5   1  11 10255.3 511.500   1
   7   7  -2 5791.63 317.130   1
  -7  -7   2 4908.05 241.260   1
  -7  -2   6 40006.6 951.490   1
   7   2  -6 39164.8 1120.30   1
  -4  -9  -1 8545.31 423.500   1
   4   9   1 9301.75 502.330   1
  -4  -9  -1 9033.39 439.880   1
   4   9   1 7864.93 400.050   1
  -2  -8   5 23682.1 597.090   1
   8   6  -1 5459.29 287.470   1
   2   2  12 18679.2 625.870   1
   2   2  12 19459.4 557.140   1
   4   4  11 3801.43 225.600   1
   4   4  11 2964.63 205.830   1
   4   4  11 3372.89 209.530   1
   9   3   1 40014.0 880.360   1
   9   3   1 40289.7 960.010   1
   8   4   7 50569.8 1021.60   1
   8   4   7 43238.6 979.180   1
   9   3   3 3862.15 202.470   1
   9   3   3 4117.69 250.710   1
   9   3   3 3635.63 194.600   1
   0   0  12 24787.9 741.530   1
   0   0  12 25848.0 826.970   1
   6   7   7 134.580 89.9500   1
   6   7   7 55.7300 122.840   1
   6   7   7 55.0100 61.9100   1
   5   5  10 11.4000 82.7900   1
   5   5  10 75.9200 99.4300   1
   5   5  10 16.1500 65.5300   1
   8   0   6 10495.8 468.030   1
   8   0   6 9881.72 417.050   1
   4  -5   7 3119.03 192.420   1
   4  -5   7 2297.58 179.780   1
  -2  -9  -2 253.530 98.8000   1
   2   9   2 355.630 91.9700   1
  -2  -9  -2 358.710 120.550   1
   2   9   2 264.850 88.0900   1
   6  -3   7 32225.5 769.380   1
   6  -3   7 34230.4 803.330   1
   4   9   2 1686.27 140.550   1
  -4  -9  -2 1342.41 137.820   1
   4   9   2 848.040 134.630   1
  -4  -9  -2 1175.00 139.220   1
   9   2   2 17583.5 472.290   1
   9   2   2 18359.2 559.210   1
   3   9  -1 941.100 106.190   1
  -3  -9   1 916.540 184.230   1
   3   9  -1 940.710 132.030   1
  -3  -9   1 1070.05 142.410   1
   5  -5  -3 42027.4 1551.31   1
   2  -5   9 17913.0 466.980   1
  -1   6   8 33489.9 842.030   1
   1  -6  -8 31472.3 973.320   1
  -1   6   8 28874.6 813.530   1
   3   1  12 2339.84 194.810   1
   3   1  12 1780.72 183.140   1
   4   9   0 17362.6 465.250   1
  -4  -9   0 14011.8 409.480   1
   4   9   0 16829.4 450.030   1
  -4  -9   0 14941.0 507.770   1
   7   3  -6 6974.23 463.000   1
  -7  -3   6 6723.84 313.030   1
  -7  -3   6 5892.94 314.650   1
  -7  -5   5 27392.8 664.660   1
  -7  -5   5 30659.8 778.150   1
   1  -1  12 1349.92 133.900   1
   1  -1  12 1279.21 158.000   1
   8  -1  -1 333.670 101.810   1
   1  -8   3 651.110 98.5000   1
   4  -6  -3 2924.65 217.950   1
   4  -6  -3 3055.20 245.190   1
   3  -7  -2 808.240 110.680   1
   3  -7  -2 885.950 118.560   1
   2   9  -1 3844.77 243.620   1
  -2  -9   1 3760.48 312.610   1
  -2  -9   1 5002.49 211.280   1
   2   9  -1 3811.88 284.940   1
   9   4   2 6172.01 232.180   1
   1   2  12 16499.6 533.040   1
   1   2  12 15791.9 587.600   1
  -3   2  10 15453.9 493.780   1
  -3   2  10 15893.2 600.410   1
   3  -2 -10 15466.7 601.010   1
   5   3  11 32770.4 810.900   1
   5   3  11 31307.3 777.460   1
   5   3  11 30020.7 693.220   1
   1  -8  -3 8019.68 339.870   1
   1  -8  -3 6878.09 349.870   1
  -7  -6   4 75.0100 116.510   1
   7   6  -4 2.41000 101.360   1
  -1  -8   5 30069.5 718.550   1
   9   2   1 352.510 113.640   1
   9   2   1 263.040 93.3900   1
   5  -5   5 3810.13 213.070   1
   5  -5   5 3802.85 184.510   1
   3  -7   3 25125.3 595.820   1
   3  -7   3 25403.3 682.230   1
  -4   2   9 6793.30 340.650   1
   4  -2  -9 6981.87 438.000   1
  -4   2   9 7133.24 376.170   1
   9   2   3 19426.2 476.250   1
   9   2   3 22074.0 616.980   1
   9   2   3 20083.4 502.010   1
   8   6   5 792.320 121.370   1
   8   6   5 493.650 96.7700   1
   0   1  12 12850.8 574.070   1
   0   1  12 13310.2 430.030   1
   8   1   7 20760.0 490.640   1
   7   1   9 3371.20 185.300   1
   7   1   9 3811.77 174.260   1
   7   1   9 3602.52 219.160   1
   3   9   3 25293.8 591.080   1
   3   9   3 21285.2 654.490   1
  -3  -9  -3 23631.4 649.880   1
  -3  -9  -3 26228.1 737.910   1
  -3  -8   5 7307.18 407.550   1
   5   8   6 69.3900 105.560   1
   5   8   6 156.300 93.2200   1
   5   8   6 45.6600 55.4600   1
  -2   6   7 19907.8 667.770   1
   2  -6  -7 22291.7 754.200   1
  -2   6   7 25167.8 689.880   1
   6  -2  -6 1947.80 189.860   1
  -6   2   6 1907.52 171.710   1
   7  -3  -1 30404.5 726.810   1
  -7  -1   6 8701.58 372.740   1
   7   1  -6 7634.01 396.510   1
   3   2  12 12046.0 477.770   1
   3   2  12 12603.4 405.990   1
   9   4   3 15236.7 443.520   1
   9   4   3 16557.2 443.070   1
   9   4   1 5094.00 214.990   1
   0   5  10 6232.85 263.660   1
   0  -5 -10 5651.99 372.650   1
   0   5  10 5449.23 324.460   1
   2  -3  11 303.900 100.920   1
   2  -3  11 327.630 121.240   1
   5   7   8 15877.3 459.610   1
   5   7   8 17168.5 483.420   1
   5   7   8 15620.8 466.130   1
   6   4  10 24909.4 615.340   1
   6   4  10 25573.2 698.890   1
   6   4  10 26959.2 590.860   1
   6  -4   5 27095.3 658.540   1
   6  -4   5 29074.2 683.510   1
   1   7   8 1229.53 127.470   1
   1   7   8 1145.38 124.400   1
  -1  -7  -8 1078.78 166.130   1
   1   7   8 1019.78 112.310   1
   0  -7   7 5846.55 374.840   1
   0  -7   7 7244.31 345.260   1
   8   3  -4 3649.66 432.150   1
   8   3  -4 4041.89 210.280   1
   8   2  -4 22334.5 645.830   1
   8   2  -4 25641.2 725.120   1
  -8  -2   4 25158.6 680.880   1
   0  -1  12 39.8700 127.060   1
   0  -1  12 44.5000 103.930   1
  -5  -1   9 2536.51 189.180   1
   5   1  -9 2271.43 222.380   1
  -5  -1   9 2444.02 206.840   1
   7  -3   4 3969.97 217.470   1
  -5  -2   9 30095.0 838.470   1
   5   2  -9 33427.2 1011.21   1
  -5  -2   9 29177.5 773.910   1
  -4  -1  10 18327.5 583.850   1
   4   1 -10 19779.1 724.300   1
  -4  -1  10 21897.7 628.390   1
   9   3   0 1899.47 153.660   1
   9   3   0 1545.26 146.100   1
   6   8  -2 36150.5 774.890   1
  -6  -8   2 31011.8 755.700   1
  -6  -8   2 31777.2 771.050   1
   9   3   4 18510.3 471.790   1
   9   3   4 18810.9 452.980   1
   9   3   4 20580.8 612.890   1
   3   0  12 13913.6 459.210   1
   3   0  12 12414.8 473.250   1
   6   0  10 794.540 109.390   1
   6   0  10 703.990 124.140   1
   2  -1  12 1658.45 133.800   1
   2  -1  12 1218.43 162.170   1
   4   9   3 39695.2 934.940   1
   4   9   3 40278.5 1411.49   1
  -4  -9  -3 40061.5 887.440   1
  -4  -9  -3 40705.7 1436.18   1
   0   8   5 24084.1 647.100   1
   0  -8  -5 20493.4 676.610   1
   0  -8  -5 23105.3 665.640   1
   6   8   5 2410.10 157.030   1
   6   8   5 2448.21 154.740   1
   6   8   5 2151.18 189.970   1
   7   4   9 15119.0 446.020   1
   7   4   9 14552.5 438.320   1
   7   4   9 15005.5 431.870   1
   7   4   9 15037.3 515.120   1
  -3  -7   7 18323.1 498.330   1
  -3  -7   7 16656.3 568.940   1
  -3  -7   7 14219.8 533.740   1
  -1   3  11 12896.3 449.470   1
   1  -3 -11 11850.8 471.580   1
  -1   3  11 11727.3 488.240   1
  -8  -5   3 125.080 98.5400   1
   8   5  -3 52.3900 73.8300   1
  -1  -8  -6 2391.86 221.860   1
   1   8   6 2648.95 174.150   1
   1   8   6 2889.22 189.980   1
   4   9  -1 16805.4 674.640   1
  -4  -9   1 18914.9 492.630   1
   4   9  -1 17520.2 636.380   1
  -4  -9   1 15982.0 592.390   1
   8   0  -3 6640.41 309.370   1
   5   0  11 12839.8 477.420   1
   5   0  11 13687.3 437.170   1
   1   9   0 11295.4 331.090   1
  -1  -9   0 11592.6 573.880   1
  -1  -9   0 14815.8 418.350   1
   2   9   3 21507.7 602.020   1
  -2  -9  -3 23796.7 620.400   1
   2   9   3 24256.7 590.480   1
  -2  -9  -3 20423.5 622.790   1
   4   2 -10 23370.5 852.290   1
  -4  -2  10 25239.5 667.180   1
  -4  -2  10 19717.7 636.370   1
   2  -7  -5 1154.10 117.480   1
   2  -7  -5 1047.32 154.200   1
  -1  -9  -1 12294.6 415.940   1
  -1  -9  -1 10310.9 536.460   1
   1   9   1 13026.1 390.360   1
   9   2   0 8250.53 316.640   1
   9   2   0 9041.36 319.190   1
  -6   1   7 162.470 113.820   1
   6  -1  -7 219.410 109.760   1
   0   6   9 1413.59 148.080   1
   0   6   9 1097.87 169.050   1
   0  -6  -9 959.210 167.260   1
   9   2   4 311.970 66.0500   1
   9   2   4 378.520 123.500   1
   9   2   4 317.490 76.3800   1
   8  -1   5 11.1900 118.180   1
  -5  -6   7 6173.30 287.860   1
  -5  -6   7 5771.97 280.080   1
  -7   1   5 24358.1 659.870   1
   7  -1  -5 26953.3 716.410   1
   7   7   6 14105.4 382.790   1
   7   7   6 14599.6 402.290   1
   7   7   6 13609.6 486.220   1
   4  -3  10 17781.8 493.690   1
  -3  -4  10 2267.99 214.110   1
  -3  -4  10 2364.98 177.380   1
   9   4   4 10285.5 363.750   1
   9   4   4 11210.6 334.640   1
  -3  -9   2 1902.54 250.420   1
   3   9  -2 2303.20 257.470   1
  -3  -9   2 2174.71 166.650   1
   3   9  -2 2671.99 159.700   1
   9   4   0 38194.6 818.480   1
   6  -3  -5 18207.1 598.630   1
  -4   0  10 10733.3 393.230   1
   4   0 -10 11390.0 512.240   1
  -4   0  10 10261.3 488.010   1
  -5   3   7 1451.85 164.360   1
   5  -3  -7 1784.23 212.600   1
  -5   3   7 1792.49 181.000   1
   6  -4  -3 116.160 83.7700   1
   2   9  -2 29118.1 640.020   1
  -2  -9   2 31566.8 695.350   1
   2   9  -2 28696.0 773.190   1
   5  -3   9 13091.0 407.350   1
   4  -6   5 11214.8 379.630   1
   4  -6   5 12919.5 389.840   1
   7  -1   8 141.140 107.050   1
   1   9  -1 2132.95 145.480   1
  -1  -9   1 2018.72 155.700   1
  -7  -4   6 13669.7 447.540   1
  -7  -4   6 14680.6 480.490   1
   9   1   2 1163.16 164.090   1
   9   1   2 928.420 99.1100   1
   3   8   7 26288.2 654.120   1
   3   8   7 26676.6 684.890   1
   3   8   7 22763.3 616.420   1
   5   9   1 7076.94 337.090   1
  -5  -9  -1 6810.55 292.250   1
   5   9   1 7151.16 331.790   1
  -5  -9  -1 6577.85 316.120   1
   0  -4 -11 8603.20 478.410   1
   0   4  11 10017.7 438.640   1
   0   4  11 10324.2 403.570   1
   3   6  10 15577.5 496.420   1
   3   6  10 12109.3 379.990   1
   3   6  10 13139.4 428.990   1
  -2  -3  11 39274.4 1083.20   1
  -2  -3  11 43332.7 1532.17   1
   5  -2  10 3961.34 206.030   1
   2  -2 -11 5088.40 304.840   1
  -2   2  11 5338.75 258.820   1
   2   3  12 14882.0 530.990   1
   2   3  12 15457.2 478.120   1
  -1  -9  -2 464.430 116.470   1
  -1  -9  -2 525.700 97.3600   1
   1   9   2 503.360 97.3500   1
   8   6  -2 28265.2 659.910   1
  -8  -6   2 26156.8 638.400   1
   4  -5  -6 32480.7 820.360   1
  -4   5   6 34242.4 771.380   1
   8   4  -4 4437.77 232.810   1
  -5  -9  -2 3456.53 239.570   1
   5   9   2 2738.28 173.200   1
   5   9   2 3126.22 183.100   1
  -5  -9  -2 3073.77 200.990   1
   7   8   2 7052.89 329.940   1
  -7  -8  -2 5819.17 263.570   1
   7   8   2 7156.20 331.230   1
   6   2  -8 3704.02 275.350   1
  -6  -2   8 3548.89 226.470   1
  -8  -1   4 292.800 103.300   1
   8   1  -4 436.980 117.120   1
   8   1  -4 259.060 103.800   1
   5   0  -9 11582.6 529.790   1
  -5   0   9 10632.0 461.010   1
  -5   0   9 10308.2 413.160   1
   4  -4   9 4056.59 212.170   1
  -6  -6   6 12766.1 553.620   1
  -6  -6   6 11154.3 613.890   1
  -6  -6   6 12270.7 433.610   1
   5   3  -9 182.090 116.090   1
  -5  -3   9 251.900 94.0000   1
  -5  -3   9 471.490 104.510   1
  -5  -5   8 11423.8 431.290   1
  -5  -5   8 12753.7 438.730   1
   9   1   1 39476.5 811.920   1
   9   1   1 43958.7 1532.98   1
   8   7   2 24302.1 569.030   1
   8   7   2 25294.1 619.620   1
   0   2  12 19867.2 634.420   1
   0   2  12 25445.0 678.750   1
  -5   2   8 11485.0 437.290   1
  -5   2   8 10977.0 469.300   1
   5  -2  -8 12954.9 544.860   1
  -7  -8  -1 26605.4 689.080   1
   7   8   1 29832.4 658.220   1
  -7  -8  -1 28248.2 678.600   1
   7   8   1 24778.4 639.380   1
   5   8  -4 17711.7 496.760   1
  -5  -8   4 18174.7 503.010   1
  -5  -8   4 15191.8 471.450   1
  -3  -9  -4 17897.8 562.600   1
   3   9   4 16652.8 446.730   1
   3   9   4 12618.0 375.550   1
   0  -5  10 13545.6 409.560   1
   0  -5  10 13149.6 538.780   1
   9   1   3 4324.94 183.210   1
   9   1   3 4712.58 246.870   1
  -1  -5  10 14579.8 422.460   1
  -1  -5  10 11995.0 475.240   1
   8   5   7 7151.88 355.610   1
   8   5   7 9271.36 329.670   1
   0  -8   5 10072.1 341.460   1
   3  -7  -3 36015.1 895.510   1
   3  -7  -3 41397.9 1565.40   1
   4   8   7 9651.75 342.690   1
   4   8   7 8535.96 353.560   1
   4   8   7 9930.15 371.250   1
   7  -2  -4 34435.7 879.300   1
   8  -1  -2 18711.7 567.600   1
  -1   0  12 13388.5 526.200   1
  -1   0  12 13747.2 454.880   1
   9   5   2 11860.0 377.530   1
   3  -7   4 107.120 130.900   1
   3  -7   4 229.890 109.050   1
   8   7   1 1663.13 158.790   1
   3   3  12 3877.94 220.110   1
   3   3  12 3378.49 234.950   1
  -5  -9   0 36565.9 801.320   1
   5   9   0 36439.0 787.650   1
   5   9   0 28662.9 742.850   1
  -5  -9   0 29494.1 725.660   1
  -7  -7   3 15266.7 512.260   1
   7   7  -3 15249.4 462.850   1
   7  -3  -2 4441.60 232.950   1
   2   6  10 34159.2 763.480   1
   2   6  10 35838.4 835.150   1
   2   6  10 35870.3 878.050   1
  -6  -1   8 13110.6 473.310   1
   6   1  -8 13453.9 547.550   1
   9   3  -1 5479.92 264.250   1
   9   3  -1 6126.07 255.310   1
  -1  -6   9 2521.51 476.110   1
  -1  -6   9 2017.22 208.770   1
   1  -8   4 23298.6 695.650   1
   1  -8   4 25551.3 672.560   1
   9   3   5 10235.5 340.840   1
   9   3   5 10578.9 331.850   1
  -3  -1  11 37822.0 860.000   1
  -3  -1  11 35019.5 933.390   1
   8   3   8 9281.08 299.150   1
   8   3   8 8693.33 310.320   1
   8   7   3 7621.35 287.120   1
   8   7   3 7527.65 314.950   1
  -4  -8   5 53496.4 1811.55   1
   2  -8   0 2366.17 147.230   1
   2  -8   0 2395.42 175.390   1
   5   4  11 534.350 101.020   1
   5   4  11 561.100 100.910   1
   5   4  11 570.030 107.350   1
   7   8   3 134.270 103.220   1
   7   8   3 47.1300 78.6400   1
   7   8   3 66.6500 87.6000   1
   4   9   4 11106.0 373.170   1
  -4  -9  -4 11802.3 417.740   1
   4   9   4 11421.6 385.360   1
  -4  -6   8 38829.1 925.090   1
  -4  -6   8 39952.8 853.060   1
  -6  -5   7 42338.4 1513.00   1
  -6  -5   7 39080.0 1053.15   1
   4   1  12 2661.83 227.820   1
   4   1  12 3601.53 216.940   1
   9   5   3 339.420 91.3000   1
   9   5   3 308.510 78.5600   1
   3  -6  -6 562.020 109.430   1
  -3   6   6 575.010 132.040   1
   2  -6   8 30956.9 691.840   1
   2  -6   8 26683.5 655.870   1
   1  -8  -4 3907.67 272.460   1
   1  -8  -4 4518.52 242.970   1
   3  -6   7 19537.3 519.400   1
   3  -6   7 20902.9 528.650   1
   9   5   1 10412.4 347.350   1
   1  -2  12 14547.2 499.660   1
   1  -2  12 13700.1 553.640   1
   7   0  -6 1654.98 161.060   1
  -7   0   6 1718.39 183.660   1
   3   5  11 7871.72 348.300   1
   3   5  11 8465.41 335.300   1
   3   5  11 6765.12 340.040   1
   4   6  10 31355.5 824.170   1
   4   6  10 29211.0 731.080   1
   4   6  10 30207.7 669.600   1
   7  -2   7 17769.5 489.330   1
  -1  -1  12 -24.050 80.1900   1
  -1  -1  12 -59.540 120.720   1
   4   2  12 13867.1 578.660   1
   4   2  12 14325.4 441.450   1
   2  -8   1 38077.3 929.890   1
   2  -8   1 41235.0 1484.91   1
   8   2   8 16351.8 440.850   1
   8   2   8 16881.6 416.610   1
  -5  -7   6 5553.47 277.310   1
   7   0   9 23933.0 599.450   1
   7   0   9 22981.4 622.480   1
   2   8   7 16959.9 498.180   1
   2   8   7 15912.3 556.530   1
   2   8   7 15946.2 473.740   1
   8   6   6 16711.5 415.480   1
   8   6   6 18468.3 500.320   1
   7  -3   5 24854.5 606.490   1
  -4  -9   2 1767.97 162.470   1
   4   9  -2 1763.36 146.380   1
  -4  -9   2 2408.93 183.510   1
  -5  -9  -3 16648.6 541.910   1
   5   9   3 13702.9 422.440   1
   5   9   3 15743.2 447.200   1
   0  -2  12 19995.3 539.900   1
   0  -2  12 19855.1 671.350   1
   6   6   9 3172.06 170.070   1
   6   6   9 3358.39 210.680   1
   6   6   9 2820.72 181.180   1
   6   6   9 3412.21 180.390   1
   1   3  12 28384.9 726.370   1
   1   3  12 25676.4 749.220   1
  -6  -3   8 30746.6 748.420   1
  -6  -3   8 27510.1 819.990   1
   6   3  -8 32413.0 999.410   1
   3  -1  12 130.660 90.9100   1
   3  -1  12 5.23000 108.020   1
   7   8   0 14985.8 425.110   1
  -7  -8   0 16504.2 477.310   1
   9   2  -1 20368.2 553.920   1
   9   2  -1 21679.2 559.660   1
   3  -4  10 4728.11 215.060   1
  -3   0  11 302.570 141.670   1
  -3   0  11 242.180 121.790   1
   3   0 -11 181.450 109.630   1
   4  -2  11 11886.6 501.300   1
   4  -2  11 16913.6 501.030   1
  -4  -3  10 3566.12 262.070   1
  -4  -3  10 2983.98 217.570   1
   2   5  11 44736.2 1360.65   1
   2   5  11 46276.6 1937.74   1
   5  -5  -4 7134.68 399.030   1
  -5   5   4 7217.17 349.640   1
   2  -7   6 55949.5 2177.90   1
   2  -7   6 59405.0 2303.18   1
   0  -6   9 14070.6 604.020   1
   0  -6   9 15686.4 559.050   1
   4  -6  -4 20776.7 775.240   1
   2  -8  -1 2646.06 230.600   1
   2  -8  -1 2644.88 188.010   1
   9   1   0 32324.8 1015.85   1
   9   2   5 18064.3 592.520   1
   8  -2   2 42098.4 1275.44   1
  -1  -9   2 10366.2 430.820   1
   3   7   9 40834.8 1257.54   1
   3   7   9 42121.8 1291.36   1
   3   7   9 29182.4 954.660   1
  -2  -9  -4 35851.9 1155.76   1
   2   9   4 31596.2 1059.41   1
  -5   4   6 105.990 108.630   1
   5  -4  -6 132.390 95.2500   1
   8   0   7 967.340 107.580   1
   8   0   7 1159.29 128.530   1
  -1   1  12 11567.8 477.100   1
  -1   1  12 9938.39 461.280   1
   6  -2   9 5687.88 311.680   1
   8  -2   1 6370.08 348.310   1
   9   1   4 26518.5 895.410   1
   9   1   4 24461.0 748.760   1
   9   4   5 6423.68 303.620   1
   9   4   5 6520.06 324.420   1
   1  -7   7 15654.0 548.770   1
   1  -7   7 15306.9 577.390   1
   7   6   8 1091.19 161.150   1
   7   6   8 1286.33 130.930   1
   7   6   8 1120.60 127.050   1
   9   4  -1 13245.2 488.890   1
   8   7   0 2798.55 201.890   1
   0  -4  11 21792.9 950.740   1
   0  -4  11 25455.4 837.680   1
  -2  -6   9 3324.22 266.870   1
  -2  -6   9 3226.90 209.390   1
  -4  -5   9 1699.20 190.760   1
  -4  -5   9 1820.97 191.770   1
   1   9   3 17109.8 637.800   1
   1   9   3 15264.0 632.180   1
  -1  -9  -3 19454.0 698.110   1
   5  -5   6 14514.3 515.210   1
   5  -5   6 14337.0 512.220   1
  -3  -2  11 1901.75 237.300   1
   5  -4   8 39128.1 1176.54   1
   5  -4   8 41529.9 1226.69   1
  -6  -7   5 4799.66 284.000   1
  -6  -7   5 4617.02 370.930   1
  -6  -8   3 2540.08 212.120   1
   6   8  -3 3154.08 207.200   1
  -6  -8   3 2892.04 199.850   1
  -3   4   9 2225.93 243.730   1
   3  -4  -9 2089.67 239.810   1
  -3   4   9 2261.24 219.550   1
   1  -5  10 40623.2 1207.19   1
   1  -5  10 29944.8 1152.88   1
   6  -4   6 50.9100 107.830   1
   6  -4   6 190.140 94.5600   1
  -2  -5  10 32926.4 1059.18   1
  -2  -5  10 35642.7 1234.29   1
  -5  -9   1 3118.04 212.710   1
   5   9  -1 3776.70 233.160   1
  -5  -9   1 3028.29 227.050   1
   2  -8   2 19369.8 647.810   1
   2  -8   2 18431.7 641.600   1
   9   5   4 12342.7 432.570   1
   9   5   4 13659.5 481.450   1
   4   7   9 8758.89 421.190   1
   4   7   9 7812.71 400.860   1
   4   7   9 9988.94 421.690   1
   8   4   8 412.970 89.5500   1
   8   4   8 177.440 94.6400   1
   8   7   4 9068.20 387.790   1
   8   7   4 7396.76 361.300   1
   3  -3  11 3077.93 204.710   1
   8  -2   3 4466.41 268.910   1
   6   8   6 3061.32 218.100   1
   6   8   6 2503.00 172.080   1
   6   8   6 3442.71 199.990   1
   9   5   0 27.4900 76.7900   1
  -1   7   7 18587.5 726.130   1
  -1   7   7 20804.6 715.820   1
   1  -7  -7 19247.8 843.700   1
  -2   5   9 32345.1 1042.64   1
   2  -5  -9 32404.0 1192.15   1
  -2   5   9 30854.6 1102.45   1
   4   5  11 14326.7 525.970   1
   4   5  11 16877.9 638.450   1
   4   5  11 18192.6 663.360   1
  -2  -9   3 23778.8 755.340   1
   2   9  -3 19471.7 804.750   1
   2   9  -3 17272.4 657.510   1
   7   5   9 5355.55 292.390   1
   7   5   9 5856.25 329.090   1
   7   5   9 5913.13 304.310   1
  -4   1  10 702.730 152.070   1
   4  -1 -10 588.350 140.230   1
  -4   1  10 518.890 118.820   1
   7   8   4 21724.6 685.930   1
   7   8   4 19714.3 645.930   1
   7   8   4 19082.1 688.890   1
  -2   4  10 25064.1 977.470   1
  -2   4  10 26782.9 919.670   1
   2  -4 -10 23457.9 860.190   1
  -4  -7   7 9201.40 460.160   1
  -4  -7   7 7714.70 417.390   1
  -2  -8   6 2259.24 250.170   1
  -2  -8   6 2876.17 214.950   1
   2  -2  12 22307.9 736.120   1
   2  -2  12 17906.4 742.100   1
   6   5  10 3036.50 179.680   1
   6   5  10 3006.99 200.110   1
   6   5  10 3004.53 223.400   1
  -3  -9   3 29844.2 976.150   1
   4   0  12 34072.3 1080.94   1
   4   0  12 24617.5 896.600   1
  -1  -4  11 28168.0 900.000   1
  -1  -4  11 27467.5 1085.56   1
   2   7   9 46908.0 1885.84   1
   2   7   9 49770.9 2007.76   1
   2   7   9 37430.8 1194.58   1
  -2  -7  -9 38210.2 1304.70   1
   5   8   7 33760.4 987.300   1
   5   8   7 32243.5 1009.42   1
   5   8   7 33871.3 1100.04   1
   8  -2   0 4522.76 272.380   1
   6   7   8 15369.1 590.170   1
   6   7   8 14808.7 537.760   1
   6   7   8 17016.5 557.010   1
   8  -1   6 27938.5 871.210   1
   0   7   8 770.100 139.210   1
   0   7   8 665.090 135.800   1
   0  -7  -8 875.410 167.700   1
   5  -6   1 26508.0 864.110   1
   5  -6   1 24224.3 791.030   1
   1  -4  11 8010.42 376.790   1
   1  -4  11 7188.46 488.430   1
   5  -1  11 22514.2 778.380   1
   5  -1  11 20185.1 851.590   1
   4   3  12 10082.6 453.320   1
   4   3  12 12481.5 512.140   1
   6  -1  10 22709.4 754.730   1
   6  -5   1 102.270 115.090   1
   6   0  -8 9682.42 551.650   1
  -6   0   8 9811.54 541.110   1
   3  -5   9 38675.6 1149.39   1
   6  -3   8 6.95000 105.860   1
   6  -3   8 12.5400 98.2000   1
   2  -8  -2 40028.1 1232.99   1
   8   1   8 5730.93 284.940   1
  -1  -8   6 2984.10 215.930   1
  -1  -8   6 3260.32 220.670   1
   0  -9   0 43019.6 1280.04   1
   0  -9   0 27304.7 1134.73   1
   6   2  11 4195.22 273.080   1
   6   2  11 4209.19 234.240   1
   6   2  11 3650.93 249.100   1
   5  -6   0 15791.0 571.420   1
   5  -6   0 14032.8 553.090   1
  -5  -9  -4 5377.80 328.490   1
   5   9   4 4699.68 242.150   1
   5   9   4 4701.30 264.860   1
   1   6  10 13998.5 620.970   1
   1   6  10 15712.3 605.290   1
   6  -5   2 12227.5 471.730   1
   6  -5   2 11330.7 437.770   1
  -7  -8   1 13665.1 558.530   1
   7   8  -1 12231.2 468.720   1
  -7  -6   5 6548.80 363.970   1
  -3   5   8 2679.19 254.730   1
   3  -5  -8 2249.64 242.960   1
  -3   5   8 2973.65 228.450   1
   5  -6   2 3631.38 229.650   1
   5  -6   2 3463.22 235.980   1
  -1  -2  12 30675.7 1121.83   1
  -1  -2  12 37493.6 1186.18   1
   0  -9  -1 22575.4 722.620   1
   4  -5   8 3949.66 234.450   1
   4  -5   8 3715.36 235.390   1
   0  -8  -6 7862.84 496.160   1
   0   8   6 7540.62 377.650   1
   0   8   6 7677.48 354.190   1
  -8  -5   4 23536.3 785.400   1
   8   5  -4 27211.8 901.480   1
   6  -5   0 37057.3 1127.45   1
   1   5  11 10529.5 513.920   1
   1   5  11 11843.8 487.870   1
  -3   3  10 892.500 184.880   1
   3  -3 -10 780.610 152.930   1
  -3   3  10 853.120 123.300   1
  -5   1   9 22613.0 841.000   1
  -5   1   9 20141.7 805.850   1
   5  -1  -9 26408.3 1029.09   1
   7   2  10 5392.08 267.410   1
   7   2  10 5972.53 360.180   1
   7   2  10 6975.92 325.830   1
  -3  -9  -5 2921.33 220.880   1
   3   9   5 2590.22 178.090   1
   3   9   5 2680.08 191.120   1
  -8   0   4 24968.1 890.620   1
   8   0  -4 25351.2 903.010   1
  -3   1  11 24804.6 996.010   1
   3  -1 -11 23349.0 918.250   1
  -3   1  11 25533.1 865.570   1
  -5  -4   9 15508.5 636.400   1
  -5  -4   9 17345.0 675.750   1
  -3  -8   6 791.750 150.780   1
   9   1  -1 10092.0 442.590   1
  -1  -7   8 528.470 123.110   1
  -1  -7   8 383.460 128.620   1
  -1  -7   8 700.950 137.890   1
   0  -9   1 3161.68 196.210   1
   7   7   7 1258.07 189.970   1
   7   7   7 1196.14 132.260   1
   7   7   7 1157.65 148.400   1
   6  -4  -4 19089.2 691.450   1
   1  -5 -10 14861.9 698.510   1
  -1   5  10 18369.7 702.390   1
  -1   5  10 16249.3 704.150   1
   9   3  -2 14400.8 574.160   1
   9   3  -2 15824.1 561.160   1
   7   3  10 20002.5 665.800   1
   7   3  10 17737.8 612.940   1
   7   3  10 17815.9 661.420   1
   5   6  10 44463.2 1291.51   1
   5   6  10 41012.1 1281.38   1
   5   6  10 39698.1 1238.64   1
  -7  -5   6 5366.87 318.230   1
  -7  -5   6 5448.95 325.660   1
   6   3  11 15310.8 556.860   1
   6   3  11 16091.0 571.820   1
   6   3  11 16506.9 601.870   1
   8   7  -1 14079.6 535.470   1
  -8  -7   1 13027.5 499.720   1
   9   3   6 509.660 104.620   1
   9   3   6 568.240 93.0800   1
  -8  -6   3 16870.6 622.600   1
   8   6  -3 18589.1 641.570   1
  -4  -9  -5 6235.39 342.990   1
   4   9   5 6321.22 303.500   1
   4   9   5 6655.22 316.130   1
   3  -7  -4 15067.6 552.910   1
   3  -7  -4 16777.3 714.400   1
   8  -2   4 17754.6 634.990   1
  -8  -2   5 37.2100 170.190   1
   1  -6   9 1011.43 145.640   1
   8   3  -5 37921.2 1340.61   1
  -8  -3   5 40227.0 1258.33   1
   9   0   2 46515.7 1866.49   1
   9   1   5 9364.83 404.610   1
  -2  -7   8 20.4100 104.630   1
  -2  -7   8 21.8500 89.3400   1
  -2  -7   8 -5.9300 100.540   1
  -4   4   8 13955.8 563.890   1
   4  -4  -8 13038.4 613.410   1
  -4   4   8 11509.0 644.330   1
   4  -6   6 1893.81 175.320   1
   4  -6   6 1973.29 165.360   1
   6   1  11 8411.32 422.060   1
   6   1  11 10906.4 461.530   1
  -7  -2   7 10048.1 433.190   1
   7   2  -7 10035.0 558.660   1
   3  -7   5 7341.69 351.370   1
  -1  -9   3 44563.1 1292.01   1
   7  -3  -3 26278.0 902.440   1
   8  -1  -3 44056.6 1348.67   1
   6   4  -8 197.050 111.490   1
  -6  -4   8 242.870 124.000   1
  -6  -4   8 421.880 121.410   1
  -2   7   6 39324.6 1194.19   1
   2  -7  -6 32695.0 1152.45   1
   2  -8   3 19987.8 690.820   1
   2  -8   3 20926.3 696.210   1
   4  -3  -9 20052.2 831.890   1
  -4   3   9 19577.1 757.500   1
  -4   3   9 17116.2 749.570   1
   1   8   7 8296.60 408.650   1
   1   8   7 6278.58 362.370   1
  -1  -8  -7 6447.40 413.890   1
   0   3  12 12723.4 520.840   1
   0   3  12 12802.1 617.520   1
   9   0   1 7772.64 411.900   1
   4   9  -3 26161.3 926.080   1
  -4  -9   3 21829.2 902.340   1
  -4  -9   3 23187.8 759.850   1
   9   2  -2 9.18000 103.600   1
   9   2  -2 29.0000 90.9000   1
   9   5   5 15279.8 561.790   1
   9   5   5 14492.6 485.260   1
   6  -5   3 40133.9 1228.44   1
   6  -5   3 36898.8 1114.23   1
   5  -6  -1 14499.9 556.270   1
   5  -6  -1 14717.4 565.080   1
   0  -9  -2 125.580 110.370   1
   9   0   3 5258.47 297.080   1
  -1   2  12 12282.1 591.750   1
  -1   2  12 14942.5 589.090   1
  -6  -9  -1 4423.42 274.960   1
   6   9   1 4140.59 254.190   1
  -6  -9  -1 4055.68 239.960   1
   6   9   1 4857.43 258.540   1
   6   9   2 27357.0 870.920   1
  -6  -9  -2 24584.8 837.660   1
   6   9   2 29444.4 903.240   1
  -6  -9  -2 26952.4 888.050   1
   9   5  -1 34019.4 1041.59   1
   8   7   5 23529.1 728.420   1
   8   7   5 19100.0 662.660   1
   8  -2  -1 40637.8 1253.72   1
   1   9   4 9904.08 408.820   1
  -1  -9  -4 10030.0 500.770   1
  -5  -9   2 9117.77 500.450   1
  -5  -9   2 10356.1 406.740   1
   5   9  -2 9580.02 574.850   1
  -3  -6   9 25886.6 858.510   1
  -3  -6   9 24177.1 886.290   1
   9   2   6 9945.29 365.120   1
   3   4  12 10632.4 480.580   1
   3   4  12 9297.12 466.020   1
  -7  -3   7 12998.3 527.530   1
  -7  -3   7 11068.5 520.480   1
   7   3  -7 11542.1 609.300   1
   2   4  12 4186.38 265.520   1
   2   4  12 3098.14 242.340   1
   5  -6   3 1424.09 144.460   1
   5  -6   3 1215.79 155.100   1
   5   7   9 18120.7 588.610   1
   5   7   9 16484.0 607.260   1
   5   7   9 19086.2 701.930   1
   1  -8   5 31359.6 962.100   1
   7  -3   6 16922.2 585.950   1
   9   4   6 18777.7 647.790   1
   9   4   6 20974.3 675.220   1
  -3  -3  11 11995.2 509.010   1
  -3  -3  11 8555.17 427.200   1
   9   4  -2 814.560 111.550   1
   6  -2  -7 16403.3 670.980   1
  -6   2   7 14768.5 618.760   1
   1  -8  -5 44869.3 1342.60   1
   1  -8  -5 40594.6 1368.04   1
   7   8   5 14353.1 502.070   1
   7   8   5 13532.2 529.100   1
   7   8   5 15488.4 545.600   1
  -2   6   8 30432.1 979.750   1
   2  -6  -8 29079.4 1080.15   1
  -2   6   8 25672.6 986.900   1
   9   6   2 204.970 115.820   1
   6  -5  -1 15510.6 586.260   1
  -2  -9  -5 2266.79 242.160   1
   2   9   5 2184.67 170.990   1
   7   1  10 20866.2 687.750   1
   7   1  10 18805.4 707.080   1
   7   1  10 20173.7 728.640   1
   4  -7   1 641.170 117.560   1
   4  -7   1 774.270 144.300   1
  -1   6   9 64.9000 130.090   1
  -1   6   9 90.5400 104.470   1
   1  -6  -9 -90.480 105.960   1
  -2  -4  11 9014.89 424.700   1
  -2  -4  11 8681.56 513.700   1
   1  -4 -11 16726.9 729.700   1
  -1   4  11 18422.1 685.470   1
  -1   4  11 18517.3 759.480   1
   0  -7   8 12203.4 477.300   1
   0  -7   8 12913.2 475.500   1
  -2   3  11 25324.2 893.640   1
   2  -3 -11 23535.8 949.020   1
  -2   3  11 22896.9 893.220   1
   4  -7   0 29725.7 929.790   1
   4  -7   0 29420.6 972.490   1
   7   1  -7 657.940 102.520   1
  -7  -1   7 877.420 148.390   1
   0  -9   2 17591.3 601.230   1
  -7  -7   4 21061.8 799.970   1
   7   7  -4 23563.1 755.230   1
   8   6   7 14719.8 530.130   1
   8   6   7 17185.9 569.600   1
   9   6   3 33986.8 1015.28   1
   9   6   3 35211.8 1055.25   1
  -5  -8   5 26370.8 836.950   1
  -5  -8   5 22598.7 876.090   1
  -4  -4  10 5619.37 369.120   1
  -4  -4  10 5349.48 324.500   1
  -2   0  12 30699.3 1136.65   1
  -2   0  12 37257.9 1185.21   1
  -2  -1  12 6714.28 339.250   1
  -2  -1  12 6279.51 359.430   1
   8   5   8 14487.3 507.340   1
   8   5   8 13079.8 474.130   1
   0  -8   6 195.970 121.810   1
   0  -8   6 135.290 111.470   1
  -6  -9   0 17320.0 632.740   1
   6   9   0 20827.7 678.590   1
   6   9   0 16254.9 567.500   1
  -6  -9   0 15563.1 622.720   1
   2  -8  -3 15610.7 638.340   1
   2  -8  -3 14943.5 685.760   1
   7  -4   1 35033.3 1076.73   1
   9   6   1 14082.0 503.730   1
   6   9   3 41547.8 1202.71   1
   6   9   3 37692.9 1145.11   1
  -6  -9  -3 38358.0 1208.72   1
  -1  -7  -9 12088.5 604.010   1
   1   7   9 13040.3 551.660   1
   1   7   9 12995.4 485.500   1
   6  -3  -6 18655.1 699.430   1
   7  -4   2 22796.8 767.040   1
  -7   1   6 23508.1 836.980   1
   7  -1  -6 24241.3 876.430   1
   5   5  11 22074.0 951.430   1
   5   5  11 26237.5 908.300   1
   5   5  11 27330.0 857.670   1
   9   0   0 2391.87 204.990   1
   2  -4  11 38382.6 1145.61   1
   2  -5  10 12064.9 462.760   1
   8   1  -5 15398.0 684.680   1
   8   1  -5 17187.4 673.970   1
  -8  -1   5 17249.4 653.430   1
  -8  -4   5 968.280 119.400   1
   5   2  12 27479.7 906.640   1
   5   2  12 22281.1 780.050   1
   7  -2  -5 10366.3 476.410   1
   7   4  10 10926.0 482.520   1
   7   4  10 12966.2 469.570   1
   7   4  10 11121.9 430.110   1
  -3  -5  10 8827.65 613.180   1
  -3  -5  10 10167.3 420.870   1
   3  -2  12 10615.7 438.350   1
   3  -2  12 9099.15 550.560   1
   4  -7   2 8907.97 407.330   1
   4  -7   2 9726.22 470.480   1
   3   8   8 24982.7 829.510   1
   3   8   8 23888.3 800.640   1
   3   8   8 25256.5 795.750   1
   0  -3  12 4564.43 255.230   1
   0  -3  12 4189.29 307.340   1
   4  -1  12 11957.9 644.030   1
   4  -1  12 14357.9 567.240   1
   9   0   4 5152.81 338.750   1
   7  -1   9 11779.8 489.810   1
   5   9   5 6208.59 378.770   1
   5   9   5 7468.99 364.690   1
   5   9   5 6990.31 332.640   1
   7   8  -2 15602.1 692.230   1
  -7  -8   2 15628.7 612.580   1
   1  -3  12 5610.04 403.300   1
   1  -3  12 7798.10 392.850   1
   4  -6  -5 21398.0 819.190   1
  -4   6   5 21902.6 740.850   1
   2   9  -4 2402.85 189.040   1
   2   9  -4 2727.02 223.140   1
  -2  -9   4 2207.87 175.970   1
   5   1  12 114.300 110.610   1
   5   1  12 54.3500 86.3400   1
  -3  -7   8 3976.07 246.980   1
  -3  -7   8 2678.67 251.080   1
   4   8   8 19914.0 705.790   1
   4   8   8 16643.6 645.220   1
   4   8   8 19996.9 633.020   1
  -5   5   5 376.270 118.210   1
   5  -5  -5 295.580 137.300   1
   7  -4   0 169.400 127.560   1
   4  -7  -1 34840.1 802.930   1
   4  -7  -1 30916.1 700.040   1
  -3  -9   4 16590.9 421.670   1
   3   9  -4 16458.5 537.590   1
   6   4  11 2843.97 249.570   1
   6   4  11 3385.97 213.020   1
   6   4  11 3151.50 239.190   1
   7  -2   8 21895.1 499.100   1
  -6  -8   4 4145.78 334.720   1
   6   8  -4 4269.49 264.380   1
  -6  -8   4 3810.86 289.560   1
   8  -2   5 12153.9 399.020   1
   4   4  12 10153.5 384.870   1
   4   4  12 9674.88 349.600   1
   4  -5  -7 8021.78 382.770   1
  -4   5   7 8169.62 336.840   1
   6  -5   4 5868.92 354.090   1
   6  -5   4 6022.23 332.240   1
   1   4  12 11160.9 429.660   1
   1   4  12 10337.2 504.360   1
   0  -9  -3 12597.2 433.830   1
   7  -4   3 1916.98 186.720   1
   2   1  13 16185.5 589.770   1
   2   1  13 16025.4 482.460   1
   5  -6  -2 26587.8 658.990   1
   5  -6  -2 29364.0 671.570   1
  -4  -8   6 6937.28 283.200   1
   9   6   4 13393.2 339.350   1
   9   6   4 14307.7 389.950   1
   9   1  -2 18754.4 536.030   1
   6   0  11 14680.8 450.040   1
   8   0   8 6850.20 367.200   1
   8   3   9 20.8600 89.4800   1
   8   3   9 77.7800 69.8200   1
   6   8   7 17285.1 479.430   1
   6   8   7 14856.8 420.240   1
   6   8   7 14733.3 373.150   1
   5  -5   7 7620.57 298.730   1
   5  -5   7 8029.65 277.730   1
   1   0  13 9819.73 363.290   1
   1   0  13 10870.4 461.890   1
   9   6   0 6885.20 264.530   1
   6  -4   7 19411.8 471.920   1
   6  -4   7 21878.0 497.470   1
  -8  -7   2 378.580 121.070   1
   8   7  -2 285.560 135.640   1
   1   1  13 6329.63 451.390   1
   1   1  13 6359.19 350.300   1
   2  -7   7 781.600 163.880   1
   2  -7   7 760.120 116.350   1
   6  -1  -8 33387.8 972.990   1
  -6   1   8 29852.9 800.960   1
   5  -6   4 20831.8 468.630   1
   5  -6   4 22625.8 539.550   1
   5   3  12 2094.56 175.170   1
   5   3  12 1924.20 175.500   1
  -7  -4   7 5934.45 364.800   1
  -7  -4   7 5609.49 329.820   1
  -4   2  10 36540.6 913.740   1
   4  -2 -10 38041.6 895.590   1
  -4   2  10 37853.6 1022.54   1
   8  -1   7 30088.4 596.590   1
   8   2   9 14717.2 383.190   1
   8   2   9 16059.8 386.060   1
   2   0  13 8312.48 312.910   1
   2   0  13 7039.65 398.930   1
   2  -8   4 19204.3 545.320   1
   2  -8   4 21226.2 506.390   1
  -5  -6   8 7277.92 498.680   1
  -5  -6   8 7348.19 298.270   1
  -2   1  12 3473.56 288.780   1
  -2   1  12 4017.24 287.890   1
  -3   6   7 5794.27 330.710   1
   3  -6  -7 4904.04 370.940   1
   5  -3  -8 11933.1 497.290   1
  -5   3   8 10428.1 482.690   1
  -5   3   8 11863.1 473.260   1
  -2  -2  12 6951.64 376.290   1
  -2  -2  12 7061.90 307.450   1
   9   1   6 9012.54 270.600   1
   3  -6   8 10943.8 339.230   1
   3  -6   8 9664.93 331.740   1
  -6  -6   7 868.240 126.510   1
  -6  -6   7 709.890 136.610   1
  -6  -9   1 5683.73 337.170   1
   6   9  -1 5256.50 337.780   1
  -6  -9   1 5557.93 331.260   1
   5  -3  10 25651.5 537.830   1
   2   8   8 12849.5 433.640   1
   2   8   8 11999.2 373.700   1
   2   8   8 10545.3 371.390   1
  -6  -9  -4 6279.33 379.500   1
   6   9   4 7721.28 262.540   1
   6   9   4 6601.36 348.320   1
  -1  -3  12 910.990 154.750   1
  -1  -3  12 1077.16 148.080   1
   6  -5  -2 5214.16 312.470   1
   4  -7   3 36138.0 726.970   1
   4  -7   3 35532.8 686.270   1
   8  -2  -2 20391.4 523.860   1
   0  -5 -11 6046.55 450.530   1
   0   5  11 6604.13 447.740   1
   0   5  11 6092.52 392.670   1
   9   5   6 61.8500 78.9400   1
   9   5   6 83.2900 91.3100   1
   0   6  10 24367.3 655.840   1
   0   6  10 21677.5 714.300   1
   0  -6 -10 19823.3 693.780   1
  -1  -9   4 245.410 120.730   1
   0  -9   3 13032.1 355.700   1
   3  -2 -11 12662.7 575.100   1
  -3   2  11 12450.5 565.510   1
  -3   2  11 14261.8 484.740   1
   3   9   6 40127.5 782.810   1
   3   9   6 41485.0 820.770   1
   3   9   6 39586.5 684.040   1
   3   9   6 40531.8 828.140   1
   9   5  -2 11919.2 369.740   1
   9   0  -1 20836.9 508.820   1
   2   2  13 7739.68 317.510   1
   2   2  13 7061.70 386.740   1
   9   3  -3 563.160 131.810   1
   9   3  -3 397.080 108.160   1
   8   7   6 4449.04 284.190   1
   8   7   6 5099.58 272.710   1
   5   1 -10 1464.07 230.340   1
  -5  -1  10 1345.18 217.500   1
  -5  -1  10 1464.86 179.020   1
   4   9   6 15232.9 587.420   1
   4   9   6 14020.3 434.040   1
   4   9   6 14322.2 400.720   1
   7   6   9 23121.7 463.330   1
   7   6   9 18580.6 436.380   1
   7   6   9 22220.5 600.440   1
  -5  -2  10 9007.31 381.530   1
   5   2 -10 9232.58 488.840   1
  -5  -2  10 8361.62 387.050   1
   9   3   7 7433.64 253.590   1
   4  -4  10 12860.4 378.070   1
   7  -4  -1 23183.5 529.550   1
  -5  -7   7 33416.4 733.440   1
  -5  -9   3 9170.13 439.220   1
  -5  -9   3 11002.4 345.880   1
   5   9  -3 10607.1 563.540   1
   3   1  13 7466.97 398.580   1
   3   1  13 8063.33 335.270   1
   7   0  -7 25295.3 740.300   1
  -7   0   7 26495.0 701.910   1
   4  -3  11 3161.99 211.290   1
   2  -3  12 1460.93 215.790   1
   2  -3  12 1888.78 161.790   1
  -6  -7   6 17585.2 517.830   1
  -6  -7   6 18747.1 637.100   1
   9   0   5 20501.2 534.790   1
   9   0   5 18654.4 510.960   1
   8   4   9 23718.9 488.600   1
   8   4   9 21607.1 504.750   1
   8   4   9 20199.8 458.270   1
   2  -6   9 0.96000 99.3700   1
   2  -6   9 82.0700 80.2500   1
   4  -7  -2 42.4600 100.900   1
   4  -7  -2 73.0400 104.670   1
  -5   4   7 1240.79 158.890   1
   5  -4  -7 1144.93 181.430   1
   1   9   5 73.3600 84.5700   1
  -1  -9  -5 146.660 124.750   1
   5   8   8 6647.67 354.100   1
   5   8   8 7104.73 235.460   1
   5   8   8 6034.81 372.930   1
   7   0  10 412.310 117.760   1
   5   0  12 3508.55 254.280   1
   5   0  12 2956.70 266.040   1
   3  -7  -5 1245.90 168.100   1
  -3   7   5 1044.63 212.800   1
   9   2  -3 18045.2 495.170   1
   9   2  -3 17882.1 512.150   1
   7   8   6 9360.93 311.070   1
   7   8   6 7599.67 339.950   1
   7   8   6 7944.82 321.760   1
   1  -7   8 304.270 125.950   1
   1  -7   8 451.760 137.340   1
   7  -4   4 7256.11 288.850   1
  -4  -9   4 234.600 110.660   1
   4   9  -4 206.100 123.440   1
   5  -2  11 13794.2 1018.14   1
   0   0  13 6194.29 395.840   1
   0   0  13 6929.11 314.220   1
   6   6  10 18480.7 545.660   1
   6   6  10 16691.8 451.440   1
   6   6  10 19437.1 491.130   1
   7  -3  -4 5234.33 345.480   1
   1  -1  13 18974.3 492.510   1
   1  -1  13 16099.9 600.690   1
  -4  -1  11 17737.3 574.070   1
   4   1 -11 20006.3 772.010   1
  -4  -1  11 17479.6 607.110   1
   3   6  11 11880.4 396.870   1
   3   6  11 10166.8 385.970   1
   3   6  11 11491.6 386.330   1
   3  -7   6 25953.1 657.300   1
   3  -7   6 25798.7 625.540   1
   1   2  13 27136.7 650.190   1
   1   2  13 24820.7 794.540   1
  -8  -6   4 1187.41 183.020   1
   8   6  -4 1147.39 132.740   1
   3   2  13 9281.30 356.720   1
   3   2  13 8713.62 426.890   1
   5  -4   9 1466.22 148.980   1
   9   2   7 1384.81 120.580   1
   8   8   2 9523.42 306.420   1
   8   8   2 10692.7 325.240   1
   5  -2  -9 7920.66 409.560   1
  -5   2   9 5999.13 468.010   1
   8  -1  -4 1501.67 178.440   1
   2  -8  -4 4850.25 361.230   1
   2  -8  -4 5877.65 361.750   1
  -2  -8   7 4751.48 318.730   1
  -2  -8   7 5215.94 344.230   1
  -6  -5   8 18067.6 714.330   1
  -6  -5   8 18976.8 541.610   1
   6  -4  -5 17262.0 511.510   1
   9   4   7 114.070 69.1500   1
   9   4   7 114.660 77.5200   1
  -5  -5   9 5666.36 364.960   1
  -5  -5   9 5525.04 336.750   1
   9   6   5 153.100 112.760   1
   9   6   5 145.460 101.370   1
  -6  -2   9 17255.3 565.210   1
   6   2  -9 15899.0 644.760   1
   9   4  -3 7611.80 304.670   1
   7   7   8 22784.7 571.460   1
   7   7   8 21233.9 502.070   1
   7   7   8 25313.8 595.050   1
   1  -9   0 26849.9 550.040   1
   6   7   9 14645.2 455.660   1
   6   7   9 16645.0 493.700   1
   6   7   9 18282.8 394.080   1
   6   7   9 17161.1 405.750   1
   0   1  13 3446.25 255.860   1
   0   1  13 2716.57 234.370   1
   6  -2  10 10059.8 347.760   1
   0   8   7 9068.38 382.890   1
   0  -8  -7 10344.3 488.300   1
   0   8   7 11600.5 373.040   1
  -1   7   8 1408.57 152.520   1
   1  -7  -8 1609.32 234.370   1
  -1   7   8 1202.93 187.080   1
   8   8   1 22697.8 501.770   1
   3   0  13 924.780 198.000   1
   3   0  13 927.880 133.200   1
   8   1   9 6832.53 360.820   1
  -8   0   5 7698.09 350.050   1
   8   0  -5 8502.88 385.040   1
   8   5  -5 7814.74 303.490   1
  -8  -5   5 7581.11 335.190   1
   1  -3 -12 10307.4 527.280   1
  -1   3  12 11204.8 843.690   1
  -1   3  12 10143.2 482.870   1
   9   6  -1 5651.98 326.150   1
  -4  -2  11 194.440 122.570   1
  -4  -2  11 179.910 129.920   1
   4  -6   7 24815.4 538.840   1
   4  -6   7 25547.0 530.560   1
  -1  -8   7 26085.4 547.970   1
  -1  -8   7 25178.9 554.330   1
   8   8   3 9768.31 291.050   1
   8   8   3 9516.22 317.540   1
   3   7  10 3423.41 231.390   1
   3   7  10 3656.71 280.230   1
   3   7  10 3570.45 253.570   1
   2  -1  13 12715.2 567.820   1
   2  -1  13 13214.0 415.360   1
  -4  -6   9 5627.44 343.110   1
  -4  -6   9 5682.32 348.830   1
   7  -3   7 7747.44 289.570   1
   2   9   6 16765.3 467.100   1
   2   9   6 17121.5 469.400   1
   1  -9   1 59.0800 112.150   1
   1  -9  -1 12213.6 383.190   1
   6   1  -9 13334.8 496.770   1
  -6  -1   9 12832.2 449.370   1
   0  -9  -4 32378.4 829.630   1
  -3  -4  11 14246.7 534.870   1
  -3  -4  11 19152.9 524.270   1
   4   6  11 9927.25 395.300   1
   4   6  11 9027.63 370.010   1
   4   6  11 9446.06 339.440   1
   7   5  10 2559.89 206.670   1
   7   5  10 2883.70 203.860   1
   7   5  10 2714.07 193.240   1
   6  -3   9 3426.50 234.710   1
   6  -5   5 26382.8 589.680   1
   6  -5   5 24479.4 540.810   1
  -1  -6  10 7838.78 375.710   1
  -1  -6  10 10551.6 371.880   1
   2   6  11 10138.5 385.450   1
   2   6  11 8789.62 381.770   1
   5   0 -10 24245.2 799.340   1
  -5   0  10 24483.3 785.020   1
   0  -1  13 17027.1 504.970   1
   0  -1  13 16603.2 614.320   1
  -7  -6   6 19941.0 591.630   1
   1  -8   6 5902.04 316.470   1
   1  -8   6 7050.90 266.710   1
   5  -6  -3 1461.38 156.640   1
   5  -6  -3 1328.86 163.900   1
  -5  -3  10 11558.4 429.250   1
  -5  -3  10 10680.7 408.530   1
   4   0 -11 5358.73 403.600   1
  -4   0  11 4702.20 300.000   1
  -4   0  11 4858.10 379.870   1
   3  -8   0 5474.89 309.160   1
   3  -8   0 4960.73 301.210   1
   3  -8   1 19049.8 443.640   1
   3  -8   1 19559.5 522.430   1
   0  -5  11 81.7200 96.6100   1
   0  -5  11 168.090 106.360   1
   4   7  10 126.030 139.580   1
   4   7  10 62.9500 104.490   1
   4   7  10 52.8700 116.020   1
   7   8  -3 11517.3 370.100   1
  -7  -8   3 9347.33 405.240   1
   5   9   6 5708.33 351.360   1
   5   9   6 6637.01 328.860   1
   5   9   6 5902.73 350.450   1
   9  -1   2 592.950 142.900   1
   8  -2   6 1334.41 148.820   1
  -1   8   6 2389.43 215.670   1
   1  -8  -6 2267.47 217.630   1
  -6  -9   2 322.730 136.490   1
   6   9  -2 341.990 126.340   1
  -6  -9   2 471.970 117.920   1
   4  -7   4 1033.33 157.980   1
   4  -7   4 1307.50 186.720   1
   6   9   5 8179.78 317.740   1
   6   9   5 7690.49 331.840   1
   6   9   5 6804.76 361.490   1
  -1  -5  11 5398.81 399.520   1
  -1  -5  11 6836.16 374.410   1
   0  -6  10 4480.39 265.120   1
   5   4  12 7443.10 341.130   1
   5   4  12 7021.61 279.500   1
   5   4  12 8077.64 295.930   1
  -4  -7   8 3814.73 264.810   1
  -4  -7   8 3273.54 263.950   1
   6   3  -9 2462.47 237.560   1
  -6  -3   9 2221.43 198.900   1
   0   4  12 211.140 116.700   1
   0   4  12 131.040 105.890   1
  -3  -8   7 6488.17 358.490   1
   5  -6   5 8650.57 321.570   1
   5  -6   5 8830.51 309.450   1
   9  -1   1 6821.85 370.060   1
   3  -4  11 19788.6 507.440   1
   0   7   9 27635.4 870.980   1
   0  -7  -9 25210.6 749.590   1
   0   7   9 28914.4 701.640   1
  -2   7   7 11594.6 378.020   1
   2  -7  -7 10911.3 431.240   1
   4  -5   9 7141.52 286.480   1
   4  -5   9 6631.91 371.000   1
   8  -3   2 11826.9 423.420   1
   8   8   0 8318.89 284.120   1
   8   6   8 895.170 143.240   1
   8   6   8 895.170 117.980   1
   9  -1   3 17552.7 472.500   1
   8   2  -6 5212.06 382.620   1
  -8  -2   6 4956.17 298.500   1
   8  -3   1 65.3200 102.270   1
  -8  -3   6 258.750 123.070   1
   8   3  -6 274.920 118.600   1
   1   8   8 26299.7 634.450   1
  -1  -8  -8 21478.7 751.290   1
   1   8   8 20682.0 531.480   1
   7  -4  -2 10940.3 420.460   1
   3  -8  -1 8460.72 431.350   1
   3  -8  -1 8840.80 320.480   1
   3   5  12 25374.5 646.210   1
   3   5  12 21123.3 606.820   1
  -2   2  12 3323.08 315.040   1
   2  -2 -12 3442.97 285.550   1
  -2   2  12 3857.22 267.460   1
   2   7  10 10106.8 347.340   1
   2   7  10 11432.8 395.870   1
   2   7  10 11305.6 414.910   1
   6   5  11 6453.87 412.030   1
   6   5  11 7121.76 291.260   1
   6   5  11 6103.95 339.630   1
   6  -5  -3 18329.1 585.030   1
  -2  -3  12 136.170 143.600   1
  -2  -3  12 278.240 136.670   1
  -3 -10  -1 9860.18 337.750   1
  -3 -10  -1 7022.82 345.390   1
   3  10   1 8609.26 722.600   1
   9   1  -3 10164.3 424.690   1
   2   9  -5 2975.32 232.350   1
  -2  -9   5 3647.36 238.160   1
   3  -8   2 11800.1 393.400   1
   3  -8   2 12433.0 371.750   1
   8   8   4 23412.7 501.170   1
   8   8   4 23385.1 493.240   1
   2   3  13 950.560 138.430   1
   2   3  13 923.370 123.650   1
  -7  -7   5 110.780 105.570   1
   7   7  -5 15.0800 89.8700   1
   1  -9   2 33568.7 656.700   1
   1  -9  -2 19.9900 98.0600   1
  -2  -6  10 -40.350 120.120   1
  -2  -6  10 7.46000 112.260   1
  -8  -7   3 9557.56 353.710   1
   8   7  -3 10829.5 358.230   1
   9   0  -2 23145.1 638.980   1
   7   9   2 13587.9 399.620   1
   7   9   2 13433.9 371.330   1
  -7  -9  -2 12003.2 451.970   1
   4  -2  12 3901.64 266.050   1
   2  -8   5 4830.60 303.460   1
   2  -8   5 4624.80 265.380   1
   0  -9   4 2079.75 193.290   1
  -3 -10   0 384.220 131.720   1
   3  10   0 437.660 103.580   1
  -3 -10   0 336.570 113.260   1
   3  -5  10 9635.95 327.200   1
  -3   4  10 19784.5 709.990   1
   3  -4 -10 19427.6 598.040   1
  -3   4  10 21573.3 603.070   1
   7   9   1 2018.90 197.090   1
  -7  -9  -1 1965.74 188.990   1
   7   9   1 1393.48 198.180   1
   3   3  13 6859.82 436.550   1
   3   3  13 7625.84 311.990   1
   4  -7  -3 10126.9 379.300   1
   4  -7  -3 10307.3 389.250   1
   8  -3   3 13454.5 430.650   1
  -7  -5   7 13191.7 538.590   1
  -7  -5   7 15016.1 475.090   1
  -2   5  10 4355.13 315.960   1
   2  -5 -10 3438.34 308.700   1
  -2   5  10 3804.38 299.280   1
   2   5  12 23886.5 627.670   1
   2   5  12 21121.2 669.190   1
   8  -2  -3 2439.31 210.910   1
  -3  -9   5 8241.61 289.310   1
   3   9  -5 7868.19 419.610   1
   6  -1  11 429.990 132.130   1
  -4  -5  10 13706.9 426.610   1
  -4  -5  10 16111.1 544.520   1
   4  10   1 14080.2 426.470   1
  -4 -10  -1 14961.9 536.570   1
   4  10   1 15203.0 400.990   1
  -4 -10  -1 13984.7 453.240   1
   7  -4   5 17641.2 496.260   1
  -3 -10  -2 12960.6 446.320   1
  -3 -10  -2 11634.6 507.050   1
   3  10   2 9661.83 353.130   1
   9   7   2 20337.6 454.110   1
   9   7   2 20773.2 471.430   1
   9   1   7 11014.4 312.810   1
   4   1  13 30706.3 733.850   1
   4   1  13 23404.3 646.180   1
   3  -5  -9 4375.06 292.140   1
  -3   5   9 4230.08 314.490   1
  -3   5   9 3909.49 233.740   1
   0   2  13 16388.0 556.310   1
   0   2  13 18691.2 524.050   1
   1  -5  11 628.290 117.350   1
   4   2  13 24615.1 804.020   1
   4   2  13 23926.5 581.390   1
   8   5   9 630.430 97.3800   1
   8   5   9 601.670 121.980   1
  -5  -8   6 2.33000 135.400   1
   0  -8   7 14751.9 433.730   1
   0  -8   7 10776.0 414.450   1
   9   0   6 15944.9 456.580   1
   8  -3   0 36385.1 811.630   1
   9  -1   0 19871.5 537.580   1
   9   5   7 7133.03 237.010   1
   9   5   7 7315.77 275.600   1
  -4  -3  11 9892.70 385.650   1
  -4  -3  11 8253.78 411.460   1
   7   2  11 4788.99 255.630   1
   7   2  11 5492.96 257.170   1
   7   2  11 4847.91 285.480   1
  -4 -10  -2 23799.7 651.680   1
   4  10   2 27187.1 641.940   1
   4  10   2 26973.4 721.130   1
  -4 -10  -2 30291.6 727.040   1
   9   7   3 2890.05 172.530   1
   9   7   3 2719.65 163.390   1
  -7  -9  -3 18675.3 592.900   1
   7   9   3 17207.0 473.300   1
   7   9   3 17585.6 488.130   1
  -1  -7   9 15683.6 460.000   1
  -1  -7   9 14780.8 438.040   1
  -3  -1  12 334.980 122.930   1
  -3  -1  12 100.210 94.3700   1
   4  -6  -6 3259.37 263.530   1
  -4   6   6 3498.25 244.830   1
  -6   0   9 10041.1 441.390   1
   6   0  -9 11235.3 505.640   1
  10   3   2 4864.63 234.700   1
  -4 -10   0 4986.54 346.270   1
   4  10   0 4527.76 315.270   1
  -4 -10   0 5869.46 271.980   1
   4  10   0 5502.21 245.400   1
   9   7   1 17849.3 466.200   1
  -6  -8   5 7821.12 401.270   1
   6   8  -5 8441.02 315.590   1
  -6  -8   5 7254.49 346.600   1
   7   3  11 9332.61 386.760   1
   7   3  11 11538.3 353.100   1
   7   3  11 9335.76 346.570   1
   9   5  -3 795.110 147.740   1
  -1   0  13 21857.3 783.880   1
  -1   0  13 19712.0 551.370   1
   4   5  12 1454.16 155.210   1
   4   5  12 1616.56 173.340   1
   4   5  12 1943.79 182.200   1
   9  -1   4 13166.2 432.890   1
  -2 -10  -1 517.590 132.420   1
   2  10   1 758.440 123.880   1
  -2 -10  -1 791.010 151.900   1
   3  -1  13 28009.8 931.870   1
   3  -1  13 31955.1 714.900   1
   9   6   6 11534.6 344.100   1
   9   6   6 10189.4 331.170   1
   7  -2  -6 2026.47 212.490   1
  10   3   3 1974.18 189.030   1
   8   7   7 22.2600 85.2200   1
   8   7   7 49.7900 99.5700   1
   1  -2  13 119.880 110.580   1
   1  -2  13 -18.610 83.4000   1
   5  -5  -6 20143.2 625.210   1
  -2  -5  11 533.130 137.860   1
  -2  -5  11 393.340 127.170   1
   3  -3  12 11061.7 385.090   1
   2  10   0 6985.03 261.580   1
  -2 -10   0 5575.24 441.560   1
  -2 -10   0 7338.18 323.430   1
  -1  -9   5 10439.7 347.430   1
   5   7  10 955.520 137.270   1
   5   7  10 775.570 113.930   1
   5   7  10 843.380 110.100   1
  -2   4  11 9793.03 484.190   1
   2  -4 -11 9407.55 417.690   1
  -2   4  11 10460.8 398.210   1
  -8  -1   6 20107.7 586.500   1
   8   1  -6 18544.5 635.500   1
   0  -4  12 12721.3 586.350   1
   0  -4  12 16538.4 505.540   1
  -2  -7   9 22285.7 646.900   1
   5   6  11 4942.51 583.770   1
   5   6  11 5320.28 229.030   1
   5   6  11 5068.38 258.490   1
  -7  -9   0 17406.2 513.180   1
   7   9   0 16094.5 493.950   1
   7   9   0 19161.2 483.560   1
  10   4   2 14061.4 385.950   1
   1   3  13 252.900 86.9900   1
   1   3  13 527.510 104.320   1
   5  -1  12 2335.15 187.790   1
  -7  -2   8 358.260 147.550   1
   6   8   8 10689.5 357.230   1
   6   8   8 12441.7 423.460   1
   6   8   8 10371.0 402.730   1
  -3   0  12 9186.83 358.570   1
  -3   0  12 8515.39 507.650   1
   6   2  12 14069.0 539.250   1
   6   2  12 16047.2 454.460   1
  -8  -4   6 24901.0 640.100   1
  -8  -4   6 20988.2 659.000   1
  -3 -10   1 29836.7 893.770   1
   3  10  -1 35411.7 754.810   1
  -3 -10   1 39670.7 794.260   1
   8  -1   8 35.8100 94.4800   1
   1   6  11 19513.6 634.650   1
  -1  -6 -11 20686.0 679.020   1
   1   6  11 22365.8 592.370   1
  -5  -9   4 4450.16 230.960   1
  -5  -9   4 3389.74 280.570   1
   5   9  -4 5322.50 275.300   1
  -4   4   9 23.3700 120.230   1
   4  -4  -9 102.980 143.100   1
  -4   4   9 157.920 104.980   1
  10   3   1 12942.4 393.340   1
   3  -8  -2 27696.2 641.780   1
   3  -8  -2 25675.2 757.230   1
   9   6  -2 1818.67 190.910   1
   1  -6  10 4347.85 232.950   1
  -1  -1  13 7039.02 438.090   1
  -1  -1  13 8751.41 364.320   1
  10   4   3 16240.5 419.270   1
  10   4   3 17803.6 454.860   1
   6  -3  -7 5365.04 337.910   1
   0  -2  13 16556.2 568.490   1
   0  -2  13 15680.7 670.490   1
  -8  -8   1 100.540 110.620   1
   8   8  -1 11.6700 93.0000   1
   6  -4   8 27992.5 642.440   1
   6  -4   8 29306.7 666.300   1
   3  -8   3 3927.18 222.160   1
   3  -8   3 3932.45 235.190   1
  -4   1  11 21504.2 732.280   1
   4  -1 -11 22434.8 769.860   1
  -4   1  11 21928.1 612.940   1
   2  10   2 36726.7 755.970   1
  -2 -10  -2 40089.9 815.080   1
  -3 -10  -3 1407.96 186.120   1
   3  10   3 1269.73 141.520   1
  -3 -10  -3 1329.54 158.370   1
   3   8   9 116.790 82.7500   1
   3   8   9 25.4400 70.5500   1
   3   8   9 26.7600 97.1400   1
   9   3  -4 17306.0 534.750   1
   7   8   7 21057.9 589.990   1
   7   8   7 19004.0 467.380   1
   7   8   7 20308.2 503.620   1
   5  -5   8 7657.97 309.880   1
   5  -5   8 8293.54 322.110   1
  -7   1   7 347.030 137.260   1
   7  -1  -7 299.660 103.460   1
  -6   2   8 9514.64 410.390   1
   6  -2  -8 10497.6 501.160   1
   4   9   7 7588.25 289.000   1
   4   9   7 8330.91 287.570   1
   4   9   7 10268.9 402.850   1
   4   9   7 7755.35 349.320   1
   8  -3   4 11138.4 439.840   1
   3   9   7 17175.6 469.750   1
   3   9   7 17000.2 534.570   1
   3   9   7 15481.4 505.250   1
   1   9   6 13584.2 489.350   1
   1   9   6 16456.5 481.400   1
   7   3  -8 17355.2 704.650   1
  -7  -3   8 18662.7 572.820   1
   4   8   9 2183.96 178.840   1
   4   8   9 1984.14 194.410   1
   4   8   9 2247.16 146.070   1
  10   4   1 2462.72 181.910   1
   2  -6  -9 202.720 193.620   1
  -2   6   9 149.100 114.190   1
  -2   6   9 118.390 111.130   1
  -3  -2  12 17375.2 515.930   1
  -3  -2  12 15231.0 615.760   1
   4  10   3 397.580 90.4200   1
   4  10   3 438.050 103.960   1
  -4 -10  -3 500.870 136.650   1
   9   3   8 5920.33 228.480   1
   9   7   4 11.9700 98.3900   1
   9   7   4 22.2600 84.1100   1
   8   0   9 9258.97 319.470   1
   0  -7   9 10779.7 378.240   1
   0  -7   9 10909.9 349.720   1
   4   0  13 9942.57 351.180   1
   4   0  13 7724.38 425.100   1
  10   2   2 12293.2 405.320   1
   6   3  12 1232.02 135.370   1
   6   3  12 1301.45 125.590   1
   6   3  12 1151.85 123.410   1
  -1   1  13 4138.22 289.500   1
  -1   1  13 5434.59 279.670   1
   1  -4  12 5861.01 379.090   1
   1  -4  12 5220.86 234.940   1
  -5   1  10 176.950 154.540   1
   5  -1 -10 13.5300 115.470   1
   1  -9   3 16732.2 447.190   1
   1  -9  -3 23555.3 607.330   1
  -6  -4   9 7889.24 342.660   1
   2  -8  -5 12764.0 540.580   1
   2  -8  -5 14472.4 477.210   1
   8   8   5 4183.29 221.300   1
   8   8   5 4827.20 218.500   1
  -2 -10   1 13766.2 457.710   1
  -2 -10   1 10135.4 498.760   1
   7   1  11 11958.9 412.590   1
  -1  -4  12 5239.84 275.280   1
  -1  -4  12 4802.87 344.840   1
  10   3   4 25828.0 713.230   1
  10   3   4 25635.0 564.830   1
   9   7   0 6538.10 270.330   1
  -4 -10   1 17192.2 450.160   1
   4  10  -1 14267.2 587.300   1
   4  10  -1 15619.4 474.330   1
  -5  -4  10 2856.98 240.540   1
   6   1  12 299.160 126.830   1
   6   1  12 487.480 127.510   1
   7   9   4 -0.2600 101.290   1
   7   9   4 99.1700 115.630   1
   7   9   4 197.690 115.870   1
   7  -1  10 26685.2 696.880   1
   4   3  13 6986.31 315.190   1
   1  -5 -11 12765.0 552.010   1
   9   2  -4 13221.4 476.700   1
;
_shelx_hkl_checksum              91899
_shelx_res_file
;
    396.res created by SHELXL-2014/7
TITL 2013ncs0396
CELL  0.71075   7.7733   7.8240  10.4594   86.085   80.575   71.308
ZERR     2.00   0.0005   0.0005   0.0007    0.008    0.007    0.006
LATT   1
SFAC  C    H    CL   I    N    O
UNIT  22 18    2    2    2    4
TEMP -173
size 0.17 0.10 0.02
rem yellow plate
acta
FMAP   2
PLAN   20
htab
eqiv $1 -x,2-y,1-z
htab n1 o2_$1
mpla 9 c1 c2 c3 c4 c5 c6 c7 c8 n1 cl1 i1 c9
mpla c9 o1 o2 c10 c11
BOND $H
CONF
L.S.   4
rem EXTI    0.000000
WGHT    0.040900    0.132500
FVAR       5.06085
C1    1    0.084689    0.574615    0.645660    11.00000    0.01284    0.01692 =
         0.01924   -0.00202   -0.00408   -0.00268
C2    1   -0.016632    0.573811    0.769845    11.00000    0.01427    0.02126 =
         0.01910   -0.00364   -0.00173   -0.00200
AFIX  43
H2    2   -0.095623    0.682394    0.809673    11.00000   -1.20000
AFIX   0
C3    1    0.003739    0.407846    0.831566    11.00000    0.01557    0.02783 =
         0.01629    0.00023   -0.00155   -0.00526
AFIX  43
H3    2   -0.063093    0.401289    0.915361    11.00000   -1.20000
AFIX   0
C4    1    0.122693    0.248561    0.771236    11.00000    0.01713    0.01679 =
         0.02075    0.00493   -0.00487   -0.00438
C5    1    0.224931    0.246821    0.650522    11.00000    0.01390    0.01597 =
         0.02074    0.00008   -0.00377   -0.00133
AFIX  43
H5    2    0.304509    0.137373    0.612232    11.00000   -1.20000
AFIX   0
C6    1    0.206443    0.414217    0.586305    11.00000    0.01352    0.01701 =
         0.01681   -0.00153   -0.00384   -0.00273
C7    1    0.286006    0.466476    0.463971    11.00000    0.01264    0.01252 =
         0.01706   -0.00086   -0.00215   -0.00241
C8    1    0.211739    0.651795    0.452070    11.00000    0.01290    0.01628 =
         0.01690   -0.00155   -0.00328   -0.00309
C9    1    0.242665    0.784935    0.353399    11.00000    0.01437    0.01427 =
         0.01951   -0.00044   -0.00253   -0.00382
C10   1    0.400477    0.840689    0.151700    11.00000    0.02217    0.01615 =
         0.01968    0.00428   -0.00132   -0.00681
AFIX  23
H10A  2    0.458418    0.918535    0.187875    11.00000   -1.20000
H10B  2    0.286251    0.918299    0.121145    11.00000   -1.20000
AFIX   0
C11   1    0.530758    0.731115    0.041051    11.00000    0.03466    0.02271 =
         0.02052   -0.00086    0.00243   -0.01205
AFIX 137
H11A  2    0.568744    0.812511   -0.024739    11.00000   -1.50000
H11B  2    0.468623    0.661154    0.002360    11.00000   -1.50000
H11C  2    0.639185    0.648800    0.073954    11.00000   -1.50000
AFIX   0
N1    5    0.089853    0.715345    0.562776    11.00000    0.01392    0.01286 =
         0.01856   -0.00181   -0.00163   -0.00103
H1    2    0.029935    0.814004    0.576070    11.00000   -1.20000
O1    6    0.360136    0.712122    0.249359    11.00000    0.02060    0.01250 =
         0.01882    0.00197   -0.00010   -0.00442
O2    6    0.168527    0.946515    0.366219    11.00000    0.02402    0.01353 =
         0.02681   -0.00014    0.00228   -0.00182
CL1   3    0.141264    0.044161    0.856253    11.00000    0.02544    0.02280 =
         0.02419    0.00919   -0.00077   -0.00600
I1    4    0.481222    0.286662    0.337157    11.00000    0.01470    0.01248 =
         0.01706   -0.00153   -0.00130   -0.00172
HKLF 4
REM  2013ncs0396
REM R1 =  0.0216 for    2640 Fo > 4sig(Fo)  and  0.0221 for all    2739 data
REM    149 parameters refined using      0 restraints
END
WGHT      0.0411      0.1272
REM Instructions for potential hydrogen bonds
EQIV $2 -x+1, -y, -z+1
HTAB C5 I1_$2
HTAB N1 O2_$1
REM Highest difference peak  1.181,  deepest hole -0.440,  1-sigma level  0.108
Q1    1   0.4914  0.2514  0.2599  11.00000  0.05    1.18
Q2    1   0.4681  0.3169  0.4124  11.00000  0.05    1.01
Q3    1   0.5473  0.1906  0.3549  11.00000  0.05    0.85
Q4    1   0.5771  0.3183  0.3347  11.00000  0.05    0.75
Q5    1   0.4149  0.3879  0.3148  11.00000  0.05    0.74
Q6    1   0.3966  0.2384  0.3360  11.00000  0.05    0.72
Q7    1   0.0519  0.3247  0.7881  11.00000  0.05    0.43
Q8    1   0.1315  0.6742  0.4989  11.00000  0.05    0.43
Q9    1   0.2323  0.4179  0.5188  11.00000  0.05    0.42
Q10   1   0.0090  0.5754  0.6997  11.00000  0.05    0.41
Q11   1   0.2840  0.5772  0.4750  11.00000  0.05    0.41
Q12   1   0.3472  0.6875  0.5190  11.00000  0.05    0.40
Q13   1   0.1579 -0.0139  0.7838  11.00000  0.05    0.36
Q14   1   0.0237  0.5178  0.7968  11.00000  0.05    0.36
Q15   1   0.2021  0.2520  0.7359  11.00000  0.05    0.34
Q16   1   0.1185  0.1544  0.8050  11.00000  0.05    0.33
Q17   1   0.1895  0.3067  0.6421  11.00000  0.05    0.33
Q18   1   0.1780  0.4535  0.6364  11.00000  0.05    0.32
Q19   1   0.1413  0.5077  0.6021  11.00000  0.05    0.32
Q20   1   0.3634  0.2528  0.4243  11.00000  0.05    0.31
;
_shelx_res_checksum              51877
loop_
_space_group_symop_operation_xyz
'x, y, z'
'-x, -y, -z'
loop_
_atom_site_type_symbol
_atom_site_label
_atom_site_fract_x
_atom_site_fract_y
_atom_site_fract_z
_atom_site_U_iso_or_equiv
_atom_site_adp_type
_atom_site_calc_flag
_atom_site_occupancy
C C1 0.0847(3) 0.5746(3) 0.6457(2) 0.0165(4) Uani d 1
C C2 -0.0166(3) 0.5738(3) 0.7698(2) 0.0190(4) Uani d 1
H H2 -0.0956 0.6824 0.8097 0.023 Uiso calc 1
C C3 0.0037(3) 0.4078(3) 0.8316(2) 0.0204(4) Uani d 1
H H3 -0.0631 0.4013 0.9154 0.024 Uiso calc 1
C C4 0.1227(3) 0.2486(3) 0.7712(2) 0.0185(4) Uani d 1
C C5 0.2249(3) 0.2468(3) 0.6505(2) 0.0176(4) Uani d 1
H H5 0.3045 0.1374 0.6122 0.021 Uiso calc 1
C C6 0.2064(3) 0.4142(3) 0.5863(2) 0.0160(4) Uani d 1
C C7 0.2860(3) 0.4665(3) 0.46397(19) 0.0144(4) Uani d 1
C C8 0.2117(3) 0.6518(3) 0.45207(19) 0.0155(4) Uani d 1
C C9 0.2427(3) 0.7849(3) 0.3534(2) 0.0162(4) Uani d 1
C C10 0.4005(3) 0.8407(3) 0.1517(2) 0.0196(4) Uani d 1
H H10A 0.4584 0.9185 0.1879 0.023 Uiso calc 1
H H10B 0.2863 0.9183 0.1211 0.023 Uiso calc 1
C C11 0.5308(3) 0.7311(3) 0.0411(2) 0.0260(5) Uani d 1
H H11A 0.5687 0.8125 -0.0247 0.039 Uiso calc 1
H H11B 0.4686 0.6612 0.0024 0.039 Uiso calc 1
H H11C 0.6392 0.6488 0.0740 0.039 Uiso calc 1
N N1 0.0899(2) 0.7153(2) 0.56278(17) 0.0159(3) Uani d 1
H H1 0.030(4) 0.814(4) 0.576(3) 0.019 Uiso d 1
O O1 0.3601(2) 0.71212(19) 0.24936(14) 0.0179(3) Uani d 1
O O2 0.1685(2) 0.9465(2) 0.36622(16) 0.0232(3) Uani d 1
Cl Cl1 0.14126(8) 0.04416(8) 0.85625(5) 0.02534(12) Uani d 1
I I1 0.48122(2) 0.28666(2) 0.33716(2) 0.01543(6) Uani d 1
loop_
_atom_site_aniso_label
_atom_site_aniso_U_11
_atom_site_aniso_U_22
_atom_site_aniso_U_33
_atom_site_aniso_U_12
_atom_site_aniso_U_13
_atom_site_aniso_U_23
C1 0.0128(9) 0.0169(9) 0.0192(10) -0.0027(7) -0.0041(7) -0.0020(8)
C2 0.0143(9) 0.0213(10) 0.0191(10) -0.0020(8) -0.0017(7) -0.0036(8)
C3 0.0156(9) 0.0278(11) 0.0163(10) -0.0053(8) -0.0015(7) 0.0002(8)
C4 0.0171(9) 0.0168(9) 0.0207(10) -0.0044(8) -0.0049(8) 0.0049(8)
C5 0.0139(9) 0.0160(9) 0.0207(10) -0.0013(8) -0.0038(7) 0.0001(8)
C6 0.0135(9) 0.0170(9) 0.0168(9) -0.0027(7) -0.0038(7) -0.0015(7)
C7 0.0126(8) 0.0125(8) 0.0171(9) -0.0024(7) -0.0021(7) -0.0009(7)
C8 0.0129(8) 0.0163(9) 0.0169(9) -0.0031(7) -0.0033(7) -0.0016(7)
C9 0.0144(9) 0.0143(9) 0.0195(10) -0.0038(7) -0.0025(7) -0.0004(7)
C10 0.0222(10) 0.0162(9) 0.0197(10) -0.0068(8) -0.0013(8) 0.0043(8)
C11 0.0347(12) 0.0227(11) 0.0205(11) -0.0121(10) 0.0024(9) -0.0009(8)
N1 0.0139(8) 0.0129(8) 0.0186(8) -0.0010(6) -0.0016(6) -0.0018(6)
O1 0.0206(7) 0.0125(6) 0.0188(7) -0.0044(6) -0.0001(6) 0.0020(5)
O2 0.0240(8) 0.0135(7) 0.0268(8) -0.0018(6) 0.0023(6) -0.0001(6)
Cl1 0.0254(3) 0.0228(3) 0.0242(3) -0.0060(2) -0.0008(2) 0.0092(2)
I1 0.01470(9) 0.01248(9) 0.01706(9) -0.00172(6) -0.00130(6) -0.00153(6)
loop_
_atom_type_symbol
_atom_type_description
_atom_type_scat_dispersion_real
_atom_type_scat_dispersion_imag
_atom_type_scat_source
C C 0.0033 0.0016 'International Tables Vol C Tables 4.2.6.8 and 6.1.1.4'
H H 0.0000 0.0000 'International Tables Vol C Tables 4.2.6.8 and 6.1.1.4'
Cl Cl 0.1484 0.1585 'International Tables Vol C Tables 4.2.6.8 and 6.1.1.4'
I I -0.4742 1.8119 'International Tables Vol C Tables 4.2.6.8 and 6.1.1.4'
N N 0.0061 0.0033 'International Tables Vol C Tables 4.2.6.8 and 6.1.1.4'
O O 0.0106 0.0060 'International Tables Vol C Tables 4.2.6.8 and 6.1.1.4'
loop_
_geom_angle_atom_site_label_1
_geom_angle_atom_site_label_2
_geom_angle_atom_site_label_3
_geom_angle
N1 C1 C2 129.80(19)
N1 C1 C6 108.08(18)
C2 C1 C6 122.11(19)
C3 C2 C1 117.05(19)
C3 C2 H2 121.5
C1 C2 H2 121.5
C2 C3 C4 120.58(19)
C2 C3 H3 119.7
C4 C3 H3 119.7
C5 C4 C3 123.23(19)
C5 C4 Cl1 119.08(16)
C3 C4 Cl1 117.69(16)
C4 C5 C6 117.06(19)
C4 C5 H5 121.5
C6 C5 H5 121.5
C5 C6 C1 119.95(19)
C5 C6 C7 133.51(19)
C1 C6 C7 106.53(18)
C8 C7 C6 107.32(17)
C8 C7 I1 129.30(15)
C6 C7 I1 123.36(14)
N1 C8 C7 108.70(18)
N1 C8 C9 117.43(17)
C7 C8 C9 133.80(19)
O2 C9 O1 123.5(2)
O2 C9 C8 122.96(19)
O1 C9 C8 113.50(17)
O1 C10 C11 106.61(17)
O1 C10 H10A 110.4
C11 C10 H10A 110.4
O1 C10 H10B 110.4
C11 C10 H10B 110.4
H10A C10 H10B 108.6
C10 C11 H11A 109.5
C10 C11 H11B 109.5
H11A C11 H11B 109.5
C10 C11 H11C 109.5
H11A C11 H11C 109.5
H11B C11 H11C 109.5
C1 N1 C8 109.37(17)
C1 N1 H1 124(2)
C8 N1 H1 127(2)
C9 O1 C10 115.06(16)
loop_
_geom_bond_atom_site_label_1
_geom_bond_atom_site_label_2
_geom_bond_distance
C1 N1 1.361(3)
C1 C2 1.405(3)
C1 C6 1.417(3)
C2 C3 1.384(3)
C2 H2 0.9500
C3 C4 1.409(3)
C3 H3 0.9500
C4 C5 1.376(3)
C4 Cl1 1.752(2)
C5 C6 1.406(3)
C5 H5 0.9500
C6 C7 1.421(3)
C7 C8 1.383(3)
C7 I1 2.0660(19)
C8 N1 1.380(3)
C8 C9 1.463(3)
C9 O2 1.216(3)
C9 O1 1.330(2)
C10 O1 1.453(2)
C10 C11 1.515(3)
C10 H10A 0.9900
C10 H10B 0.9900
C11 H11A 0.9800
C11 H11B 0.9800
C11 H11C 0.9800
N1 H1 0.77(3)
loop_
_geom_hbond_atom_site_label_D
_geom_hbond_atom_site_label_H
_geom_hbond_atom_site_label_A
_geom_hbond_site_symmetry_A
_geom_hbond_distance_DH
_geom_hbond_distance_HA
_geom_hbond_distance_DA
_geom_hbond_angle_DHA
N1 H1 O2 2_576 0.77(3) 2.06(3) 2.821(2) 168(3)
loop_
_geom_torsion_atom_site_label_1
_geom_torsion_atom_site_label_2
_geom_torsion_atom_site_label_3
_geom_torsion_atom_site_label_4
_geom_torsion
N1 C1 C2 C3 179.0(2)
C6 C1 C2 C3 -1.6(3)
C1 C2 C3 C4 0.5(3)
C2 C3 C4 C5 0.4(3)
C2 C3 C4 Cl1 179.75(16)
C3 C4 C5 C6 -0.2(3)
Cl1 C4 C5 C6 -179.59(15)
C4 C5 C6 C1 -0.8(3)
C4 C5 C6 C7 -179.7(2)
N1 C1 C6 C5 -178.72(18)
C2 C1 C6 C5 1.7(3)
N1 C1 C6 C7 0.5(2)
C2 C1 C6 C7 -179.05(18)
C5 C6 C7 C8 178.7(2)
C1 C6 C7 C8 -0.4(2)
C5 C6 C7 I1 -2.8(3)
C1 C6 C7 I1 178.14(13)
C6 C7 C8 N1 0.2(2)
I1 C7 C8 N1 -178.26(13)
C6 C7 C8 C9 176.9(2)
I1 C7 C8 C9 -1.5(3)
N1 C8 C9 O2 1.2(3)
C7 C8 C9 O2 -175.3(2)
N1 C8 C9 O1 -179.20(16)
C7 C8 C9 O1 4.3(3)
C2 C1 N1 C8 179.1(2)
C6 C1 N1 C8 -0.4(2)
C7 C8 N1 C1 0.1(2)
C9 C8 N1 C1 -177.20(17)
O2 C9 O1 C10 2.2(3)
C8 C9 O1 C10 -177.42(16)
C11 C10 O1 C9 -178.33(17)

_cod_database_fobs_code 2241723
