#------------------------------------------------------------------------------
#$Date: 2015-09-26 05:23:37 +0300 (Sat, 26 Sep 2015) $
#$Revision: 158358 $
#$URL: svn://www.crystallography.net/cod/cif/2/24/11/2241105.cif $
#------------------------------------------------------------------------------
#
# This file is available in the Crystallography Open Database (COD),
# http://www.crystallography.net/. The original data for this entry
# were provided by IUCr Journals, http://journals.iucr.org/.
#
# The file may be used within the scientific community so long as
# proper attribution is given to the journal article from which the
# data were obtained.
#
data_2241105
loop_
_publ_author_name
'Gotoh, Kazuma'
'Tahara, Yuki'
'Ishida, Hiroyuki'
_publ_section_title
;
 Crystal structures of morpholinium hydrogen bromanilate at 130, 145 and
 180K
;
_journal_issue                   10
_journal_name_full               'Acta Crystallographica Section E'
_journal_page_first              1226
_journal_page_last               1229
_journal_paper_doi               10.1107/S2056989015017272
_journal_volume                  71
_journal_year                    2015
_chemical_formula_moiety         'C4 H10 N O +, C6 H Br2 O4 -'
_chemical_formula_sum            'C10 H11 Br2 N O5'
_chemical_formula_weight         385.01
_space_group_IT_number           2
_symmetry_cell_setting           triclinic
_symmetry_space_group_name_Hall  '-P 1'
_symmetry_space_group_name_H-M   'P -1'
_atom_sites_solution_hydrogens   mixed
_cell_angle_alpha                93.5321(7)
_cell_angle_beta                 112.9738(7)
_cell_angle_gamma                115.9508(7)
_cell_formula_units_Z            2
_cell_length_a                   8.62824(17)
_cell_length_b                   9.23087(18)
_cell_length_c                   9.46007(19)
_cell_measurement_reflns_used    15838
_cell_measurement_temperature    180.0(10)
_cell_measurement_theta_max      30.12
_cell_measurement_theta_min      3.00
_cell_volume                     598.67(2)
_computing_cell_refinement
;
RAPID-AUTO (Rigaku, 2006)
;
_computing_data_collection
;
RAPID-AUTO (Rigaku, 2006)
;
_computing_data_reduction
;
RAPID-AUTO (Rigaku, 2006)
;
_computing_molecular_graphics
;
<i>ORTEP-3 for Windows</i> (Farrugia, 2012)
;
_computing_publication_material
;
CrystalStructure (Rigaku, 2010) and PLATON (Spek, 2009)
;
_computing_structure_refinement
;
SHELXL-2014/7 (Sheldrick, 2015)
;
_computing_structure_solution
;
SIR92 (Altomare <i>et al.</i>, 1994)
;
_diffrn_ambient_temperature      180.0(10)
_diffrn_detector_area_resol_mean 10.000
_diffrn_measured_fraction_theta_full 0.998
_diffrn_measured_fraction_theta_max 0.997
_diffrn_measurement_device_type  'Rigaku R-AXIS RAPIDII'
_diffrn_measurement_method       \w
_diffrn_radiation_type           'Mo K\a'
_diffrn_radiation_wavelength     0.71075
_diffrn_reflns_av_R_equivalents  0.0260
_diffrn_reflns_limit_h_max       12
_diffrn_reflns_limit_h_min       -12
_diffrn_reflns_limit_k_max       12
_diffrn_reflns_limit_k_min       -12
_diffrn_reflns_limit_l_max       13
_diffrn_reflns_limit_l_min       -13
_diffrn_reflns_number            18199
_diffrn_reflns_theta_full        25.242
_diffrn_reflns_theta_max         30.00
_diffrn_standards_number         0
_exptl_absorpt_coefficient_mu    6.803
_exptl_absorpt_correction_T_max  0.294
_exptl_absorpt_correction_T_min  0.098
_exptl_absorpt_correction_type   numerical
_exptl_absorpt_process_details
;
(NUMABS; Higashi, 1999)
;
_exptl_crystal_colour            brown
_exptl_crystal_density_diffrn    2.136
_exptl_crystal_density_method    'not measured'
_exptl_crystal_description       block
_exptl_crystal_F_000             376.00
_exptl_crystal_size_max          0.400
_exptl_crystal_size_mid          0.340
_exptl_crystal_size_min          0.180
_refine_diff_density_max         0.585
_refine_diff_density_min         -0.447
_refine_ls_extinction_method     none
_refine_ls_goodness_of_fit_ref   1.088
_refine_ls_hydrogen_treatment    mixed
_refine_ls_matrix_type           full
_refine_ls_number_parameters     178
_refine_ls_number_reflns         3487
_refine_ls_number_restraints     2
_refine_ls_restrained_S_all      1.088
_refine_ls_R_factor_all          0.0221
_refine_ls_R_factor_gt           0.0185
_refine_ls_shift/su_max          0.001
_refine_ls_shift/su_mean         0.000
_refine_ls_structure_factor_coef Fsqd
_refine_ls_weighting_details
'w=1/[\s^2^(Fo^2^)+(0.0216P)^2^+0.3489P] where P=(Fo^2^+2Fc^2^)/3'
_refine_ls_weighting_scheme      calc
_refine_ls_wR_factor_gt          0.0444
_refine_ls_wR_factor_ref         0.0476
_reflns_number_gt                3188
_reflns_number_total             3487
_reflns_threshold_expression     'I > 2\s(I)'
_cod_data_source_file            lh5788sup1.cif
_cod_data_source_block           3
_cod_original_cell_volume        598.67(3)
_cod_database_code               2241105
_shelx_hkl_file
;
   0   1  -113087.65  121.88
   0   1  -112826.32  131.98
   0  -1   113208.95  122.74
   0  -1   113073.76  137.47
   1  -1  -1  228.24   22.10
  -1   1   1  235.98   12.91
  -1   1   1  195.46   11.95
  -1   1   1  197.47    5.83
   1  -1  -1  183.99   20.63
   0  -1  -1 6876.31   70.15
   0   1   1 6948.20   98.25
   0  -1  -1 6965.12   72.31
   0  -1  -1 7177.67   85.49
   0   1   1 7119.03   85.59
  -1   1  -119334.05  212.40
  -1   1  -119105.64  208.17
  -1   1  -119374.08  223.25
   1  -1   118376.44  212.00
   1  -1   118103.44  224.50
  -1   1  -119765.42  248.61
   1   1  -1 1160.50   22.34
   1   1  -1 1181.95   33.32
  -1  -1   1 1212.93   22.74
  -1  -1   1 1227.09   22.10
  -1  -1   1 1189.89   33.05
   1   1  -1 1229.71   27.59
  -1   0   212246.39  133.67
  -1   0   212593.45  114.58
   1   0  -212483.92  135.35
   1   0  -212363.13  134.24
  -1   0   212617.07  138.76
  -1   0   212375.74  132.82
   1   0  -212909.05  132.11
  -1   2   0 4764.50   76.38
  -1   2   0 4601.06   71.43
   1  -2   0 4494.03   55.30
   1  -2   0 4666.64   51.02
  -1   2   0 4697.09   82.64
   1  -2   0 4625.08   49.83
   1  -2   0 4708.11   70.17
  -1   0  -1 186931.   3623.
   1   0   1 182036.   3431.
  -1   0  -1 184867.   3512.
   1   0   1 186447.   3648.
   1   0   1 178878.   3437.
  -1   0  -1 185219.   3747.
  -2   1   144914.84  558.77
   2  -1  -145241.13  562.73
  -2   1   145572.05  517.45
   2  -1  -145317.95  632.31
  -2   1   145741.95  586.53
   1   1   0 4723.11   80.59
  -1  -1   0 4878.78   80.17
   1   1   0 4645.30   57.62
  -1  -1   0 4668.42   57.43
   0   1  -2 4144.19   66.54
   0  -1   2 4134.94   43.49
   0  -1   2 3998.33   67.82
   0  -1   2 3919.90  113.76
   0   1  -2 3845.47   69.09
   0   0  -2 1173.50   35.26
   0   0  -2 1287.46   52.68
   0   0   2 1212.32   51.00
   0   0   2 1217.33   34.39
   1  -1  -2 297805.   6681.
   1  -1  -2 294665.   6585.
  -1   1   2 298352.   6686.
  -1   1   2 303066.   6831.
   1  -1  -2 293947.   6601.
  -1   1   2 298830.   6726.
   0   2  -1 7689.85  124.01
   0   2  -1 8117.32   99.14
   0   2  -1 7864.42   78.34
   0  -2   1 8098.75   92.36
   0  -2   1 7712.52   90.86
   0  -2   1 7744.97  120.84
   1  -2   1 332661.   7914.
  -1   2  -1 322602.   7417.
  -1   2  -1 330699.   7819.
   1  -2   1 334469.   7663.
   1  -2   1 326048.   7648.
  -1   2  -1 325146.   7672.
   1  -2  -111110.47  168.54
   1  -2  -110660.83  131.95
   1  -2  -110921.73  112.20
  -1   2   110887.79  112.10
  -1   2   110492.34  104.26
  -1   2   110806.35  125.04
   0   2   0 189614.   3706.
   0  -2   0 195098.   3762.
   0   2   0 191162.   3737.
   0  -2   0 192614.   3769.
   0   2   0 193049.   3626.
   0  -2   0 197360.   3707.
   1   1  -2 181441.   3585.
  -1  -1   2 187572.   3531.
  -1  -1   2 185751.   3702.
  -1  -1   2 185250.   3570.
   1   1  -2 187889.   3533.
  -1  -1   2 184348.   3427.
  -2   1   055680.44  729.63
  -2   1   055595.17  777.51
   2  -1   054577.39  705.33
   2  -1   054030.77  745.94
  -2   1   054838.74  775.67
   2  -1   053377.03  779.47
   2   0  -1 8829.35   97.96
   2   0  -1 9210.68  126.82
   2   0  -1 8933.97   86.23
  -2   0   1 9130.52   87.57
  -2   0   1 9019.62  121.76
  -2   0   1 8933.84   81.60
  -2   2   1 1429.06   61.87
   2  -1  -2 458519.  11755.
  -2   2   1 1478.58   37.80
   2  -2  -1 1385.43   26.06
   2  -2  -1 1506.83   36.55
   2  -1  -2 447746.  11835.
  -2   1   2 444656.  11594.
   2  -2  -1 1436.36   36.50
   2  -1  -2 456018.  12029.
  -2   1   2 444393.  11200.
  -2   1   2 431975.  11256.
  -2   2   0 1263.91   58.82
   2  -2   0 1271.97   37.57
  -2   2   0 1261.69   27.03
  -2   2   0 1184.03   36.56
   2  -2   0 1330.20   29.39
   2  -2   0 1388.39   56.66
  -2   0   245813.15  531.30
  -2   0   246328.28  533.51
  -2   0   244571.43  567.93
   2   0  -244331.82  614.33
  -2   0   245018.83  575.67
   2   0  -243613.82  551.08
  -2   0   015244.77  166.38
   2   0   014378.88  222.33
  -2   0   015162.63  211.14
   2   0   014565.48  159.29
  -2   0   014617.33  219.34
   0   2  -2 229293.   5012.
   0  -2   2 247556.   4840.
   0  -2   2 235017.   4950.
   0  -2   2 228968.   4989.
   0   2  -2 228420.   4725.
   0   2  -2 226467.   4407.
   0   1   2 1475.76   31.10
   0  -1  -2 1505.19   31.41
   0  -1  -2 1467.69   44.60
   0   1   2 1558.92   44.40
   0   1   2 1474.94   49.63
   0  -1  -2 1403.61   47.74
   0   1   2 1521.79   46.03
  -1   1  -2 9253.40  115.32
   1  -1   2 9511.50  164.90
  -1   1  -2 9155.95  160.14
  -1   1  -2 9298.84  133.93
   1  -1   2 9051.48  166.00
   1  -1   2 8969.51  131.18
   0   2   1 217569.   4536.
   0  -2  -1 217803.   4431.
   0   2   1 219241.   4706.
   0  -2  -1 220796.   4369.
   0   2   1 220672.   4325.
   0  -2  -1 216868.   4527.
  -1  -1  -132662.34  338.84
   1   1   132128.24  358.75
   1   1   131166.97  437.79
  -1  -1  -131100.39  391.51
  -1  -1  -130703.31  434.05
   1   1   130689.96  387.46
   2  -2  -2  476.17   31.30
  -2   2   2  546.83   13.92
   2  -2  -2  524.41   48.99
  -2   2   2  518.12   32.30
  -2   2   2  511.68   30.11
  -1   0   334052.86  391.44
   1   0  -334417.60  478.96
  -1   0   332793.80  472.31
   1   0  -333985.96  397.73
   1   0  -333580.53  447.69
  -1   0   333434.43  439.02
  -2   1  -1 356802.   9103.
  -2   1  -1 358540.   9039.
   2  -1   1 347352.   8659.
   2  -1   1 336655.   8624.
  -2   1  -1 362559.   8911.
   2  -1   1 358076.   8648.
  -2   1  -1 379064.   9742.
   1   2  -1 222801.   4510.
  -1  -2   1 225673.   4562.
  -1  -2   1 217928.   4530.
   1   2  -1 217597.   4339.
   1   2  -1 211871.   4440.
  -1  -2   1 208881.   4292.
  -1   2  -2 103238.   1777.
   1  -2   298361.07 1820.46
  -1   2  -2 100812.   1702.
  -1   2  -2 103448.   1599.
  -1   2  -2 108102.   1686.
   1  -2   2 102952.   1822.
  -2   2  -123240.02  284.74
   2  -2   122206.90  298.47
  -2   2  -123248.17  308.61
   2  -2   123249.15  278.50
  -2   2  -123101.18  298.50
   2  -2   122490.16  293.34
   1  -2  -2 4707.60   64.39
   1  -2  -2 4917.61   63.38
  -1   2   2 4793.38   64.50
  -1   2   2 4947.08  125.28
   1  -2  -2 4646.38   82.36
  -1   2   2 4699.18   63.67
  -1   3   070400.21 1015.25
   1  -3   070355.88 1017.41
   1  -3   070943.86 1021.22
  -1   3   070571.31 1029.42
   1  -3   071563.54 1026.54
   1  -3   070959.37 1015.85
  -1   3   072196.69 1045.85
   1   1  -3 181908.   3494.
  -1  -1   3 184666.   3621.
  -1  -1   3 185308.   3427.
  -1  -1   3 184089.   3681.
   1   1  -3 178781.   3543.
   2   1  -1 316087.   7804.
  -2  -1   1 325197.   8192.
  -2  -1   1 355850.   8580.
  -2  -1   1 349608.   8241.
   2   1  -1 346940.   8106.
  -2  -1   1 358851.   8340.
   1   0   243897.37  710.70
   1   0   242810.90  629.60
  -1   0  -243589.94  633.59
  -1   0  -241884.16  673.10
   1   0   243688.00  581.64
  -1   0  -242402.31  563.75
   1   2  -211419.96  139.16
   1   2  -211799.59  134.74
  -1  -2   211555.24  140.63
  -1  -2   211849.62  157.34
   1   2  -211848.33  148.58
  -1  -2   211737.10  141.12
  -1  -2   211943.39  129.95
  -2  -1   2 231920.   4793.
  -2  -1   2 226613.   5081.
  -2  -1   2 235981.   4916.
  -2  -1   2 227383.   4822.
  -2  -1   2 240000.   4938.
  -2  -1   2 240347.   4933.
   2   1  -2 237184.   4905.
   1  -3   112178.99  122.49
   1  -3   112260.06  219.77
  -1   3  -112787.36  175.82
  -1   3  -111943.78  125.51
   1  -3   112111.94  150.43
  -1   3  -111971.60  199.91
  -2   3   0 110062.   1842.
   2  -3   0 110597.   1790.
   2  -3   0 110050.   1840.
  -2   3   0 107898.   1856.
   2   0  -332042.79  383.73
  -2   0   331748.73  369.17
  -2   0   331414.36  481.98
  -2   0   332593.58  427.51
   2   0  -331818.47  358.93
   2  -3   0 109134.   1774.
  -2   3   0 110405.   1845.
  -2   0   331305.89  407.30
   0  -1   323262.21  331.71
   0   1  -322300.97  315.46
   0   1  -322062.63  230.48
   0   1  -321435.36  317.86
   0  -1   323129.46  251.23
   0  -1   322146.85  332.88
  -2   1   3 326420.   7755.
   2  -1  -3 338148.   8014.
  -2   1   3 342144.   8228.
   2  -1  -3 331445.   7828.
   2  -1  -3 314542.   7656.
  -2   1   3 343677.   8178.
   1   2   0 3457.91   63.81
  -1  -2   0 3251.24   62.96
  -1  -2   0 3406.47   81.87
  -1  -2   0 3457.13   24.37
   1   2   0 3555.85   83.69
   2  -3  -136574.33  472.69
  -2   3   137080.44  440.75
  -2   3   136403.23  479.54
   2  -3  -136847.88  437.93
   2  -3  -135595.24  423.72
  -2   3   136437.43  473.05
   2  -3  -136659.27  540.19
  -1   1   3 323034.   7599.
  -1   1   3 314313.   7486.
  -1   1   3 326223.   7811.
  -1   1   3 319200.   7699.
   1  -1  -3 316962.   7574.
   1  -1  -3 313593.   7334.
   3  -1  -1 115737.   2022.
  -3   1   1 115754.   2170.
  -3   1   1 116395.   1949.
  -3   1   1 124800.   2067.
   3  -1  -1 116525.   1929.
   3  -1  -1 113915.   1809.
  -3   2   1 134209.   2407.
   3  -2  -1 134738.   2407.
   3  -2  -1 132831.   2344.
  -3   2   1 131385.   2322.
  -3   2   1 136854.   2308.
  -3   1   231767.59  316.42
  -3   1   230196.56  403.13
  -3   1   230645.39  387.41
   3  -1  -229728.13  391.48
   3  -1  -229745.96  372.01
   0   0   3 152005.   2819.
   0   0  -3 144639.   2800.
   0   0  -3 142788.   2583.
   0   0   3 144867.   2827.
   0   3  -1 1307.72   38.05
   0  -3   1 1322.60   42.94
   0  -3   1 1370.21   74.98
   0   3  -1 1433.43   42.52
   0  -3   1 1271.05   36.33
   1  -3  -167009.69  997.23
  -1   3   167378.65  947.44
  -1   3   166487.41  993.88
  -1   3   165833.80  943.40
   1  -3  -166860.63  960.63
   1  -3  -166617.60  930.61
   2   0   122640.65  455.89
  -2   0  -124451.67  329.90
   2   0   123598.50  308.68
   2   0   123286.94  259.36
  -2   0  -124839.74  330.73
  -2   0  -124365.64  373.55
  -2  -1   082399.62 1121.29
   2   1   081239.29 1084.61
  -2  -1   077394.87 1319.87
   2   1   074270.40 1265.98
   2   1   078560.78 1188.82
  -2  -1   079458.84 1208.92
  -3   2   2 180847.   3537.
  -3   2   2 184977.   3765.
   3  -2  -2 182584.   3559.
   3  -2  -2 180896.   3162.
   3  -2  -2 171674.   3036.
   3  -2  -2 182686.   3540.
   2  -3   1 447639.  12097.
  -2   3  -1 458530.  12317.
  -2   3  -1 444833.  11813.
   2  -3   1 445641.  11911.
   2  -3   1 455956.  12026.
  -2   3  -1 432663.  11406.
   0   2  -394742.12 1553.14
   0  -2   398219.71 1635.35
   0  -2   395670.50 1666.78
   0   2  -392137.92 1699.91
   0   3   0 3356.77   66.95
   0  -3   0 3523.74   62.52
   0   3   0 3414.68   75.38
   0  -3   0 3766.76   74.32
   0  -3   0 3456.20   68.10
  -2  -1   328568.93  344.10
  -3   2   0  195.14   26.99
  -2  -1   328480.20  373.93
  -3   2   0  256.73   34.67
  -2  -1   328669.51  383.07
   2   1  -328225.20  362.75
   2   1  -327473.54  382.85
   3  -2   0  190.24   32.36
  -3   2   0  135.70   27.52
  -2  -1   328847.32  369.63
   3  -2   0  215.49   31.91
   2   1  -327798.17  326.09
  -1   3  -2 269910.   6150.
   1  -3   2 266751.   5600.
   1  -3   2 255578.   5841.
  -1   3  -2 255058.   5377.
   1  -3   2 258181.   5724.
  -1   3  -2 258595.   5739.
   0  -3   234763.03  467.43
   0  -3   237112.14  411.82
   0  -3   234697.20  612.64
   0   3  -235114.22  406.75
   0   3  -235513.17  504.58
   0   3  -233992.57  454.84
  -1  -2   381920.45 1121.48
  -1  -2   380939.47 1263.90
   1   2  -379991.98 1230.96
  -1  -2   383244.99 1211.64
  -1  -2   382376.48 1369.55
   1   2  -379534.46 1397.69
  -3   0   241375.72  588.40
  -3   0   242756.79  548.78
   3   0  -241320.52  518.01
   3   0  -240657.79  685.07
   3   0  -242448.17  546.22
  -3   0   243284.28  515.89
  -3   1   037480.98  679.02
   3  -1   034875.00  448.46
   3  -1   034731.99  430.08
  -3   1   035645.86  550.18
  -3   1   035929.21  453.62
  -3   1   037072.37  515.48
   0   2   2 171861.   3447.
   0  -2  -2 161008.   2951.
   0   2   2 171847.   3235.
   0   2   2 170580.   3149.
   0  -2  -2 171878.   3379.
   0   2   2 175100.   3451.
   0  -2  -2 172346.   3289.
   3   0  -1 145572.   2568.
   3   0  -1 145390.   2545.
  -3   0   1 149414.   2644.
  -3   0   1 149658.   2762.
  -3   0   1 152493.   2989.
  -3   0   1 150629.   2974.
  -2   2   3  623.81   39.39
   2  -2  -3  556.92   39.28
  -2   2   3  640.95   38.39
  -2   2   3  625.29   23.83
   2  -2  -3  593.94   45.34
   2  -2  -3  604.59   37.69
  -3   3   121131.35  250.15
  -3   3   120746.27  275.24
   3  -3  -121112.23  223.25
   3  -3  -120859.42  279.11
   3  -3  -121032.01  277.15
  -2   3   272240.04 1116.19
   2  -3  -273923.93 1061.92
  -2   3   273003.44 1045.07
   2  -3  -271556.74 1099.21
   2  -3  -273238.43 1094.78
  -2   3   273297.73 1190.17
  -3   1   320220.52  259.13
   3  -1  -320734.32  194.63
  -3   1   319934.51  261.85
   3  -1  -320215.49  333.74
   3  -1  -320190.15  335.67
  -1  -1  -2 7790.50   89.78
  -1  -1  -2 8001.93  134.70
   1   1   2 8274.77  127.82
  -1  -1  -2 7660.84  218.03
   1   1   2 7764.21  132.68
   1   1   2 7982.59  150.96
  -2   2  -2 4531.15  102.99
   2  -2   2 4606.64  114.59
  -2   2  -2 4756.17  135.72
  -2   2  -2 4711.37  132.43
   2  -2   2 4318.85   97.59
  -2   2  -2 4653.15  116.46
  -3   3   0 106607.   1805.
   3  -3   0 108210.   1817.
  -3   3   0 104530.   1777.
  -3   3   0 106404.   1730.
   3  -3   0 104553.   1775.
   3  -3   0 105791.   1820.
   1   2   1 117626.   2153.
   1   2   1 120441.   1877.
  -1  -2  -1 113608.   2065.
  -1  -2  -1 115250.   1971.
   1   2   1 113360.   2085.
  -2   1  -2 196553.   4076.
   2  -1   2 179950.   3601.
   2  -1   2 183607.   3778.
   2  -1   2 178893.   3749.
  -2   1  -2 197499.   4262.
  -2   1  -2 201866.   4260.
   0  -1  -320529.84  300.22
   0   1   320441.66  263.20
   0  -1  -320330.81  257.50
   0   1   320266.24  312.47
   0   1   320250.07  278.29
   0   1   320147.98  292.61
   0  -1  -320191.95  288.51
   1  -1   3  314.37   41.22
  -1   1  -3  294.32   53.68
   1  -1   3  219.56   96.21
  -1   1  -3   83.62   64.84
   1  -1   3  209.10   56.28
  -3   0   351955.36  641.65
  -3   0   350666.83  714.57
  -3   0   351764.98  648.68
   3   0  -349850.58  712.83
  -3   0   350263.72  711.58
   3   0  -349355.88  694.42
  -3   0   350474.25  711.34
  -1   2  -3 147454.   2637.
   1  -2   3 143097.   2755.
   1  -2   3 138979.   2683.
  -1   2  -3 142810.   2809.
  -1   2  -3 151864.   2797.
  -1   2  -3 145588.   3006.
   1  -2   3 140653.   2506.
   3  -2  -315208.84  175.49
   3  -2  -315260.28  285.16
  -3   2   315553.86  219.47
  -3   2   315093.32  210.09
   3  -2  -315120.47  209.20
   3  -3  -285786.70 1234.35
  -3   3   285519.83 1378.64
   3  -3  -287622.76 1262.08
  -3   3   285264.99 1479.97
   3  -3  -284935.58 1372.36
   3  -3  -288102.32 1418.50
  -1   2   335383.64  474.87
  -1   2   334624.93  489.76
  -1   2   335127.70  461.74
   1  -2  -334283.84  485.96
   1  -2  -334420.99  442.63
  -1   2   334678.00  512.99
   1  -2  -333840.87  534.32
  -2  -2   2 3886.83   99.15
   2   2  -2 3865.62   87.20
   2   2  -2 3571.91   66.76
  -2  -2   2 3831.34   54.06
  -2  -2   2 3701.67   67.70
   2   2  -2 3662.19   50.82
  -2  -2   2 3915.99   88.35
  -2  -2   2 3621.35   69.38
   0  -3  -132557.55  388.18
   0  -3  -131621.05  462.28
   0   3   131498.90  464.85
   0  -3  -131275.82  423.33
   0   3   131802.70  355.83
   0   3   131563.91  424.60
  -1   3   294562.30 1598.60
  -1   3   296584.34 1561.83
   1  -3  -295709.04 1613.43
   1  -3  -294531.49 1525.01
  -1   3   295673.99 1510.14
   1  -3  -295428.99 1496.41
  -2   0   4  642.18   48.88
   2   0  -4  612.02   32.44
  -2   0   4  725.84   86.46
  -2   0   4  641.78   44.55
   2   0  -4  576.87   27.84
  -1   0   4 2655.70   50.28
  -1   0   4 2667.64   79.59
  -1   0   4 2595.81  153.94
   1   0  -4 2573.01   93.39
   1   0  -4 2755.92   82.14
   1   0  -4 2577.35   80.44
  -1  -1   4  895.29   33.61
   1   1  -4  922.63   59.70
  -1  -1   4  974.08   54.48
   1   1  -4  576.81   84.90
   2   2  -116723.87  367.66
  -2  -2   117781.17  376.72
   2   2  -116951.71  218.97
  -2  -2   116989.45  225.36
  -2  -2   118219.19  181.09
  -2  -2   117572.79  178.26
   2  -3   2  629.42   57.89
  -2   3  -2  897.62   60.40
  -2   3  -2  759.27   30.74
   2  -3   2  747.75   50.59
   2  -3   2  665.65   48.41
   3  -2   122656.47  355.91
  -3   2  -125767.89  395.95
  -3   2  -125954.56  382.28
   3  -2   123685.20  324.83
  -3   2  -125023.25  376.91
  -3   2  -124969.29  343.50
   3  -2   124549.45  350.79
   2  -4   059787.99  858.45
  -2   4   059112.66  867.73
   2  -4   058568.51  835.66
   2  -4   059963.08  851.67
   2  -4   059380.67  882.34
  -2   4   059989.51  896.66
  -3   0   014503.07  155.29
  -3   0   015164.85  273.62
   3   0   013994.88  181.09
   3   0   013959.41  145.72
  -3   0   014401.42  376.99
   3   0   013102.12  368.46
  -3   0   014793.35  197.07
   1   3  -168752.30 1097.51
   1   3  -168669.28 1135.83
  -1  -3   171390.74 1241.98
  -1  -3   172261.84 1110.89
   1   3  -169375.00  976.83
  -1  -3   173937.12 1093.71
  -1  -3   299965.70 1654.29
  -1  -3   2 101583.   1673.
  -1  -3   2 101836.   1654.
  -1  -3   296326.63 1638.61
   1   3  -2 100973.   1667.
   1   3  -298277.05 1723.89
  -2  -1  -1 167768.   3243.
  -2  -1  -1 160174.   3283.
   2   1   1 166442.   3416.
   2   1   1 165160.   3198.
  -2  -1  -1 167819.   3061.
   2   1   1 164518.   2957.
   0   3  -322363.20  315.56
   0  -3   322237.73  469.11
   0   3  -323255.45  358.51
   0  -3   322975.36  321.74
   1  -4   145783.15  652.32
  -1   4  -145983.80  631.05
  -1   4  -149363.18  832.37
   1  -4   145576.64  745.41
   1  -4   146360.22  664.42
   1  -4   147977.51  622.92
   2  -1  -4  387.19   33.32
  -2   1   4  400.75   41.16
  -2   1   4  333.54   44.58
   2  -1  -4  443.56   43.50
  -2   1   4  442.86   35.98
  -1   0  -3 4143.69  151.61
  -1   0  -3 4589.37  130.34
   1   0   3 4247.32  129.04
  -1   0  -3 4347.55   91.35
   1   0   3 4461.97   89.92
   1  -4   0  488.72   38.34
  -1   4   0  459.04   33.55
   1  -4   0  503.22   66.48
   1  -4   0  509.75   53.08
   1  -4   0  550.21   36.96
  -1   4   0  620.01   39.16
  -1   4   0  550.30   38.76
  -2  -2   3  123.52   25.35
   2   2  -3   96.08   25.08
  -2  -2   3   91.30   19.31
  -2  -2   3  122.30   24.05
  -2  -2   3   54.79   25.01
  -2  -2   3   98.74   31.15
  -2  -1   496183.67 1665.20
  -2  -1   498301.82 1564.18
  -2  -1   4 101223.   1675.
   2   1  -495447.94 1525.98
  -2  -1   497983.22 1698.14
   2   1  -495311.84 1484.24
   2   1  -496412.59 1782.71
  -2   4  -1 3695.80  100.57
   2  -4   1 3770.94   60.45
  -2   4  -1 3726.10   79.68
  -2   4  -1 3847.91   94.50
   2  -4   1 3785.34   79.08
   2  -4   1 3693.80   95.81
  -3  -1   2 5044.24   68.00
  -3   3  -1 7990.76  188.41
  -3  -1   2 5135.39  182.70
  -3   3  -1 8101.03  138.67
   3  -3   1 8049.60  138.16
  -3   3  -1 8043.79  214.57
   3  -3   1 7918.42  146.12
  -3  -1   2 5047.63   73.37
   3   1  -2 4872.18  103.27
   3  -3   1 7910.19  122.75
  -3  -1   2 4956.15   91.33
  -3  -1   2 5547.97  135.48
  -2   4   127107.42  378.76
   2  -4  -126926.89  355.16
   2  -4  -126340.53  332.19
  -2   4   126961.90  344.00
   2  -4  -126836.67  339.24
  -2   4   127092.31  359.84
   2  -4  -127064.84  363.52
  -3   1  -119227.49  308.95
  -3   1  -118739.06  431.14
   3  -1   117539.83  275.94
  -3   1  -118183.22  431.42
  -3   1  -119114.77  248.43
   3  -1   116483.88  294.58
   3  -1   117062.05  258.54
  -2   0  -231937.55  488.84
   2   0   229909.25  479.11
   2   0   229652.95  449.41
  -2   0  -229921.03  474.06
   2   0   228920.17  375.82
  -2   0  -230583.62  404.73
  -1   3  -3 5159.22  119.97
   1  -3   3 4620.85  136.40
  -1   3  -3 5363.90  136.23
   1  -3   3 4672.59  175.19
   0   1  -4 3800.43  110.84
   0  -1   4 3652.78  125.23
   0  -1   4 4047.47   63.88
   0   1  -4 3833.21   57.20
   0   1  -4 3744.60  123.50
   0  -1   4 4217.89  113.48
  -1   1   489544.86 1690.33
  -4   2   229999.70  310.68
   1  -1  -489299.67 1558.95
  -1   1   487153.56 1462.74
  -4   2   228132.38  420.69
   1  -1  -486487.13 1410.32
  -4   2   228184.09  389.92
  -1   1   491439.26 1488.17
   4  -2  -228344.12  480.18
   4  -2  -227783.71  406.09
  -1   1   489134.94 1464.61
  -1  -2   498191.45 1678.62
  -1  -2   4 101067.   1463.
   1   2  -493452.82 1641.41
   1   2  -493772.01 1554.72
  -1  -2   497119.46 1758.38
  -1  -2   496456.34 1441.39
  -1  -3   0  375.56   50.02
   1   3   0  334.31   38.54
  -1  -3   0  324.98   37.89
  -1  -3   0  304.07   13.19
   1   3   0  319.87   50.44
  -3  -1   1 126052.   2468.
   3   1  -1 122019.   1973.
   3   1  -1 114109.   2207.
   3   1  -1 123301.   2118.
  -3  -1   1 120629.   2331.
  -3  -1   1 127866.   2082.
  -3  -1   1 126284.   2203.
  -3  -1   351533.52  686.76
  -3  -1   353200.49  952.51
  -3  -1   351044.21  685.99
  -3  -1   350685.74  725.32
  -3  -1   349924.77  721.77
  -3  -1   350986.71  715.46
   3  -1  -4  494.49   47.29
  -3   1   4  537.20   36.62
  -3   1   4  516.47   48.71
   3  -1  -4  549.20   20.29
  -3   1   4  565.87   44.99
   3  -1  -4  535.45   39.51
  -3   1   4  464.20   47.04
  -2  -2   0 2367.86   99.45
   2   2   0 2326.69  101.03
   2   2   0 2552.14  115.00
  -2  -2   0 2413.85  115.82
   4  -2  -1 236649.   5210.
  -4   2   1 247139.   5753.
   4  -2  -1 229484.   4778.
   4  -2  -1 235701.   5065.
  -4   2   1 238144.   5246.
  -4   2   1 241228.   5242.
   1  -4   293678.99 1654.62
  -3   4   1 2961.15   79.15
   3  -4  -1 2970.13   80.03
   1  -4   296102.24 1615.15
  -1   4  -297858.12 1726.17
   3  -4  -1 2808.06   49.16
  -1   4  -295139.97 1538.07
  -3   4   1 2871.54   79.51
   1  -4   298816.34 1495.64
   3  -4  -1 2853.01   81.47
   3  -4  -1 3004.44   76.14
  -1   4  -297026.64 1633.97
  -3   4   065743.36  959.41
  -1  -3   3 1957.85   63.16
  -3   4   063512.88  968.27
   3  -4   065178.58  959.29
  -3   4   064282.12 1008.33
  -1  -3   3 1894.73   75.34
   3  -4   064054.86 1139.81
   3  -4   066608.46 1002.94
   1   3  -3 1949.77   55.06
  -1  -3   3 1755.30   62.34
  -1  -3   3 1770.66   29.80
   1   3  -3 1910.12   63.97
   1   3  -3 1673.45   67.09
   2  -3  -3 152393.   2818.
   2  -3  -3 155390.   2907.
  -2   3   3 154707.   2982.
  -2   3   3 157185.   2913.
  -2   3   3 156745.   3107.
   2  -3  -3 152565.   2943.
   0   2  -414358.68  252.06
   0  -2   415453.02  175.06
   0   2  -414877.64  249.88
   0  -2   415862.77  268.50
   0  -2   415338.16  281.07
  -3   0   4 142010.   2675.
  -3   0   4 142564.   2682.
   3   0  -4 137814.   2522.
  -3   0   4 141944.   2668.
   3   0  -4 142415.   2470.
  -3   0   4 146081.   2609.
   4  -1  -2 1043.65   75.15
  -4   1   2 1065.86   44.64
   4  -1  -2 1246.48   67.61
  -4   1   2 1105.18   67.61
   4  -1  -2 1118.93   30.87
  -4   1   2 1213.68   42.64
  -3   3   3 8562.46  149.26
   3  -3  -3 8408.60  138.54
   3  -3  -3 8329.72   88.94
   3  -3  -3 8357.32  145.83
  -3   3   3 8371.05  140.16
  -3   3   3 8522.58   88.34
   0   0   4 209866.   4695.
   0   0   4 219607.   4706.
   0   0  -4 213156.   4601.
   0   0  -4 206822.   4512.
   0   0  -4 220291.   4917.
  -1   4   183383.30 1282.79
  -1   4   181758.27 1306.15
   1  -4  -182786.81 1264.57
   1  -4  -184149.81 1384.96
   1  -4  -182883.26 1325.52
  -1   4   183315.22 1382.63
   0  -4   1 148958.   2751.
   0  -4   1 142613.   2682.
   0   4  -1 142071.   2633.
   0  -4   1 145528.   2726.
   0   4  -1 144401.   2679.
   0  -4   1 150685.   2748.
   0   4  -1 139676.   2619.
  -4   3   1 5152.78   62.14
   4  -3  -1 5157.87  112.86
  -4   3   1 5246.25  119.07
   4  -3  -1 4859.97   74.67
  -4   3   1 5018.48  105.66
   4  -3  -1 5023.73  107.18
  -4   3   215714.83  235.76
   4  -3  -215682.14  241.18
  -4   3   215597.08  246.53
   4  -3  -215544.19  235.40
   4  -3  -215309.96  146.84
   4  -1  -117507.81  221.97
  -4   1   118713.70  296.86
  -4   1   118376.24  317.44
   4  -1  -117567.47  244.85
   4  -1  -117196.33  295.43
  -4   1   117852.90  228.67
  -4   1   118394.69  315.26
   4  -2  -3 8566.10  152.09
  -4   2   3 8796.18  154.30
  -4   2   3 8527.42  144.54
   4  -2  -3 8595.90  219.60
  -4   1   3 5784.46   57.01
  -2   2   4 6525.31  122.49
  -2   2   4 6656.72  102.50
   2  -2  -4 6743.69  128.86
   2  -2  -4 6648.66  120.53
   4  -1  -3 5593.90  118.28
   4  -1  -3 5597.04  104.06
  -4   1   3 5800.10   57.44
   2  -2  -4 6621.83  115.72
  -2   2   4 6703.05  117.84
  -4   1   3 5922.04  107.87
  -4   1   3 5656.08  117.93
  -2   2   4 6514.00  184.08
   0  -4   2 217777.   4602.
   0   4  -2 206843.   4345.
   0  -4   2 218922.   4440.
   0  -4   2 215953.   4658.
   0  -4   2 211719.   4485.
   0   4  -2 209661.   4476.
   0   2   328988.36  364.74
   0   2   329183.83  446.88
   0   2   328994.77  423.24
   0   2   329453.46  436.87
   0  -2  -328828.47  533.93
   0  -2  -329020.38  454.12
  -1  -2  -2 222769.   4779.
   1   2   2 230577.   4711.
  -1  -2  -2 220813.   4929.
   1   2   2 222357.   4986.
   1   2   2 229534.   5090.
   1   2   2 206079.   4161.
  -2   4  -2  569.87   62.62
   2  -4   2  609.32   50.92
  -2   4  -2  540.49   50.37
  -2   4  -2  550.11   26.42
   2  -4   2  687.53   65.22
  -3   2   413268.18  142.13
  -3   2   413338.03  210.25
   3  -2  -413075.32  197.51
   3  -2  -412793.85  203.77
   3  -2  -412952.20  218.06
  -3   2   413044.75  197.72
   2  -2   3  931.62   54.73
   0   3   237826.11  492.43
   2  -2   3  777.33  141.86
   0  -3  -238150.93  496.01
   0   3   237953.07  551.18
   0  -3  -237147.07  539.53
   0  -3  -238064.53  747.67
  -2   2  -3 1016.41   82.96
  -2   2  -3  922.08   50.17
   2  -2   3 1123.51   65.76
  -2   2  -3  772.34   83.53
   0   3   237544.36  590.54
  -3   4   266622.48 1041.39
  -2   4   2 1781.93  131.04
   3  -4  -266521.02 1034.62
   2  -4  -2 1832.39   51.23
   3  -4  -265648.80 1031.91
   2  -4  -2 1976.46   95.64
  -3   4   265616.94 1047.39
   3  -4  -266810.99  949.46
  -2   4   2 1964.22   58.80
  -2   4   2 1995.57   53.47
   3  -4  -266412.54 1007.55
  -3   4   267710.04 1023.48
   2  -4  -2 2057.47   76.25
   3  -4   165323.66 1087.22
  -3   4  -166048.88 1221.00
  -3   4  -166245.61 1024.13
  -3   4  -165977.87 1007.47
   3  -4   169362.69 1089.89
   3  -4   169440.97 1051.37
   0   4   0 5107.70  106.57
   0   4   0 5012.38  104.55
   0  -4   0 5198.34  108.68
   0  -4   0 5152.94   64.69
   0   4   0 5110.19  114.66
   0  -4   0 5423.23  113.43
  -2  -2   4 4011.94   64.30
  -2  -2   4 3840.03  112.60
   2   2  -4 3836.07   78.81
   2   2  -4 4104.90   99.56
  -2  -2   4 4134.55   47.89
  -2  -2   4 4149.36   86.04
   3   0   111146.18  125.23
  -3   0  -111698.11  143.43
   3   0   111200.48  181.07
  -3   0  -112041.71  202.73
   3   0   111052.38  238.94
  -3   0  -112375.18  263.14
   4  -2   0 151056.   2833.
  -4   2   0 155959.   3143.
  -4   2   0 161827.   3231.
  -4   2   0 158954.   3239.
   4  -2   0 147254.   2811.
   4  -2   0 152919.   3022.
  -4   2   0 163864.   3321.
  -1  -1  -3 9550.61  134.01
  -1  -1  -3 9340.47  191.10
   1   1   3 9854.23  192.42
  -1  -1  -3 9725.44  189.42
   1   1   3 9341.57  191.25
   1   1   3 9693.38  186.63
  -4   3   0 5382.08   96.52
  -4   3   0 5271.26  112.60
   4  -3   0 5470.80  117.05
   4  -3   0 4965.59  158.86
  -4   3   0 5359.10  203.84
   4  -3   0 5090.56  113.15
  -3  -1   068788.67  938.52
  -3  -1   063726.77  994.56
   3   1   062288.72  951.31
   3   1   058613.55 1063.40
   3   1   064642.45  845.91
  -3  -1   064391.43 1162.05
  -3  -1   452817.78  808.05
  -3  -1   452896.97  723.95
   3   1  -451231.79  694.13
  -3  -1   451754.11  793.72
  -3  -1   453221.27  814.86
  -3  -1   451272.70  897.95
   3   1  -449194.28  725.46
  -1   3   3 120110.   2138.
   1  -3  -3 114957.   2116.
   1  -3  -3 118305.   2016.
  -1   3   3 120643.   2088.
   1  -3  -3 117255.   2076.
  -1   3   3 118779.   2386.
  -3   2  -2 7497.63  183.74
   3  -2   2 7101.69  210.52
   3  -2   2 7159.19  175.10
  -3   2  -2 7892.48  160.63
  -3   2  -2 7966.27  148.34
  -3   2  -2 7890.48  243.94
   2  -1   3 2393.90  131.74
  -2   1  -3 2088.66   80.72
   2  -1   3 2236.53   90.27
  -2   1  -3 2062.71   80.37
   2  -1   3 2265.30  112.44
   2  -3   380979.66 1446.99
   2  -3   383727.55 1469.23
  -2   3  -391505.24 1463.39
  -2   3  -387349.86 1565.49
  -2   3  -390288.51 1452.26
  -2   3  -383594.36 1521.93
  -4   0   214314.33  259.49
   4   0  -213930.71  157.34
  -4   0   214703.32  215.89
  -4   0   215838.08  294.01
   4   0  -214445.56  179.01
  -4   0   214355.24  176.40
   0  -3   4 4344.19  243.06
   0   3  -4 4644.66  120.90
   0  -3   4 4741.62  121.69
   0   3  -4 4533.88  133.45
  -4   3   312869.38  213.34
   4  -3  -313167.62  315.52
   4  -3  -312619.81  206.42
   4  -3  -312816.82  116.18
  -4   3   312775.98  209.19
  -3   3  -294616.00 1627.08
   3  -3   290367.55 1519.19
  -3   3  -296065.65 1708.27
   3  -3   287916.26 1579.07
  -3   3  -294208.38 1626.87
  -3   3  -291312.03 1666.99
   3  -3   286444.14 1521.76
   4   0  -3 134572.   2438.
  -4   0   3 139013.   2409.
  -4   0   3 139792.   2667.
  -4   0   3 142550.   2470.
  -4   0   3 141440.   2590.
   4   0  -3 133907.   2752.
  -1   2  -4 115042.   1952.
   1  -2   4 116558.   2286.
  -1   2  -4 117356.   2407.
  -1   2  -4 115069.   2232.
   1  -2   4 119412.   2097.
   1  -2   4 123707.   2368.
   1   3   1 1698.55   21.23
   1   3   1 1682.98   91.75
  -1  -3  -1 1753.20   71.45
   1   3   1 1522.05   72.47
  -1  -3  -1 1807.92  162.14
  -1   4  -3 113585.   1804.
   1  -4   3 110477.   2149.
  -1   4  -3 114708.   2082.
   1  -4   3 120079.   1931.
  -1   4  -3 117599.   2232.
   1  -4   3 117053.   2127.
  -2  -1  -288864.33 1420.09
  -2  -1  -282057.63 1511.66
   2   1   287517.58 1592.88
   2   1   285192.32 1360.63
  -2  -1  -289000.60 1534.07
   2   1   284164.67 1450.72
  -1   1  -449255.75  856.48
  -2  -3   2 2560.26   75.71
   0   1   486944.08 1442.90
   0  -1  -486908.98 1554.65
   0   1   486590.38 1460.21
  -1   1  -445992.62  676.64
  -2  -3   2 2711.99   84.73
   0  -1  -486552.78 1450.63
   2   3  -2 2420.05   72.58
   0  -1  -485242.07 1622.26
  -2  -3   2 2460.28   89.86
   2   3  -2 2661.62   87.14
   0   1   483976.75 1510.50
  -2  -3   2 2480.41   75.50
   1  -1   450032.66  763.57
   2   3  -2 2463.64   42.53
   0   1   489647.76 1509.82
   1  -1   445737.99 1025.84
   1  -1   448345.48  789.36
  -1   1  -446084.47  752.09
   1  -2  -4 1345.82   67.16
  -1   2   4 1316.30   67.96
  -1   2   4 1428.36  112.34
   1  -2  -4 1355.77   72.52
  -1   2   4 1306.02   57.35
   0   4  -320236.76  436.59
   0   4  -319739.20  302.41
   0  -4   321003.12  206.05
   0   4  -319638.73  234.88
   0  -4   319946.33  308.24
  -2   0   517295.12  402.58
  -2   0   517208.63  293.65
  -2   0   516880.60  282.98
   2   0  -515979.81  247.39
  -2   0   516735.81  205.19
   2   0  -516068.01  201.64
   2   0  -516830.36  286.09
  -4   4   1 110591.   1973.
   4  -4  -1 110136.   1984.
   4  -4  -1 112824.   2170.
   4  -4  -1 112487.   1949.
  -4   4   1 110923.   1809.
  -4   4   1 108518.   1939.
  -1  -3   4 164933.   3462.
   1   3  -4 165950.   3256.
   1   3  -4 160441.   3280.
  -1  -3   4 169689.   2921.
  -1  -3   4 168474.   2911.
  -1  -3   4 165535.   3290.
  -4   1   015888.01  456.02
  -4   1   016762.11  348.62
   4  -1   014789.32  187.70
  -4   1   015751.46  204.34
   4  -1   014969.59  207.73
  -4   1   016120.51  314.29
  -4   1   415732.17  245.11
   2   2   1  789.16   80.42
  -4   1   415494.56  232.48
   2   2   1  689.65   56.73
   4  -1  -415735.55  332.29
  -2  -2  -1  649.96   77.83
   4  -1  -415254.22  236.95
  -4   1   416211.99  159.12
  -4   1   416276.08  169.36
  -2  -2  -1  684.48   55.40
  -4   0   170356.41 1015.22
   4   0  -169114.11  992.23
   4   0  -168094.88 1021.62
  -4   0   168368.49 1237.75
  -4   0   171215.30 1295.61
  -4   0   171621.25 1096.48
  -3   1  -2 200505.   4410.
  -3   1  -2 199123.   4342.
   3  -1   2 174411.   3647.
  -3   1  -2 199863.   4419.
   3  -1   2 177799.   3755.
  -3   1  -2 197855.   4358.
   3  -1   2 180355.   3860.
  -1  -1   590351.59 1620.98
   1   1  -582016.88 1454.34
  -1  -1   595066.27 1464.35
   1   1  -586042.95 1722.42
  -1  -1   584741.17 1573.43
   1   1  -586065.29 1296.05
  -3  -2   2 2800.81  180.82
  -3  -2   2 2740.45   39.49
   3   2  -2 2553.99  101.96
  -3  -2   2 2698.55   69.53
  -3  -2   2 2788.03  103.08
   3   2  -2 2589.31   65.53
   2   1  -566054.06 1114.98
  -2  -1   568408.12 1174.47
  -2  -1   569778.80 1163.33
   2   1  -566542.75  998.57
  -2  -1   570490.99 1045.62
   2   1  -567052.83 1041.30
  -1   4   2  516.10  101.05
   1  -4  -2  365.10   41.34
   1  -4  -2  310.23   25.94
  -1   4   2  397.64   44.07
   1  -4  -2  464.12   55.50
  -4   2   4 106958.   1894.
   4  -2  -4 106167.   1903.
  -4   2   4 111780.   1645.
  -4   2   4 105499.   2063.
   2   3  -3 140427.   2633.
  -2  -3   3 139866.   2605.
   4  -2  -4 107148.   1915.
  -2  -3   3 137877.   2789.
   2   3  -3 140132.   2587.
   4  -2  -4 112153.   1671.
  -2  -3   3 139551.   2612.
  -2  -3   3 144117.   2671.
  -2  -3   3 141754.   2768.
   4  -4  -2 153641.   2970.
   4  -4  -2 150167.   2662.
  -4   4   2 150601.   3113.
   4  -4  -2 147482.   2603.
   4  -4  -2 152526.   2950.
  -4   4   2 148569.   2876.
  -2  -3   118873.75  284.19
  -2  -3   120628.32  351.49
  -2  -3   119931.06  202.55
  -2  -3   119938.93  192.74
   2   3  -118254.80  318.91
   2   3  -118334.79  270.16
  -2   5   0 114103.   2029.
  -2   5   0 110069.   1950.
   2  -5   0 115155.   2025.
   2  -5   0 112233.   1943.
   2  -5   0 110112.   1925.
   2  -5   0 112021.   1963.
  -3  -2   327759.58  441.16
  -3  -2   327705.49  353.46
  -3  -2   327938.50  390.55
  -3  -2   327209.76  400.66
  -3  -2   327439.69  444.25
  -3  -2   327102.54  366.98
  -4   4   0  162.28   76.74
  -4   4   0  150.28   40.03
   4  -4   0  222.54   48.67
   4  -4   0  188.66   40.50
   1   0  -5 1160.75   83.97
   1   0  -5  946.29   44.83
  -1   0   5  903.73   76.99
   1   0  -5  985.68   76.32
  -1   0   5 1188.30   84.59
  -1   0   5 1308.68  123.08
  -2   5  -117144.52  379.77
   2  -5   116915.85  341.75
   2  -5   116823.28  251.59
   2  -5   117031.53  273.81
  -2   5  -116589.74  292.43
   2  -5   116873.61  214.41
  -2   5  -116621.02  252.38
   0  -4  -151099.84  836.21
   0   4   149441.16  754.60
   0  -4  -152092.20  666.61
   0   4   150725.74  659.73
   0  -4  -149989.97  900.76
   0   4   149251.44  811.20
  -1   3  -412748.78  261.15
   1  -3   413613.90  265.80
  -1   3  -413800.82  167.69
   1  -3   412956.76  271.20
  -1   3  -413467.27  271.93
  -2   1   526057.37  397.91
  -2   1   525946.46  395.24
  -2   1   525655.63  350.46
   2  -1  -525410.37  523.26
  -2   1   525716.11  415.84
   2  -1  -525315.49  355.40
   3  -3  -4  174.62   45.40
   3  -3  -4  181.95   24.54
  -3   3   4  185.79   44.06
  -3   3   4  183.56   37.09
  -3   3   4  197.96   44.37
   3  -3  -4  220.97   41.79
  -1  -4   211734.29  171.96
   1   4  -210989.16  154.80
   1   4  -211303.49  176.11
  -1  -4   211019.58  189.17
  -1  -4   211259.65  190.62
  -1  -4   211918.69  233.21
  -3   0   569805.60 1042.17
  -3   0   568622.65 1139.24
  -3   0   567585.76 1137.33
  -3   0   568385.83 1098.37
   3   0  -568557.47 1008.47
   3   0  -568320.11 1049.22
  -3   4   386497.30 1339.34
  -3   4   384682.24 1458.22
   3  -4  -382871.21 1508.63
  -3   4   385473.26 1433.29
   3  -4  -384506.54 1304.04
   3  -4  -383290.85 1593.04
  -3   1   510592.97  159.33
   3  -1  -510547.60  147.79
  -3   1   510504.43  208.73
  -3   1   510766.89  216.79
   3  -1  -510503.95  164.31
  -3   1   511105.40  203.24
   4   0  -4 152382.   3029.
  -4   0   4 168404.   3172.
   4   0  -4 161598.   3140.
  -4   0   4 161811.   3190.
  -4   0   4 164375.   3060.
  -4   0   4 161355.   3177.
  -4   0   4 163072.   3199.
   3  -5   057457.97  920.15
   3  -5   057226.13  853.04
  -3   5   058320.05  874.15
   3  -5   057427.55  864.81
  -3   5   058369.88  938.38
  -3   5   056730.64  884.24
   3  -5   057954.87  861.19
  -3   4  -2  984.08   48.20
   3  -4   2 1015.61  119.09
  -3   4  -2 1064.50   77.14
  -3   4  -2 1108.53   70.74
   3  -4   2 1019.86  143.18
   3  -4   2 1096.39   45.84
  -2   0  -318940.38  329.08
  -2   0  -319209.24  360.28
  -2   0  -318092.33  265.81
   2   0   319070.94  343.51
   2   0   318436.71  264.08
   2   0   318039.19  481.81
   1   4  -1 114610.   2163.
  -1  -4   1 123625.   2478.
  -1  -4   1 121919.   2233.
   1   4  -1 120858.   2045.
  -1  -4   1 123678.   2134.
   1   4  -1 118303.   2135.
  -1   5  -125072.58  373.71
   1  -5   124997.62  375.84
  -1   5  -124139.09  345.89
   1  -5   124339.12  366.07
   1  -5   125227.78  328.91
   1  -5   125379.45  452.96
  -3  -2   116242.14  322.27
   3   2  -115655.27  229.38
  -3  -2   116017.64  238.18
  -3  -2   116317.88  176.48
  -3  -2   116667.21  160.57
   3   2  -114836.13  304.19
  -1  -2   570311.76 1272.88
   1   2  -567562.84 1127.50
  -1  -2   576606.97 1060.98
  -1  -2   569365.79 1373.71
   1   2  -566759.35 1173.10
  -4   3  -1 3172.12  185.84
   4  -3   1 2953.19   95.56
  -4   3  -1 3261.78  105.91
   4  -3   1 2637.35  102.23
  -4   3  -1 2991.68   96.36
  -4   3  -1 2965.09   99.66
   4  -3   1 3057.42   98.28
  -2   4  -3 7161.85   89.39
   2  -4   3 7488.14  164.57
  -2   4  -3 7652.22  188.58
  -2   4  -3 7658.82   96.26
  -2   4  -3 7161.49  170.45
   2  -4   3 6847.55  184.75
   2  -4   3 7407.24   92.40
   1   0   4 251800.   5739.
  -1   0  -4 230929.   5252.
   1   0   4 233077.   5522.
  -1   0  -4 249950.   5858.
   1   0   4 244492.   5538.
  -1   0  -4 237692.   5384.
   2  -3  -429942.69  476.60
  -2   3   430279.68  478.88
  -2   3   430311.25  446.75
   2  -3  -428884.09  413.46
   2  -3  -430186.26  429.35
  -2   3   431189.49  433.63
   3  -5  -1 8525.24  158.72
   3  -5  -1 8704.11  153.54
   3  -5  -1 8041.07  121.31
  -3   5   1 8482.41  241.99
  -3   5   1 8411.43  162.44
   3  -5  -1 8199.28  124.33
  -4   2  -1 1881.74   95.31
   4  -2   1 1588.54   64.13
  -4   2  -1 1750.45   66.76
  -4   2  -1 1485.97   97.19
  -4   2  -1 1670.35   96.25
   4  -2   1 1604.28   83.31
   2  -5  -1 282686.   6766.
   2  -5  -1 279644.   6510.
   2  -5  -1 293691.   6976.
   2  -5  -1 285143.   6688.
  -2   5   1 290833.   6769.
  -2   5   1 279572.   6630.
  -2   5   1 282987.   6574.
  -2   4   327283.14  384.80
   2  -4  -326715.30  370.47
   2  -4  -327759.16  444.34
  -2   4   327752.12  445.91
   2  -4  -327048.91  371.55
  -2   4   327835.60  473.13
   1  -5   0 3716.74  117.62
  -1   5   0 3771.41   82.17
  -1   5   0 3439.44  164.10
  -1   5   0 3625.01   97.66
   1  -5   0 3652.94   98.59
   1  -5   0 3691.02  153.67
   1  -5   0 3654.95   98.02
   1   4  -316945.30  261.60
   1   4  -317150.43  220.73
  -1  -4   317852.69  252.45
  -1  -4   317567.69  277.72
  -1  -4   317022.63  397.59
  -1  -4   317451.84  276.70
   1  -5   295007.66 1647.68
   1  -5   294509.75 1860.62
  -1   5  -296026.08 1734.15
  -1   5  -292697.02 1518.00
  -1   5  -294484.96 1637.79
   1  -5   297422.40 1537.14
   1  -5   294058.80 1639.61
  -3   5  -1 6781.49  130.56
   3  -5   1 6992.36  112.73
  -3   5  -1 6858.43  158.43
   3  -5   1 6839.68  165.52
  -3   5  -1 6474.92  174.00
   3  -5   1 7087.99  132.95
  -3  -2   495704.40 1841.86
  -3  -2   496760.54 1596.86
  -3  -2   495427.26 1589.70
  -3  -2   496156.45 1578.61
  -3  -2   495784.02 1634.62
   3   2  -494515.50 1594.60
  -3  -2   492852.17 1646.06
   0  -1   5 2282.97  126.98
   0   1  -5 2156.92  107.15
   0  -1   5 2327.51  108.73
   0  -1   5 2346.34   97.40
   0   1  -5 2195.11   53.29
   0   1  -5 2020.47  120.14
  -4   3   4 2763.30   95.74
   4  -3  -4 2879.76   96.61
  -4   3   4 2966.60  101.25
   4  -3  -4 2718.41   41.18
   4  -3  -4 2813.48   96.12
  -4   3   4 2813.46   42.76
  -2   5  -213699.53  264.14
   2  -5   213049.03  258.99
   2   2  -515591.83  236.56
  -2   5  -213038.27  167.89
  -2  -2   517243.86  365.99
   2  -5   213240.91  203.90
   2   2  -516090.27  285.93
   2  -5   213304.43  225.86
  -2  -2   516972.24  312.23
  -2  -2   516433.16  162.27
  -2   5  -213582.04  230.76
   3   1   197947.04 1457.25
   3   1   195153.89 1664.78
   4  -4  -360770.27  858.06
  -3  -1  -195169.93 2086.60
   4  -4  -361000.00  988.98
   4  -4  -360396.11 1126.88
   4  -4  -360588.67  802.62
  -3  -1  -194492.22 1495.29
   3   1   192775.72 1816.68
  -3  -1  -198738.83 1727.75
  -4   4   359923.93  982.80
  -4   4   360390.70 1133.69
  -3  -1   510438.91  205.42
   3   1  -5 9909.11  139.20
   3   1  -510070.53  138.66
  -3  -1   510202.83  168.12
  -3  -1   510728.86  161.43
  -3  -1   510272.04  199.85
  -2  -3   4 112370.   1891.
  -2  -3   4 108907.   1776.
  -2  -3   4 112174.   1976.
  -2  -3   4 110500.   1967.
  -2  -3   4 108470.   2034.
   2   3  -4 107052.   1935.
   2   3  -4 108430.   1904.
   0  -2   542510.92  752.29
   0   2  -540027.67  696.64
   0   2  -540050.81  484.47
   0  -2   543605.24  613.64
   0   2  -540363.46  699.03
   0  -2   541642.00  745.41
   2   3   0 156204.   3056.
  -2  -3   0 156490.   3279.
  -2  -3   0 161660.   3175.
   2   3   0 155013.   3250.
   1  -1  -5 2970.29  113.83
   1  -1  -5 2371.51   82.87
  -1   1   5 2122.93  101.81
  -4  -1   3 3388.38   65.74
  -4  -1   3 3460.82   74.38
  -4  -1   3 3384.56   64.02
  -4  -1   3 3532.49   65.48
   4   1  -3 3404.69   63.08
  -1   1   5 2312.99   77.11
  -1   1   5 2220.38  157.96
  -1   1   5 2221.55   85.71
  -4  -1   3 3634.60  106.91
   5  -2  -2 4348.51   60.06
  -5   2   2 4246.61  159.69
   5  -2  -2 4324.17  133.62
   5  -2  -2 4136.45  159.18
  -5   2   2 4464.95   93.34
  -5   2   2 4145.14  139.22
   4   1  -2 4080.06   77.08
  -4   0   085183.22 1445.28
  -4   0   084313.40 1352.73
  -4  -1   2 4473.71  150.51
  -4   0   087143.27 1649.24
   4   0   080448.62 1309.08
  -4   0   080011.37 1540.60
   4   0   073324.24 1414.43
  -4  -1   2 4238.10   88.34
  -4  -1   2 4881.83  168.31
   4   1  -2 4292.95   98.39
   4   0   080906.73 1196.22
  -4  -1   2 4328.58  131.15
  -4  -1   2 4352.12   99.42
  -5   3   2  123.43   48.72
   5  -3  -2  109.81   47.04
   5  -3  -2  105.40   40.66
  -5   3   2   54.99   37.56
  -3   2   5 358532.   8918.
   3  -2  -5 360891.   9085.
   4  -4   1 159876.   3251.
   4  -4   1 158302.   3394.
  -3   2   5 355530.   9013.
  -4   4  -1 163763.   3312.
  -4   4  -1 166623.   3621.
  -3   2   5 353312.   9397.
   3  -2  -5 337913.   8856.
  -3   2   5 357827.   9106.
   3  -2  -5 339431.   8557.
  -4   4  -1 164890.   3312.
   4  -4   1 164032.   3247.
  -3   0  -213719.48  271.40
  -3   0  -214084.76  253.75
   3   0   212658.79  165.70
  -3   0  -213631.59  294.77
   3   0   213087.70  287.56
   3   0   212752.81  366.07
  -5   2   368393.65 1345.29
   5  -2  -366963.46 1126.40
   5  -2  -365223.39 1052.16
  -5   2   368824.05 1259.99
   0  -4   416188.64  327.06
   0  -4   417085.82  411.80
   0   4  -416145.78  300.38
   0   4  -416381.98  283.77
   0   3   3  542.72  104.47
   0   3   3  519.85   70.99
   0  -3  -3  510.90   58.35
   0  -3  -3  636.93   75.38
   0   3   3  564.83   47.47
  -1  -4   0 120804.   1918.
  -1  -4   0 118306.   2178.
  -1  -4   0 121272.   2546.
   1   4   0 113964.   2190.
   1   4   0 114366.   2069.
  -1  -2  -321633.36  403.74
   1   2   322039.18  312.15
  -1  -2  -323072.10  386.59
   1   2   322212.79  408.94
   1   2   322129.16  317.99
   1   2   322406.44  379.09
  -4   1  -1 3495.98   75.39
  -4   1  -1 3246.90  143.53
  -4   1  -1 3577.65  201.37
   4  -1   1 3181.23   69.77
   4  -1   1 3212.30  101.84
  -4   1  -1 3471.78  141.71
   3  -5  -2  616.65   38.72
  -3   5   2  615.07   64.70
   3  -5  -2  541.66   38.26
   3  -5  -2  698.09   62.26
   3  -5  -2  644.78   53.46
  -3   5   2  616.07   38.53
  -3   5   2  549.52   54.34
  -2   2   5 9203.42  170.28
  -2   2   5 9552.77  187.07
  -2   2   5 9594.62  168.96
  -2   2   5 9433.16  260.97
   2  -2  -5 9075.80  268.94
   2  -2  -5 9319.75  185.60
  -5   3   153747.47  927.31
  -5   3   153918.23  852.23
   5  -3  -151422.03  735.51
   5  -3  -152618.06  863.78
   5  -3  -150792.69  801.28
  -5   3   154363.57  851.45
   4  -1  -5 5335.66  138.57
  -4   1   5 5353.35  226.60
   4  -1  -5 5274.14  184.44
  -4   1   5 5400.93  116.44
  -4   1   5 5518.84  138.40
  -4   1   5 5456.43  109.82
   4  -1  -5 5483.01   60.34
   0   0  -5 1419.64  105.54
   0   0  -5 1283.53   84.74
   0   0   5 1580.38  107.02
  -4   5   1   46.21   70.45
  -4   5   1   38.23   65.95
   4  -5  -1   -3.71   39.43
   0   0   5 1469.10   79.20
   4  -5  -1   74.64   22.37
   4  -5  -1  114.96   23.30
   0   0  -5 1429.29  107.90
   4  -5  -1   70.11   44.96
  -5   3   364973.70 1099.34
   5  -3  -362588.34 1032.08
   5  -3  -365006.86 1088.41
  -1  -3  -218669.35  363.27
   1   3   219252.71  196.19
   1   3   219149.94  322.91
  -1  -3  -218474.54  310.81
   1   3   218856.07  370.53
   1  -4   421021.16  363.94
  -1   4  -421155.29  561.08
  -1   4  -420523.52  366.86
   1  -4   419154.96  387.64
  -1   4  -420608.10  201.13
   0  -2  -481307.46 1462.24
   0   2   484642.35 1378.70
   0   2   483040.05 1480.37
   0   2   483151.66 1484.68
   0  -2  -482141.85 1649.47
   0   2   484847.13 1506.31
  -5   2   128700.98  417.76
   5  -2  -127177.58  465.38
  -5   2   129488.83  522.40
   5  -2  -126037.14  326.12
  -5   2   128572.16  523.92
  -5   2   129325.01  518.89
   5  -2  -125571.77  368.74
   1  -5  -1 119079.   2055.
  -1   5   1 119492.   2086.
  -1   5   1 116040.   2113.
   1  -5  -1 118027.   2155.
  -1   5   1 118076.   2234.
   1  -5  -1 122019.   2280.
  -3  -2   0 8755.60  233.10
   3   2   0 8727.86  169.20
   3   2   0 8825.51  238.15
  -3  -2   0 8701.68  254.31
  -4  -1   4 2308.65  126.92
  -4  -1   4 2098.45   72.67
  -4  -1   4 2071.39   81.09
   4   1  -4 1953.88   94.03
  -4  -1   4 2224.72   69.83
  -4  -1   4 2231.92   52.81
  -4  -1   4 2453.65  103.38
  -5   1   368246.65 1090.11
   5  -1  -362116.28  849.49
   5  -1  -366642.98 1043.46
  -5   1   366199.94 1152.20
  -5   1   373388.55 1064.18
   5  -1  -365451.51 1309.81
   2  -2   4  644.31   88.84
  -2   2  -4  727.64   83.80
  -2   2  -4  737.10   54.57
  -2   2  -4  709.51  163.98
   2  -2   4  622.69   73.68
  -2   2  -4  570.37  123.53
   2  -2   4  639.60   55.56
   4  -5   0 2459.26   81.28
  -4   5   0 2330.50   66.22
   4  -5   0 2408.11   67.38
  -4   5   0 2422.36  102.16
   4  -5   0 2372.35  105.66
  -4   5   0 2361.59  144.00
   0  -5   125300.65  369.61
   3  -3   3 2618.38  110.30
  -5   1   226521.55  485.83
  -5   1   228260.63  690.46
   5  -1  -225253.96  434.27
   0   5  -124233.18  379.34
  -5   1   227995.50  417.11
  -5   1   226515.72  368.31
   3  -3   3 2536.82  126.83
  -3   3  -3 2720.51   85.96
   0   5  -123897.58  420.48
   0   5  -124108.94  491.14
  -3   3  -3 2958.70   87.62
   5  -1  -225601.71  343.25
   0  -5   124589.29  388.03
  -3   3  -3 2514.19  193.34
   5  -1  -226199.52  631.78
  -3   3  -3 2832.83  130.60
   0  -5   124065.38  384.29
   0  -5   124993.36  329.21
   0  -5   2 4905.21  130.31
   0  -5   2 4933.07  129.47
   0  -5   2 5146.22   86.05
   0   5  -2 5034.13  183.64
   0   5  -2 5012.41  100.28
   0  -5   2 5102.00  112.16
  -3   2  -3 3860.58  116.48
  -3   2  -3 3673.71  116.66
   3  -2   3 3308.12  107.26
  -3   2  -3 3964.40  157.42
  -3   2  -3 3679.00  192.62
   3  -2   3 3513.11  144.28
  -1  -3   5 137851.   2861.
   1   3  -5 134240.   2577.
  -1  -3   5 142258.   2780.
   1   3  -5 133350.   2683.
  -4  -1   110811.67  172.62
   4   1  -110298.27  164.30
   4   1  -110542.28  111.00
   4   1  -110215.90  263.82
  -4  -1   110877.76  138.01
  -4  -1   111789.18  445.69
  -4  -1   110862.09  261.67
   2  -5  -2  865.32   47.58
  -2   5   2  640.21   47.62
  -2   5   2  871.53   52.11
   2  -5  -2  694.56   71.25
  -2   5   2  801.80   73.31
   2  -5  -2  733.04   50.75
  -4   0   5 1730.82   83.91
   4   0  -5 1630.63   35.63
   0  -3   513438.16  272.93
   0   3  -512509.71  273.51
   4   0  -5 1552.12   66.14
   0   3  -513358.16  266.46
  -4   0   5 2016.34  101.97
  -4   0   5 1653.33  144.02
  -4   0   5 1629.25   46.34
  -4   0   5 1741.73   35.73
   0  -3   513699.53  310.04
  -1   3   4 141583.   2636.
   1  -3  -4 141592.   2738.
  -1   3   4 145213.   2880.
  -1   3   4 137328.   2578.
   1  -3  -4 137972.   2764.
  -1   3   4 142613.   2965.
  -4   2   567461.50 1151.66
   4  -2  -568953.21 1144.12
  -4   2   571302.27  991.35
  -4   2   568706.07 1276.77
   4  -2  -569502.42 1029.50
   4  -2  -566372.26 1123.48
  -2   3  -4 104019.   1780.
   2  -3   4 100718.   1939.
   2  -3   496124.70 1841.41
  -2   3  -4 106676.   2040.
  -2   3  -499249.79 2260.66
  -2   3  -4 105905.   1897.
   1  -5   315492.70  458.66
   1  -5   316984.30  294.79
   1  -5   317213.97  209.57
  -1   5  -316602.87  291.89
  -1   5  -316039.71  180.97
  -1   5  -317302.02  331.26
   1   4  -463284.10 1084.02
  -1  -4   465906.66  912.56
   1   4  -464628.28 1064.98
  -1  -4   464841.95 1069.33
  -1  -4   467117.39  911.71
  -1  -4   462953.60 1139.91
  -1  -4   464838.69 1073.63
   0  -4  -285889.94 1337.17
   0  -4  -283398.13 1434.16
   0  -4  -283726.21 1529.34
   0   4   283108.64 1513.47
   0   4   283051.98 1244.24
   0   4   283808.29 1434.40
  -2  -2  -2 4103.53  212.29
   2   2   2 4008.95  130.12
   2   2   2 4386.29  167.50
  -2  -2  -2 3951.28  261.02
   5  -4  -2 1069.83   75.63
  -5   4   2  742.47   65.99
  -5   4   2  679.88   73.12
   5  -4  -2  744.46  130.46
   5  -4  -2  960.66   23.26
   4  -5  -210950.26  138.20
  -4   5   211271.49  212.95
   4  -5  -211193.89  211.79
   4  -5  -210715.41  135.06
   4  -5  -211036.44  208.29
  -4   5   211136.40  221.69
  -3   5  -214108.83  283.36
  -3   5  -213905.69  260.88
   3  -5   214486.60  254.04
   3  -5   214603.65  304.88
  -3   5  -214306.76  250.26
   3  -5   214700.14  256.70
   1  -4  -3 1745.30   49.85
  -1   4   3 1817.55   52.54
  -1   4   3 1930.32   80.27
   1  -4  -3 1691.85   75.31
   1  -4  -3 1693.27  104.98
  -1   4   3 2118.40  179.37
   5  -2  -426100.03  432.94
  -5   4   113980.82  249.61
   5  -2  -425736.98  413.14
   5  -4  -113889.64  249.32
  -5   4   113610.82  263.73
  -5   2   426189.26  422.82
  -5   4   113605.07  209.16
   5  -4  -113598.61  250.67
  -5   2   426136.19  416.30
   5  -4  -112706.55  237.09
  -1  -1  -4 1857.15  187.04
   1   1   4 1964.68  100.23
  -1  -1  -4 1684.43   66.87
  -1  -1  -4 1623.81   95.92
   1   1   4 1742.41   64.04
   1   1   4 1726.45  113.80
   2   1   366516.66 1408.23
  -2   1  -428633.59  552.14
  -2  -1  -368861.17 1044.02
   2   1   368680.80 1498.83
  -2  -1  -369593.67 1230.57
  -2   1  -426625.04  430.80
   2  -1   426730.01  441.34
  -2  -1  -364844.55 1193.19
  -2   1  -425940.25  428.36
   2   1   368586.29 1132.78
   2  -1   426442.67  528.64
   2  -1   427777.10  466.62
  -3   4   437731.96  591.67
   3  -4  -438760.03  720.30
  -3   4   439831.49  546.84
   3  -4  -438956.95  809.22
   3  -4  -438156.07  536.18
  -3   4   439372.17  645.86
  -5   1   459634.02  750.09
   5  -1  -453035.00  845.23
  -5   1   455743.55 1098.67
  -5   1   456317.58  912.02
  -5   1   459956.55  762.01
   5  -1  -453813.31  895.94
   0  -5   0 9186.51  112.42
   0   5   0 8895.19  272.82
   0  -5   0 9026.73  187.04
   0   5   0 8665.70  194.24
   0   5   0 8860.03  126.23
   0  -5   0 9316.40  188.40
   3   2  -5 2295.36   68.67
  -3  -2   5 2348.18  104.84
  -3  -2   5 2441.94   74.71
  -3  -2   5 2348.66   67.85
  -3  -2   5 2114.31  159.17
  -3  -2   5 2273.35   66.36
  -3  -2   5 2208.50   46.49
   3   2  -5 2184.11  154.60
  -2   5  -3 337236.   8570.
  -2   5  -3 349069.   9037.
  -2   5  -3 325768.   7945.
   2  -5   3 322066.   8764.
   2  -5   3 332449.   8401.
   2  -5   3 342313.   8233.
  -5   1   1 5705.83  203.12
   5  -1  -1 5969.22  103.10
  -5   1   1 6097.05  102.50
  -5   1   1 6414.71  122.59
   5  -1  -1 5923.51   96.33
  -5   1   1 6341.09  321.32
   3  -4   3  135.11   59.40
   3  -4   3  211.18   63.12
  -3   4  -3  302.57   63.80
  -3   4  -3  268.97   36.85
  -3   4  -3  187.49  123.19
   0  -5   3  598.44   23.06
  -5   3   026609.78  495.68
   5  -3   025228.86  586.29
   5  -3   024604.84  387.32
   0   5  -3  466.10   28.82
   0  -5   3  596.91   65.61
   0   5  -3  525.06   64.60
  -5   3   025873.63  405.87
   0  -5   3  569.05   69.60
   0  -5   3  456.47   66.13
   0   5  -3  439.75   60.68
   5  -3   024500.83  388.71
  -5   3   026682.89  466.96
  -4   3  -214570.09  297.55
  -4   3  -214966.53  278.16
   4  -3   213671.82  280.92
  -4   3  -214374.20  269.49
   4  -3   213828.07  259.63
  -4   3  -215273.71  278.96
   3  -1   367368.97 1245.50
   3  -1   363103.07 1166.19
  -3   1  -373826.63 1642.08
   3  -1   367828.62 1227.28
  -3   1  -372394.82 1319.12
  -3   1  -372967.44 1377.04
  -1   2  -514210.73  189.86
  -1   2  -514453.66  298.44
   1  -2   515519.02  322.86
  -1   2  -514251.06  332.19
   5  -4  -3  337.54    8.65
   1  -2   515063.73  218.99
   5  -4  -3  362.51   61.88
  -5   4   3  388.79  110.13
   5  -4  -3  352.50   60.04
  -5   4   3  444.03   66.86
   1  -2   514521.65  501.30
  -4   4   448402.18  792.19
   4  -4  -448102.78  695.41
   4  -4  -447519.65  789.85
  -4   4   450248.86  703.40
   4  -4  -447766.36  771.15
  -4   4   449087.61 1001.77
  -5   3   484256.22 1475.66
   5  -3  -486064.07 1518.14
  -5   3   483400.50 1657.85
   5  -3  -486586.02 1542.62
  -4   5  -1 2751.97   90.89
  -4   5  -1 2997.90  205.31
   4  -5   1 2975.65  128.40
   4  -5   1 2964.23   93.80
  -4   5  -1 3058.14   90.84
   4  -5   1 3088.29   85.94
   3   3  -3 142648.   2841.
  -3  -3   3 140399.   2811.
  -3  -3   3 145105.   2637.
  -3  -3   3 143760.   2877.
   3   3  -3 138727.   2621.
  -3  -3   3 147711.   2806.
  -3  -3   3 140981.   2826.
  -3  -3   3 145197.   2766.
  -2   0   628583.19  520.86
  -2   0   628743.28  518.35
   2   0  -627488.36  377.59
   2   0  -626670.44  457.23
  -2   0   628434.19  492.80
   2   0  -627784.16  496.09
  -2   0   628676.38  386.97
  -2  -3   514325.29  135.20
  -2  -3   514314.11  302.05
  -2  -3   514572.57  245.56
   2   3  -513748.53  331.23
  -2  -3   514671.78  156.03
   2   3  -514180.28  272.07
   3   3  -227932.85  496.29
   2   1  -615333.93  465.76
   2   1  -614446.42  255.07
  -3  -3   230879.38  347.53
   3   3  -228864.23  427.84
  -2  -1   615595.86  315.80
  -3  -3   230014.97  378.66
  -3  -3   230276.26  462.37
  -2  -1   615397.15  419.39
  -3  -3   231375.38  550.19
  -2  -1   615879.96  185.31
  -2  -1   614357.23  320.76
   2   1  -614678.92  176.47
  -4   2  -270627.35 1303.49
  -4   2  -271786.51 1227.64
   4  -2   265408.34 1085.48
   4  -2   266118.97 1217.94
  -4   2  -275540.57 1407.87
  -4   2  -271450.08 1308.74
  -3   3   531555.13  511.66
   1  -2  -5 1545.36   91.65
   3  -3  -531321.46  519.54
  -3   3   532004.42  437.27
   3  -3  -531051.74  492.05
  -3   3   531202.66  509.29
  -3   3   530962.26  491.99
   3  -3  -530902.67  461.60
  -1   2   5 1294.02   67.29
   1  -2  -5 1450.57   89.56
  -1   2   5 1415.26   87.91
  -1   2   5 1348.73   82.42
  -1   2   5 1367.18   73.72
   2   4  -2 2477.21  100.80
   2   3   1 1745.76  120.27
   2   4  -2 2335.73   92.40
   2   4  -2 2445.22   44.42
   2   3   1 1369.33   88.79
  -2  -3  -1 1460.26   88.07
  -2  -4   2 2695.22   56.57
  -2  -4   2 2259.79   95.74
  -2  -3  -1 1681.13  117.55
  -2  -4   2 2585.06   96.36
  -2  -4   2 2484.04  100.66
  -5   2   0 130258.   2545.
   5  -2   0 121547.   2204.
  -5   2   0 127924.   2596.
  -5   2   0 123405.   2528.
  -5   2   0 126630.   2501.
   5  -2   0 117176.   2301.
   1   4   115029.04  274.01
  -1  -4  -116020.21  332.10
   1   4   115238.45  132.48
  -1  -4  -115116.75  274.47
   1   4   115154.85  325.97
  -1  -4  -115782.59  139.13
  -2   4  -4  205.60   22.61
  -2   4  -4  250.82  119.22
  -2   4  -4  174.52  120.85
   2  -4   4  235.87   77.17
  -2   4  -4  191.91   21.69
   2  -4   4  285.41   70.27
  -2  -4   310840.85  178.94
  -2  -4   310224.05  180.29
  -2  -4   310588.18  199.78
  -2  -4   310520.02  196.90
   2   4  -310463.83  186.36
   2   4  -310657.98  158.19
  -3   0   6 6316.16  178.17
   3   0  -6 5897.85  106.33
  -3   0   6 5874.99  168.82
   3   0  -6 5923.52  113.16
  -3   0   6 5853.87  148.92
  -3   0   6 5896.60  145.91
   5  -4   027724.20  464.98
   5  -4   026321.00  511.76
   5  -4   028242.68  460.60
  -5   4   028807.19  472.35
  -5   4   028181.48  492.51
  -5   4   028128.07  408.79
   1  -1   511055.05  196.40
   1  -1   511193.74  235.16
  -1   1  -510647.60  235.43
  -1   1  -510624.90  179.23
  -1   1  -511529.84  287.50
   1  -1   510859.18  449.08
   0   1   516907.04  290.08
   5   0  -344290.62  744.08
  -5   0   347020.42  629.70
   0   1   517333.65  352.24
  -5   0   345046.14  787.25
  -5   0   348217.53 1089.66
   0  -1  -516450.35  291.27
   5   0  -343965.50  632.86
  -5   0   344970.90  652.46
   0   1   517120.82  412.11
   0   1   516649.76  271.04
   0  -1  -517520.03  367.31
   0  -1  -516972.00  289.26
   4  -4   2 156505.   3280.
   4  -4   2 162877.   3468.
  -4   4  -2 162831.   3453.
  -4   4  -2 162630.   3398.
  -4   4  -2 162521.   3351.
  -4   4  -2 171136.   3696.
   4  -4   2 157434.   3320.
   4   0   166025.56 1121.03
   4   0   167499.73  973.67
  -4   0  -169488.33 1052.26
   4   0   163657.17 1238.77
  -4   0  -170486.86 1640.16
  -4   0  -169396.36 1210.62
  -4   0  -170383.95 1358.02
  -3   5   3 2510.41   67.27
   3  -5  -3 2312.61   82.11
   3  -5  -3 2552.98  186.34
  -3   5   3 2438.55  149.28
   3  -5  -3 2304.77   66.64
  -3   5   3 2339.68  114.08
  -4  -1   5 3015.18  101.26
  -4  -1   5 2916.21  104.87
   4   1  -5 2881.20  149.11
  -4  -1   5 3180.26   67.99
  -4  -1   5 2989.22   73.95
  -4  -1   5 2927.85   95.15
  -1   3  -5  476.94   80.54
  -1   3  -5  487.29   92.49
   1  -3   5  484.36   85.54
   1  -3   5  465.76   85.04
  -1   3  -5  467.17   38.82
   4  -3  -5 7677.21  279.78
  -4   3   5 7974.89  298.08
   4  -3  -5 7361.22  175.61
   4  -3  -5 7728.49  164.32
  -4   3   5 7961.15  176.89
  -4   3   5 7871.38   90.90
  -1  -1   6 110513.   1846.
  -1  -1   6 104940.   2020.
  -1  -1   699615.46 2003.68
   1   1  -6 102188.   1683.
   1   1  -6 102372.   1966.
   1   1  -697848.61 1936.83
  -2   4   444617.55  754.68
   2  -4  -442963.18  939.76
   2  -4  -442261.00  743.84
  -2   4   442909.42  659.80
  -2   4   443227.76  792.05
   2  -4  -442094.37  648.40
  -5   0   296487.51 1578.03
  -5   0   293543.20 1834.89
  -5   0   296471.32 1925.47
   5   0  -294737.22 1551.77
   5   0  -292854.16 1510.40
  -5   0   297682.26 1624.51
   3  -1  -6 1124.83   59.03
  -3   1   6  990.53   56.79
  -3   1   6 1164.75   93.04
   3  -1  -6  981.45   62.37
  -3   1   6 1134.51   85.09
  -3   1   6 1149.73  108.18
   4  -5  -314933.50  280.68
   4  -5  -314772.90  261.98
   4  -5  -314562.29  182.36
  -4   5   315056.76  275.06
  -4   5   315233.44  297.18
  -4   5   315234.58  189.26
   4  -5  -314827.83  180.47
   3  -6   062983.14  990.24
   3  -6   061845.88  985.75
   3  -6   060003.77  960.99
  -3   6   062520.76 1049.93
   3  -6   062843.64 1219.98
  -3   6   060234.04  991.84
   2  -6   1 1751.33   60.08
  -2   6  -1 1767.56   93.04
  -2   6  -1 1644.25  114.75
   2  -6   1 1683.03   84.62
   2  -6   1 1625.76   83.31
   2  -6   1 1746.30   83.12
   4   1   0 6558.41  230.26
  -4  -1   0 8010.89  243.73
  -4  -1   0 7560.49  237.08
   4   1   0 6808.13   86.09
   4   1   0 6815.64  226.92
  -4  -1   0 7036.16  155.98
  -4  -1   0 7107.16   97.87
  -3  -3   417193.05  360.19
  -3  -3   417350.39  396.32
  -3  -3   416456.03  253.40
  -3  -3   416855.28  247.78
   3   3  -416957.96  247.47
  -3  -3   416368.28  235.51
  -3  -3   416915.73  363.89
   2  -6   0  116.01   68.05
   2  -6   0   80.73   35.39
   2  -6   0  -11.16   35.24
  -2   6   0   94.22   41.79
   2  -6   0   90.93   38.84
  -2   6   0  102.87   40.61
   2   4  -110183.80  301.40
  -2  -4   111066.18  241.86
   2   4  -110029.46  355.17
  -2  -4   110364.54  206.97
  -2  -4   110517.04  106.28
  -1   5   259041.87 1125.69
  -1   5   258678.63  862.08
   1  -5  -259915.47 1051.92
   1  -5  -257732.30  941.84
   1  -5  -259502.64  858.34
  -1   5   259776.34 1058.27
   3   1   237379.94  638.28
  -3  -1  -236540.56  517.92
  -3  -1  -238009.10  650.82
  -4  -2   369287.05 1086.74
  -4  -2   367873.44 1261.04
   3   1   236519.07  500.66
  -3  -1  -237332.55  708.62
   3   1   237695.43  730.40
  -4  -2   367849.77 1078.70
   4   2  -365060.42 1013.71
  -4  -2   369466.08 1095.72
  -4  -2   366486.64 1182.91
  -4  -2   367636.97 1058.31
  -3  -1   6  112.83   40.49
   3   1  -6   38.50   50.37
   3   1  -6   97.29   29.32
  -3  -1   6   90.14   55.65
  -3  -1   6   56.55   54.81
   3   1  -6   18.83   22.41
  -3  -1   6   76.44   35.16
  -5   0   4 7692.63  173.43
  -5   0   4 8458.56  206.34
   5   0  -4 7548.97  147.70
  -5   0   4 7727.92  128.09
  -5   0   4 8050.59  129.12
  -5   0   4 7872.60  219.97
  -5   0   4 7822.46  151.00
   5   0  -4 7765.04  189.56
  -2   1   680675.74 1499.46
   2  -1  -677083.94 1412.54
  -2   1   683605.93 1700.06
  -2   1   682771.27 1509.31
  -2   1   684290.46 1558.09
   2  -1  -678122.30 1315.72
  -1  -2   6 9809.15  129.49
  -1  -2   6 8742.23  226.99
   1   2  -6 8848.21  241.39
   1   2  -6 8854.86  211.82
  -1  -2   6 9494.80  257.31
  -3  -3   1 5464.74  220.96
  -3  -3   1 5559.68  188.83
   3   3  -1 5482.80  132.04
   3   3  -1 5273.68  185.81
  -2   3   5 2352.01   86.30
  -2   3   5 2250.40  149.10
   2  -3  -5 2123.33  110.45
   2  -3  -5 2299.39   89.04
  -2   3   5 2155.21   80.55
  -2   3   5 2032.08  178.73
  -1   0   6 4400.06  148.85
  -1   0   6 4469.27  241.04
  -1   0   6 4199.49  161.16
   1   0  -6 4202.94  155.26
   1   0  -6 4254.55  161.48
   1   0  -6 4026.08   97.21
  -1   0   6 4296.34  162.48
   3  -6   125105.62  392.71
   3  -6   124885.94  390.92
  -3   6  -125824.15  450.51
   3  -6   126016.46  461.52
  -3   6  -125296.18  401.04
   3  -6   124958.93  437.68
  -3   6  -124668.18  372.28
  -5   5   182848.10 1483.16
  -5   5   181508.68 1673.75
   5  -5  -187056.99 1537.28
  -5   5   184872.28 1323.70
   5  -5  -183935.87 1523.70
  -2  -2   616656.56  305.59
  -2  -2   617319.52  200.96
   2   2  -615773.64  272.37
   2   2  -616487.99  333.35
  -2  -2   617092.25  350.75
   0  -4   5 129119.   2722.
   0  -4   5 135526.   2683.
   0   4  -5 125807.   2574.
   0   4  -5 132550.   2611.
  -4  -2   2 169956.   3743.
  -4  -2   2 173458.   3864.
  -4  -2   2 176437.   3357.
   4   2  -2 159502.   3485.
   4   2  -2 168335.   3326.
  -4  -2   2 176120.   3477.
  -4  -2   2 178812.   3596.
  -2   0  -4 8878.71  175.66
   2   0   4 9338.22  409.76
   2   0   4 9544.43  354.48
   2   0   4 9404.11  172.45
  -2   0  -4 9315.94  321.75
  -2   0  -410104.93  270.91
  -3  -2  -120070.77  638.93
   3  -6  -149706.81  887.98
   3   2   120408.90  496.39
  -3   6   151633.47  842.41
  -3  -2  -120664.06  358.99
   3   2   120329.68  447.12
   3  -6  -151778.67  840.29
   3  -6  -152136.27  836.38
   3  -6  -150992.63  791.07
  -3   6   150821.60 1018.54
  -5   5   257961.20  984.06
   5  -5  -259024.84  864.45
   5  -5  -259256.21 1005.04
   5  -5  -257834.61  994.98
   5  -5  -259673.00  894.16
  -5   5   257917.58  995.91
   5  -2  -5 4206.57  134.28
  -5   2   5 4060.41  136.79
  -5   2   5 3968.39  196.94
   5  -2  -5 4019.75  127.89
   1   5  -213059.82  231.87
   1   5  -213520.08  195.04
  -1  -5   213507.58  254.99
  -1  -5   214018.16  260.59
  -1  -5   213933.61  194.61
  -1  -5   214223.30  225.28
  -2  -4   4 8302.38  192.67
  -2  -4   4 8668.71  166.96
  -2  -4   4 8608.40  176.82
  -1   5  -4  224.69   69.05
   1  -5   4  153.82   74.77
   2   4  -4 8508.57  164.68
  -2  -4   4 8962.86  124.19
  -2  -4   4 8602.65  180.83
   1  -5   4  262.88  105.68
  -1   5  -4   95.85  108.47
  -5   1   5  923.43   40.57
  -5   1   5  947.25  131.41
   5  -1  -5 1001.51   75.55
  -5   1   5  884.46   66.49
  -5   1   5  867.43   75.47
  -5   1   5  920.29   15.96
   5  -1  -5  902.22   72.55
   0   5   1 5402.76  281.24
   0   5   1 5630.82  147.06
   0  -5  -1 5432.64  148.54
   0   5   1 5615.48  113.42
   0  -5  -1 5820.26  172.95
   0  -5  -1 5688.19   99.89
  -4   1  -2 6360.63  316.39
  -4  -2   4  632.33   42.18
   4  -1   2 5687.54  174.65
  -4  -2   4  472.91   90.56
  -4  -2   4  470.14   52.55
  -4   1  -2 5977.77  184.84
   4  -1   2 5709.32  175.40
  -4  -2   4  548.21   42.13
  -4   1  -2 6321.05  209.49
  -4   1  -2 6203.20  201.28
  -4  -2   4  440.52   75.49
   4  -1   2 5842.88  205.17
  -4  -2   4  524.51   69.84
  -2   6  -2  120.88   60.11
   2  -6   2  194.19  101.71
  -2   6  -2  170.95   30.67
  -2   6  -2  155.28   53.66
   2  -6   2  127.82   51.10
   2  -5  -336417.07  559.92
  -2   5   337823.75  658.86
   2  -5  -337579.56  837.49
  -2   5   337121.65  655.06
   2  -5  -336834.04  534.30
  -2   5   337370.90  573.91
  -5   1   038926.95  641.63
   5  -1   036155.66  502.61
  -5   1   038170.32  627.60
  -5   1   038243.60  736.67
   5  -1   035892.49  545.56
  -5   1   036805.64  727.62
   0  -5   4 5207.60  179.93
   0  -5   4 5739.79   60.04
   0   5  -4 5650.20   55.64
   0   5  -4 5928.68  163.41
   0  -5   4 5697.47  159.21
   0   5  -4 5516.79  164.95
   5  -4  -423554.37  263.11
   5  -4  -424860.41  436.55
   5  -4  -424315.49  417.80
  -5   4   424659.39  430.76
  -5   4   425095.38  441.45
   1   4  -519824.52  383.79
   1   4  -520248.48  355.40
  -1  -4   520848.55  366.34
  -1  -4   520288.90  600.36
   3  -5   392161.68 1697.91
  -3   5  -391626.05 1741.62
  -3   5  -388724.69 1904.56
   3  -5   384016.36 1656.32
   3  -5   393583.17 1522.87
  -3   5  -388530.63 1565.91
  -1   6  -1 6443.00  148.23
  -1   6  -1 6125.63  141.26
   1  -6   1 6379.88  123.91
   1  -6   1 6077.53  157.58
   1  -6   1 6363.92  157.93
   1  -6   1 6378.48  126.31
  -4   1   6 5098.16  113.05
  -4   1   6 5132.40  259.09
  -4   1   6 5119.43  162.28
   4  -1  -6 4918.40  118.78
  -4   1   6 5192.94   99.13
   4  -1  -6 5118.00   78.15
   1   0   573793.00 1435.15
  -1   0  -577568.28 1483.81
   1   0   575241.98 1330.20
  -1   0  -572515.49 1302.31
  -1   0  -570639.42 1425.17
   1   0   575899.76 1354.83
  -1  -5   3 8273.76  178.10
   1   5  -3 8669.64  165.50
  -1  -5   3 8635.77  192.22
   1   5  -3 8568.85  144.24
  -1  -5   3 8506.74  189.04
  -1  -5   1 9639.22  203.54
  -1  -5   1 9611.32  146.42
   1   5  -1 9630.08  125.08
  -1  -5   1 9426.60  208.04
   1   5  -1 9376.77  210.67
   1   5  -1 9239.53  199.74
   5   0  -1 9050.19  163.41
   5   0  -1 8819.20  148.72
  -5   0   1 9414.80  277.60
  -5   0   1 9417.95  123.37
  -5   0   1 9586.52  169.71
  -5   0   1 9167.14  269.47
  -2   6   142020.16  650.15
  -2   6   142319.42  663.24
   2  -6  -141272.69  800.58
   2  -6  -141805.69  660.99
   2  -6  -142317.23  633.59
  -2   6   142287.10  716.78
   2  -6  -143523.31  710.22
  -5   5   012644.33  189.89
  -5   5   013106.83  268.10
   5  -5   012913.98  238.35
   5  -5   012337.01  282.86
   5  -5   012914.48  274.82
  -5   5   012728.07  256.05
   3   0   313942.04  489.92
  -3   0  -313412.13  285.63
  -3   0  -313838.29  310.99
  -3   0  -314564.88  329.11
   3   0   313390.47  310.12
  -4   6   0 102700.   1920.
   4  -6   0 102938.   1814.
  -4   0   683347.35 1421.52
   4  -6   0 105046.   2012.
  -4   6   0 104264.   1831.
   4   0  -680756.61 1507.00
   4  -6   0 104274.   2224.
   4  -6   0 106823.   1916.
   4  -6  -1 7177.79  160.08
   4  -6  -1 7311.86  125.11
  -4   0   683014.36 1510.29
   4   0  -683939.08 1398.17
   4  -6  -1 7329.75  180.57
  -4   6   0 100751.   1843.
  -4   6   1 6980.99  171.29
  -4   0   683737.52 1372.28
  -4   6   1 7663.75  284.39
   4  -6  -1 6969.36  121.82
  -4   0   682512.26 1503.88
  -5   3  -1 3107.92  138.82
  -5   3  -1 3079.70  108.52
  -5   3  -1 2899.08  118.60
   5  -3   1 2758.93  112.95
  -5   3  -1 2999.40  144.46
   5  -3   1 2806.91  106.51
  -1   6  -244350.93  746.51
   1  -6   243077.50  714.86
  -1   6  -242206.46  640.68
   1  -6   242665.12  708.33
   1  -6   243410.92  710.17
   1  -6   244718.15  623.25
  -4   5  -2 9153.67  170.75
   4  -5   2 9216.59  208.98
  -3   2   6 134771.   2790.
   4  -5   2 9440.01  163.77
  -4   5  -2 9439.16  209.04
   4  -5   2 9108.51  248.94
   3  -2  -6 127221.   2515.
  -4   5  -2 9485.75  229.99
   3  -2  -6 129081.   2501.
  -3   2   6 131633.   2635.
  -3   2   6 136151.   2594.
  -3   2   6 131701.   2586.
  -1   4  -546837.98  876.34
  -1   4  -548075.45  900.69
  -1   4  -549662.15  578.78
   1  -4   549532.52  967.12
  -1   4  -550130.27  588.61
   1  -4   549228.34 1110.36
  -1  -3  -3 1620.43  125.07
  -1  -3  -3 1687.37  176.87
   1   3   3 1513.40  122.37
   1   3   3 1556.60   35.15
   1   3   3 1417.00  102.79
   1   3   3 1567.23   33.08
   0  -3  -418072.01  334.79
   0   3   417763.60  236.40
   0   3   418052.43  365.90
   0   3   417113.95  233.40
   0   3   417445.29  480.60
   0  -3  -416725.54  356.96
  -5   3   567285.91 1190.38
   5  -3  -565708.45 1150.97
  -5   3   566164.84 1156.83
  -5   3   570333.48  874.99
   5  -3  -565993.20 1153.43
  -5   4  -1  864.65   71.77
  -5   4  -1  756.78   80.77
   5  -4   1  810.35   79.97
  -5   4  -1  877.69  154.29
   5  -4   1  806.49   74.45
   5  -4   1  607.98   74.08
  -5   4  -1  805.54   79.10
  -5   5   3 4448.30  144.52
   5  -5  -3 4481.27  148.99
   5  -5  -3 4311.37   54.58
   0   2  -643737.90 1080.19
   0  -2   646728.88  655.51
  -5   5   3 4430.36  153.45
   0   2  -643836.50 1048.16
   0  -2   645724.92  876.92
   5  -5  -3 4227.19  241.61
   5  -5  -3 4598.53   83.26
   0  -2   646923.65  884.89
   0   2  -644753.95  590.84
  -1   6   0 1425.85  107.99
   1  -6   0 1382.68   80.60
  -1   6   0 1484.00   89.88
   1  -6   0 1321.30   86.45
  -1   6   0 1325.57   85.21
   1  -6   0 1374.58   87.15
   1  -6   0 1455.55   54.52
   0  -1   625011.36  728.77
   0   1  -626051.51  524.11
   0   1  -625396.36  488.70
   0   1  -624737.93  351.46
   0  -1   627410.63  508.92
   0  -1   627133.82  396.35
  -3   6  -2 6907.24  170.47
   3  -6   2 6693.89  167.79
   3  -6   2 6823.25  110.99
  -3   6  -2 6410.08  117.31
   3  -6   2 6509.49  206.46
  -3   6  -2 6841.00  196.95
  -4  -2   1 3166.31  101.69
   4   2  -1 2931.94  163.29
  -4  -2   1 3103.24   28.11
  -4  -2   1 3110.88  162.91
  -4  -2   1 2970.43   30.78
   4   2  -1 2915.51   97.19
  -4  -2   1 2869.71  164.23
   1   2   414571.57  318.88
  -1  -2  -414485.96  305.90
   1   2   414009.76  199.08
   1   2   414161.13  313.97
  -1  -2  -413469.92  311.01
   1   2   414141.22  201.84
   0   4   3 7151.47  131.85
   0   4   3 7304.16  184.54
   0   4   3 7558.11  216.49
   0   4   3 7131.14   91.15
   0  -4  -3 7349.28  181.47
   0  -4  -3 7492.79  361.35
  -5   0   512572.71  139.91
  -5   0   512351.80  229.39
   5   0  -511953.31  236.38
  -5   0   512411.80  217.41
  -5   0   512269.22  234.53
  -5   0   512691.63  192.62
   4  -2  -6  269.92   65.26
   4  -2  -6  175.57   92.03
   4  -2  -6  270.99   31.22
  -4   2   6  201.12   63.29
  -4   2   6  201.91   66.83
  -4   2   6  277.82   50.07
   2   4   017782.32  388.05
   2   4   017516.77  452.62
  -2  -4   017892.00  327.30
  -2  -4   018352.86  397.68
   1   3  -616032.20  361.42
  -1  -3   617369.11  343.05
   1   3  -616383.04  319.64
  -1  -3   617352.60  599.79
  -2   5  -4 1376.93   49.72
   2  -5   4 1378.18  106.99
  -2   5  -4 1667.43   52.81
  -2   5  -4 1542.26  122.26
   2  -5   4 1614.95  126.11
  -2   5  -4 1398.67  113.86
  -3  -3   5   -8.08   51.09
  -3  -3   5  130.74   39.60
  -3  -3   5  117.21   44.15
  -3  -3   5  105.44   36.31
  -3  -3   5   60.30   38.34
   3   3  -5   83.06   42.69
  -3  -2   640602.50  507.43
  -3  -2   640909.23  930.17
   3   2  -638790.43  591.39
  -3  -2   638644.57  551.35
  -3  -2   639806.37  703.28
   3   2  -639237.59  541.39
  -3  -2   640821.98  653.76
   3   2  -639299.68  683.60
   1  -1  -6 103053.   1914.
  -1   1   6 104916.   2281.
  -1   1   6 104604.   2081.
  -1   1   6 108742.   1984.
  -1   1   6 106114.   2216.
   1  -1  -6 105898.   2123.
   6  -3  -3 152731.   3152.
  -6   3   3 153232.   3097.
  -6   3   3 154047.   3214.
   6  -3  -3 148860.   2997.
   5  -2   1 7117.64  145.22
   6  -3  -231738.53  404.53
  -5   2  -1 7258.04  229.38
  -6   3   232113.80  828.72
   6  -3  -231584.01  516.37
  -5   2  -1 8159.06  327.88
   5  -2   1 7149.75  177.55
  -6   3   232601.27  667.24
   6  -3  -231763.45  572.73
  -5   2  -1 7748.02  155.93
  -5   2  -1 7621.14  227.04
  -6   3   232563.07  403.32
  -3   6   2 4872.45  156.85
   3  -6  -2 5119.80  126.96
   3  -6  -2 4956.55  112.22
  -3   6   2 4814.63  205.41
   3  -6  -2 5013.72  111.29
   3  -6  -2 5186.57  151.29
  -3   6   2 5077.70  112.19
  -3   3  -460880.99 1011.86
  -3   3  -458358.53 1143.82
   3  -3   454850.99  996.41
  -3   3  -460744.43  997.77
   3  -3   457168.57 1101.10
  -3   3  -460367.47 1092.55
   6  -2  -3  616.38   61.98
  -6   2   3  769.43   91.16
  -6   2   3  658.14   38.08
  -6   2   3  643.81  106.15
   6  -2  -3  664.25   88.19
  -4   6  -1 124632.   2330.
   4  -6   1 125055.   2309.
  -4   6  -1 118228.   2227.
  -4   6  -1 121949.   2412.
   4  -6   1 120006.   2702.
   4  -6   1 124052.   2339.
  -4   6   244535.76  743.23
  -4   6   244413.36  958.50
   4  -6  -244549.18  737.95
   4  -6  -244459.88  729.87
   4  -6  -243146.46  626.31
   4  -6  -243853.80  624.21
  -2   2   623037.66  529.15
   2  -2  -622550.58  394.39
   2  -2  -623197.26  421.51
  -2   2   623282.66  406.61
  -2   2   623427.72  396.21
  -2   2   623100.90  424.27
   2   2   397477.75 1538.65
  -3  -3   0 111528.   2332.
  -2  -2  -390645.33 1808.82
   2   2   395669.03 1542.22
   3   3   0 114839.   2139.
   2   2   394424.79 1808.74
  -3  -3   0 116829.   2189.
   3   3   0 107158.   2242.
  -2  -2  -397043.93 1838.64
   2   2   394781.62 1922.91
  -5  -1   313405.44  264.83
  -5  -1   313019.22  293.71
  -5  -1   313695.88  194.00
  -5  -1   313294.59  177.04
  -5  -1   314544.83  351.65
   5   1  -312686.03  242.96
  -4  -2   553520.81  824.50
  -4  -2   554171.83  820.88
  -4  -2   554940.16  933.14
  -4  -2   554285.86  875.99
  -4  -2   553826.49  812.02
  -4  -2   553198.30 1061.99
  -1   4   4 4110.65  130.69
  -1   4   4 3872.03  129.10
  -1   4   4 3930.20   88.06
   1  -4  -4 3745.96  126.01
   1  -4  -4 3967.46   85.08
  -1   4   4 4106.09  273.77
   1  -4  -4 4067.92  165.98
  -3   2  -4 2518.46  115.14
  -3   2  -4 2742.51  112.50
  -3   2  -4 2458.31  269.66
   3  -2   4 2326.31  110.95
  -3   2  -4 2517.45  103.82
   3  -2   4 2213.78  107.12
   3  -2   4 1936.86  141.94
  -4   4   552268.57  905.80
   4  -4  -550606.48  744.59
   4  -4  -552168.51 1063.88
   4  -4  -551566.27  900.00
  -4   4   552424.45 1121.16
  -4   4   554306.78  759.48
  -1  -5   456428.12  966.57
  -1  -5   458719.13  834.87
  -6   2   2 1495.79   72.20
  -6   2   2 1419.06  226.08
   6  -2  -2 1360.64   71.41
   6  -2  -2 1330.15   55.62
   6  -2  -2 1623.69  115.66
  -1  -5   453285.44 1212.06
  -6   2   2 1625.30  128.43
  -1  -5   456082.63  964.47
   1   5  -456442.62  858.54
   1   5  -453629.80  935.27
  -6   2   2 1596.21   58.32
   1  -6   3 1785.24   62.95
   1   4   245021.52  878.02
   1  -6   3 1616.29  103.46
  -1  -4  -244733.41  849.39
   1   4   244180.28  766.63
   1   4   247315.99  592.06
   1  -6   3 1745.08  104.77
   1  -6   3 1667.55  112.42
  -1   6  -3 1687.53  112.81
  -1   6  -3 1768.64  106.64
  -1  -4  -244477.03  755.02
  -1   6  -3 1652.14   79.04
   4  -5  -4 8867.21  128.37
  -4   5   4 9565.13  367.65
   4  -5  -4 9001.38  196.97
  -4  -1   6 6013.09  177.24
  -4   5   4 9196.57  206.02
   4   1  -6 5847.91  183.71
   4  -5  -4 9200.59  222.17
  -4  -1   6 6058.14  181.22
   4   1  -6 5721.52  149.77
  -4   5   4 9408.90  182.09
  -4  -1   6 5894.01  150.07
  -4  -1   6 5866.76  167.03
  -6   4   2  463.08   65.88
   6  -4  -2  450.68  131.43
  -6   4   2  427.71   31.71
  -6   4   2  418.10   81.84
   6  -4  -2  422.25   68.67
   0  -3   618753.65  402.09
   0   3  -618349.83  179.07
   0  -3   619155.04  438.43
   0   3  -617764.47  399.14
   0   3  -618019.51  387.46
   0  -2  -532304.80  601.25
   0   2   531454.61  478.04
   0   2   531529.38  801.29
   0   2   531116.55  487.86
   0   2   532450.33  747.69
   0  -2  -530658.56  748.28
   2  -6   3 6830.16  222.74
  -2   6  -3 6722.82   97.47
   2  -6   3 7009.85  127.94
  -2   6  -3 7175.67  212.37
   2  -6   3 7415.08  187.85
  -2  -3   6 7173.02   53.98
   2   3  -6 7044.07  334.04
  -2   6  -3 7138.04  191.76
  -2  -3   6 6849.92  227.36
  -2  -3   6 7077.47  179.29
   2   3  -6 7167.36  171.23
  -2  -3   6 7177.33   69.28
  -3   4   521580.24  313.00
  -3   4   521392.03  562.61
   3  -4  -522760.53  364.62
  -3   4   521990.05  380.45
   3  -4  -520968.58  423.90
   3  -4  -521014.03  408.13
  -1  -5   016647.19  187.27
  -1  -5   016709.56  345.40
  -1  -5   015932.11  311.59
   1   5   015887.15  494.66
   1   5   015625.44  297.10
  -4   3  -3 3415.20  131.02
  -4   3  -3 3168.20  209.65
   4  -3   3 3163.09  126.84
  -4   3  -3 3351.51  122.50
   4  -3   3 3056.85  150.76
  -4   3  -3 3309.09  161.35
  -5  -1   4  123.90   52.24
  -5  -1   4  128.35   48.64
  -5  -1   4  140.79   34.28
  -5  -1   4  203.60   38.45
  -5  -1   4  122.21   71.37
  -5  -1   4  152.38   27.33
   2   3   220810.86  392.45
  -2   3  -553584.04 1076.87
   2  -3   553973.63 1047.67
  -2  -3  -220408.52  465.78
  -2   3  -558203.09  888.87
  -2   3  -555117.47  836.35
  -2  -3  -221510.08  557.94
   2  -3   552427.63 1218.15
  -2   3  -555307.69 1034.64
   2   3   221006.47  679.62
  -2   2  -522976.83  502.95
  -2   2  -521832.26  340.24
  -2   2  -522233.95  424.81
   2  -2   521428.90  476.08
   2  -2   523021.97  440.77
   2  -2   522172.39  364.96
   3  -4   418644.75  403.73
   3  -4   417824.53  385.28
  -3   4  -419746.58  400.87
  -2  -4   5 3449.23  204.69
  -2  -4   5 3610.13   48.25
  -3   4  -419256.78  285.82
  -2  -4   5 3511.81  120.86
   2   4  -5 3120.98  211.69
  -2  -4   5 4234.66  250.37
  -3   4  -419016.40  427.11
  -2  -4   5 3561.62   43.29
   2   4  -5 3717.95  120.59
  -3   4  -419150.55  279.90
  -1   3   582211.50 1529.37
   1  -3  -580526.38 1518.29
  -1   3   581685.44 1401.23
  -1   3   583290.16 1557.78
  -1   3   582859.25 1505.82
   1  -3  -581036.54 1477.66
   3  -5  -4  621.39   48.94
   3  -5  -4  573.80   59.27
   3  -5  -4  676.27   86.05
  -3   5   4  692.32   49.99
  -3   5   4  755.86  153.40
  -3   5   4  619.88   63.77
  -6   4   3  161.35   58.54
   6  -4  -3  135.43   57.92
   6  -4  -3  176.98   63.65
  -6   4   3  258.92  121.43
   6  -2  -4  239.56   54.73
  -6   2   4  193.54   52.81
  -6   2   4  260.92   66.04
   6  -2  -4  217.24   65.42
   0   0   613239.95  272.16
   0   0  -612032.22  216.31
   0   0  -612895.09  491.77
   0   0   612683.04  321.71
   0   0  -612683.58  280.48
   6  -3  -426307.47  484.14
  -6   3   426108.71  454.15
   6  -3  -425550.35  447.56
  -6   3   426350.13  480.25
  -4  -1  -128234.37  368.92
  -4  -1  -127467.14  850.68
  -5  -1   236936.09  755.20
  -5  -1   234619.14  491.16
   4   1   125901.31  574.97
   4   1   125989.97  280.84
   5   1  -233852.54  439.99
  -5  -1   234484.80  677.83
   5   1  -232856.54  479.89
  -5  -1   235281.59  460.17
   4   1   126545.98  459.29
  -5  -1   234451.59  520.47
  -4  -1  -127765.35  494.28
  -6   3   1 4657.74  194.01
  -6   3   1 4504.19  123.73
  -6   3   1 4410.49  153.66
   6  -3  -1 4102.75   80.67
   6  -3  -1 4443.39  273.20
   6  -3  -1 4205.45  200.77
  -6   3   1 3775.35  176.19
   5  -5   111373.54  277.41
  -5   5  -111551.29  242.51
   5  -5   111745.43  334.72
  -5   5  -111152.87  216.24
  -5   5  -111608.13  260.86
   5  -5   111578.01  229.14
   4  -4   319100.66  399.71
  -4   4  -319925.09  445.88
   4  -4   318669.34  552.64
  -4   4  -319761.89  545.07
  -4   4  -319564.43  335.61
  -4   4  -318839.83  403.22
   0   6  -212385.74  222.31
   0  -6   212858.90  209.17
   0   6  -212309.36  213.75
   0  -6   212539.47  262.74
   0  -6   213086.81  274.57
   0  -6   212667.99  269.16
  -6   4   1 1305.37  117.26
  -6   4   1 1419.42   81.31
  -2   6   213316.62  244.20
  -2   6   213524.36  297.73
  -6   4   1 1165.56   89.35
   2  -6  -213144.33  237.81
  -2   6   213804.14  219.95
   6  -4  -1 1174.84   94.45
   6  -4  -1 1277.78   90.23
   6  -4  -1 1359.60  173.42
   2  -6  -213285.20  283.96
   2  -6  -213856.17  289.75
  -4   0  -2 2949.16  116.36
   4   0   2 2577.77   95.03
   4   0   2 2471.44  128.76
  -4   0  -2 2891.57  171.26
  -4   0  -2 2981.31  146.47
   4   0   2 2652.20  168.08
  -1   6   1  454.61  122.05
   1  -6  -1  655.57   78.50
   1  -6  -1  636.84   71.02
   1  -6  -1  605.12   37.83
  -1   6   1  605.39   83.46
   4  -2   3 116386.   2223.
  -4   2  -3 135625.   3207.
   4  -2   3 116508.   2400.
  -4   2  -3 126820.   2873.
  -4   2  -3 128352.   2745.
  -4   2  -3 131786.   2707.
  -2  -1  -4  157.35   72.45
   2   1   4  169.69  122.56
   2   1   4  119.52   74.18
  -2  -1  -4  169.93   35.16
  -2  -1  -4  199.43  134.79
  -5   0   060646.09 1038.24
   5   0   057394.85  948.71
  -5   0   060639.96 1514.69
   5   0   058735.48  903.68
  -5   0   059109.29 1192.48
  -5   0   060530.44  953.32
   5  -6  -1 3760.86   84.39
   5  -6  -1 3608.46  130.81
   1  -5  -3 9717.00  206.70
  -1   5   3 9969.75  145.19
   5  -6  -1 3613.68  151.53
   5  -6  -1 3846.65   79.50
  -1   5   310404.85  422.06
   1  -5  -3 9616.47  136.17
  -1   5   3 9902.56  212.21
   1  -5  -3 9806.13  260.39
  -5   6   1 3839.17  147.16
  -5   6   1 3695.04  137.58
   0  -6   190171.82 1759.12
  -6   1   354989.90 1051.23
   0   6  -184321.56 1549.61
   6  -1  -354376.09  867.40
   0   6  -183797.31 1503.04
   6  -1  -353844.61  723.53
   6  -1  -354574.25 1016.90
  -6   1   360007.99  860.82
   0   6  -182770.63 1412.61
   0  -6   185049.74 1558.94
  -6   1   355810.64  888.89
   0  -6   190599.70 1470.23
  -6   1   357633.96 1100.90
   0  -6   187817.77 1602.19
  -5   1   693722.22 1626.50
   5  -1  -692409.51 1904.01
  -5   1   696133.92 1718.21
  -5   1   695989.96 2059.38
   5  -1  -697631.60 1545.64
  -5   1   695184.64 1793.82
  -5   1   6 100462.   1588.
   0   5   264811.21 1220.16
   0   5   263182.27 1108.03
   0  -5  -264009.03 1135.03
   0   5   263899.94  913.98
   0  -5  -266659.45  937.48
   0  -5  -265359.34 1244.72
  -5   4   5 1004.59   91.56
   1   1   5  383.41   51.03
  -1  -1  -5  373.25   94.56
  -1  -1  -5  439.16   94.72
   1   1   5  336.39   95.12
   1   1   5  389.64  130.38
  -5   4   5 1016.31   33.53
   1   1   5  377.78   56.32
   5  -4  -5 1042.65   95.94
  -5   4   5  929.55   92.84
  -1  -1  -5  348.86   72.61
   5  -4  -5 1153.48  164.68
   5  -5  -457330.49 1009.80
  -5   5   457437.11 1038.77
   5  -5  -457381.40 1030.75
  -5   5   458519.16 1023.94
   5  -5  -459108.60  794.92
   5  -5  -458191.86  853.38
  -4   3   618212.71  517.08
   4  -3  -617527.44  338.31
  -4   3   618070.63  332.31
   4  -3  -617213.30  350.84
  -4   3   618550.52  240.98
  -4   3   617536.13  340.27
   4  -3  -617404.75  326.86
  -6   2   1 2398.49  170.96
   5  -2  -6  249.24   55.67
  -5   2   6  187.60   49.74
  -6   2   1 2324.45  140.41
   6  -2  -1 2320.88   62.91
  -5   2   6   70.56  113.33
  -5   2   6  152.70   63.09
  -5   2   6  152.58   13.19
  -6   2   1 2518.56   92.15
   5  -2  -6  129.79   65.58
   6  -2  -1 2159.30   82.62
  -6   2   1 2706.79  158.83
   5  -1   1 1520.14  151.25
  -5   1  -1 1677.99  138.91
   0  -5   5  100.49   54.61
   5  -1   1 1310.88   55.08
   0   5  -5  -14.32   89.68
   0   5  -5   30.43   53.43
  -5   1  -1 1588.23  242.64
   0  -5   5  -40.55   68.17
  -5   1  -1 1496.58  111.85
  -5   1  -1 1741.73  108.67
  -2   4  -5 3156.77  160.84
  -3   1  -4 1382.79  131.64
  -3   1  -4 1305.25   78.98
  -3   1  -4  934.20   97.16
   3  -1   4 1103.02  122.92
  -2   4  -5 2990.80   57.01
   2  -4   5 2776.56  161.29
   3  -1   4  892.01  100.87
   2  -4   5 2931.69  164.85
  -2   4  -5 3113.88   91.23
  -2   4  -5 3232.05  178.99
   2  -1   553279.74  946.81
  -2   1  -550334.96  870.52
   2  -1   551342.96 1035.39
  -2   1  -550811.62  908.53
   2  -1   552134.75  919.57
  -2   1  -556422.85 1104.92
   6  -1  -414713.98  323.03
   3  -3  -6   89.69   70.84
  -3   3   6   61.15   47.93
  -6   1   415163.91  156.06
  -3   3   6  -28.84   89.32
  -6   1   416223.52  205.03
  -3   3   6   36.17   35.10
  -6   1   415171.15  365.64
  -6   1   415121.68  320.26
  -3   3   6   88.07   46.56
   6  -1  -414777.46  258.31
   3  -3  -6  -17.32   33.20
   5  -6  -2 4916.42  127.83
   5  -6  -2 5063.75  164.10
  -5   6   2 4912.10  168.01
  -5   6   2 5287.96  165.91
   5  -6  -2 4955.02  157.12
   5  -6  -2 4644.06   80.18
   0  -6   330800.40  544.05
   0  -6   331359.61  552.48
   0   6  -331229.44  534.27
   0   6  -330572.27  437.31
   0  -6   332584.73  482.74
   0  -6   331289.32  555.13
  -3  -4   335378.85  583.73
  -3  -4   336942.24  634.30
  -3  -4   335486.64  460.04
   3   4  -334743.00  611.50
   3   4  -333259.16  545.21
  -3  -4   334072.51  500.87
  -3  -4   334953.16  580.16
   3   4  -334731.14  444.22
  -5   6   0  -32.36   61.83
  -5   6   0   96.36   51.24
  -5   6   0  204.62   59.01
   5  -6   0   48.50   58.11
   5  -6   0   27.73   56.99
   5  -6   0   39.12   41.42
  -5  -1   542525.77  601.17
  -5  -1   543155.89  673.17
  -5  -1   542590.81  687.51
  -5  -1   543794.22 1000.59
  -5  -1   542685.35  682.74
  -5  -1   543202.48  718.43
  -6   1   282167.27 1364.37
   6  -1  -278996.28 1306.77
  -6   1   282846.44 1666.58
  -6   1   282583.73 2017.89
  -6   1   285313.88 1538.35
   6  -1  -278200.00 1305.65
  -4  -2   026748.50  462.00
  -4  -2   027728.21  608.47
   4   2   025030.84  562.92
   4   2   025932.56  442.19
   6  -4  -4 5572.66  181.43
  -6   4   4 5123.09  169.13
   6  -4  -4 5124.10  168.58
  -6   4   4 5476.96  181.34
  -3   6  -351924.51  854.34
   3  -6   354955.41  980.92
   3  -6   356368.51  814.55
  -3   6  -354448.30  976.42
  -3   6  -354609.70 1031.91
   3  -6   352694.30 1331.61
   1  -5   518634.02  444.66
   4  -6   237428.07  663.14
   4  -6   236650.58  630.67
   4  -6   236892.26  729.73
  -4   6  -235140.86  547.95
  -4   6  -237211.06  633.40
  -1   5  -519286.80  408.57
  -1   5  -519549.35  614.59
  -4   6  -237625.85  695.59
   1  -5   519377.45  387.49
  -3   0   739296.47  656.98
   3   0  -737334.33  545.98
  -3   0   739849.78  741.08
  -3   0   738190.67  695.21
   3   0  -736829.54  602.28
  -3   0   738364.36  982.56
   4  -6  -3 107182.   1879.
   3   2   2 6781.11  253.33
   4  -6  -3 107867.   2024.
  -4   6   3 109109.   2303.
  -3  -2  -2 6823.50  321.82
  -3  -2  -2 6315.35  244.63
   4  -6  -3 107547.   2066.
   3   2   2 6532.82  195.13
   3   2   2 6532.03   61.43
  -4   6   3 108762.   2143.
   4  -6  -3 108592.   1874.
  -4   6   3 112161.   1955.
   3   2   2 6370.90   60.02
  -2  -1   747669.51  913.11
  -2  -1   750514.38  953.93
   2   1  -749494.65  932.65
  -2  -1   751471.52  724.37
   2   1  -746564.61  841.37
  -2  -1   749584.57  965.40
   2   1  -747022.96  737.83
  -6   5   2 9416.50  246.29
   6  -5  -2 9070.18  100.00
   6  -5  -2 9289.13  228.31
   6  -5  -2 8789.80  227.53
  -6   5   2 8769.47  356.64
   6  -5  -2 8574.55  121.49
  -6   5   2 9284.64  104.45
  -2   4   5 5361.91  135.93
  -2   4   5 5324.55  124.63
  -2   4   5 5363.22  141.73
   2  -4  -5 5402.95  191.16
  -2   4   5 6160.96  312.87
   2  -4  -5 5432.70  146.23
   2  -4  -5 5068.07  126.79
   3   4  -2 4150.92  131.42
  -3  -4   2 4663.11  169.26
  -3  -4   2 4224.38  138.83
  -3  -4   2 4444.07   55.27
  -3  -4   2 4420.11   47.28
   3   4  -2 3982.94  160.11
   1  -2   669047.07 1405.41
  -1   2  -668850.57 1595.15
  -1   2  -669133.93 1098.65
   1  -2   673999.12 1351.35
   1  -2   672459.60 1402.97
  -1   2  -671116.43 1426.26
  -2   0   7 2167.43  151.29
  -2   0   7 2455.18  136.17
   2   0  -7 2181.93   72.80
   5   0  -6 2789.53  102.77
   2   0  -7 2145.11  127.17
  -2   0   7 2493.56  134.89
   2   0  -7 2494.45  146.34
  -2   0   7 2559.35   73.57
  -5   0   6 2919.17   66.28
  -5   0   6 2784.71   49.66
  -5   0   6 2915.95  123.45
  -5   0   6 3066.40   89.98
  -5   0   6 2938.83  128.98
  -4  -3   3  562.54   39.88
  -4  -3   3  614.64   61.22
  -4  -3   3  783.29   87.63
  -4  -3   3  668.83   61.78
  -4  -3   3  582.68   27.53
  -4  -3   3  805.12  142.82
   4   3  -3  591.00   55.48
   4   3  -3  257.28   78.81
  -3  -1  -3 107541.   2578.
   3   1   3 110386.   2609.
  -3  -1  -3 111013.   2011.
   3   1   3 107198.   2451.
  -3  -1  -3 112238.   2265.
   3   1   3 103337.   1840.
   6  -2  -5 1470.04  102.48
  -6   2   5 1369.58   99.72
   6  -2  -5 1368.71   96.18
  -6   2   5 1498.48   97.87
   3  -6  -383964.61 1452.69
  -3   6   383839.08 1597.05
  -5  -1   1 1209.27  142.31
  -3   6   383999.02 1654.72
  -1  -4   6   32.75   49.31
   1   4  -6   68.51   61.42
  -3   6   383868.12 1440.35
  -1  -4   6   -5.56   64.93
   3  -6  -381920.91 1404.88
   5   1  -1 1000.14   66.22
   1   4  -6   19.66   52.55
  -5  -1   1 1105.22   72.99
   3  -6  -383292.87 1560.09
  -5  -1   1 1137.18   29.24
  -5  -1   1  879.79  128.51
   5   1  -1 1027.66   47.20
   4  -5   3 1270.32  125.90
  -4   5  -3 1411.76  119.91
  -4   5  -3 1443.83  124.81
   4  -5   3 1508.54  111.11
  -4   5  -3 1522.27  127.16
   3   4  -4   73.68   30.21
  -2   5   469090.89 1147.47
   2  -5  -469551.60 1316.47
   2  -5  -467721.64 1170.18
  -3  -4   4  115.64   46.66
  -3  -4   4   99.52   41.63
  -3  -4   4   69.59   45.63
  -3  -4   4   65.50   35.86
  -3  -4   4   71.36   31.17
  -2   5   470920.76 1211.79
  -2   5   470341.39 1608.96
  -3  -4   4   95.96   40.68
   2  -5  -468610.78 1113.07
   3   1  -721265.83  343.14
  -3  -1   721013.66  540.58
  -3  -1   722490.55  657.40
   3   1  -721023.25  281.06
   3   1  -721879.31  453.66
  -3  -1   722115.95  467.68
  -3  -1   722545.44  342.03
   2   4   137778.62  668.90
  -2  -4  -138320.98  678.74
  -3   5  -4 102826.   1767.
  -3   5  -4 104707.   2102.
   3  -5   499849.10 1952.04
   3  -5   495815.88 2295.41
  -3   5  -4 105165.   1928.
   2   4   138355.00 1046.59
  -2  -4  -139470.34 1058.99
  -3   5  -4 101852.   2071.
   0   4  -629399.39  831.11
   5  -3   2   65.05   79.29
   0  -4   630678.39  591.53
  -5   3  -2   72.59   50.12
   0   4  -629647.23  580.35
  -5   3  -2   49.34  109.25
   0  -4   630568.41  662.51
   5  -3   2   13.85   51.32
  -5   3  -2  155.70  110.20
   6  -5  -177387.22 1307.75
  -6   5   183412.28 1793.23
  -6   5   185559.16 1357.72
   6  -5  -182502.62 1746.68
   6  -5  -180983.81 1498.13
  -6   5   182053.28 1575.84
   1  -2  -6  -13.02   83.48
  -5   4  -244027.52  801.72
   5  -4   242187.20  761.11
  -5   4  -244341.06  791.74
  -5   4  -244636.42  790.67
  -1   2   6   29.67   54.30
   1  -2  -6  -26.50   55.24
  -1   2   6   28.99   45.10
  -1   2   6    4.84   39.99
  -5   4  -244081.46  807.59
  -1   2   6  100.67   79.15
   5  -4   241345.26  763.91
   0  -6   082588.88 1527.08
   0   6   078027.01 1485.31
   0  -6   084099.60 1372.55
   0  -6   080206.47 1467.74
   0   6   078430.87 1278.12
   0   6   078855.30 1415.95
  -2  -5   3 128804.   2550.
  -2  -5   3 131537.   2853.
  -2  -5   3 132082.   2553.
  -2  -5   3 134101.   2541.
   2   5  -3 128645.   2346.
   2   5  -3 123611.   2455.
   1  -3   6 9461.65  286.11
  -1   3  -6 9696.13  272.48
  -1   3  -6 8923.41  151.85
   1  -3   6 9165.20  455.04
  -1   3  -6 9755.44  126.46
  -1   3  -6 9093.76  295.80
   1  -6   4 3199.39   54.24
  -1   6  -4 3189.46  154.38
  -6   5   336380.33  675.35
   6  -5  -337027.63  441.20
  -1   6  -4 2848.79   60.85
   6  -5  -337334.64  669.79
   6  -5  -337024.61  671.54
   1  -6   4 2963.55  143.17
  -3  -3   661316.09 1046.00
  -3  -3   663331.07  916.68
  -6   5   336785.27  851.98
   1  -6   4 3162.95  277.88
  -3  -3   659109.76 1361.88
  -3  -3   660535.15 1012.37
   3   3  -659933.32 1000.76
  -3  -3   660384.07  969.84
   3   3  -659495.98 1281.56
  -1   6  -4 3021.01  145.91
  -4  -3   4  125.71   41.77
  -4  -3   4  206.53   43.65
  -4  -3   4   57.02   41.09
  -4  -3   4   37.59   38.70
  -4  -3   4  144.38   52.52
   2   5  -288519.56 1604.74
  -2  -5   292900.42 1760.51
   2   5  -285031.57 1648.84
  -2  -5   289403.57 1670.23
   2   5  -292738.69 1512.33
  -2  -5   297852.44 1545.71
  -2  -5   292770.98 1713.01
  -3   1   7 7505.15  214.85
  -3   1   7 7309.48  237.93
  -3   1   7 7475.72  148.11
   3  -1  -7 7138.71  150.59
  -3   1   7 7480.59  276.78
   3  -1  -7 7019.13  176.61
  -6   3   5 8940.87  223.96
  -6   3   5 8693.42  220.45
   6  -3  -5 8953.22  223.13
   6  -3  -5 8821.05  228.02
  -1  -5   510234.80  283.38
  -1  -5   510595.82  247.25
  -1  -5   510461.73  246.08
   1   5  -510292.79  243.88
  -1  -5   510765.97   85.22
  -1  -5   510610.32   83.73
   1   5  -510270.85  249.18
  -6   3   086572.21 1767.42
  -6   3   090578.60 2111.27
   6  -3   085400.05 1710.06
  -4  -2   6 105863.   1783.
  -4  -2   697265.57 1815.17
  -6   3   089316.09 1615.39
   6  -4   0 2009.10   89.67
  -4  -2   6 103764.   2206.
   6  -4   0 2365.64  115.65
  -4  -2   6 105836.   1852.
  -6   4   0 2428.98  151.91
   6  -4   0 2473.01  215.14
  -6   3   092597.72 1686.24
  -6   4   0 2362.13   89.19
  -4  -2   6 107365.   1917.
   6  -3   081264.52 1426.22
  -6   4   0 2210.36  111.83
  -4  -2   6 104007.   2283.
   5  -3  -6 3086.86  130.08
   3  -7   028173.00  454.75
   5  -3  -6 3067.47  141.04
  -5   3   6 3553.06  152.45
  -3   7   027147.42  466.17
   3  -7   027424.32  458.65
  -5   3   6 3133.27  129.32
   3  -7   027909.25  480.08
   3  -7   027193.90  455.18
   5  -3  -6 3071.73   69.40
  -3   7   028019.73  491.69
   2   2  -711203.93  305.19
  -2  -2   711480.57  307.25
  -2  -2   711895.31  128.00
   2   2  -710642.21  244.75
  -2  -2   711134.15  406.36
  -4  -3   218069.42  451.66
  -4  -3   217573.04  403.68
   4   3  -216673.85  386.71
   4   3  -216859.86  406.96
  -4  -3   218349.43  200.22
  -4  -3   217704.39  409.16
  -4  -3   218524.31  205.57
   1   5   1 2205.03  204.50
   1   5   1 2135.79  147.63
   4  -1   3 8287.63  239.37
  -4   1  -3 9748.81  271.12
  -1  -5  -1 2328.32  148.89
  -4   1  -3 8942.70  258.18
  -4   1  -3 9544.54  285.22
  -1  -5  -1 2013.62  123.40
   4  -1   3 8698.07  262.01
  -4   1  -3 9515.96  264.64
   1   5   1 2120.65   29.91
   4  -1   3 8414.76  260.46
  -1  -5  -1 2257.07   32.48
  -1   1  -6 4380.57  116.64
  -1   1  -6 4983.69  218.51
   1  -1   6 4249.47  208.93
   1  -1   6 4681.30  127.92
   1  -1   6 4770.05  166.74
  -1   1  -6 4537.30  169.48
   3  -7   1  475.63   49.14
   3  -7   1  329.84  117.49
  -3   7  -1  559.66   79.68
   3  -7   1  515.29   76.36
  -3   7  -1  400.40   55.82
   3  -7   1  414.45   66.27
   0  -1  -6 2868.19  160.26
   0   1   6 2655.82  192.55
   0  -1  -6 2431.74  118.55
   0   1   6 2495.68  107.44
   0  -1  -6 2396.59  115.27
   0   1   6 2677.28  121.51
   0   1   6 2438.77  156.96
  -6   1   554245.53 1116.60
   6  -1  -551978.13  939.86
  -6   1   552723.54  937.11
   6  -1  -552055.84 1073.14
  -6   1   558055.74  730.14
   5  -6  -3 2526.17  126.69
   5  -6  -3 2413.41  125.60
  -5   6   3 2419.99  125.44
  -5   6   3 2565.16  137.18
   5  -6  -3 2373.31   86.95
   5  -6  -3 2365.17   55.31
   1   1  -727276.62  563.14
  -1  -1   726347.65  560.46
   1   1  -726091.19  361.25
  -1  -1   728357.26  392.32
   1   1  -725650.80  544.00
  -1  -1   726774.95  748.27
   3   3   1 156903.   3252.
   3   3   1 153806.   3487.
  -3  -3  -1 149092.   3376.
  -3  -3  -1 160183.   3317.
  -4   0   728223.37  482.74
  -4   0   728584.48  564.68
  -4   0   729238.29  566.03
   4   0  -727246.87  418.33
   4   0  -727858.71  395.56
  -4   0   728226.09  501.34
   2  -7   139029.64  675.30
   2  -7   138560.54  851.10
  -2   7  -139653.42  683.56
   2  -7   140595.63  620.98
   2  -7   139885.92  671.35
  -2   7  -138166.38  780.00
  -2   6  -4 1946.71  142.52
  -2   6  -4 2034.72  136.25
   2  -6   4 2061.11  124.12
   2  -6   4 1584.20  146.70
  -4   1   719351.50  303.53
   4  -1  -718379.42  306.53
  -4   1   719090.09  400.23
   4  -1  -718572.09  348.53
  -4   1   719698.12  306.57
  -4   1   719153.45  415.17
   2  -3  -629835.02  541.05
  -2   3   629509.11  491.11
  -2   3   630283.45  549.66
   2  -3  -629000.40  548.86
  -2   3   630562.39  530.22
  -2   3   629310.38  513.26
   1   2  -7  -12.66   57.03
  -1  -2   7  -14.06  125.08
   1   2  -7  -44.45  108.79
  -1  -2   7   59.35   17.85
  -1  -2   7  178.85  112.22
  -5   6  -168836.66 1186.62
   5  -6   166678.75 1332.75
  -5   6  -169132.10 1288.84
   5  -6   168742.10 1345.99
   5  -6   167030.82 1293.29
  -5   6  -166354.28 1175.51
  -2  -5   448103.83  863.03
   2   5  -450201.32  880.66
  -2  -5   449574.52  862.01
  -2  -5   449872.10 1071.04
   2   5  -450697.33  827.93
  -2  -5   452323.59  859.75
   0   6  -4 110332.   2491.
   0   6  -4 120112.   2380.
   0   6  -4 121787.   2087.
   0  -6   4 124374.   2094.
   0  -6   4 119651.   2357.
   0  -6   4 109284.   2280.
   0  -6   4 116377.   2296.
  -6   1   159910.93 1220.82
  -6   1   157744.00 1200.41
   6  -1  -156801.91  882.90
   6  -1  -156866.01  876.50
  -6   1   162020.93 1196.54
  -6   1   160056.35  930.08
  -5   2  -2 7602.75  238.77
   5  -2   2 7455.17  349.87
  -5   2  -2 8104.38  239.12
   5  -2   2 6996.19  159.18
  -5   2  -2 7616.36  405.56
  -5   2  -2 7495.90  165.56
   3   4  -1   58.47   64.11
  -3  -4   1  -53.50   79.59
  -3  -4   1    5.44   58.85
   3   4  -1   32.08   47.81
   2  -1  -7  182.48   84.37
  -2   1   7  222.81   65.83
  -4   7   0 9392.39  209.30
  -4   7   0 9514.93  239.91
  -2   1   7  188.03   77.23
   4  -7   0 9570.86  289.87
   4  -7   0 9440.22  189.40
   4  -7   0 9660.85  239.35
   4  -7   0 9159.49  184.13
   2  -1  -7  185.92  116.03
  -2   1   7  145.70   67.55
  -2   7   0 5733.57  167.10
   2  -7   0 5621.96  161.41
  -2   7   0 5765.71  148.16
   5  -5   242226.27  711.89
   2  -7   0 5994.04  148.13
   2  -7   0 5838.01  137.04
   5  -5   240868.51  786.03
  -5   5  -244223.06  761.89
  -5   5  -243545.17  807.80
  -5   5  -243608.32  781.53
  -5   5  -243456.45  799.85
   2  -7   0 5441.59  162.45
   5  -5   240595.12  931.50
   6   0  -3  501.16   57.67
  -6   0   3  663.09  111.13
  -6   0   3  538.14  175.01
  -6   0   3  608.65   40.81
   6   0  -3  462.98   78.73
  -6   0   3  579.89   44.00
   3  -7  -1 2228.72   95.11
  -2  -5   1   31.51    6.79
   2   5  -1  -41.56   43.62
   2   5  -1    9.21    6.48
   3  -7  -1 2036.97  180.01
   3  -7  -1 1962.08  159.97
   3  -7  -1 1924.02   92.17
  -2  -5   1   12.88   51.00
  -3   7   1 2279.20  195.14
  -2  -5   1   51.82   56.23
  -3   7   1 1864.50   99.86
   2   4  -6 2043.48  123.13
   2   4  -6 1786.27  105.48
  -2  -4   6 2032.92  110.35
  -2  -4   6 1903.00  144.70
  -6   0   4 2722.03   92.56
  -6   0   4 2547.66   89.25
   6   0  -4 2520.56   91.39
  -6   0   4 2573.34  135.26
  -6   0   4 2895.17  163.03
  -6   0   4 2525.24   53.37
  -6   0   4 2719.50   84.91
  -2   7  -262969.54 1042.54
   2  -7   268241.21 1059.44
   2  -7   265926.36 1187.35
   2  -7   266716.94 1198.19
  -2   7  -267806.62 1236.74
   2  -7   267457.41 1229.30
   2  -5   5  279.27   99.62
  -1   6   2  153.24   69.46
  -1   6   2   90.41   29.29
   1  -6  -2  179.54   58.26
   1  -6  -2  150.31   26.99
  -2   5  -5  263.35   93.90
   1  -6  -2  132.16  126.92
  -2   5  -5  315.61   92.90
   2  -5   5  353.06   88.21
  -1   6   2  151.40   54.74
  -2   5  -5  334.52   29.35
   2   0   542829.44 1002.99
  -2   0  -539476.79  671.49
   2   0   540265.37  676.12
  -2   0  -539042.46  724.17
  -2   0  -544610.94  889.80
   2   0   540071.23  834.59
  -6   2   0 3723.34  296.50
   4  -7  -1 1114.82   79.97
  -4   7   1  834.22  152.49
   4  -7  -1  762.15   61.13
  -6   2   0 2849.11   93.77
  -6   2   0 2880.40  181.77
   6  -2   0 2610.31   89.85
   4  -7  -1  766.80   86.39
   6  -2   0 2548.16   92.24
   4  -7  -1  828.97   61.36
  -6   2   0 3107.67  125.88
  -4   7   1  852.64  152.42
  -6   5   079256.40 1343.28
  -6   5   078725.37 1465.83
   6  -5   075416.20 1408.79
  -6   5   079187.71 1525.32
   6  -5   075415.53 1338.54
   6  -5   079005.02 1674.92
   3   2  -775355.04 1299.48
  -3  -2   781338.98 1204.13
  -3  -2   778458.93 1551.41
   3   2  -775547.93 1166.07
  -3  -2   778640.75 1669.18
   3   2  -775051.64 1448.72
  -3  -2   776693.22 1510.42
  -4  -3   5  736.13   58.16
  -4  -3   5  719.88  117.29
  -4  -3   5  801.28   61.83
  -4  -3   5  715.62   72.78
  -4  -3   5  730.09  103.67
  -4  -3   5  661.18   51.31
   1   0  -7  257.50   88.61
  -1   0   7  217.08   76.37
  -1   0   7  128.42   40.87
  -1   0   7   91.62  116.93
   1   0  -7  413.49   87.48
  -3  -4   550755.78 1047.42
   3   4  -551342.92  851.58
  -3  -4   552845.04  896.26
  -3  -4   550744.28  924.11
  -3  -4   551887.10  869.62
  -3  -4   549968.99  799.08
  -1   4  -688393.25 1852.96
   1  -4   689655.58 1820.37
  -1   4  -694098.66 1394.41
  -1   4  -689710.59 2177.11
  -1   4  -691551.13 1329.76
   1  -4   692773.21 2291.82
  -4   5   515996.00  317.16
   4  -5  -515460.46  344.27
  -4   5   515962.14  225.20
   4  -5  -515283.65  227.45
  -4   5   515740.55  350.45
   4  -5  -515474.70  302.64
  -5  -2   3 9593.79  145.02
  -5  -2   3 9349.54  119.18
  -5  -2   3 9392.83  287.62
  -5  -2   3 9446.01  260.72
   5   2  -3 8831.54  159.68
  -5  -2   3 9449.80  177.16
  -1  -3  -4  489.58   98.13
   1   3   4  383.37  169.69
   1   3   4  351.19   89.89
   1   3   4  387.37   32.59
  -1  -3  -4  347.73   89.16
   1   3   4  412.60   30.35
   3  -7   221412.37  448.24
   3  -7   220685.30  555.31
   3  -7   220568.55  388.78
  -3   7  -221205.86  397.33
   3  -7   221744.63  307.82
  -3   7  -219708.40  305.60
  -3   7  -221516.86  447.47
  -3   0  -4 1532.55  123.70
   3   0   4 1717.01  150.65
   3   0   4 1773.63  137.66
  -5  -2   4 6632.56  167.67
  -5  -2   4 6624.64  178.27
  -5  -2   4 6796.53  217.95
   3   0   4 1500.07  117.75
  -5  -2   4 6413.61  129.18
  -5  -2   4 6812.87  140.40
  -3   0  -4 1527.81  126.00
  -3   0  -4 1674.70  152.19
  -5  -2   4 6822.62  198.55
  -6   4   5 1224.67  108.40
   6  -4  -5 1222.86  110.79
   6  -4  -5 1338.92  111.15
  -6   4   5 1197.07  105.10
   2  -6  -3  552.92  178.52
   2  -6  -3  930.80   72.58
   6  -5  -421204.22  415.54
  -6   5   421339.33  421.36
  -2   6   3  698.18  100.06
   6  -5  -421789.66  430.20
  -6   5   421846.08  641.08
   2  -6  -3  686.96   50.29
   6  -5  -420428.62  205.45
  -2   6   3  645.29   53.00
   6  -5  -420257.73  206.03
  -2   6   3  674.66   70.04
   0   4   430189.72  619.13
   0  -4  -429694.12  550.24
   0   4   429945.02  766.24
   0   4   429904.11  401.91
   0  -4  -429154.88  613.06
   0   4   430351.46  475.16
  -5  -1   622952.71  322.85
  -5  -1   622523.88  363.97
  -5  -1   621571.76  331.51
   5   1  -621754.83  394.71
  -5  -1   623272.61  432.64
  -5  -1   622175.60  550.32
  -5  -1   622411.80  420.56
  -4   7  -111391.92  285.39
   4   1  -724471.53  355.50
   4   1  -723517.49  351.32
  -4  -1   725679.40  728.84
  -4   7  -110504.99  209.07
   4  -7   110797.17  342.23
   4  -7   111323.49  289.56
  -4   7  -111456.09  349.51
   4  -7   111438.76  228.52
  -4  -1   724833.53  501.11
   4  -7   111354.20  201.46
  -4  -1   724757.70  538.80
  -4  -1   725102.34  408.54
   4  -2  -712736.60  249.18
   4  -2  -712038.43  210.31
  -4   2   713074.83  324.87
  -4   2   713516.83  298.81
  -4   2   713354.26  251.22
  -4   2   713161.67  307.61
   1   6  -2 9790.93  221.93
  -1  -6   2 9575.06  241.52
   1   6  -2 9418.78  214.54
  -1  -6   210059.27  295.12
  -1  -6   2 9984.74  148.44
  -1  -6   2 9876.90  245.57
  -3   2   7  209.57   75.93
  -3   2   7   -1.04   94.67
  -3   2   7  292.17   68.53
   3  -2  -7  404.02  117.58
   3  -2  -7  475.40   66.97
  -5   0  -198131.69 2093.54
  -5   0  -1 100178.   1691.
  -5   0  -1 100098.   2124.
   1   4   3 121947.   2628.
  -1  -4  -3 122035.   2435.
   1   4   3 121121.   2794.
   5   0   191324.68 1712.50
  -5   0  -198818.43 1926.30
   5   0   193217.88 1575.87
   1   4   3 126788.   2204.
  -1  -4  -3 118656.   2547.
   5   0   188873.47 1904.78
  -4  -3   1  413.02  102.98
   4   3  -1  372.45  109.60
  -4  -3   1  374.74  119.78
   4   3  -1  246.96   95.39
  -6   0   2  133.81   28.27
   0   3   536973.05  706.41
   0   3   536095.67  653.16
   6   0  -2  120.16   32.11
   0   3   536206.96  693.20
   6   0  -2  111.75   29.07
  -6   0   2  132.04   88.04
   0   3   536001.61  535.59
  -6   0   2  231.54   70.70
   0  -3  -536774.41  686.83
   0  -3  -535008.98  699.83
  -6   0   2  155.62  158.27
   4  -4  -6 1838.63  201.49
  -4   4   6 1814.31  108.52
   4  -4  -6 1518.00   71.88
  -4   4   6 1757.80  117.54
  -4   4   6 1840.76  118.99
   4  -4  -6 1676.82  182.32
  -1  -6   322607.06  368.86
  -1  -6   322229.50  430.18
  -1  -6   323257.93  421.37
   1   6  -322072.29  357.19
  -1  -6   321997.39  427.34
   1   6  -321621.00  356.13
   5  -5  -5 111260.   2177.
  -5   5   5 114592.   2644.
  -5   5   5 110837.   2504.
  -5   5   5 117589.   2054.
   5  -5  -5 109930.   1976.
   5  -5  -5 110389.   2205.
   1   3  -7 5639.37  362.91
  -1  -3   7 4977.03  195.65
  -1  -3   7 5212.19  233.36
   1   3  -7 4659.01  185.76
   4   1   2 1356.37  111.89
   4   1   2 1258.00   48.76
  -4  -1  -2 1399.61  152.48
  -4  -1  -2 1474.45   60.07
  -4  -1  -2 1255.67  117.66
   4   1   2 1388.95  152.30
   0  -6  -1 6087.23  210.13
   0  -6  -1 5946.64  188.97
   0  -6  -1 6048.04   78.46
   0   6   1 6063.45   96.86
   0   6   1 5955.65  215.96
   0   6   1 5597.91  182.47
   6  -6  -2 7389.43  210.55
   6  -6  -2 7267.71  218.33
   6  -6  -2 6999.52  150.95
  -1   0  -6 8452.57  220.48
  -1   0  -6 8631.53  203.64
   1   0   6 8701.72  301.12
   1   0   6 9027.64  214.54
   6  -6  -2 7128.48   95.90
  -6   6   2 7244.65  363.09
  -6   6   2 7479.13  223.04
  -1   0  -6 9028.77  292.82
   1   0   6 9180.98  218.33
  -2  -3   757601.19 1063.61
   2   3  -756070.71 1001.75
  -2  -3   758354.86 1490.86
   2   3  -755293.49 1090.04
   3  -5  -5 1994.43  161.35
   6   0  -5 7661.95  230.97
  -3   5   5 2074.14  174.31
  -6   0   5 8069.19  178.48
  -6   0   5 8301.67  106.91
  -6   0   5 9019.38  256.52
  -3   5   5 2333.21   87.90
   6   0  -5 8067.50  184.00
   3  -5  -5 2218.52   89.57
  -6   0   5 8093.39  324.97
  -3   5   5 2355.86  143.74
   3  -5  -5 2484.85  251.95
  -6   0   5 8188.88  140.99
  -6   0   5 8154.37  191.32
   1  -7   185539.52 1612.92
   1  -7   189030.14 1691.91
  -1   7  -183093.25 1546.94
   1  -7   190094.24 1598.94
   1  -7   187909.80 1917.60
   1  -7   253030.88  914.58
   1  -7   250472.36  914.63
  -1   7  -252199.08  933.29
   1  -7   252898.79  898.38
  -1   7  -249095.58  951.42
   1  -7   250927.17  924.03
   6  -6  -118085.83  273.88
  -6   6   117663.02  381.12
   6  -6  -118220.07  361.00
   6  -6  -117938.86  398.11
  -6   6   117935.23  380.20
  -6   6   118088.85  319.84
   4  -6   3 1446.34  111.27
   4  -6   3 1549.78  140.42
   4  -6   3 1332.36   61.22
  -4   6  -3 1196.42  114.09
  -4   6  -3 1392.54  127.04
  -4   6  -3 1202.11   64.40
   5   1   0 4250.78   50.03
  -5  -1   0 5380.76  419.29
   5   1   0 4051.85  132.73
   5   1   0 4655.22  229.48
  -5  -1   0 4948.36  233.48
  -5  -1   0 4490.82  154.21
  -5  -2   254519.59 1129.85
   4  -6  -4 9392.19  318.52
  -5  -2   253201.97  738.02
   5   2  -250755.14  824.29
   4  -6  -4 8930.13  154.02
  -4   6   4 9862.27  267.18
  -4   6   4 9140.11  152.92
   4  -6  -4 9377.28  259.35
  -4   6   4 9147.91  216.15
  -5  -2   253372.37  890.51
  -5  -2   251327.85 1042.95
  -5  -2   254474.49  710.09
   2   3   328815.27  896.93
  -2  -3  -327098.19  616.26
   2   3   328331.99  556.60
   2   3   326635.71  325.89
  -2  -3  -328841.23  564.69
  -6   2   614544.99  430.90
  -6   2   614571.25  323.94
   6  -2  -614338.48  307.99
  -6   2   614460.41  316.63
   6  -2  -614348.90  476.05
   2  -7  -147373.43  820.76
   2  -7  -148855.05  862.85
   2  -7  -146969.88  815.96
  -2   7   147609.17  816.62
   2  -7  -148796.33  764.62
  -2   7   148483.35  790.22
  -2   7   148125.89 1117.00
  -3   3  -5 113193.   2127.
  -3   3  -5 106198.   2297.
   3  -3   5 104343.   2189.
  -3   3  -5 106169.   2134.
  -3   3  -5 106459.   1979.
   3  -3   5 104391.   2421.
   4  -7  -2 3300.31   97.39
   4  -7  -2 3261.59  142.82
  -4   7   2 3172.19  132.75
   4  -7  -2 3467.52   99.10
   4  -7  -2 3487.66  132.32
  -4   7   2 3642.85  259.09
   1   2   575742.45 1526.81
  -1  -2  -578302.41 1563.83
   1   2   577566.57 1314.28
  -1  -2  -573273.81 1464.04
   1   2   579466.64 1552.08
   1   2   576426.47 1297.95
  -5  -2   559819.60 1019.10
  -4  -2  -157355.35 1043.16
  -1   4   5 4117.80  152.76
  -5  -2   560259.49  957.58
  -4  -2  -155004.86 1170.20
  -5  -2   560527.67  980.46
   4   2   154296.87  980.24
  -1   4   5 3888.30  177.25
  -1   4   5 3825.74  165.49
   4   2   154839.30 1161.14
  -5  -2   560633.79  952.91
  -5  -2   558142.41 1116.59
   1  -4  -5 4063.58  191.50
   1  -4  -5 3861.72  156.22
  -1   4   5 3637.60   94.82
  -5  -2   561678.34 1244.61
   1   6  -144517.80  798.33
   0  -2   725355.76  576.67
  -5   4   6 2279.87  139.17
   1   6  -145867.31  703.92
  -1  -6   146384.95  846.58
   0  -2   725933.10  562.32
  -5   4   6 2343.19  229.47
  -5   4   6 2391.09   43.38
   0   2  -725338.22  393.30
   5  -4  -6 2317.18  227.22
   1   6  -145802.75  860.25
   5  -4  -6 2265.43   61.24
   0  -2   726789.74  443.12
   5  -4  -6 2235.53  134.29
  -1  -6   147385.56  625.97
  -1  -6   145758.67  837.83
  -1  -6   148426.83  861.88
   0   2  -724434.46  769.45
   0   2  -724864.41  816.20
  -4   3  -4  512.62   70.27
  -5   1   780833.37 1415.96
   2   2   411825.74  167.84
  -4   3  -4  546.02  112.50
  -5   1   780748.96 1871.70
   5  -1  -777243.93 1403.93
  -2  -5   513250.93  153.89
  -2  -5   513699.75  435.13
   2   2   411770.93  329.20
   2   2   412100.47  340.16
  -4   3  -4  565.69   74.72
   5  -1  -781033.98 1310.53
  -4   3  -4  395.54  139.96
   4  -3   4  495.68   99.27
   2   2   412104.27  222.82
  -2  -5   513277.24  438.04
   2   5  -513656.97  277.40
  -5   1   781177.08 1444.95
  -5   1   779962.83 1543.62
  -2  -5   513235.00  309.88
  -2  -2  -412332.02  325.36
  -2  -5   513909.04  159.32
  -2  -2  -411522.13  334.98
   4  -3   4  492.19   80.49
   3  -6   4 3665.27  198.83
   2  -7   334885.17  691.00
  -3   4   690097.26 1954.63
   2  -7   333825.97  843.21
   3  -6   4 3706.02  165.90
   2  -7   333749.76  627.75
   2  -7   334492.29  453.88
  -3   4   692940.12 1661.10
   3  -6   4 3508.79   68.94
  -2   7  -333837.05  850.14
  -3   6  -4 3629.90  181.90
  -2   7  -333844.46  655.62
  -3   6  -4 3829.39   71.30
  -2   7  -331717.25  533.35
   3  -4  -688565.32 1745.39
   3  -4  -689907.90 1660.51
  -3   6  -4 3588.98  190.44
  -3   6  -4 3389.70   67.96
  -3   4   692069.16 1786.73
   3  -4  -688552.44 1638.93
  -3   4   690334.24 1670.09
   0   5   334404.57  506.16
   0  -5  -335110.00  719.14
   0   5   335094.04  500.10
   0  -5  -333553.47  624.05
   0   5   335450.88  728.16
   0   5   335351.62  647.69
  -4   4  -443539.78  823.76
  -4   4  -443003.09 1173.96
   4  -4   443350.00  864.08
   4  -4   439942.47  778.86
  -4   4  -443660.43  887.03
  -4   4  -442955.23  859.07
   6  -1  -661676.88 1124.31
   6  -1  -663663.49 1152.42
  -6   1   664182.03 1172.44
  -6   1   665108.27 1196.38
  -6   1   665048.46  975.99
  -6   1   668564.34  933.37
  -6   1   663265.36 1123.85
   5  -7  -1  981.35   57.88
   5  -7  -1  996.35  153.03
   5  -7  -1 1044.48   60.64
   5  -7  -1  972.52  106.50
  -5   7   1  980.96   97.22
  -5   7   1 1060.91  183.73
  -6   4  -1 5196.11  168.01
  -6   4  -1 5294.06  331.24
   6  -4   1 4893.03  169.03
  -6   4  -1 5203.41  163.07
   6  -4   1 4557.70  240.81
  -6   4  -1 5223.14  346.46
  -5   6   4 7008.36  204.17
   5  -6  -4 6747.15  216.17
   5  -6  -4 6608.48  317.64
   5  -6  -4 6479.71  100.53
   5  -6  -4 6586.40   99.04
  -5   6   4 6869.87  233.86
  -3   4  -517233.21  446.68
   3  -4   516860.95  410.11
  -3   4  -517668.65  358.18
   3  -4   517800.31  436.82
  -3   4  -518116.51  403.38
  -3   4  -517669.43  344.35
   3  -7  -2   55.58   92.74
   3  -7  -2   23.22   39.92
  -3   7   2   75.28   42.43
  -3   7   2  122.58   60.57
  -3   7   2   -7.76   44.18
   3  -7  -2   59.10   67.13
   3  -7  -2   20.64   39.81
  -5   1  -2  140.99   83.92
   0   5  -6 5728.58  224.18
  -1   5   413600.28  353.18
   0  -5   6 5051.60  417.51
  -5   1  -2  149.90  128.65
   1  -5  -413748.70  359.69
   5  -1   2  116.44   60.89
  -5   1  -2   97.56   37.61
   0   5  -6 6130.09  218.87
  -5   1  -2  145.73   80.62
  -1   5   413451.42  291.14
   1  -5  -413717.55  197.24
  -1   5   413371.63  200.72
   0  -5   6 6310.72  349.15
   1  -5  -413428.39  434.08
  -1   5   413528.22  192.36
   5  -1   2   32.96   31.87
   0   1  -720953.96  472.58
   0  -1   720709.11  322.84
   0  -1   720980.58  447.35
   0   1  -719162.04  435.52
   0   1  -719065.33  291.32
   0  -1   719301.33  687.84
   6  -3  -641554.67  758.74
  -6   6   3 3642.82  168.69
   6  -6  -3 3231.32   53.29
   6  -6  -3 3034.25   74.64
  -6   3   641915.86  782.12
  -6   3   641210.21  739.95
   6  -3  -640516.76  993.54
  -6   6   3 3130.78  158.06
   6  -6  -3 3085.33  160.58
   6  -6  -3 3369.03  265.91
   5  -7   0 2669.39  180.07
  -5   7   0 2298.70   91.55
   5  -7   0 2126.69  149.88
  -5   7   0 2423.77  200.98
   5  -7   0 2218.79  146.82
  -5   7   0 2418.94  145.25
   5  -7   0 2202.88   85.78
   7  -3  -3 5806.90  219.99
  -7   3   3 5979.12  235.90
   7  -3  -3 5693.89  164.32
  -7   3   3 5774.05  263.47
  -7   3   3 5811.85   56.86
  -3   2  -5 1246.48   94.70
  -3   2  -5 1306.00   88.76
  -3   2  -5 1452.18  152.88
   3  -2   5 1218.08   97.64
  -3   2  -5 1474.72  104.79
   3  -2   5 1266.75  103.52
   3  -2   5 1346.46  139.14
   1   6  -456285.20  862.62
   1   6  -454744.70  975.55
  -1  -6   453356.14 1211.27
  -1  -6   457435.20  810.74
  -1  -6   454662.34  997.81
  -1  -6   455327.28 1245.28
   6  -3   170061.15 1241.30
  -6   3  -176192.71 1379.15
  -6   3  -175264.92 1802.28
  -6   3  -172664.96 1822.19
  -6   3  -178274.90 1483.54
   6  -3   168900.13 1287.47
   5  -2  -715688.62  189.99
  -5   2   715431.77  292.30
  -5   2   715681.36  370.97
  -5   2   716318.83  204.76
  -5   2   715873.18  363.68
   5  -2  -714945.32  299.59
  -2  -5   063504.86 1179.70
   4   0   343691.26  741.57
  -4   0  -348139.38  984.34
  -2  -5   065783.48 1299.69
   4   0   346515.51  954.91
  -4   0  -347990.07  844.50
   4   0   344670.79 1163.83
  -4   0  -348446.20  982.99
   2   5   061670.50 1122.94
   2   5   063036.36 1271.05
  -3  -4   0 1098.47  136.78
   3   4   0 1072.51  100.00
  -3  -4   0  904.17  174.48
   3   4   0  890.62  131.93
   5   0  -7 4327.49  195.10
  -1   6  -570102.63 1401.58
  -5   0   7 4745.78  172.26
  -5   0   7 4636.19  181.50
  -5   6  -257067.42 1041.04
   5  -6   254150.09  992.75
  -5   6  -257596.61 1100.28
   1  -6   567713.08 1271.99
   1  -6   564653.14 1699.43
  -5   6  -255850.28  987.43
   5  -6   255876.50 1116.10
   5   0  -7 4341.29  114.92
  -1   6  -568009.19 1326.56
   5  -6   257154.58  959.17
  -5   0   7 4506.60  109.76
  -5   0   7 4232.22  183.14
   3  -6  -485368.46 1510.29
  -3   6   485988.39 1525.30
  -3   6   486496.51 1718.96
   3  -6  -484192.69 1978.08
  -3   6   484758.83 1534.47
   3  -6  -482397.52 1636.77
   1  -7   024507.18  441.27
   1  -7   3  919.54   99.23
   1  -7   023480.39  338.86
   1  -7   023315.74  443.90
  -1   7  -3  804.07   47.65
   1  -7   3  814.15   38.16
  -1   7   022784.76  366.31
  -1   7   023060.39  435.33
   1  -7   023434.32  448.51
   1  -7   3  806.85  176.70
  -1   7  -3  714.60   94.96
   1  -7   3  899.17  165.37
  -1   7   023218.07  458.63
  -1   1   796715.75 2005.28
   1  -1  -793694.89 1921.12
  -1   1   794688.38 1829.43
   1  -1  -789338.87 1891.11
  -1   1   794088.32 1884.73
  -1   1   792162.32 1892.49
  -4   7  -2  367.93   50.23
   4  -7   2  257.57   76.44
  -4   7  -2  255.08   91.38
   4  -7   2  428.52  172.66
  -4   7  -2  362.73   73.45
   4  -7   2  361.72   68.41
   0  -3   7  822.85  129.17
   0   3  -7  641.99  129.68
   0   3  -7  875.87   36.55
   0  -3   7  776.49  123.86
   0   3  -7  835.68  124.58
   0  -3   7  813.06   22.97
   7  -4  -337937.63  688.00
  -7   4   338812.13  780.89
   7  -4  -338317.70  737.98
  -7   4   339470.35  704.05
   2  -2  -737808.56  718.22
  -2   2   738030.50  959.15
  -2   2   739149.48  675.74
  -2   2   739123.85  733.90
  -2   2   738456.78  697.73
   2  -2  -736980.60  850.86
  -6   1   0  136.41   34.48
  -6   1   0  142.13   61.00
   6  -1   0   83.01   42.79
  -6   1   0  184.46   94.32
   6  -1   0   57.83   52.06
  -6   1   0   67.33   89.65
  -6   6   0 2699.56  149.92
   6  -6   0 2506.30   95.61
   6  -6   0 2692.88  123.57
  -6   6   0 2522.31   85.73
  -6   6   0 2835.57  142.29
   6  -6   0 2534.06  270.22
  -7   3   4  134.25   72.62
   7  -3  -4  178.77   68.12
  -7   3   4   41.17  100.42
   7  -3  -4   15.47   56.26
  -1  -5   614460.14  391.64
   1   5  -614996.64  516.80
   1   5  -614935.32  546.07
  -1  -5   615243.96  506.52
   0  -6   546222.30  852.77
   0  -6   543860.75  916.61
   0   6  -544052.16  862.55
   0   6  -545719.04 1106.61
   5  -7  -286699.22 1454.22
  -5   7   286665.13 1690.42
   5  -7  -287040.48 1628.92
   5  -7  -285193.85 1432.88
   5  -7  -287648.62 1661.12
  -5   7   288154.95 1675.84
  -2  -4  -211322.45  288.86
   2   4   211024.32  553.80
  -2  -4  -211255.85  355.02
   2   4   210941.84  286.91
  -2   3  -619389.83  289.55
  -2   3  -618169.94  489.39
  -2   3  -618885.88  432.09
  -2   3  -618597.14  275.05
   2  -3   618771.62  442.93
   2  -3   618476.65  717.18
  -7   4   238746.05  805.52
  -7   4   238438.19  548.23
   7  -4  -237256.12  519.20
   7  -4  -237872.07  742.60
   7  -4  -237437.24  672.02
  -7   4   239216.48  692.83
  -3   7  -328479.39  764.83
  -3   7  -326569.53  378.75
   3  -7   327700.54  610.30
   3  -7   329561.26  467.82
  -3   7  -328561.41  587.49
   3  -7   328614.40  736.18
  -6   5  -1 2286.45  113.47
   6  -5   1 1878.09  184.06
  -6   5  -1 2204.79  134.68
   6  -5   1 2237.45  141.65
   6  -5   1 2192.04  120.57
  -6   5  -1 2273.87  129.77
  -6   5  -1 2247.52  149.33
  -4  -3   6 1640.34  123.23
  -7   3   241068.69  697.82
  -4  -3   6 1530.27  113.95
  -7   3   241483.87  848.95
   4  -2   4 2627.82  116.93
   4  -2   4 2771.97  177.47
  -4  -3   6 1628.74   87.11
  -7   3   240670.80  654.44
  -7   3   240816.13  876.96
  -4  -3   6 1695.43   96.49
  -4   2  -4 2792.56  123.15
   7  -3  -239100.10  778.56
  -4  -3   6 1701.86   87.05
   7  -3  -238956.32  669.18
  -4  -3   6 1545.43  136.06
   7  -3  -239137.43  506.37
  -4   2  -4 2861.55  249.92
  -4   2  -4 3317.28  187.25
  -4   2  -4 3007.36  138.79
  -1   3   617323.75  381.70
   1  -3  -616696.37  381.58
  -1   3   617033.35  371.22
   1  -3  -616766.41  378.97
  -1   3   616659.88  307.47
  -1   3   616868.37  292.73
   4   2  -714915.40  229.89
  -4  -2   714889.83  240.71
  -4  -2   715204.96  356.54
  -4  -2   715010.01  338.82
   4   2  -714546.35  336.92
  -4  -2   714190.55  228.65
  -4  -2   714953.73  263.86
   0   2   6 4074.42  170.57
   0   2   6 4138.22  195.79
   0  -2  -6 4418.42  343.32
   0   2   6 4010.28  339.99
   0  -2  -6 4031.85  169.50
   0   2   6 4147.25  132.08
   6   0  -1 3505.20   70.26
  -6   0   1 3736.52  221.61
  -6   0   1 3421.31  217.65
  -6   0   1 3743.93  126.22
   6   0  -1 3392.56  103.98
  -6   0   1 3912.85  116.31
   1   5   2 1326.70  116.00
  -1  -5  -2 1113.46  137.95
  -1  -5  -2 1102.11  110.98
   1   5   2 1169.14  144.71
   3   3  -7 6671.68  225.03
  -3  -3   7 6636.99   87.84
  -3  -3   7 6417.78  183.58
  -3  -3   7 6528.08   82.15
   3   3  -7 6406.65  166.59
  -3  -3   7 6291.27  228.35
  -3  -3   7 6666.71  242.37
   2  -2   6  -41.51   39.50
  -1   5  -625934.95  580.45
   2  -2   6    9.18   71.36
  -2   2  -6   47.41   70.74
   1  -5   625660.22  786.76
  -1   5  -625725.84  580.88
   1  -5   625508.83  597.82
   2  -2   6  182.81   58.28
  -2   2  -6  -43.25   54.26
  -7   2   316151.64  273.97
   7  -2  -314028.47  374.02
  -7   2   314516.14  267.01
   7  -2  -314035.88  377.22
  -7   2   314719.22  623.77
  -7   2   315423.92  420.97
   7  -2  -314052.93  152.35
  -3  -4   663395.98 1506.52
  -3  -4   667418.47  950.44
  -3  -4   665463.52 1176.71
  -3  -4   666276.23  981.23
   3   4  -664910.69 1188.73
  -3  -4   665893.26 1160.74
   5  -4   344685.00  848.79
  -5   4  -349142.57 1143.47
   4  -3  -737537.22  750.88
  -4   3   739591.11  597.34
   4  -5   414298.70  364.46
  -4   3   737978.79  740.11
  -4   3   738276.85  715.71
   4  -3  -736775.29  676.21
   5  -4   346403.94  896.88
   4  -5   413685.62  368.33
  -4   3   738149.03  881.65
  -4   5  -414770.50  336.12
  -5   4  -348205.66  880.66
  -5   4  -348716.84  964.49
  -4   5  -415149.61  370.79
  -4   5  -414767.58  256.33
  -4   5  -414455.58  390.51
  -5   4  -349509.72  918.07
  -7   4   415157.92  330.71
   7  -4  -414436.86  349.33
   7  -4  -414545.98  322.31
  -7   4   414763.14  372.16
  -7   2   420305.41  367.15
  -7   2   420200.72  458.70
   7  -2  -419440.97  357.34
  -7   2   421332.66  212.65
   7  -2  -419394.01  440.42
  -7   2   420514.04  223.23
   6  -5  -526935.61  769.57
   6  -5  -526851.23  286.14
  -6   5   526993.07  535.74
  -6   5   527100.73  554.22
   6  -5  -526515.40  535.36
   3   2   3 1734.21   32.35
   3   2   3 1915.62  172.57
  -3  -2  -3 2068.55  148.96
   3   2   3 1721.69  146.10
  -3  -2  -3 1775.98  170.93
  -5   3  -3 3559.60  226.30
   5  -3   3 3314.62  163.19
  -5   3  -3 3173.95  253.35
  -5   3  -3 3357.77  164.03
   5  -3   3 2935.61  133.71
  -5   3  -3 3381.19  312.36
  -5  -2   165957.10  851.78
  -5  -2   161899.53  811.35
   5   2  -155456.63 1189.39
  -5  -2   162317.82 1340.90
  -5  -2   159819.16 1281.60
   5   2  -157277.00  971.68
  -5  -2   161498.38 1090.24
  -6   0   6 2093.22  114.99
  -6   0   6 2149.05   80.18
  -6   0   6 2071.11   41.51
   6   0  -6 1848.76  116.06
  -6   0   6 1915.15  101.41
  -6   0   6 2031.76  187.02
  -6  -1   448173.99  999.75
  -6  -1   446156.01  682.76
   5  -7   119054.84  690.17
   5  -7   119829.81  339.05
  -6  -1   444785.76  864.27
  -5   7  -118688.98  348.51
  -6  -1   447321.59  702.74
  -5   7  -119489.74  486.16
  -6  -1   446087.67  692.94
  -5   7  -119683.69  436.08
   5  -7   119345.65  480.54
   6   1  -443671.65  632.29
  -6  -1   446415.91  737.97
  -2   4  -6 6283.66  242.55
  -2   4  -6 6223.23   96.60
  -2   4  -6 6281.35  271.23
   2  -4   6 5867.04  248.56
   2  -4   6 6009.60  258.97
  -2   4  -6 6199.23  134.64
   2  -6   5 1629.96  136.71
  -1  -4   7  345.33  112.04
   1   6   0 126588.   2556.
   1   6   0 126437.   2716.
   2  -6   5 1454.64  162.59
  -2   6  -5 1763.65  149.89
   1   4  -7  411.18  106.11
  -1  -6   0 133730.   3093.
  -2   6  -5 1513.90  258.69
  -1  -6   0 136429.   2314.
   1   4  -7  422.97   89.78
  -1  -4   7  349.17   89.37
  -2   6  -5 1557.88   34.94
  -1  -6   0 132237.   2821.
   2   1   548055.82  780.81
  -3   5  -545895.72  672.48
   3  -5   543746.29  917.92
   2   1   550082.16  979.62
   2   1   546979.12 1009.51
   3  -5   544037.85  905.30
  -2  -1  -551916.54 1071.92
  -3   5  -546334.17  923.30
  -3   5  -545775.82  661.17
  -2  -1  -549227.98  803.02
  -2  -1  -547790.67  947.52
  -3   5  -544306.60  961.02
  -6   2  -116690.28  430.39
  -6   2  -116803.73  450.32
   6  -2   115991.74  272.37
  -6   2  -116869.87  286.33
   6  -2   115700.73  316.97
  -6   2  -118393.55  386.96
   0   0   726664.01  455.45
   0   0  -724184.58  413.47
  -6  -1   3   96.49   36.55
   0   0   725912.07  703.46
  -6  -1   3  167.64   76.98
   0   0   725639.65  595.85
  -6  -1   3  198.04  150.42
   0   0  -724929.12  513.32
   0   0  -725906.78  567.04
   6   1  -3   -1.05   23.45
  -6  -1   3   18.52   43.71
   4   3   0 1195.86  150.16
  -4  -3   0 1001.69  178.60
   4   3   0 1154.94  101.57
  -4  -3   0 1242.69  155.07
   2  -5  -5 1301.74   70.91
   2  -5  -5 1393.69  140.31
  -2   5   5 1384.02   69.85
  -2   5   5 1358.63   96.42
   2  -5  -5 1226.15   95.49
  -2   5   5 1326.38   76.06
  -2   5   5 1313.39  230.02
  -3  -3  -2  338.31  119.97
  -3  -3  -2  596.49  163.96
   3   3   2  433.16   93.17
   3   3   2  522.06  217.90
  -5  -2   6 3454.61  125.10
  -7   5   217294.94  196.45
  -5  -2   6 3518.57  137.19
  -5  -2   6 3788.64  145.76
   7  -5  -217331.81  270.62
  -5  -2   6 3569.18   90.15
   7  -5  -217428.28  394.64
  -5  -2   6 3493.32   96.87
  -7   5   217335.42  375.42
  -5  -2   6 3571.16   98.01
   7  -5  -217447.97  379.08
  -7   5   217528.48  426.51
   7  -5  -3 8830.55   79.62
   7  -5  -3 8897.12  263.41
  -7   5   3 9081.04  282.41
   7  -5  -3 9195.81  414.56
  -7   5   3 8880.07  248.42
  -3   3   7 1856.82  201.28
   3  -3  -7 1972.10  190.06
  -3   3   7 1777.33  201.90
  -3   3   7 1988.20  130.94
   3  -3  -7 2135.75  126.55
  -3   3   7 1995.84  169.12
  -5   3   782296.58 1276.07
   5  -3  -775896.79 1316.43
  -5   3   780539.19 1600.59
  -5   3   782182.72 1531.62
  -5   3   781464.40 1590.13
   5  -3  -778362.99 1482.49
   5  -3  -780604.18 1548.96
   4  -7  -310723.46  278.99
  -4   7   310469.98  190.57
   4  -7  -310391.89  188.57
   4  -7  -310110.60  184.65
  -4   7   310384.30  239.76
   4  -7  -310459.92  230.65
  -4   7   310573.29  294.06
   7  -2  -2 5734.76  140.76
   7  -2  -2 5684.12   90.01
   6  -4  -6 6580.13  220.23
  -7   2   2 6318.18  286.31
  -6   4   6 6726.54  227.08
  -7   2   2 6282.09  268.64
  -7   2   2 6229.94  135.58
  -7   2   2 6263.20  146.74
  -6   4   6 6726.38  216.46
   6  -4  -6 6553.51  217.64
  -3   1  -563058.65 1157.95
   1  -6  -3 1787.00   53.63
  -5   5  -3 2731.21  112.66
  -5   5  -3 2479.36  158.71
   3  -1   561845.12 1315.85
   3  -1   563599.25 1483.90
  -3   1  -563587.28 1196.63
  -5   5  -3 2454.00  120.61
   1  -6  -3 1777.65  267.23
  -3   1  -567867.01 1419.18
   5  -5   3 2675.86  257.81
  -1   6   3 1768.39   59.41
   5  -5   3 2451.26  161.77
  -5   5  -3 2578.49  155.35
   3  -1   562233.37 1123.09
   1  -6  -3 1824.26  116.34
  -1   6   3 1786.81  116.89
  -1   6   3 1952.80  151.13
  -2   7   225545.73  469.56
   2  -7  -225585.75  385.70
  -2   7   225873.28  407.43
  -2   7   225553.42  538.23
   2  -7  -225389.30  462.72
   2  -7  -226231.27  524.34
  -7   4   1  130.92   62.34
  -7   4   1  113.75   82.01
  -7   4   1  124.65   59.59
   0  -7   2   31.69   64.69
   0  -7   2   65.77   38.35
  -7   4   1  171.77   93.78
   0  -7   2   90.56   36.75
   7  -4  -1  162.12   60.85
   7  -4  -1  217.48  137.56
   7  -4  -1  123.28   31.64
   0  -7   2   86.23   65.51
   0   7  -2  -24.46   67.29
   0   7  -2  -44.00   43.12
  -6   6   410265.09  275.69
  -7   3   5 2906.17  141.24
   6  -6  -410215.72  277.23
   6  -6  -410329.08  149.58
  -6   6   410135.21  295.59
   7  -3  -5 2564.94  257.67
   6  -6  -410504.13  283.67
   6  -6  -410034.00  113.79
   7  -3  -5 2472.59  235.77
  -7   3   5 2730.69  157.36
  -5  -1   7 7705.54  124.06
  -5  -1   7 7596.10  224.60
  -5  -1   7 8039.63  235.63
   5   1  -7 7485.65  169.74
  -5  -1   7 7352.56  136.85
  -2   4   6 5873.71  175.91
  -2   4   6 5370.96  159.73
   2  -4  -6 5827.96  373.69
  -2   4   6 6366.63  213.23
  -2   4   6 5618.86  146.56
   2  -4  -6 5598.42  180.43
  -3  -5   342325.54  981.19
  -3  -5   343842.08  786.71
  -3  -5   343358.69  613.50
  -3  -5   342404.10  565.09
  -3  -5   343014.41  775.25
   3   5  -339854.52  947.87
   3   5  -342227.92  554.26
   0  -4   7 1565.49  143.51
   0   4  -7 1856.01  162.28
   0   4  -7 1613.36  153.62
   0  -4   7 1541.58  166.93
  -3   0   872391.46 1850.34
  -3   0   874019.51 1205.83
   3   0  -868772.67 1136.49
   3   0  -866315.77 1240.89
  -3   0   871801.47 1407.12
  -3   0   873385.23 1476.60
  -4  -4   3   91.79   25.16
  -4  -4   3  110.99  116.01
  -4  -4   3   67.43   53.06
  -4  -4   3   46.31   54.38
  -1  -1  -6  349.39  109.88
   1   1   6  451.02   61.71
   1   1   6  469.16  111.82
  -4  -4   3  164.49  112.05
  -1  -1  -6  350.62   64.96
   1   1   6  265.34   66.35
   1   1   6  393.41   83.60
  -1  -1  -6  336.82   79.46
   4   4  -3  -68.99  114.71
   4   4  -3  134.18   51.88
  -6  -1   5 139559.   2918.
  -6  -1   5 143820.   2913.
  -6  -1   5 142018.   3210.
  -6  -1   5 142234.   2686.
  -3  -1  -441568.40  619.52
  -6  -1   5 149027.   2780.
  -3  -1  -441312.65  867.11
   3   1   439138.96  572.28
  -3  -1  -444422.06  922.30
   3   1   440533.87  852.55
  -6  -1   5 145673.   3066.
   3   1   441936.63 1168.52
  -7   2   535329.69  627.49
   7  -2  -534178.66  616.62
   7  -2  -534812.54  921.29
  -4  -4   432875.00  574.41
  -4  -4   434227.50  466.18
  -4  -4   434371.66  580.38
  -7   2   535429.08  685.33
  -4  -4   432775.87  515.27
  -4  -4   432582.36  740.10
  -4  -4   433758.94  618.86
  -3  -1   8 6491.60  409.91
  -3  -1   8 5946.33  201.03
   7  -3  -114133.96  400.05
   7  -3  -113690.84  279.06
  -7   3   115762.41  363.32
   3   1  -8 6119.90  169.45
  -3  -1   8 6462.27  102.18
  -7   3   115015.68  416.99
  -7   3   115402.18  695.90
  -7   3   115395.26  419.39
   7  -3  -114691.57  384.68
  -3  -1   8 6706.66  429.01
   3   1  -8 5900.17  105.19
   3   1  -8 6506.52  248.89
   1  -7  -112361.22  297.93
  -1   7   111860.98  196.21
   1  -7  -111722.18  279.82
   1  -7  -111964.51  173.26
  -1   7   111743.85  279.67
  -1   7   112012.13  481.06
  -1   7  -439084.48  524.94
   2   4  -7 9235.40  247.19
   2  -7   4 5938.54  211.23
   5  -7  -347619.49  866.97
  -1   7  -440689.75  805.81
  -1   7  -442011.34  812.17
  -2   7  -4 5695.13  221.09
   2   4  -710136.05  291.52
  -2   7  -4 5427.68   78.77
   5  -7  -346417.70  689.69
   5  -7  -347696.42  888.43
  -5   7   347322.74  923.12
  -2   7  -4 5688.94  227.32
  -5   7   347596.49  875.49
   2  -7   4 5603.89  100.37
  -1  -6   5 1421.96  121.40
  -1  -6   5 1676.62  121.98
  -2  -4   710331.65  265.81
   5  -7  -345497.77  685.42
  -2  -4   710619.73  333.82
  -1  -6   5 1469.91  127.84
   1  -7   441700.81  801.66
   1   6  -5 1498.08  190.83
   1  -7   442079.97  528.19
   1  -7   441956.89  801.49
  -1  -6   5 1404.30   37.44
   1  -7   439311.93  813.38
   2  -7   4 5556.11  397.55
   2  -1   6 8789.51  232.05
   2  -1   6 8983.41  227.10
  -2   1  -6 8881.53  370.89
   2  -1   6 8434.56  321.92
  -2   1  -6 8394.32  206.64
  -2   1  -6 9189.35  320.65
   0  -7   3  210.00   77.25
   0  -7   3  196.56   33.78
   0   7  -3  265.26   59.18
   0   7  -3  206.67   43.25
   0  -7   3  256.31  137.02
   0  -7   3  268.55  100.43
   0   6   242533.93  793.57
   0   6   242326.73  576.82
   0  -6  -242527.62  800.54
   0   6   243207.59 1174.21
   0  -6  -242727.19  602.61
   0  -6  -243700.03  889.12
  -3  -5   4  502.98   83.25
  -3  -5   4  586.05  107.19
   3   5  -4  566.40  112.45
  -3  -5   4  542.20   62.29
   3   5  -4  595.59   76.16
  -3  -5   4  653.23   45.40
  -3  -5   4  517.00   62.65
  -3  -5   4  497.76   82.75
  -2  -1   841366.92  846.29
   2   1  -838332.59  547.66
   2   1  -837651.42  766.21
  -2  -1   838223.43  800.26
   2   1  -840395.93  840.28
  -2  -1   842128.31  679.11
  -2  -1   840561.47  872.03
   0  -7   1  330.62   84.79
   0   7  -1  241.91   72.30
   0  -7   1  304.90   35.69
   0   7  -1  292.50   44.27
   0  -7   1  514.29  147.21
  -5   2  -379760.83 1454.35
  -5   2  -383578.52 1715.99
  -5   2  -382136.55 1668.71
   6  -6   1   28.52   50.28
   2   5  -656702.96 1320.78
  -6   6  -1  -39.02   68.24
   6  -6   1   41.17   52.83
   6  -6   1  183.08   74.30
  -2  -5   662575.86  786.78
  -6   6  -1   81.44  105.92
  -2  -5   658168.55 1090.80
  -2  -5   656422.68 1169.12
  -6   6  -1   95.48   47.88
   5  -2   371264.40 1445.30
   2   5  -657975.73 1070.28
   5  -2   372060.47 1460.44
  -5   2  -378037.19 1588.08
  -2  -5   662992.85  788.34
  -2  -5   659230.89 1097.34
  -7   5   1 1726.79  147.11
  -7   5   1 1411.56   55.84
   7  -5  -1 1231.40  103.93
  -7   5   1 1384.35  117.63
   7  -5  -1 1421.42  123.58
   7  -5  -1 1336.15  118.55
  -2   6   417591.42  339.43
   2  -6  -417227.21  269.33
   2  -6  -416764.86  330.83
  -2   6   417711.70  659.20
  -2   6   417096.92  277.81
   2  -6  -417713.30  438.20
  -7   5   4  483.35  102.51
   7  -5  -4  417.01   95.24
   7  -5  -4  372.99   90.92
  -7   5   4  379.77   91.45
   7  -1  -449087.93 1002.90
  -7   1   450770.06  842.56
   7  -1  -447888.95  812.26
   6   1  -212758.76  167.03
  -6  -1   213356.46  163.69
  -6  -1   212902.24  389.63
  -7   1   453053.82  746.29
  -7   1   449641.49 1304.94
  -7   1   449967.49  722.60
  -6  -1   213072.28  172.25
  -7   1   451846.90 1080.33
  -6  -1   213855.91  423.01
  -6  -1   213492.91  244.22
   6   1  -212375.46  216.77
   4  -1   436449.56  747.55
   3   5  -241102.18  835.52
   7  -4  -532583.78  645.87
  -7   4   532363.59  648.28
  -4   1  -440130.71  795.77
  -4   1  -436879.14  740.37
   4  -1   434672.02  706.72
  -3  -5   246682.42  582.78
  -4   1  -438054.34  637.88
  -3  -5   245089.08  828.70
  -3  -5   246604.69  928.69
   7  -4  -531638.69  623.13
   4  -1   435472.13  784.99
  -7   4   532897.33  869.02
  -4   1  -439279.33  846.62
   3   5  -243673.09  992.51
  -3  -5   243481.78  803.54
  -3  -5   247259.85  593.52
  -4   0   821586.63  406.70
  -4   0   821759.11  502.40
  -4   0   821703.26  515.12
   4   0  -820483.01  327.01
   4   0  -820224.73  321.64
  -4   0   820947.95  402.65
  -3   7   3  420.40  101.43
   3  -7  -3  319.30   59.56
  -3   7   3  413.68   63.91
  -3   7   3  446.43   62.01
   3  -7  -3  351.27   90.67
   3  -7  -3  338.25   55.42
  -7   1   3 5453.73  258.29
  -7   1   3 6205.43  179.77
  -7   1   3 6015.64  268.05
   6  -7  -186083.75 1615.93
  -6   7   187163.76 1718.35
   7  -1  -3 5437.10  123.20
  -7   1   3 5709.07  205.18
  -6   7   184061.75 1947.86
   7  -1  -3 5402.00  208.79
   6  -7  -188460.18 1662.40
   6  -7  -184951.12 1436.10
   6  -7  -185693.59 1717.87
   5   1   1 7791.16  319.61
   5   1   1 7957.55  103.75
   5   1   1 8047.98  224.27
  -5  -1  -1 8331.05  246.96
  -5  -1  -1 8853.56  344.97
  -5  -1  -1 8489.39  124.17
  -5  -1  -1 8673.03  338.71
   2   0  -833263.42  662.63
  -2   0   834683.19  705.99
   2   0  -832874.05  511.68
  -2   0   835826.46  719.65
  -2   0   835878.63 1062.01
  -2   0   835448.09  547.41
   4  -7   3 2759.18  145.39
   4  -7   3 2717.87   77.11
   4  -7   3 2757.02  194.61
   2   2  -827395.78  552.54
   2   2  -828156.23  633.50
  -4   7  -3 2740.38   85.93
   2   2  -827372.09  334.84
  -2  -2   829790.22  658.04
  -2  -2   827760.84  597.59
  -4   7  -3 2623.09  180.04
  -2  -2   829586.50  360.38
  -4   7  -3 3237.71  158.77
  -1   2  -767230.95 1096.78
  -1   2  -766953.91 1357.67
  -1   2  -770858.65 1481.90
   1  -2   770986.40 1338.46
   1  -2   771304.58 1431.69
   1  -2   768070.18 1446.21
   6  -7  -270418.73 1374.83
   6  -7  -270898.65 1124.28
   6  -2  -713423.23  300.43
  -6   2   713645.81  345.71
  -6   7   271450.94 1385.78
  -6   2   713796.32  137.40
  -6   7   269702.97 1359.24
  -6   2   713245.34  342.53
   6  -7  -268772.05 1076.80
   6  -7  -271323.78 1351.10
  -6   2   713841.01  143.47
   6  -2  -713823.87  343.17
  -6   2   713579.60  284.24
   4  -5  -622172.68  421.07
   4  -5  -622456.75  491.71
  -4   5   623357.29  352.55
   4   4  -291351.40 1931.96
   4  -5  -622119.86  356.20
  -4   5   622864.75  723.23
  -4  -4   297997.31 2069.07
   4   4  -294146.54 1758.46
  -4  -4   299969.46 2169.68
  -4   5   623125.43  451.98
   1  -3   7 3787.86   77.52
  -1   3  -7 3736.18  223.40
  -1   3  -7 3509.13  208.74
  -1   3  -7 3768.79  105.36
   1  -3   7 3866.72  222.90
   1  -3   7 3483.02  212.73
   3  -1  -8 3188.74  112.46
  -3   1   8 3549.48  202.26
  -3   1   8 4014.34  298.93
   3  -1  -8 3238.19  142.15
  -3   1   8 3525.14  145.59
  -3   1   8 3283.08  109.95
  -4   1   834043.71  676.01
   4  -1  -831501.37  526.17
  -4   1   834257.53  728.03
   4  -1  -831488.26  509.43
  -4   1   834318.67  710.20
  -4   1   833949.64  733.78
  -5   5   6 4357.42  115.22
  -5   5   6 4428.68  190.22
   5  -5  -6 4245.77  167.68
   5  -5  -6 3808.31  135.77
  -5   5   6 3867.33  178.67
   5  -5  -6 4092.13  187.81
  -6   1   7 5641.50  205.75
   6  -1  -7 4937.94  161.86
  -6   1   7 5236.35  110.44
  -6   1   7 5408.09  203.55
  -6   1   7 5369.49   80.64
  -6   1   7 5348.22  150.56
   5   0   299022.34 1665.21
   5   0   298972.47 2001.31
  -5   0  -2 108078.   2274.
  -5   0  -2 108372.   2376.
   5   0   2 101595.   2639.
  -5   0  -2 108105.   1898.
  -4  -4   578520.56 1426.17
  -4  -4   579541.06 1419.64
  -4  -4   577705.01 1624.44
  -4  -4   578126.79 1464.74
  -4  -4   576485.31 1307.33
  -4  -4   579051.24 1594.70
  -5  -3   418287.23  605.32
  -5  -3   418385.81  313.71
  -5  -3   417568.92  363.95
  -5  -3   417854.96  311.94
  -5  -3   418356.43  300.85
  -5  -3   417981.73  279.81
  -4   6  -436711.71  562.53
  -4   6  -437182.42  788.71
   2   5   115287.09  667.92
   4  -6   435704.84  726.94
   4  -6   434934.50  765.64
   2   5   115035.19  350.05
  -2  -5  -115156.85  361.44
  -2  -5  -115485.04  434.81
  -4   6  -436645.90  769.91
  -4   6  -436958.71  561.35
   2  -5   624680.33  841.28
  -2   5  -625164.39  915.98
  -2   5  -623871.90  300.56
  -2   5  -625053.70  562.56
   2  -5   625081.20  619.36
   2   6  -3  369.59   37.72
  -2  -6   3  403.95   85.57
   5  -6  -5 8367.14  264.84
  -2  -6   3  120.65  150.05
  -2  -6   3  436.89   59.12
   5  -6  -5 7917.90  225.90
   5  -6  -5 8059.05  130.58
  -5   6   5 8344.55  273.26
  -5   6   5 8357.23  126.98
  -5   6   5 8515.75  242.22
  -2  -6   3  334.69   40.14
   4  -6  -5 1291.15  221.58
   4  -6  -5  935.37   63.65
  -4   6   5  985.69   62.29
  -4   6   5 1255.48  164.81
   4  -6  -5 1089.86   89.56
  -4   6   5 1124.32  224.53
  -1   2   7  926.67  119.93
  -1   2   7  905.99  100.97
  -1   2   7  910.47   86.29
   1  -2  -7  785.64  116.71
   1  -2  -7  807.90   96.99
  -1   2   7  836.69   95.05
   3  -8   121905.20  423.41
  -3   8  -121929.68  622.18
   3  -8   122233.77  366.35
  -3   8  -121333.03  390.61
   3  -8   122399.24  439.24
   3  -8   121224.56  420.46
   3   2  -824098.61  358.76
  -3  -2   824323.19  848.89
  -3  -2   825509.80  301.17
  -3  -2   825246.49  575.78
  -3  -2   823619.75  486.07
   3   2  -824749.31  825.79
   3   2  -824229.47  439.50
  -5  -3   3  284.42   29.60
  -5  -3   3  369.25   34.64
  -5  -3   3  362.44   90.97
  -5  -3   3  410.23   61.78
  -5  -3   3  310.83   99.29
   5   3  -3  355.71   59.20
  -4  -1   8 3051.01  309.34
  -4  -1   8 2774.72  185.12
  -6   4  -210022.29  476.61
  -3   8   025980.22  493.47
  -4  -1   8 2900.50   67.70
  -4  -1   8 2722.19  124.95
  -6   4  -210722.80  267.28
   3  -8   026734.48  479.24
  -6   4  -210545.28  288.19
   6  -4   2 9608.76  257.49
   6  -4   2 9408.89  249.45
   3  -8   026483.28  481.54
   4   1  -8 2668.47   77.71
   3  -8   026210.23  486.31
   3  -8   026311.28  614.88
   4   1  -8 2875.70   96.64
  -3   8   026776.96  504.82
  -6   4  -210107.12  430.19
   7  -1  -5 3450.98  215.74
  -7   1   5 3103.02  161.56
   7  -1  -5 2973.53  172.59
  -7   1   5 3222.20   68.53
  -7   1   5 2910.86  122.38
  -7   1   5 3127.12   60.19
  -7   1   5 3444.91  186.82
  -3  -4  -1   53.74  115.40
   3   4   1  -22.54   53.55
   3   4   1  159.83  128.06
  -3  -4  -1  366.75   84.00
   4  -8   091676.69 1716.70
   4  -8   094476.28 1970.00
   4  -8   090797.83 1683.99
   4  -8   093599.45 1822.86
  -4   8   093858.73 1853.44
  -4   8   089841.82 1729.54
  -5   7  -2 6201.48  194.18
   5  -7   2 6075.22  226.54
  -5   7  -2 6399.62  241.25
   5  -7   2 6045.26  185.32
  -5   7  -2 5791.25  157.94
   5  -7   2 6383.52  267.50
  -7   2   1 6366.23  168.07
   7  -2  -1 5955.75  120.67
   7  -2  -1 5897.92  142.08
  -7   2   1 6381.83  296.52
  -7   2   1 6252.45  279.34
  -7   2   1 6351.60  143.80
   6   0   011316.84  196.99
  -6   0   012314.23  399.46
  -6   0   011577.97  160.96
  -6   0   011903.19  393.08
  -6   0   011703.72  273.53
   6   0   010856.20  234.51
   6  -7   018485.86  361.25
   6  -7   018050.36  448.14
  -6   7   017700.18  382.82
  -2  -6   2 5363.85  203.11
  -2  -6   2 5495.28   73.45
  -2  -6   2 5282.83  204.52
   6  -7   017562.27  306.15
  -6   7   018146.58  428.74
  -2  -6   2 5638.57  292.96
   2   6  -2 5663.98   76.76
   2   6  -2 5350.21  191.64
  -6   7   018007.62  297.34
   2   6  -2 5274.32  194.65
  -3  -5   5 8005.23  217.75
  -3  -5   5 8210.32  215.34
  -3  -5   5 7458.18  318.89
  -3  -5   5 8223.32  145.96
  -3  -5   5 7988.07  190.51
   3   5  -5 7867.35  167.54
  -3   7  -443281.24  887.65
  -3   7  -442767.35  853.39
  -3   7  -440022.90  561.20
   3  -7   440931.28  905.22
   3  -7   443282.25  834.45
   3  -7   442585.35  643.25
   0   7  -4 4103.04   84.31
   0  -7   4 4077.95  185.24
   0  -7   4 4021.71   63.46
   0   7  -4 3971.18  158.98
   0  -7   4 4011.16  184.79
   0  -7   4 4205.34  178.31
   7  -6  -2  188.33  139.37
  -5   6  -313176.68  271.74
   7  -6  -2  221.06   83.95
  -5   6  -313307.70  255.27
   7  -6  -2  165.23   53.16
  -5   6  -312948.95  346.09
   5  -6   312549.19  486.49
   5  -6   312382.50  582.85
  -5   6  -313365.11  360.62
   5  -6   312663.52  241.93
  -7   6   2  121.30   84.75
  -7   6   2  174.46   76.63
  -2   3   7 2706.74  205.29
  -2   3   7 2464.04  143.27
  -2   3   7 2643.89  233.65
  -2   3   7 2537.38  143.98
   2  -3  -7 2389.28  147.09
   2  -3  -7 2329.65  146.15
  -4  -2  -2 5149.26  352.51
   4   2   2 4522.56  198.37
   4   2   2 4607.71  257.42
  -4  -2  -2 4987.21  458.70
  -2  -6   4 1325.78  102.14
  -2  -6   4 1143.38  113.54
   2   6  -4 1019.62   68.70
  -2  -6   4 1182.63  114.30
   2   6  -4 1176.18  113.49
  -2  -6   4 1209.81  148.32
  -6  -1   6  133.55   50.96
  -6  -1   6  164.80   31.11
  -6  -1   6  200.86   74.84
  -6  -1   6   86.42   52.26
  -6  -1   6  165.53  104.03
  -6  -1   6   80.57   27.59
   4  -8   113052.54  422.40
   4  -8   112974.30  334.30
   4  -8   113172.58  347.41
   6  -1   149631.59  861.26
  -6   1  -153940.18 1058.77
  -6   1  -152178.70 1129.03
   6  -1   149272.45  907.48
  -6   1  -153346.11 1165.80
  -6   1  -153333.22  954.35
   4  -8   112735.12  275.29
  -4   8  -112589.72  259.96
  -4   8  -113471.54  344.29
  -4  -3   7  903.34  113.05
   0   7   020762.95  461.40
   0  -7   020906.35  446.72
  -4  -3   7  841.50  174.78
  -4  -3   7  848.18  124.84
   0  -7   020664.17  445.57
   0   7   019979.22  287.72
  -4  -3   7  958.33  136.66
   4   3  -7  747.82   69.30
  -4  -3   7  876.40   50.22
  -4  -3   7  897.72   33.15
   0   7   020475.18  429.92
   0  -7   021419.50  438.91
   0  -7   021137.13  264.64
  -1  -2   8 3886.37  213.63
   6  -3  -718535.69  401.79
  -6   3   718801.83  435.01
   1   2  -8 3358.17   94.46
  -6   3   719288.44  192.25
  -1  -2   8 3480.57  201.90
   6  -3  -718695.92  430.44
  -6   3   718942.53  561.24
   1   2  -8 3741.71  206.21
   6  -3  -718799.49  187.55
  -6   3   719015.43  445.05
   1   2  -8 3655.50  202.34
  -1  -2   8 3725.68  103.18
  -7   1   272489.34 1402.58
  -6   5  -223300.47  471.08
   6  -5   222091.22  445.45
  -7   1   269281.52 1502.12
  -6   5  -223247.42  486.78
  -6   5  -223075.35  486.63
  -6   5  -223157.22  472.89
   7  -1  -266163.32 1035.58
  -7   1   270288.78 1293.28
   6  -5   221113.05  480.24
  -7   1   268008.53 1909.65
   7  -1  -266074.88 1088.53
  -5  -3   515010.50  335.64
  -5  -3   515021.25  282.79
  -5  -3   515551.58  268.26
  -5  -3   515355.83  239.65
  -5  -3   515205.74  385.60
  -5  -3   515514.35  403.27
   1  -1   7  758.01  135.70
   1   1  -820434.58  388.06
   1   1  -820754.28  493.08
  -1   1  -7  761.12  109.53
   1  -1   7  749.43  103.96
  -1  -1   821633.64  503.16
  -1  -1   820381.16  497.64
   1   1  -820846.98  509.83
  -1   1  -7  770.27   69.34
  -1   1  -7  894.42  136.73
  -1  -1   822040.16  323.14
   7  -6  -341695.24  814.20
   7  -6  -339971.71  512.52
  -7   6   340710.63  838.74
   7  -6  -340462.01  809.34
  -7   6   341033.96  803.91
   6  -3   2  516.71   98.29
   6  -3   2  584.16   78.04
  -3   6  -5    5.46   71.23
   3  -6   5  139.13  144.48
  -3   6  -5   13.34   16.78
   3  -6   5   97.85  169.29
  -6   3  -2  664.71  104.92
   1   4   411616.04  146.72
   1   4   411711.13  141.43
  -3   6  -5   -0.07   65.48
  -1  -4  -412478.17  606.15
   1   4   411807.44  337.18
   1   4   412459.89  361.24
  -1  -4  -411780.17  524.14
  -3   6  -5   -1.66   16.62
  -6   3  -2  715.71  136.10
  -6   3  -2  714.43  113.42
  -6   3  -2  581.33  207.39
   0   1   731949.33  622.56
   0   1   732533.61  719.12
   0  -1  -732013.27  615.40
   0   1   732974.02  600.84
   0  -1  -730009.39  568.11
   0  -1  -734258.68  734.93
   0   1   733324.52  613.01
  -5  -2   0 1312.16  192.17
  -5  -2   0 1232.17  175.36
   7  -4   011699.35  276.08
   7  -4   011865.54  332.89
   5   2   0 1170.26  167.92
   5   2   0 1285.17  102.61
  -5  -2   0 1293.83  168.71
  -7   4   012005.68  271.56
  -7   4   012045.09  377.17
   7  -4   011663.90  337.00
  -7   4   012143.17  356.09
  -7   4   012117.63  240.16
   4   1   350766.70 1333.30
   4  -8  -113756.19  269.22
   4  -8  -115057.78  307.08
  -4  -1  -353944.18 1091.73
   4   1   349219.44  761.57
  -4  -1  -353117.96 1143.71
   4  -8  -114482.66  311.84
  -4   8   114491.08  480.88
   4  -8  -113921.15  268.58
  -4  -1  -349601.87  714.43
   4   1   350795.10 1105.82
  -4   8   114151.10  504.03
   3  -8   218993.20  433.23
  -3   8  -218230.75  313.28
  -1   4  -732689.30  773.60
  -6   7   3    2.37   55.90
  -3   8  -219870.25  442.65
   1  -4   732848.60  739.83
   6  -7  -3   24.22   22.80
   6  -7  -3   17.39  112.26
  -1   4  -732408.48  371.06
   1  -4   733527.62 1086.65
   6  -7  -3   87.78   65.03
  -1   4  -732939.54  734.36
   6  -7  -3   35.49   21.11
   3  -8   219499.95  400.70
   3  -8   219575.56  383.07
   3  -8   219206.27  405.49
  -6   7   3  -12.95   59.35
   2  -8   1 7563.74  229.32
   0   4   5 9109.82  283.15
   0  -4  -5 9109.46  444.16
   2  -8   1 7720.05  187.34
   0   4   5 8929.94  150.42
   0   4   5 8955.80  209.16
   2  -8   1 7729.48  226.85
   0  -4  -5 8755.41  509.20
   2  -8   1 7789.11  169.75
   0   4   5 9367.00  301.68
  -2   8  -1 7717.91  210.85
  -2   8  -1 7197.64  196.75
   0   6  -6 7583.95  267.26
   0  -6   6 7461.23  299.83
   0  -6   6 7430.45  252.87
   0   6  -6 7894.76  270.57
   1   6   123366.41  239.08
   1   6   122843.65  249.49
  -1  -6  -123134.33  716.28
   1   6   122805.16  550.94
  -1  -6  -124500.93  560.21
   1   6   122440.06  481.06
  -7   2   620120.55  422.61
  -7   2   620743.89  422.12
   7  -2  -619913.26  418.64
   7  -2  -620277.95  636.75
   4  -4  -7  181.20   68.13
   4  -4  -7   88.34   73.69
  -4   4   7  194.05   81.88
  -4   4   7  470.17  134.18
   4  -4  -7  106.94   48.46
   7  -3  -624199.85  507.00
  -7   3   625019.99  723.84
  -7   3   624704.72  512.72
   7  -3  -624440.09  522.18
  -1  -3  -5 1895.89  155.54
   1   3   5 1824.68  107.87
  -1  -3  -5 1556.76  285.27
   1   3   5 1900.25   63.40
   1   3   5 2064.79  163.69
   1   3   5 2244.28  164.97
  -3  -5   148511.97 1014.74
  -3  -5   146316.24  877.10
   3   5  -144478.99  827.74
   3   5  -144513.79  945.23
  -6   0   7  353.56   84.10
   6   0  -7  331.61   68.43
  -6   0   7  265.22   61.99
  -6   0   7  244.92  141.94
  -6   0   7  341.43   41.43
  -6   0   7  414.55   97.35
   5  -4  -7  751.65  101.62
  -5   4   7  795.07  103.23
  -5   4   7  863.38   66.01
  -5   4   7  738.53  107.64
   5  -4  -7  490.82   87.93
  -5   4   7  872.77  117.44
   5  -4  -7  793.51  103.06
  -3   5   6 3249.17  184.29
  -7   6   122385.58  748.89
  -7   6   122234.00  384.09
   7  -6  -121141.88  337.44
  -3   5   6 3308.10  121.40
   3  -5  -6 3249.39  126.34
   3  -5  -6 3326.46  129.58
  -3   5   6 3361.64  225.43
   7  -6  -121977.40  462.80
   7  -6  -121312.74  480.81
  -7   6   122196.59  483.23
  -3   5   6 3112.77  123.29
   3  -5  -6 3417.60  190.57
   2  -8   212242.90  309.62
  -2   8  -211548.70  226.32
  -2   8  -212121.24  296.87
   2  -8   212537.02  202.26
   2  -8   212320.03  287.32
   2  -8   212346.20  477.65
   1  -6   634946.49  721.97
  -1   6  -635415.16 1072.72
  -1   6  -635067.33  758.95
   1  -6   634042.64  815.00
  -4   2   8 6295.75  257.08
  -4   2   8 6292.89  238.04
   4  -2  -8 5811.29  158.77
  -4   2   8 6269.33  273.70
   4  -2  -8 5835.93  173.39
  -4   2   8 6411.52  158.42
  -3  -4   713639.55  155.46
  -2   1   8  627.33  105.69
  -3  -4   713998.17  301.40
  -3  -4   713896.18  146.95
  -2   1   8  717.09  122.78
  -3  -4   713610.79  290.59
   3   4  -713619.34  292.15
  -2   1   8  887.48  105.38
  -3  -4   713447.11  572.47
   3   4  -713792.08  336.89
   2  -1  -8  743.40  100.20
   2  -1  -8  648.89   73.53
  -2   1   8  719.63   71.16
  -5   1   8  112.09   37.36
   5  -1  -8   54.26   85.94
  -5   1   8   83.44   45.01
  -5   1   8  113.32   81.28
   5  -1  -8  102.02   28.00
  -5   1   8  142.29   85.44
   7  -5   025102.78  518.33
  -7   5   026481.13  571.83
   7  -5   023193.62  517.34
  -7   5   026426.85  736.42
   7  -5   024526.04  726.07
  -7   5   026676.54  624.01
  -7   5   026522.83  571.59
   2   3  -827265.55  908.15
   6  -5  -6 5673.25  107.10
   6  -5  -6 6079.36  219.97
  -2  -3   827808.43  652.55
   2   3  -826660.47  751.77
  -2  -3   826673.13  563.11
  -6   5   6 6263.17  230.72
   6  -5  -6 6453.70  229.53
  -6   5   6 5941.51  225.95
   3   0   5   46.21   41.91
   7  -5  -5 1593.38  139.62
   0   5   4 6278.71  231.77
   3   0   5  138.33   74.70
   3   0   5   81.51   93.14
  -7   5   5 1492.53  136.92
   0   5   4 6623.76  266.44
   7  -5  -5 1564.09  143.92
  -7   5   5 1679.66  143.78
  -3   0  -5   98.67   45.47
   0   5   4 6242.47   97.77
   0  -5  -4 6090.31  464.26
   0  -5  -4 6489.53  224.41
  -3   0  -5   59.90   71.82
  -3   0  -5   61.71   93.59
   0   5   4 6317.18  139.41
   3  -8  -152433.12  944.07
   5   3  -2  816.80  130.14
  -5  -3   2  699.17  127.46
  -5  -3   2  860.72   85.85
   5   3  -2  740.40   79.20
  -5  -3   2  793.12  138.37
  -3   8   154069.67  968.10
   3  -8  -154192.79 1112.19
  -3   8   152932.56 1024.94
   3  -8  -153244.07 1164.08
   3  -8  -154411.08  992.32
  -5  -2   7  137.50   64.44
  -5  -2   7  151.08   65.02
  -5  -2   7  138.18   42.16
  -5  -2   7  132.08   49.77
  -5  -2   7   53.67   71.48
  -5  -2   7  133.48   32.69
   2   0   619489.50  423.80
   6  -6  -525080.92  310.29
   6  -6  -526144.12  350.25
   6  -6  -525973.60  810.46
  -6   6   526286.38  789.88
   2   0   618333.82  517.50
  -2   0  -620757.59  522.19
   2   0   618867.93  358.30
   6  -6  -525290.24  525.25
  -6   6   526608.42  586.28
  -2   0  -618099.41  515.04
  -2   0  -618260.50  394.45
   7  -3   0  848.19   71.11
  -7   3   0 1338.77   87.35
  -7   3   0 1116.70   93.25
   7  -3   0 1048.65   82.48
  -7   3   0 1120.19  279.24
  -7   3   0 1006.12  147.97
   3  -6  -5 1623.57   96.74
  -3   6   5 1635.11  156.19
  -3   6   5 1674.28   96.73
   3  -6  -5 1930.36  157.52
   3  -6  -5 1739.56  154.79
  -3   6   5 1771.60  164.82
   2   3   417258.58  459.31
   2   3   416241.98  426.75
  -2  -3  -416741.46  421.50
  -2  -3  -415828.35  454.87
   2   3   416297.42  190.22
   2   3   415776.84  197.58
  -6  -1   177594.15 1161.70
   6   1  -171686.34 1278.40
  -6  -1   178987.98 1736.69
   6   1  -173396.52 1145.83
  -6  -1   177664.30 1660.46
  -6  -1   171704.64 1597.27
   5   0  -8  942.51   48.26
  -5   0   8  933.42  121.98
   5   0  -8  873.57   71.71
  -5   0   8  811.98   58.46
  -5   0   8  976.81  125.94
  -5   0   8  849.92  124.34
   2  -8   0 1048.51   73.22
   2  -8   0  916.44  106.43
   2  -8   0  879.38  104.97
   2  -8   0 1118.19   89.94
  -2   8   0 1134.49  185.84
  -2   8   0 1058.60   89.07
   1   5  -747894.11  943.63
   1   5  -745349.83  953.46
  -1  -5   747322.30 1388.89
  -1  -5   746137.44  895.24
   0   5  -7 7069.58  272.40
  -5   1  -3  298.48   49.32
  -5   1  -3  407.61  104.29
   0  -5   7 7157.02  309.83
   5  -1   3  284.16  101.94
  -5   1  -3  286.20  174.39
  -5   1  -3  239.42  105.14
   5  -1   3  180.50   76.31
   5  -1   3  186.70   96.18
   0  -5   7 7057.91  267.38
   0   5  -7 7559.95  290.11
   5  -7  -4  998.86  185.66
   5  -7  -4 1200.97   55.51
  -5   7   4 1016.61  189.73
   5  -7  -4 1157.20   57.22
  -5   7   4 1158.98  134.76
  -4  -4   137834.52  849.93
   4   4  -135097.15  789.20
   4   4  -136491.83  887.55
  -4  -4   138283.40  953.24
  -1  -3   878745.60 1660.14
  -1  -3   880042.14 1731.31
   1   3  -874425.15 1538.52
   1   3  -874565.25 1576.10
  -4   7   423878.01  622.93
   4  -7  -423686.39  525.88
   4  -7  -423089.75  379.20
  -4   7   423727.93  387.62
  -4   7   424186.33  549.46
   4  -7  -423237.19  585.25
   5  -8   0  702.13   79.79
  -5   8   0  664.98  110.24
  -2  -6   1 5224.16  345.99
  -2  -6   1 4861.51   39.76
   5  -8   0  732.86   71.46
  -5   8   0  604.83   87.96
  -2  -6   1 4603.20  198.74
   5  -8   0  772.13  113.87
   2   6  -1 5136.93  347.02
   2   6  -1 4907.70  193.91
   5  -8   0  694.31   70.11
  -2  -6   1 4786.26   40.25
   2   6  -1 4767.19   49.41
   5  -8  -1 4302.20  124.41
   5  -8  -1 4248.25  162.36
   5  -8  -1 4944.51  324.24
   5  -8  -1 4520.99  200.57
  -5   8   1 4272.35  183.34
  -5   8   1 4456.88  195.22
  -3   2   827256.27  559.58
  -3   2   827768.91  523.09
  -4  -3  -116877.72  392.31
   3  -2  -825460.72  480.45
   3  -2  -826467.36  507.86
   4   3   116307.65  378.54
  -3   2   827283.04  489.77
   4   3   116351.53  745.46
  -3   2   827045.44  602.83
  -4  -3  -116336.43  498.52
   1   0  -8 2266.08  163.02
   1   0  -8 2189.56   92.93
  -1   7   290580.00 1890.21
  -1   0   8 2325.89  297.14
  -1   0   8 2225.94  173.33
  -1   0   8 2776.57  257.23
  -1   0   8 2195.29   94.13
  -1   7   291087.04 1762.43
   1   0  -8 2549.98  171.47
   1  -7  -294545.86 1942.35
   1  -7  -289899.91 1768.75
   1  -7  -291677.71 1513.94
  -1   7   290582.69 1553.31
   1  -7   511364.86  324.81
   1  -7   510483.35  359.20
  -1   7  -511696.00  344.16
  -2   7   3 5640.67  242.29
  -2   7   3 5526.25  130.35
   2  -7  -3 5367.87  179.87
   2  -7  -3 5672.97  118.75
  -1   7  -511499.93  335.10
   2  -7  -3 5615.81  241.41
  -2   7   3 5394.74  299.71
   0  -3  -627280.26  606.14
   0   3   628711.03  477.85
   0   3   628631.87  459.42
   0   3   628858.56  624.33
   0   3   628884.39  646.39
   0  -3  -629085.53  637.28
  -4  -4   662693.37 1098.97
  -4  -4   661693.16 1040.92
  -4  -4   661840.02 1144.16
  -4  -4   660422.83 1172.02
  -4  -4   661768.27 1261.77
  -4  -4   661694.02 1104.16
   1   5   3  312.12  100.07
  -1  -5  -3  204.21  115.31
  -4   4  -517305.65  314.07
   4  -4   516780.70  446.65
   1   5   3  364.21  210.25
  -4   4  -516700.56  473.02
  -1  -5  -3  281.38   89.58
  -4   4  -516918.00  297.90
   1   5   3  388.48   24.60
  -4   4  -517143.26  593.53
   4  -4   516046.27  398.75
  -2  -4  -312812.86  350.85
  -2  -4  -312404.05  412.18
   2   4   312076.65  637.21
  -1   5   576605.68 1590.04
  -1   5   577253.96 1503.25
   1  -5  -575104.02 1458.77
  -1   5   575953.55 1421.84
  -1   5   574967.60 1247.52
   2   4   312607.53  353.21
   1  -5  -576188.31 1994.60
  -7   1   6 6787.95  209.16
  -7   1   6 6820.87  201.20
  -7   1   6 6854.43   71.15
   7  -1  -6 6223.37  218.39
  -7   1   6 6879.64  208.44
  -7   1   6 7055.54   79.59
   7  -1  -6 6735.30  202.42
  -4  -2   8 4069.46  210.65
  -4   8  -2 8965.32  472.98
   4  -8   2 8380.75  368.83
   4  -8   2 8237.06  230.72
  -4   8  -2 8694.00  390.96
   4   2  -8 4164.48  125.12
  -4   8  -2 8233.41  178.01
  -4  -2   8 4306.42  148.19
   4   2  -8 4101.21   85.65
   4  -8   2 8382.87  160.13
   4  -8   2 8295.31  293.86
  -4  -2   8 3986.86   89.78
  -4  -2   8 4342.51   69.16
  -4  -2   8 4193.20  211.55
  -5   2   8 2064.69  159.60
   5  -2  -8 2058.36  113.92
  -5   2   8 2120.17  170.49
   5  -2  -8 1970.47   62.02
  -5   2   8 1962.74  181.19
  -5   2   8 2074.88   69.43
  -7   6   482205.61 2079.78
   7  -6  -475585.96 1030.90
   7  -6  -481454.55 1605.66
   7  -6  -478188.03 1561.72
  -7   6   480682.95 1956.80
   7  -6  -474239.17 1056.93
   1   6  -6 6191.33  227.70
   1   6  -6 6401.43  233.64
  -1  -6   6 6246.66  377.23
  -1  -6   6 6253.63  226.23
  -1  -6   6 6096.30  259.09
  -7   0   4 7801.14  172.16
  -7   0   4 7715.89  274.19
   7  -4  -658234.40 1148.04
   7   0  -4 7482.68  160.41
  -7   0   4 7991.11  186.57
  -7   0   4 8444.66  309.59
  -7   4   658400.65 1150.43
   7   0  -4 7506.77  164.10
  -7   0   4 7817.48  153.77
   7  -4  -658117.84 1147.59
  -7   4   658895.86 1149.35
  -7   0   4 7920.94  172.37
  -2  -6   5 3308.35  157.33
  -2  -6   5 3474.89   67.89
  -2  -6   5 3271.88  167.11
  -2  -6   5 3551.66  166.75
  -2  -6   5 3489.90   64.95
   2   6  -5 3515.47  132.95
  -4   3  -5 5745.82  271.94
   4  -3   5 5809.79  252.20
  -4   3  -5 6010.31  330.68
  -4   3  -5 5753.01  274.30
  -4   3  -5 6639.00  187.11
   4  -3   5 6048.37  336.12
   6  -7   1 8139.75  199.51
   6  -7   1 8608.57  307.77
   6  -7   1 8735.78  324.51
  -6   7  -1 8659.36  292.02
  -6   7  -1 9043.38  208.28
  -6   7  -1 8190.42  236.01
  -6  -2   4 4584.43   86.60
  -6  -2   4 4736.88  320.81
  -6  -2   4 5068.89  231.76
  -6  -2   4 4482.56  112.78
  -6  -2   4 4567.70  119.44
  -6  -2   4 4749.47  194.45
   6   2  -4 4237.35  110.28
   6  -6   2 1282.48  109.79
  -3   4   733865.06  626.33
   6  -6   2 1056.78  145.99
  -3   4   733235.03  643.85
   6  -6   2 1173.41   97.26
  -6   6  -2 1381.47  198.33
   3  -4  -733644.02  697.11
  -3   4   735197.91  700.27
  -3   4   734956.39  613.62
   3  -4  -732870.92  810.93
  -6   6  -2 1370.10  119.40
  -6   6  -2 1256.47  106.24
  -6   6  -2 1272.31  137.64
  -1   4   6  755.83  118.39
   1  -4  -6  685.41  102.58
  -1   4   6  610.15  110.72
  -1   4   6  838.28   68.38
  -1   4   6  780.59   63.54
   1  -4  -6  358.84  214.65
  -3   3  -6 6351.26  293.47
   3  -3   6 5543.47  224.96
  -3   3  -6 6260.01  232.24
  -3   3  -6 6105.56  247.26
   3  -3   6 5956.36  260.82
  -3   3  -6 6955.80  151.26
   4  -8  -2  868.44   92.12
   3   3  -8  673.20   88.09
  -4   8   2  866.51   93.49
   4  -8  -2 1053.54   78.22
  -3  -3   8  740.30  165.09
   3   3  -8  972.17  130.55
   4  -8  -2  979.31   78.44
  -3  -3   8  577.08  128.92
  -4   8   2  790.10  115.45
  -3  -3   8  855.46  129.11
  -2   8  -3  299.31   89.21
   2  -8   3  505.07  162.47
   2  -8   3  295.83   94.55
   2  -8   3  352.90   34.76
  -2   8  -3  335.96   75.53
   2  -8   3  428.00   93.28
   6  -2   2 1341.00  217.61
   6  -2   2 1257.94   79.84
  -6   2  -2 1142.59  144.63
  -6   2  -2 1068.77  153.67
  -6   2  -2 1317.55  129.21
  -6   2  -2 1164.79   77.70
   2  -7   541288.99  835.83
   2  -7   539615.24 1242.88
  -2   7  -541191.55  488.37
  -2   7  -542215.52  891.22
  -2   7  -539238.17  493.66
  -2   7  -541766.89 1191.97
  -5  -3   613762.40  449.37
  -5  -3   613430.36  254.03
  -5  -3   613787.41  242.93
   1   7  -3 1688.44  148.29
   1   7  -3 3363.00  177.62
  -1  -7   3 1905.68  131.67
  -1  -7   3 1870.09   79.03
  -5  -3   613951.27  287.61
  -5  -3   613839.27  231.95
  -1  -7   3 1745.95  143.22
  -5  -3   613646.61  253.86
  -2  -2  -510632.28  344.30
   2   2   510893.40  179.08
  -2  -2  -511279.26  366.19
   2   2   511445.84  183.88
   2   2   511609.79  357.61
   2   2   511292.12  376.25
  -3   4  -6  793.02  145.74
  -3   4  -6  847.16   94.47
  -3   4  -6  686.24   87.47
   3  -4   6  874.76  147.19
  -3   4  -6  844.76  119.03
   3  -4   6  780.46  228.11
  -7   0   3 2510.02  353.55
   7   0  -3 2503.17   70.96
  -4   0  -4 3210.33  220.39
   4   0   4 3212.60  208.68
   4   0   4 3245.40   89.85
   7   0  -3 2654.51   81.10
  -4   0  -4 3440.17  100.95
  -7   0   3 2555.09   86.43
   4   0   4 2988.56  215.16
  -7   0   3 2600.18   75.86
  -4   0  -4 3069.57  199.02
  -7   0   3 2135.49  343.29
  -1  -7   2 1525.85  138.19
  -1  -7   2 1658.94  142.12
   1   7  -2 1671.10  115.96
  -1  -7   2 1674.79   90.48
   1   7  -2 1796.07   66.16
  -1  -7   2 1906.14   99.68
  -7   0   539766.55  538.72
   7   0  -539177.58  669.11
  -7   0   541421.64  632.90
  -7   0   540252.47  792.40
  -7   0   542108.36  907.77
  -7   0   540835.15  885.37
  -7   0   539925.53  812.91
  -3   8  -329730.39  553.73
  -3  -5   615327.21  492.11
   3  -8   331970.57  874.12
  -3   8  -331723.84  668.51
  -3   8  -332357.74  903.16
  -3  -5   614931.16  352.32
   3  -8   332281.38  724.76
   3  -8   332202.90  891.60
  -3  -5   615573.03  241.57
   3  -8   332745.71  458.21
  -3  -5   615222.45  337.78
   3   5  -615053.69  314.62
  -3  -5   614954.36  178.51
   6  -4  -722892.65  283.46
  -5   8  -126464.57  583.81
  -6   4   723105.94  528.00
   5  -8   127440.96  609.32
   6  -4  -722437.34  488.99
   5  -8   126537.52  611.68
   6  -4  -722791.51  749.06
  -5   8  -127548.56  498.22
   5  -8   126811.53  481.50
  -5   8  -125839.75  474.67
  -6   4   723142.79  244.07
  -6   4   723451.27  497.48
   5  -8   127040.55  487.52
  -6  -2   3 2008.89  170.39
  -5   4  -418270.73  365.68
  -5   4  -418211.80  473.06
  -6  -2   3 1891.16   69.40
  -5   4  -418759.12  380.91
  -6  -2   3 1870.99  183.51
   5  -4   417004.51  397.55
   5  -4   417452.03  633.28
  -5   4  -417991.48  406.22
   6   2  -3 1740.47  140.75
  -6  -2   3 2003.29   59.33
  -6  -2   3 1815.76   94.36
  -5   8   2 1021.43  121.51
   5  -8  -2 1020.22  196.03
  -5   8   2 1100.88  115.97
  -6  -2   5 2683.40  131.44
  -6  -2   5 2719.73   88.49
  -6  -2   5 2705.59  167.28
  -6  -2   5 2861.85  178.67
  -6  -2   5 2443.04  144.23
   5  -8  -2  993.86   68.80
   5  -8  -2 1077.20  117.04
  -6  -2   5 2673.41  138.42
   1   2   641753.21  702.56
  -1  -2  -641807.96 1242.46
  -7   6   017600.73  297.51
   0   7  -5 1043.96  133.04
   1   2   641881.24  937.55
   0  -7   5 1045.88  130.66
   7  -6   016779.60  427.65
   1   2   642970.14  871.97
   0   7  -5 1196.43  117.23
  -7   6   017624.59  444.55
   0  -7   5 1137.26   27.80
   1   2   642044.70  691.51
   0   7  -5 1099.27   21.52
   7  -6   017238.14  389.59
  -7   6   018601.54  640.38
  -1  -2  -639555.67  823.52
   0  -7   5 1238.35  130.46
   7  -6   017199.89  427.32
   0  -7   5 1201.64  134.73
  -7   1   145331.61 1035.59
  -7   1   147162.16  850.25
  -7   1   143348.75 1402.27
   7  -1  -142870.97  684.93
   7  -1  -142716.96  652.61
  -7   1   146033.42  705.61
   1   0   724681.31  479.54
  -1   0  -723084.50  444.63
   1   0   724785.48  632.53
  -1   0  -724876.30  885.42
   1   0   724081.12  478.59
  -1   0  -723666.89  488.84
   4  -5   5 6334.12  264.03
  -4   5  -5 6333.84  134.65
  -4   5  -5 6352.07  281.87
  -4   5  -5 6441.77  143.01
  -4   5  -5 6371.16  251.68
   4  -5   5 6347.15  270.56
   2  -6   6 7912.31  288.71
  -2   6  -6 7175.87  315.44
  -1   8  -2  373.45   65.03
   1  -8   2  468.91   88.53
   1  -8   2  313.87   92.50
   1  -8   2  389.38   63.62
  -1   8  -2  434.87   74.57
   1  -8   2  344.90   95.48
  -2   6  -6 7848.18  292.38
   2  -6   6 7673.00  331.81
  -5  -1   824925.41  558.49
  -5  -1   824430.95  420.85
   5   1  -824133.50  351.96
  -5  -1   824837.42  445.11
  -5  -1   825412.84  553.49
   5   1  -823858.04  397.49
   6  -7  -418437.76  424.98
   6  -7  -418793.62  244.40
  -6   7   419493.56  480.17
  -6   7   419526.84  441.18
   6  -7  -419460.34  682.99
   6  -7  -419226.55  248.89
  -2  -5   760989.29 1306.34
  -2  -5   762195.04 1200.43
   2   5  -762951.92 1500.05
   2   5  -760761.84 1234.12
  -1   5  -7  902.03  145.65
   1  -5   7  861.68  137.56
   1  -5   7  886.35  160.57
  -1   5  -7  886.43  264.45
   0   2  -8 3811.85  389.44
   0  -2   8 4126.55   93.62
   0  -2   8 3954.86  392.49
   0   2  -8 3657.16  217.09
   0   2  -8 3813.01   81.82
   0  -2   8 4469.01  380.71
  -7   2   0  685.50  156.72
  -7   2   0  967.95   69.13
   7  -2   0  792.90   64.96
  -7   2   0  902.55  150.34
  -7   2   0 1017.16   98.19
   7  -2   0  932.83  127.49
   1  -6  -4 5354.40  446.76
  -1   6   4 5202.52  106.84
   1  -6  -4 5400.64  100.37
   1  -6  -4 5494.39  201.12
  -1   6   4 5825.94  251.27
  -1   6   4 5349.18   98.81
  -1   6   4 5047.03  201.73
   0  -7  -1  194.73   21.03
   0  -7  -1  148.60   83.29
   0   7   1  149.29   65.52
   0   7   1   -6.19   20.69
   0  -7  -1  208.83  157.79
  -1   8  -1 6044.86  257.23
   1  -8   1 5979.92  135.74
  -1   8  -1 5941.95  191.26
   1  -8   1 6002.03  373.72
   1  -8   1 6103.61  164.33
   1  -8   1 6005.27  222.32
   0  -6  -314662.15  439.30
  -5   3  -417716.64  399.77
  -3   7   4   82.64   43.05
   5  -3   416154.77  423.42
  -3   7   4  -63.93   78.58
   0   6   314221.00  368.09
  -5   3  -418199.00  702.82
  -3   7   4   28.21   47.82
   3  -7  -4   56.55  128.43
   3  -7  -4   18.88   46.13
   0   6   314245.97  226.04
   5  -3   415837.63  340.44
  -5   3  -416679.28  359.98
   0  -6  -313909.13  350.41
   0   6   314479.85  423.16
   0   6   314337.86  168.66
  -5   3  -417453.98  556.42
  -3  -3  -3 4923.76  284.40
   3   3   3 5271.11  473.29
   3   3   3 5135.14  401.24
  -3  -3  -3 5132.05  235.52
   2  -8  -110949.06  197.50
  -2   8   110757.37  325.63
  -2   8   110584.90  270.72
  -2   8   110912.53  312.91
   2  -8  -111215.67  285.37
   2  -8  -110512.18  271.15
   2  -8  -110749.18  277.24
  -5   5  -4  622.57   75.60
  -3   2  -6  -45.64   45.37
   4  -7   4 1456.67  142.08
  -4   7  -4 1630.51   61.46
  -4   7  -4 1451.78  268.44
  -3   2  -6  -12.27   59.16
  -5   5  -4  466.15  123.03
  -5   5  -4  615.11  107.92
   5  -5   4  524.05  112.17
   4  -7   4 1457.72  181.03
   5  -5   4  506.07  196.07
   3  -2   6  104.00   88.78
   3  -2   6   37.59   55.74
  -3   2  -6   35.19   49.11
  -5   5  -4  570.32  121.29
  -3   2  -6  324.88   83.08
   4  -7   4 1689.76   60.31
  -4   7  -4 1471.91   62.36
  -4   7  -4 1793.59  281.89
   3  -2   6   77.66   64.38
   1   7  -4 2045.01  103.60
  -1  -7   4 1879.21   58.21
   1   7  -4 1720.61  126.72
  -1  -7   4 2248.58  147.93
  -1  -7   4 1814.45  113.60
  -1  -7   4 2054.75  147.90
  -6  -1   712176.13  228.02
  -6  -1   712321.84  192.62
  -6  -1   712802.68  309.07
  -6  -1   712465.76  291.37
  -6  -1   712653.59  481.23
  -6  -1   712500.44  234.88
   6   1  -712669.78  300.58
   4  -2   510273.24  380.63
  -4   2  -510910.51  359.50
   4  -2   510295.47  574.23
  -4   2  -510435.48  408.46
   4  -2   510438.01  291.64
  -4   2  -510990.97  282.89
  -4   2  -510421.12  255.14
   3  -8  -242686.63  772.20
  -3   8   244899.84  912.74
  -3   8   243946.23  959.26
   3  -8  -245332.82 1141.16
   3  -8  -244313.92  741.57
  -3   8   243392.02  781.76
   3  -8  -242653.81  773.05
   5  -7   3  460.65  129.73
   5  -7   3  535.34   57.76
  -5   7  -3  465.14  102.08
  -5   7  -3  555.61  119.57
  -5   7  -3  493.27   64.20
   5  -7   3  501.65   92.38
   3   2   4 3256.00   62.71
  -3  -2  -4 3849.42  373.30
   3   2   4 3374.60  215.38
   3   2   4 3185.20   92.90
   3   2   4 3587.01  226.73
  -3  -2  -4 3613.76  236.56
   0  -3   8 6402.61  115.92
  -5  -3   1  155.34  107.49
   0   3  -8 5626.89  483.23
   0  -3   8 6234.56  288.77
   0  -3   8 6344.18  463.03
   5   3  -1   49.18   91.40
   0   3  -8 5930.57  280.50
   0   3  -8 6332.91  109.23
   5   3  -1   69.17  100.46
  -5  -3   1  151.04  102.52
   1  -8   3 3816.07  192.79
  -1   8  -3 3697.72  163.67
   1  -8   3 3914.25  159.92
  -1   8  -3 3400.97  161.02
   1  -8   3 3860.53   84.72
   1  -8   3 4086.44  197.59
   7  -7  -2  281.74   56.73
  -7   7   2  429.94  102.09
  -7   7   2  243.69  102.03
   7  -7  -2  274.58   94.62
   7  -7  -2  175.19   27.00
   7  -7  -2  283.86   83.55
   3   5   0 3538.40  181.28
  -3  -5   0 3928.22  320.63
  -3  -5   0 4002.43  411.80
   3   5   0 3669.73  231.24
  -4   3   824870.75  484.81
   4  -3  -822862.25  413.30
  -4   3   825220.25  563.16
  -4   3   824788.96  831.15
   4  -3  -823733.48  481.26
  -4   3   824544.67  522.44
  -1  -7   1 8417.74  441.39
  -1  -7   1 8188.66  268.82
  -1  -7   1 8326.93  138.74
  -1  -7   1 8570.38  242.59
   1   7  -1 8274.67  119.80
   1   7  -1 8032.99  258.60
   1   7  -1 8004.53  432.05
   8  -4  -3  143.63   70.29
  -8   4   3   47.62   79.40
   8  -4  -3  176.60  161.51
  -8   4   3    0.37   52.73
  -3   5  -6  360.26   35.96
  -3   5  -6  328.34  128.67
  -3   5  -6  386.71  108.49
   3  -5   6  510.12  125.34
  -3   5  -6  302.95   55.76
   3  -5   6  329.69  220.95
  -1  -4   8 9689.97  370.05
   1   4  -8 9258.41  556.41
   1   4  -8 9561.59  506.51
  -1  -4   8 9459.91  310.38
   0  -1   8 2448.57   94.63
   0   1  -8 2340.75   86.72
   0   1  -8 2259.98  311.33
   0   1  -8 2126.90  178.45
   0  -1   8 2360.31  171.13
   0  -1   8 2555.06  190.56
  -2   2   8  417.66   74.17
   2  -2  -8  405.70   85.92
  -2   2   8  212.23  147.11
  -2   2   8   72.05  168.24
   2  -2  -8  141.57   73.89
  -2   2   8  297.71  161.04
  -8   4   4 6570.19  460.06
   5  -3  -858182.03 1369.35
  -5   3   861532.91  959.93
  -5   3   860155.01 1254.36
   5  -3  -856597.80 1045.54
  -5   3   861987.29 1568.27
   8  -4  -4 6007.46  257.09
  -8   4   4 6217.58  214.35
  -5   3   861713.87 1147.57
   8  -4  -4 6273.42  218.39
  -2   3  -724803.58  378.79
  -2   3  -725509.59  592.58
  -2   3  -726223.69  492.48
   2  -3   725135.26  590.02
  -2   3  -725267.46  660.09
   2  -3   724055.96  897.05
  -2   5   6 1772.77  121.88
  -2   5   6 1847.34   95.43
   2   5   2 7747.67  542.18
   2  -5  -6 1529.45  166.60
  -2  -5  -2 7605.03  445.37
   2   5   2 7570.82  266.65
   2  -5  -6 1552.35  121.81
  -2   5   6 1449.39  282.50
  -2  -5  -2 7348.70  328.27
  -2   5   6 1665.33   86.65
  -7   0   2 4915.12  275.12
   7   0  -2 4689.30  179.60
  -7   0   2 4937.30  271.68
  -7   0   2 5214.03  142.90
   7   0  -2 4587.89  145.79
  -7   0   2 4913.86  145.19
  -8   3   4 1185.46  102.80
   8  -3  -4 1264.28  106.10
   8  -3  -4 1017.53  148.49
  -8   3   4  973.11  152.01
  -7   2   7 1552.33  114.38
   7  -2  -7 1226.97  130.67
   7  -2  -7 1384.80  202.11
  -7   2   7 1462.29  137.32
  -7   2   7 1294.85  240.24
  -7   4  -128483.94  544.41
  -2  -4   8  737.54  145.04
   2   4  -8  673.94  137.41
  -2  -4   8  751.33  111.92
  -7   4  -127993.38  668.39
   7  -4   125739.42  494.71
   2   4  -8  917.45  190.14
   7  -4   126890.58  722.19
  -7   4  -129413.07  563.85
  -7   4  -128992.64  646.96
  -7   7   116111.79  417.73
  -7   7   116185.76  317.43
   7  -7  -116184.08  366.09
   7  -7  -115471.99  255.86
   7  -7  -115343.42  301.87
  -7   7   115579.00  405.94
   7  -7  -115680.46  419.13
   1  -1  -8 3105.25  183.97
  -1   1   8 3320.90  133.00
   1  -1  -8 2934.51  130.11
   2   6   017999.30  479.11
  -1   1   8 3382.57  163.61
  -1   1   8 3241.86  197.44
   2   6   017336.66  412.42
  -2  -6   019280.07  494.13
  -2  -6   017829.10  434.95
  -1   1   8 2895.80  181.64
  -1   3   739190.72  843.49
  -1   3   738339.28  715.45
  -1   3   739287.89  687.86
  -1   3   740347.97  796.13
   1  -3  -738558.93  799.22
   1  -3  -738910.99  837.39
  -7   0   6  637.63   92.88
  -7   0   6  751.06   33.51
  -5  -1  -2 5499.58   99.96
   5   1   2 5347.77  220.95
   5   1   2 5168.58   61.80
   7   0  -6  640.52  112.03
  -7   0   6  613.55  155.98
  -5  -1  -2 5871.80  289.95
  -7   0   6  676.98  121.10
  -7   0   6  711.62   30.43
  -5  -1  -2 5857.14  294.14
  -7   0   6  657.27   80.87
  -8   3   311081.24  389.58
   8  -3  -310632.98  357.16
   5   1   2 5478.65  291.64
  -8   3   310853.77  248.97
  -5  -1  -2 5934.20  387.16
   8  -3  -310551.61  249.24
  -8   3   310394.26  390.59
  -8   3   310983.30  134.61
  -6   1   812876.19  251.33
   6  -1  -812622.81  184.91
  -6   1   812552.72  184.64
   6   0   113982.72  180.04
  -6   0  -115118.79  265.95
  -6   1   812983.19  237.46
  -6   1   812886.11  565.84
  -6   1   812687.06  580.52
   6   0   113761.49  324.90
   6  -1  -812119.92  275.14
  -6   0  -114835.86  551.33
  -6   0  -115069.19  471.80
  -6   0  -115123.97  477.48
   6  -8  -1 1093.68  122.48
   6  -8  -1 1143.87  249.67
  -6   8   1 1224.65  141.24
   6  -8  -1 1392.50   68.93
   6  -8  -1 1155.45  114.64
  -6   8   1 1188.98  124.75
   7  -5   152074.48 1023.19
  -7   5  -157545.52 1467.43
  -7   5  -156164.62 1080.77
   7  -5   149622.13  906.96
  -7   5  -154760.94 1162.23
  -7   5  -154350.11 1008.76
  -6  -2   2 2791.18  206.53
   6   2  -2 2650.52  111.83
  -6  -2   2 2785.50   46.93
  -6  -2   2 2859.98   39.54
  -6  -2   2 2876.01  229.89
  -6  -2   2 2870.19  125.92
   7  -7  -3 1337.79   35.51
  -7   7   3 1717.22  154.72
  -7   7   3 1302.67  148.57
   7  -7  -3 1232.44   41.32
   7  -7  -3 1377.71  139.31
   7  -7  -3 1218.70  146.32
  -6  -2   6 6636.45  189.08
  -6  -2   6 6291.73  128.34
  -6  -2   6 5879.10  217.64
  -6  -2   6 6402.31  135.02
  -6  -2   6 6640.52  265.29
  -6  -2   6 6329.96  154.73
   7  -5  -6 8496.89  295.63
  -7   5   6 8291.94  282.09
   7  -5  -6 8478.36  287.03
  -7   5   6 8015.18  287.10
  -7   6   5 2864.88  189.11
   7  -6  -5 2478.37  175.61
  -7   6   5 2403.24  170.12
   7  -6  -5 2139.89  291.97
  -6   2   8   16.43   77.04
   6  -2  -8   95.53   27.36
  -6   2   8   58.51  130.47
   5  -6  -6    6.09  140.14
   6  -2  -8  153.07   62.18
  -6   2   8   45.71   49.49
   5  -6  -6   58.94   33.29
  -5   6   6  123.30   76.65
   5  -6  -6   70.33   62.68
  -5   6   6  241.25  159.03
  -7   3   7 4550.97  204.92
   7  -3  -7 4114.14  312.50
  -7   3   7 3943.34  210.41
   7  -3  -7 3848.88  198.31
  -7   3   7 4310.35  304.96
  -2   6   540988.45  771.44
   2  -6  -540654.14  903.61
   2  -6  -540576.61  645.02
  -2   6   539927.03  631.21
  -2   6   541783.62  910.82
  -2   6   540067.07  660.60
   2  -6  -539668.14  753.38
   4  -8   333817.60  673.23
   4  -8   332778.98  784.45
  -4   8  -334590.88  762.78
  -4   8  -332079.95  625.27
  -4   8  -334089.77  691.49
   4  -8   334429.81  502.68
  -2   4  -761223.70 1299.41
  -2   4  -758035.61 1343.92
  -2   4  -759482.16  976.45
  -2   4  -761023.49  923.74
   2  -4   759757.08 1319.78
   2  -4   758615.94 1281.43
   0   2   713796.07  280.33
   0  -2  -712869.29  338.70
   0   2   713640.69  657.23
   0  -2  -713885.51  409.23
   0   2   713103.57  441.88
   0   2   713982.44  351.23
  -8   5   3  208.82  139.10
   1  -8   0   24.45  111.08
  -3   7  -520519.96  791.53
   8  -5  -3  193.87   86.92
  -8   5   3  141.02  104.46
  -1   8   0  165.17   76.27
   1  -8   0 -114.21  131.22
  -1   8   0  118.19   47.31
   8  -5  -3  271.72   98.39
  -3   7  -518677.89  276.71
   3  -7   517831.09  531.34
   1  -8   0  131.30  129.81
  -3   7  -519543.15  518.93
   3  -7   519655.84  476.99
   1  -8   0  105.77   32.71
  -3   7  -519999.17  243.87
  -2   2  -7 9402.80  354.99
  -2   2  -7 9348.12  290.86
   2  -2   7 9553.78  563.94
  -2   2  -7 9311.78  195.43
   2  -2   7 9160.69  209.75
   2  -2   7 9453.74  288.08
   4   4   013949.47  345.92
   3   4   2  311.36  129.79
   4   4   013896.28  443.61
   3   4   2  286.53  101.92
  -4  -4   014163.57  353.41
  -4  -4   014865.33  736.86
  -3  -4  -2  385.43  105.01
  -3  -4  -2  343.61  241.51
  -8   4   293195.49 1828.76
  -8   4   292423.46 2102.87
   8  -4  -288898.01 1741.40
  -8   4   294650.79 1692.65
   8  -4  -287916.93 1399.26
   8  -4  -288796.10 1888.04
  -8   4   296565.45 2110.34
  -5   8  -2  199.05   57.38
   2  -8   4  424.86   27.11
   6  -8  -2 1861.50  151.57
   6  -8  -2 1868.42  120.40
   6  -8  -2 1599.71  138.98
  -5   8  -2  229.47  102.30
  -5   8  -2  270.71   76.72
   5  -8   2  371.02  112.13
  -6   8   2 1819.91  155.34
   2  -8   4  458.53  107.82
  -6   8   2 1978.29  155.91
  -2   8  -4  317.75  102.61
   2  -8   4  440.46  105.01
   5  -8   2  199.74   49.31
  -2   8  -4  368.83   53.73
   2  -8   4  385.86  119.55
   5  -8   2  207.15   70.90
  -2   8  -4  290.11  106.71
   6  -8  -2 1709.74   68.60
  -6  -1   0 7446.91  112.71
  -6  -1   0 7372.87  230.40
   5   2   113840.78  754.96
   6   1   0 6830.74   74.67
   5   2   114068.06  535.58
  -6  -1   0 7291.60  349.66
  -5  -2  -114261.08  486.98
   6   1   0 7041.05  202.17
  -6  -1   0 7564.89  337.03
  -5  -2  -114226.98  368.07
   1   6   2 6341.42  295.43
  -1  -6  -2 6430.71  247.99
   1   6   2 6378.08  417.42
  -1  -6  -2 6713.29  300.49
  -2  -6   6  148.10   75.72
  -2  -6   6  102.87  123.55
   2   6  -6   11.05   51.30
  -2  -6   6    8.26   71.70
  -6   8   0  494.23   93.78
   6  -8   0  542.06  110.33
   6  -8   0  319.73  124.53
  -6   8   0  556.98   66.42
  -6   8   0  580.67  117.83
   6  -8   0  588.48   67.12
   6  -8   0  692.00   83.57
   5  -8  -3   58.58   37.31
   5  -8  -3  116.23   62.70
   5  -8  -3    9.91   73.32
   5  -8  -3   56.37   38.49
  -5   8   3  -86.63   57.84
  -5   8   3   86.33   68.06
   7  -1  -7 1672.35  126.36
  -7   1   7 1647.83  133.97
  -7   1   7 1491.46  131.01
  -7   1   7 1937.83  109.74
  -7   1   7 1526.63   36.66
  -6   4  -3 5484.66  225.46
  -6   4  -3 5622.98  207.84
  -6   4  -3 5403.53  232.90
   6  -4   3 5061.02  193.92
  -6   4  -3 5408.02  193.08
   6  -4   3 5110.42  209.66
   5  -5  -7  791.15   62.96
   5  -5  -7  792.81  123.24
   8  -3  -5  609.51   96.07
  -5   5   7  605.12   74.66
  -5   5   7  671.49  199.92
  -5   5   7  712.46  102.97
   8  -3  -5  539.11  118.63
  -8   3   5  619.64  212.33
  -8   3   5  563.85   92.17
  -5   5   7  750.19  197.01
   5  -5  -7  690.98  107.34
  -5   2  -449924.25 1014.76
  -5   2  -451438.18  909.40
  -4   6  -522156.89  860.24
   4  -6   520939.71  565.91
   5  -2   446718.90  994.45
  -4   6  -521255.83  326.12
  -4   6  -522132.23  545.18
   5  -2   446751.03 1017.63
  -5   2  -452197.13 1116.81
  -4   6  -521610.37  402.15
   4  -6   521539.51  546.24
  -5   2  -451932.28 1064.60
   8  -5  -4 1930.01  290.13
   8  -5  -4 1937.24  262.97
  -8   5   4 1971.58  179.04
  -8   5   4 1913.98  150.66
  -4   6   620070.09  340.59
   4  -6  -619430.49  346.32
  -4   6   619591.73  603.35
   4  -6  -619949.96  499.80
  -4   6   620636.71  509.83
   4  -6  -619014.68  382.63
   5  -6   413723.05  660.61
  -5   6  -413970.43  273.02
  -5   6  -414186.17  412.97
  -4   8   329734.01  667.18
   4  -8  -329150.78  665.37
  -4  -4   7  556.25   76.41
  -4  -4   7  706.32  107.28
  -5   6  -414429.65  270.53
   4   4  -7  606.46   87.92
  -5   6  -414622.81  636.91
   4  -8  -329630.61  711.00
  -4  -4   7  723.64   66.75
  -3   3   8 7415.38  224.72
   4  -8  -328835.24  499.82
  -3   3   8 7099.79  261.35
  -4   8   329962.72  755.47
   4  -8  -330432.13  641.31
  -4  -3   8 3083.97  138.43
   5  -6   413977.29  387.10
   4   3  -8 3204.26  125.02
  -3   3   8 7171.40  233.27
  -4  -3   8 3316.64  197.66
  -4  -4   7  672.00   82.68
  -4  -3   8 3175.98  320.01
  -4  -3   8 3324.78  121.87
  -4  -3   8 3265.46   74.50
  -4  -3   8 3169.77  104.71
  -3   3   8 7214.31  340.32
  -4  -4   7  662.10   89.18
   3  -3  -8 7261.89  342.71
  -4  -4   7  551.81   29.64
   3  -3  -8 7020.67  381.80
   7  -3   131179.60  781.02
  -7   3  -135177.49  679.13
   2   1   6 4734.94  134.51
  -2  -1  -6 4776.28  142.07
   7  -3   131738.71  734.45
   2   1   6 4659.51  277.03
   2   1   6 5103.90  221.61
  -7   3  -133758.86  771.25
  -7   3  -133654.12  593.44
  -2  -1  -6 4677.86  214.43
  -2  -1  -6 4850.53  272.62
  -7   3  -133836.94 1146.29
   2   1   6 4834.20  142.03
   6  -7   256159.68 1088.90
  -6   7  -257831.49 1102.25
  -6   7  -258601.31 1122.16
   6  -7   256490.48 1242.79
  -6   7  -259975.03 1240.29
   6  -7   259092.03 1057.53
   0   4  -821501.49  570.86
   0   4  -820952.18  571.77
   0  -4   822130.97  598.40
   0  -4   821895.43  563.38
   8  -5  -2 1397.37  152.95
   8  -5  -2 1453.54  131.39
  -8   5   2 1409.57  173.40
  -8   5   2 1321.54  123.76
   8  -5  -2 1393.39   38.76
  -8   5   2 1297.25   63.11
   6  -5   329709.24  901.20
   8  -4  -534898.78  757.31
  -6   5  -332486.50  652.21
  -8   4   535247.09  765.84
   8  -4  -534898.34  701.25
   6  -5   330745.86  637.98
  -8   4   534865.27  698.92
  -6   5  -333281.65  680.50
  -6   5  -332565.31  633.91
  -6   5  -331887.11  938.61
  -2   4   759812.01 1351.36
   2  -4  -757784.99 1204.98
   2  -4  -761008.31 1215.65
  -2   4   760271.34 1094.06
  -2   4   761749.55 1205.43
  -2   4   760587.89 1227.67
  -4  -5   410320.18  267.48
  -4  -5   410813.02  262.87
   6   0  -8 2671.70  121.83
  -4  -5   410091.73  380.08
   4   5  -4 6810.75  202.24
  -4  -5   410715.75  268.74
   5   0   3 2364.99  184.26
  -6   0   8 2943.02  142.13
   5   0   3 2036.94  199.24
  -6   0   8 2765.64  181.24
  -5   0  -3 2435.90   73.33
  -4  -5   410118.71  138.65
  -5   0  -3 2354.16  204.35
  -6   0   8 2929.14   92.61
  -5   0  -3 2311.09  191.68
  -5   0  -3 2075.64  195.45
   5   0   3 2121.05   65.37
  -6   0   8 2897.69  180.69
  -6   0   8 2903.18  103.86
  -4  -5   410614.16  255.62
  -6   1  -214747.11  242.17
  -6   1  -214645.04  702.41
   6  -1   213904.76  304.29
   6  -1   213942.76  557.67
  -6   1  -215437.13  405.29
  -6   1  -215055.63  455.52
  -1  -7   5 3258.29   49.20
  -1  -7   5 3114.97  185.71
  -1  -7   5 3317.14   60.16
  -1  -7   5 3194.32  187.39
   1   7  -5 3301.67  154.81
   1   7  -5 3398.45   61.89
  -1  -7   5 3154.10  171.89
   8  -2  -498501.92 2160.05
  -8   2   4 105212.   2354.
  -8   2   4 104038.   1727.
  -8   2   4 101024.   2703.
  -8   2   4 104704.   1703.
  -8   2   4 102828.   1994.
   8  -2  -499221.00 2168.15
  -5  -3   741014.97  601.47
   3   1   5 4423.20  169.22
  -3  -1  -5 4596.03  240.41
   3   1   5 4413.99  271.54
  -5  -3   741962.52  770.04
   3   1   5 5231.58  405.53
  -3  -1  -5 4939.86  272.43
  -5  -3   741787.15  685.09
  -5  -3   742006.53 1084.29
  -5  -3   741957.27  720.56
  -5  -3   740910.06  829.05
  -3  -1  -5 4622.37  112.84
  -6   6   6  424.47  104.39
   6  -6  -6  495.44   34.93
   6  -6  -6  506.83  102.10
  -6   6   6  414.32   26.13
  -6   6   6  400.03  114.01
   6  -6  -6  462.90  114.35
   6  -6  -6  464.59   27.05
  -8   3   2 5323.75  268.24
   8  -3  -2 5253.16  127.60
  -8   3   2 5593.57  114.36
  -8   3   2 5326.55  537.62
   8  -3  -2 5178.94  164.48
  -8   3   2 6369.07  497.37
   1  -8   415295.30  187.33
   1  -8   415544.97  634.34
  -1   8  -414550.67  207.50
  -1   8  -415542.88  377.87
   1  -8   415614.09  621.89
   1  -8   415373.28  620.06
   5  -7  -534512.22  661.67
  -5   7   535702.49  536.97
   5  -7  -534658.49  534.51
   5  -7  -535047.81  527.56
   5  -7  -534799.06  754.62
  -5   7   535467.18 1097.27
  -5   7   535164.54  692.66
   3  -1   667618.77 1287.15
   3  -1   666811.16 1936.89
  -3   1  -668670.17 1354.62
   3  -1   668995.70 1641.13
   3   1  -9  -35.50   53.93
  -3  -1   9  104.52  103.22
   3   1  -9  -11.02   25.39
  -3  -1   9  150.47   73.49
  -3  -1   9  107.31   94.28
  -3   1  -672677.06 2002.20
  -3   1  -669944.82 1589.16
  -3  -1   9   91.74   28.37
   4   5  -3  -19.47   53.36
   4   5  -3   13.34   45.59
  -4  -5   3  -58.68   62.10
  -4  -5   3   23.90   10.32
  -4  -5   3   17.75   57.01
  -4  -5   3   21.95   55.37
  -4  -5   3   21.50  110.71
  -4   5   719344.60  329.41
  -4   5   718708.99  400.98
   4  -5  -718707.30  716.49
  -4   5   718784.76  424.76
   4  -5  -718540.40  353.86
   4  -5  -719073.79  401.13
  -4   5   719261.88  468.06
  -5  -2   8 4522.89  128.30
  -5  -2   8 5227.45  212.68
  -5  -2   8 4989.94  190.30
  -5  -2   8 4979.16  225.56
  -5  -2   8 4833.76   90.20
  -5  -2   8 4952.97  228.97
   5   2  -8 2004.09   82.56
  -7   7   014603.10  364.38
  -7   7   014621.19  594.19
  -7   7   014916.37  406.36
   7  -7   014812.03  424.66
   7  -7   014876.31  284.00
   7  -7   014792.72  343.64
   7  -6   1 9094.39  262.76
  -7   6  -1 9046.56  302.73
  -7   6  -1 9477.06  280.03
  -7   6  -1 9340.52  483.84
   7  -6   1 8410.01  309.55
   7  -6   1 9062.83  227.12
  -7   6  -1 9427.77  238.25
   3  -8   4 5905.14  239.73
  -3   8  -4 5798.88  255.16
   3  -8   4 6039.41  284.27
  -3   8  -4 6157.71  266.58
  -3   8  -4 5770.56  152.55
   3  -8   4 6018.53   90.45
   3   0  -9 1051.34  192.75
  -3   0   9 1068.82  115.88
  -3   0   9 1135.68  145.48
   3   0  -9 1012.58   67.58
   0   6  -719726.48  524.61
   0  -6   719405.73  853.92
   0   6  -720196.11  521.90
   0  -6   720475.74  504.09
  -6   3   8  209.04   94.20
   6  -3  -8  234.07   59.54
  -6   3   8   91.32  127.51
  -4   0   912539.43  391.28
  -4   0   912623.77  419.20
  -4   0   912374.33  287.08
   4   0  -911700.22  240.07
   6  -3  -8   13.68   14.70
   4   0  -911351.10  210.41
  -4   0   912320.54  207.11
  -6   3   8  237.89  101.10
   0   0   8  270.48   98.14
   0   0   8  377.39  120.50
   0   0   8  297.98   88.99
   0   0  -8  373.93  111.69
   0   0  -8  378.77  101.83
   0   0  -8  305.60   63.81
   8  -2  -321811.62  391.56
  -8   2   323568.38  633.36
  -8   2   323902.63  432.63
  -8   2   322978.50  641.12
   8  -2  -321513.71  262.54
  -8   2   322719.64  398.29
  -6   3  -325825.51  581.39
  -6   3  -327397.00  618.77
   6  -3   323566.19  453.43
  -6   3  -326343.54  496.53
  -6   3  -327124.22  609.42
   6  -3   323700.86  543.72
  -5  -4   413430.36  292.34
  -3  -6   3  148.25   22.21
  -5  -4   413814.61  351.88
  -3  -6   3  114.60   78.77
  -3  -6   3   99.52   33.46
  -5  -4   413174.43  289.56
  -5  -4   413921.79  325.42
  -3  -6   3  230.98   78.20
  -5  -4   413595.16  168.77
  -5  -4   413142.72  205.28
  -3  -6   3  245.84   67.56
   3   6  -3  280.58   79.93
   8  -2  -532245.11 1012.89
  -8   2   533006.09  734.04
  -8   2   533564.37  619.85
  -8   2   534916.95  789.53
   8  -2  -531959.53  601.55
   3   4  -8 3203.78  152.21
   3   4  -8 3146.35  198.00
  -3  -4   8 3273.76  159.25
   7  -4  -714944.02  400.14
   7  -4  -714960.64  390.35
  -7   4   715265.10  418.12
  -3  -4   8 3135.92  357.92
  -7   4   715796.59  387.84
  -3  -6   4 5832.62  215.05
  -3  -6   4 5488.11  105.88
  -3  -6   4 5414.14  164.74
   3   6  -4 5739.07  105.27
  -4   1  -5  882.25  126.01
   3   6  -4 5433.14  167.13
   4  -1   5 1017.77   81.16
  -4   1  -5  905.83  156.77
   4  -1   5  923.55  129.32
  -3  -6   4 5895.13  127.56
  -3  -6   4 5737.03  213.26
  -4   1  -5  929.37   85.51
  -4   1  -5  932.04  117.23
   4  -1   5  845.90  288.26
  -3  -6   4 5656.59  249.18
   1   7   0  643.08  117.51
   1  -7  -357839.87  958.16
  -1  -7   0  430.13   15.92
  -1  -7   0  476.92  108.48
  -1   7   358783.20 1447.47
  -1   7   357791.96  904.33
   1  -7  -360456.47 1304.97
   1   7   0  358.32  107.99
  -1   7   358681.80 1271.51
  -1  -7   0  471.46  108.07
   1  -7  -357535.31 1135.73
   6  -5  -722857.22  534.93
  -6   5   724080.43  538.61
   6  -5  -722077.31  304.44
  -6   5   723228.33  272.37
  -6   5   722920.50  544.25
   6  -5  -722518.38  513.68
   4   2   3 3881.83   49.66
  -4  -2  -3 4034.82  220.94
   7  -7  -4 6733.18  264.41
  -7   7   4 6434.60  258.01
   7  -7  -4 6113.34  259.91
  -7   7   4 6226.93  275.96
   4   2   3 3882.64  457.55
   7  -7  -4 6277.15  105.72
   4   2   3 3776.54   48.55
   4   2   3 4000.91  387.15
   7  -7  -4 6458.13   81.76
  -4  -2  -3 4219.52  461.96
   1  -7   615571.14  493.09
  -1   7  -616616.12  719.54
  -1   7  -616954.65  470.73
   1  -7   616742.88  437.87
  -4  -5   5 1532.22   81.64
  -4  -5   5 1491.05  115.77
  -4  -5   5 1611.28   92.84
  -4  -5   5 1642.58  117.61
  -4  -5   5 1662.15  154.68
  -4  -5   5 1487.34  109.35
  -7  -1   431128.65  449.02
  -7  -1   430537.88  488.68
   7   1  -429245.71  528.67
  -7  -1   432320.85  780.45
  -7  -1   431305.50  480.26
  -7  -1   431134.69  695.89
  -7  -1   431386.28  576.90
   7  -1   036386.65  540.58
  -7   1   037713.42  569.25
  -7   1   037635.61  920.65
  -7   1   039218.41  762.49
  -7   1   037811.54 1272.65
   7  -1   036026.28  810.81
  -3  -5   7   21.77   13.67
  -4   7   5  143.36   86.55
  -3  -5   7  125.52   57.39
  -4   7   5  129.94   63.31
   4  -7  -5   36.03   51.01
  -3  -5   7  123.25   70.40
  -3  -5   7  -39.54  104.70
   4  -7  -5   52.71   43.84
   3   5  -7  -15.82   58.36
   4  -7  -5   69.36   83.54
  -4   7   5  151.12   97.57
   2  -8  -218207.94  437.70
   2  -8  -217089.08  271.02
  -2   8   217506.56  304.02
   2  -8  -217285.58  387.73
  -2   8   217070.93  460.23
   2  -8  -217431.14  397.17
  -2   8   216960.67  381.91
   2  -5   712398.98  697.68
   2  -5   712121.81  416.36
  -2   5  -711774.84  447.86
  -2   5  -712023.65  131.05
  -2   5  -712298.55  631.07
   4   1  -9 8519.55  198.64
  -4  -1   9 9056.38  352.47
  -4  -1   9 8375.86  384.13
   4   1  -9 8627.79  152.55
  -4  -1   9 8580.33  337.86
  -4  -1   9 9535.46  197.14
   1   1   7  906.87   93.72
   1   1   7  836.90  161.12
  -2  -1   9 2020.20  315.17
   1   1   7  739.29  148.21
  -1  -1  -7  786.18  152.59
  -1  -1  -7  820.97  110.66
   2   1  -9 2609.18  201.78
  -2  -1   9 2037.83  108.90
  -1  -1  -7  891.96   94.08
  -2  -1   9 2276.34  204.03
   2   1  -9 2133.26  172.91
   2   1  -9 2160.82   70.12
  -2  -1   9 2192.81  158.39
   6  -8  -319973.47  462.42
   6  -8  -318824.05  364.09
   6  -8  -319769.53  379.24
  -6   8   320084.94  502.62
  -6   8   320163.05  476.67
   6  -8  -319473.11  459.65
   0   8  -213871.88  448.69
   3  -6   6 2579.13  204.40
  -3   6  -6 2501.35  201.35
  -3   6  -6 2523.17  234.22
   0  -8   214785.95  242.92
   0  -8   214436.29  614.27
   3  -6   6 2726.32  225.80
   0  -8   215181.23  284.51
   0  -8   214288.94  616.20
   0   8  -214466.78  266.31
  -3   6  -6 2649.18   50.14
  -3   6  -6 2619.12   53.39
   6  -7  -5 9935.32  290.69
  -6   7   5 9956.21  303.24
   6  -7  -5 9839.48  190.62
   6  -7  -5 9396.38  196.08
  -6   7   510416.65  562.50
   6  -7  -5 9915.89  324.00
  -7  -1   5  365.94   88.95
  -7  -1   5  321.06   62.84
  -7  -1   5  380.95   40.34
  -7  -1   5  359.56   93.58
  -7  -1   5  238.62  207.25
  -7  -1   5  431.37   41.41
   1   6  -719299.61  499.54
   1   6  -720317.18  492.68
  -1  -6   719882.51  550.02
  -1  -6   720471.36  482.81
  -2   1  -7 2442.76  154.02
   2  -1   7 2615.33  137.30
  -2   1  -7 2658.83  125.49
   2  -1   7 2323.62  377.80
   2  -1   7 2494.61  247.34
  -2   1  -7 2055.03  367.80
  -5  -4   527644.67  495.98
  -4   1   9 5929.35  147.18
  -4   1   9 5857.81  290.37
  -5  -4   528731.15  510.06
  -5  -4   528794.88  559.60
  -4   1   9 5644.85  178.13
   0  -7   6  158.57  178.59
   0  -7   6  189.71   93.63
  -4   1   9 5563.50  262.92
   0  -7   6  115.41   91.83
  -5  -4   527988.30  466.51
   4  -1  -9 5401.99  153.32
   0   7  -6  204.61   92.11
  -5  -4   527906.84  515.10
  -5  -4   528038.30  401.90
   0   7  -6  134.65   98.54
   4  -1  -9 5263.45  162.50
   5   4  -3 3406.09  199.12
  -5  -4   320225.20  507.52
  -5  -4   320347.47  417.44
  -5  -4   320621.15  235.92
  -5  -4   321228.94  235.73
  -5  -4   320336.55  411.45
  -5  -4   319821.54  714.68
  -8   6   338966.23  877.76
   3   2  -9 1999.40  130.96
   6  -8   1 7948.38  200.73
   8  -6  -338282.27  810.28
   6  -8   1 7366.80  528.81
   8  -6  -339087.68 1121.31
  -6   8  -1 7363.63  222.89
   6  -8   1 7485.08  201.07
   8  -6  -337604.53  428.20
  -3  -2   9 2352.71  203.71
  -3  -2   9 1975.13  196.66
   3   2  -9 1977.68   47.18
   3   2  -9 1815.57  196.75
   8  -6  -337791.80  438.42
  -6   8  -1 7778.80  204.02
  -3  -2   9 2155.45   43.72
  -8   6   339606.68  823.30
  -6   8  -1 7937.93  493.58
   0  -8   374838.13 1244.51
   0   8  -371210.92 1312.77
   0  -8   372068.87 1468.89
   0  -8   375121.69 1551.68
   0   8  -369126.92 1403.85
   0  -8   372045.33 1483.16
  -2   7   4 8091.14  516.46
   2  -7  -4 6949.66  217.05
   2  -7  -4 7147.68  140.41
   2  -7  -4 7794.27  510.77
  -2   7   4 7520.95  242.54
  -2   7   4 7440.83  232.26
   2   2  -916368.95  207.14
   2   2  -916465.78  423.95
  -2  -2   917205.56  527.04
   2   2  -917238.57  508.73
  -2  -2   917966.67  504.54
  -2  -2   918100.10  271.11
  -8   5   5 1108.18  152.17
   8  -5  -5 1348.28  261.42
  -2  -2   917313.37  453.54
   8  -5  -5 1150.57  140.75
  -8   5   5 1217.80  136.63
   6  -6   3 3126.55  175.26
  -6   6  -3 2757.17  190.12
  -6   6  -3 2658.79  181.66
  -6   6  -3 2830.68  131.64
   6  -6   3 2585.79  202.29
   4   3   225539.08  710.23
   1  -6   7 2255.43  207.83
  -1   6  -7 1861.59  344.48
   1  -6   7 1827.64  181.94
  -4  -3  -226381.85  733.29
  -4  -3  -226802.55  609.70
  -1   6  -7 2099.47  191.76
   4   3   225466.36  589.66
   8  -4  -111612.40  286.55
  -8   4   112522.06  415.35
  -7   0   122905.73  650.08
   8  -4  -111379.79  185.87
  -8   4   112375.61  442.34
   8  -4  -112257.15  386.09
   7   0  -122403.78  528.58
  -7   0   124079.25  467.40
  -8   4   111763.87  441.64
   7   0  -122653.49  305.54
  -7   0   124460.70  331.47
  -8   4   112088.09  302.78
  -7   0   124019.31  662.61
  -8   6   231512.42  452.16
   8  -6  -230966.90  669.90
   8  -6  -229693.97  405.34
  -8   6   231839.81 1081.10
  -8   6   231489.56  664.03
   8  -6  -230833.29  671.08
   8  -5  -1 2242.69  173.68
   8  -5  -1 2101.46   73.03
  -8   5   1 2434.75   82.06
  -8   5   1 2232.53  153.53
  -8   5   1 2688.63  194.22
  -8   5   1 2181.75  381.31
   8  -5  -1 2123.42  150.59
  -4  -5   2 7339.23  287.48
  -4  -5   2 6778.20  234.92
   4   5  -2 6512.37  221.22
   4   5  -2 6137.67  269.36
   3  -8  -3 2436.20  131.10
  -3   8   3 2709.19  115.47
  -3   8   3 2527.57  192.02
  -3   8   3 2673.24  133.92
   3  -8  -3 2892.12  187.52
   3  -8  -3 2636.24  103.69
   3  -8  -3 2612.62  136.25
  -7   0   727556.62  513.06
  -7  -1   317735.98  236.69
  -7   0   728692.27  810.40
   7   1  -316108.84  264.49
  -7  -1   318275.42  824.40
   7   0  -725735.47  553.16
  -7  -1   317731.94  312.97
  -7   0   728604.52  450.20
  -7   0   727944.22  389.54
  -7   0   727376.72  537.37
  -7  -1   317581.33  501.72
  -7  -1   317875.88  341.99
  -7   0   728589.09  630.61
   6   2  -122046.26  600.59
  -6  -2   124179.50 1011.30
  -6  -2   122533.94  617.88
  -6  -2   123338.51  663.63
  -8   3   6 3798.90  203.88
  -8   3   6 3945.87  188.89
  -5  -3   0  313.67  138.14
   0  -7  -210016.42  578.22
   0   7   2 9435.94  347.77
   0   7   2 9407.52  298.02
   5   3   0  249.64   82.58
   8  -3  -6 4043.62  207.82
   8  -3  -6 3650.16  187.50
   3   6  -2  160.95   79.01
   0   7   2 9208.58  128.47
  -5  -3   0  331.96   91.16
   3   6  -2   16.71   74.37
  -3  -6   2   94.09   77.81
  -3  -6   2   30.73   78.20
  -3  -6   2  141.17   77.55
   5   3   0  148.78  221.62
   0  -7  -2 9625.50  301.63
   0  -7  -2 9651.00  113.23
   1  -8  -1 3757.57  316.14
  -1   8   1 3466.14  161.48
  -1   8   1 3268.19  179.51
   1  -8  -1 3657.36  188.04
   1  -8  -1 3459.05  186.58
   1  -8  -1 3354.47   77.86
  -1   8   1 3523.43  336.79
  -3   1   9  564.80  119.44
   3  -1  -9  545.98   90.74
  -3   1   9  605.84   97.33
  -3   1   9  511.39  140.88
   3  -1  -9  471.28   69.53
  -6  -2   7 2873.88   98.21
  -6  -2   7 2858.67  220.34
  -6  -2   7 2914.89  156.45
  -6  -2   7 2870.48   93.96
  -6  -2   7 2536.81  141.65
  -6  -2   7 2686.69   83.32
  -4  -1  -433611.01 1136.98
   4   1   432061.50  776.60
  -4  -1  -434105.17  812.61
   4   1   430471.04  496.89
  -4  -1  -432106.11  541.16
   4   1   432026.42  773.92
  -3  -6   512780.20  207.87
   3   6  -512600.61  225.79
  -3  -6   512351.10  321.95
  -3  -6   511818.14  265.76
  -3  -6   511702.38  198.15
  -3  -6   512176.30  318.22
   1  -3   8 1831.86  182.51
   1  -3   8 1674.12  192.85
  -1   3  -8 1594.42  178.53
  -1   3  -8 1640.78   51.82
   1  -3   8 1787.42   59.50
  -1   3  -8 1525.05  193.17
   2   0  -921571.87  473.10
  -2   0   923244.25  609.65
  -2   0   922820.18  554.77
  -2   0   923159.68  545.73
   2   0  -921286.61  497.51
  -2   0   922890.37  373.48
  -5   4   8  744.32  108.49
  -5   4   8  681.28  118.72
   5  -4  -8  786.27  116.64
  -5   4   8  678.72  131.51
   5  -4  -8  745.53   62.20
  -1  -4  -5 6592.95  281.10
  -1  -4  -5 6477.28  312.53
   1   4   5 6760.47  289.41
   1   4   5 6351.75  150.67
   1   4   5 6387.60  151.03
   1   4   5 6576.59  301.85
  -4   9   010382.99  300.37
   4  -9   010131.41  241.83
   4  -9   0 9967.41  251.88
  -4   9   010039.13  271.99
   4  -9   0 9944.90  259.70
   4  -9   010057.08  445.74
  -3   6   613053.86  421.35
  -3   6   613526.83  290.34
   3  -6  -612979.31  294.37
  -3   6   613201.36  269.35
   3  -6  -613283.49  269.29
  -3   6   613564.32  408.19
   3  -6  -613209.80  420.19
   0  -8   1 5476.91  238.97
   0   8  -1 5604.11  212.80
   0  -8   1 5487.08  243.10
   0  -8   1 5488.25  187.00
   2  -7   637800.94  818.39
   0   8  -1 5528.97  192.71
  -7   2  -1  323.94   57.53
   0  -8   1 5688.59  155.53
  -2   7  -637986.79 1172.49
  -7   2  -1  511.03  123.71
  -7   2  -1  389.66  134.23
  -8   6   4 1497.47  175.46
   2  -7   635718.88  898.71
  -2   7  -633919.09  825.27
  -8   6   4 1738.46  157.37
  -7   2  -1  363.79  155.90
   8  -6  -4 1074.58  146.13
   7  -2   1  467.38  100.57
   7  -2   1  492.97  146.68
   8  -6  -4 1299.65  151.82
   1   5  -819957.05  496.93
  -1  -5   818766.35  553.54
   1   5  -819262.45  534.87
  -1  -5   819979.91  733.48
   8  -2  -2 5999.74  155.82
  -8   2   2 6570.98  157.27
  -8   2   2 6313.10  157.37
  -8   2   2 6100.00  321.64
   4  -9   1  270.89  140.75
  -4   9  -1  268.04   97.53
  -4   9  -1  372.21   73.72
   4  -9   1  349.64   82.32
  -8   2   2 6273.65  331.54
   8  -2  -2 6149.35  165.40
   4  -9   1  258.56  102.79
   4  -9   1  336.13   96.22
   1  -2   824230.32  620.36
  -1   2  -825591.38  642.04
  -1   2  -824134.05  379.05
  -1   2  -824405.20  592.84
   1  -2   825553.65  415.64
   1  -2   825407.89  594.51
  -3   9  -1  619.98  169.04
   3  -9   1  512.73  176.24
  -3   9  -1  522.46   83.14
   3  -9   1  446.79  173.49
   3  -9   1  540.74   66.83
   3  -9   1  524.11   90.72
   6   1  -834979.90  647.62
  -6  -1   835015.50  554.30
  -6  -1   836220.74  735.39
  -6  -1   835252.23  558.57
  -6  -1   835274.68  505.89
  -6  -1   836945.20  774.18
  -6  -1   836078.42  689.74
   5   0  -9  658.95  123.29
  -5   0   9 1109.18  149.57
   5  -1  -911914.75  250.62
  -5   1   912685.62  240.11
  -5   1   912415.23  422.81
   5  -1  -911789.62  199.88
  -5   0   9  749.45  140.25
  -5   0   9  870.74   60.80
  -5   1   912339.49  237.12
   5   0  -9  933.43   59.66
  -5   1   912260.08  629.07
  -5   0   9 1060.26  154.71
  -8   4   623957.65  545.90
   8  -4  -624152.62  548.20
   8  -4  -623718.49  565.51
  -8   4   624342.60  571.99
   0  -5  -520541.10  503.97
   0   5   520324.31  507.96
   0   5   520489.23  547.60
   0  -5  -519826.55  565.33
   0   5   519656.38  348.06
   0   5   520159.39  278.10
   4  -4  -816822.71  430.60
  -4   4   818536.37  334.09
   4  -4  -817147.83  348.85
  -4   4   817948.76  420.26
  -4   4   818083.82  429.62
   8  -2  -6  517.36  197.68
   8  -2  -6  449.73   91.96
  -8   2   6  301.84   83.15
  -4   4   817782.21  452.44
  -8   2   6  320.50   98.04
   3  -5  -7  834.22  140.35
   3   5   164733.74 1959.32
  -3   5   7  634.30   95.28
  -3   5   7  865.87   88.30
  -3   5   7  616.26  129.39
   3  -5  -7  748.77   94.88
   3   5   163946.71 1305.07
  -3   5   7  719.16   85.68
  -3  -5  -164078.47 1489.15
  -3  -5  -164397.64 1321.87
  -7  -1   6 2739.04  144.95
  -7  -1   6 2779.75  189.52
  -7  -1   6 2997.74  326.79
  -7  -1   6 2828.61  227.99
  -7  -1   6 3065.05  122.71
  -7  -1   6 2917.63   71.95
   8  -3  -1  812.50   82.23
   0  -8   415954.03  424.30
   8  -3  -1  670.99   93.47
   0  -8   416821.73  558.36
   0  -8   416322.16  273.11
   0   8  -415154.30  346.57
   0   8  -416382.03  258.23
  -8   3   1  753.37   84.48
   0  -8   415728.70  426.99
  -8   3   1  854.81  159.80
  -8   3   1 1083.22   74.28
  -2  -7   311265.83  545.73
  -2  -7   311682.83  170.11
   2   7  -311571.37  230.19
  -2  -7   311301.50  335.29
   2   7  -310772.35  415.07
  -2  -7   311948.08  252.16
  -1   2   8 4341.41  196.16
  -1   2   8 4519.88  180.30
   1  -2  -8 4183.07  225.50
  -1   2   8 4362.65  281.75
   1  -2  -8 4021.88  306.62
  -1   2   8 3873.53  235.78
  -1  -5  -4  258.58  112.78
   1   5   4  315.14  129.00
   1   5   4  356.93  112.90
   1   5   4  321.21   33.59
  -1  -5  -4  537.95  137.70
   2   6   113258.89  380.06
  -2  -6  -113886.44  391.92
  -2  -6  -114305.95  458.61
   8  -1  -4  438.92  118.24
   0   4   612365.53  209.10
   0   4   612354.92  393.83
   0   4   612716.37  220.77
   0   4   613197.42  625.47
   8  -1  -4  571.53   49.91
  -8   1   4  508.35   52.21
   0  -4  -612415.59  406.46
  -8   1   4  550.47   74.14
  -8   1   4  545.95  134.95
  -8   1   4  467.15   62.59
   0  -4  -612338.16  377.40
   2   6   113888.76  458.62
  -8   1   4  543.03  139.83
  -3   9   0  177.92   80.86
   3  -9   0  198.08   63.37
   3  -9   0  169.09   74.70
   3  -9   0  222.28  132.62
   3  -9   0  112.34   63.53
  -3   9   0  268.47   76.47
   0   5  -810004.52  600.16
   0  -5   8 9260.51  399.31
   0  -5   8 9591.78  346.61
   0   5  -8 9603.51  377.24
   7  -6  -6 7229.08  275.94
   7  -6  -6 7213.38  291.16
  -5   1  -4 1416.05  138.87
   5  -1   4 1348.23  177.35
   5  -1   4 1242.49  162.27
  -7   6   6 7012.58  290.39
   5  -1   4 1313.84   76.24
  -7   6   6 7329.34  284.24
  -5   1  -4 1284.01  178.51
  -5   1  -4 1444.53  163.60
  -5   1  -4 1798.65  155.91
   5  -8   313575.09  233.19
  -5   8  -312688.14  356.89
  -4  -2   925503.24  530.98
  -4  -2   926538.06  972.76
  -4  -2   927391.27  396.84
   4   2  -925003.42  343.67
  -5   8  -313681.21  420.79
   4   2  -925925.64  469.69
  -5   8  -313571.04  574.20
  -4  -2   926709.03  670.25
   5  -8   313096.91  339.81
   5  -8   312972.69  736.96
   3  -9   211641.04  332.71
  -3   9  -210821.26  234.88
   3  -9   211950.11  331.10
  -4  -5   6   53.99   77.77
  -4  -5   6   74.16   29.52
   3  -9   211659.04  324.61
  -4  -5   6   12.85   60.64
  -4  -5   6  -38.77  100.23
  -4  -5   6  175.50   62.32
   3  -9   212227.38  214.05
  -4  -5   6   61.42   60.86
  -3   9  -211730.47  330.22
  -6  -3   449169.08  869.59
  -6  -3   452453.72  917.01
  -6  -3   452670.92 1143.83
   6   3  -449409.12  848.60
  -6  -3   452611.45  743.58
  -6  -3   451998.13 1347.43
  -6  -3   453834.28  937.29
  -1   4  -8  483.49  153.91
   1  -4   8  552.47  142.88
  -2   3   8 3833.97  304.45
   2  -3  -8 3981.88  320.36
  -2   3   8 3873.61  199.76
  -6   2  -3 1476.18  148.88
  -1   4  -8  564.48   32.90
   2  -3  -8 3541.20  189.22
  -6   2  -3 1094.27  141.40
   6  -2   3 1215.96   82.93
  -2   3   8 3692.51  165.52
   6  -2   3 1018.35  153.90
  -6   2  -3 1122.63  259.27
  -2   3   8 3874.82  186.25
  -6   2  -3 1271.69  277.27
  -1   4  -8  512.75  142.46
  -5   7  -4 8067.20  251.72
  -5  -4   6   47.40   52.92
  -5   7  -4 8008.81  319.38
   5  -7   4 7651.45  339.72
  -5  -4   6  -66.25   38.18
   5  -7   4 7572.20  281.07
  -5  -4   6   70.36   50.62
  -5   7  -4 7856.72  179.50
  -5   7  -4 8598.64  322.23
  -5  -4   6   31.43   69.80
  -5  -4   6   36.24   68.19
  -5  -4   6  -17.56   40.14
  -2  -3   9   66.58   79.45
   2   3  -9  184.89   93.96
   2   3  -9  -44.25   72.84
  -2  -3   9   51.59   97.14
  -5  -4   212013.39  619.91
   2   4   436713.29  450.75
  -5  -4   212399.42  413.99
  -2  -4  -439450.43  885.61
   5   4  -210861.71  602.59
  -5  -4   212649.23  485.33
   2   4   438774.91  936.25
  -2  -4  -437428.99  936.26
   5   4  -211545.62  280.99
   2   4   438548.40  856.64
  -8   1   5 2533.60  117.31
  -8   1   5 2398.23  380.20
  -2  -7   4 7406.06  151.64
   2   7  -4 7202.86  176.13
  -2  -7   4 7306.79  264.22
  -8   1   5 2687.11   43.11
  -8   1   5 2671.26   57.12
   2   7  -4 7434.14  154.18
  -8   1   5 2679.06  127.08
  -2  -7   4 7585.84  165.73
  -8   1   5 2531.25  194.17
   8  -1  -5 2471.83  121.51
  -2  -7   4 7031.26  264.35
  -8   6   1 3598.90   87.65
   8  -6  -1 3231.42   93.88
  -8   6   1 3386.87  416.30
  -8   6   1 3795.30  202.05
   8  -6  -1 3934.61  344.37
   8  -6  -1 3445.39  198.56
   4  -8   465862.17 1034.12
   4  -8   463140.03 1457.25
   4  -8   465650.95 1338.47
  -4   8  -467536.33 1830.35
  -4   8  -461401.92 1297.54
  -4   8  -461798.08  997.60
   5  -8  -4  273.21   52.79
   5  -8  -4  405.78   51.68
  -5   8   4  293.07   86.14
   5  -8  -4   30.23  194.16
   5  -8  -4  412.96   82.91
  -5   8   4  350.63  114.88
  -4   9   115783.36  402.50
  -5   9   026510.70  545.30
   7  -7   1  684.03  164.84
   7  -7   1  785.68  140.35
   5  -9   026923.54  496.12
   5  -9   027876.56  694.56
  -7   7  -1  906.30  228.91
   7  -7   1  541.19   83.92
   4  -9  -116280.67  343.60
  -5   9   028275.34  625.42
   5  -9   027326.57  507.88
  -7   7  -1  539.34  144.11
   5  -9   027648.45  609.99
   4  -9  -116408.64  527.34
   4  -9  -115673.56  337.34
   4  -9  -116440.14  546.51
  -4   9   116332.20  379.46
  -7   7  -1  724.52  202.73
  -6  -3   512851.06  363.94
  -6  -3   512280.44  299.16
  -6  -3   512793.64  264.05
  -6  -3   512214.66  350.65
  -6  -3   512564.99  368.21
  -6  -3   512398.74  339.00
   2  -8   5  291.80  126.51
  -2   8  -5  269.34   26.21
   1   3   6 4162.93  262.16
   2   5  -8  359.63  167.37
  -1  -3  -6 4521.39  252.44
  -2   8  -5  430.44  110.80
   2   5  -8  159.36  190.45
  -2  -5   8  370.07  124.00
   1   3   6 4244.23  111.21
   1   3   6 4040.45  405.72
  -2  -5   8  265.80   96.50
  -2   8  -5  302.41  200.67
  -1  -3  -6 3953.26  241.69
   1   3   6 4208.02  106.85
   2  -8   5  306.34  106.39
   1   2  -9 1825.07   85.98
  -1  -2   9 1564.34  178.70
  -1  -2   9 1885.05   55.87
   1   2  -9 1616.34  197.67
   1   2  -9 1997.70  183.50
  -1  -2   9 2059.40  191.90
  -2  -3  -5 3576.29  238.71
  -4   2   9 2804.74  216.86
   4  -2  -9 2483.40  124.72
  -6   4   819294.41  499.60
  -6   4   819621.08  446.67
   6  -4  -819192.51  485.83
   4  -2  -9 2697.66  132.61
   6  -4  -818053.71  288.99
  -2  -3  -5 3772.82  423.93
   2   3   5 3703.82   74.25
   2   3   5 3534.85  246.88
  -4   2   9 2671.94  127.88
   2   3   5 3638.24   75.59
   2   3   5 3825.65  251.62
   6  -4  -818365.72  444.01
  -6   4   819487.45  281.64
  -4   2   9 2812.38  191.37
  -4   2   9 2743.82  128.51
  -6   4   819283.43  797.46
  -4   7  -5 2989.67  210.80
  -4   7  -5 2865.44  225.75
   4  -7   5 2409.32  235.16
  -4   7  -5 2561.39   69.43
  -4   7  -5 2497.07  116.94
   4  -7   5 2640.28  191.45
  -7   8   2 8801.43  310.76
   7  -8  -2 9294.32  290.26
   7  -8  -2 8711.26  322.86
   1  -8   510323.37  363.71
  -1   8  -511083.80  117.72
  -1   8  -510540.67  541.44
  -7   8   2 8727.17  322.90
   7  -8  -2 8625.03  140.58
   1  -8   510809.37  353.54
   7  -8  -2 8781.92  151.03
  -1   8  -511380.24  374.81
   1  -8   511054.34  360.75
   1  -8   511060.38  126.72
  -1  -7   624590.36  563.45
  -1  -7   625010.34  573.15
  -1  -7   623021.23  581.05
   1   7  -624113.72  533.47
  -3   7   5 5754.07  184.49
   3  -7  -5 5748.08  304.78
  -3   7   5 5530.85  262.82
  -3   7   5 5806.71  283.54
   7  -8  -110333.58  288.74
   7  -8  -1 9979.69  353.64
   7  -8  -110013.84  188.01
   7  -8  -1 9486.22  249.74
  -7   8   110378.45  570.56
   3  -7  -5 5999.95  246.85
  -7   8   110230.52  321.97
   3  -7  -5 5742.68  290.70
  -2  -7   239872.02  840.35
   7  -2  -842804.30 1092.45
  -7   2   845112.52  963.70
  -7   2   845984.38  978.61
   2   7  -239986.14  511.36
  -2  -7   240458.29  559.58
  -2  -7   239175.81  833.46
   2   7  -237572.90 1042.15
   2   7  -238461.79  793.59
  -2  -7   241356.04  810.22
  -7   2   845153.90  849.90
   5  -9  -1 9649.34  224.59
  -7   5  -2  944.75  140.35
   5  -9  -110237.31  270.01
  -7   5  -2 1425.76  126.94
   5  -9  -1 9711.01  224.44
  -5   9   1 9658.55  296.53
   5  -9  -110099.06  296.63
   4  -9   2  331.93   94.49
  -4   9  -2  342.39   62.58
  -7   5  -2  892.01  219.56
  -7   5  -2  940.09  116.55
   7  -5   2 1168.13  110.89
  -5   9   1 9998.29  305.32
   4  -9   2  431.65   53.56
   4  -9   2  427.79   94.35
   4  -9   2  410.39  115.48
   7  -5   2 1116.87  131.07
  -4   9  -2  332.16  110.93
  -8   1   3   89.38   91.23
  -8   1   3   41.28   33.48
   8  -1  -3    7.17   36.97
  -8   1   3  -39.50   89.40
   8  -1  -3   38.31   40.24
  -8   1   3  -17.11   34.48
  -5   2   9 3934.31  150.31
  -5   2   9 4328.42  259.98
  -5   2   9 4492.87  117.36
   5  -2  -9 3838.05  155.14
  -5   2   9 4288.04  232.93
   5  -2  -9 3851.04  106.92
  -5  -1   942943.11  636.86
   5   1  -940630.35  669.57
  -5  -1   940302.17  932.98
  -5  -1   943400.00 1314.04
  -5  -1   942750.37  962.38
   5   1  -942266.20  673.68
   3   3  -9  102.01   98.45
  -3  -3   9  159.63  170.55
  -3  -3   9  132.59  127.76
   3   3  -9   64.48   65.86
  -3  -3   9   37.11  100.93
   7  -5  -7   81.84   85.42
   7  -5  -7   86.59  152.78
  -2  -6   7   41.83  123.47
  -2  -6   7    6.01   63.71
  -7   5   7   27.95   85.13
  -7   5   7  111.06  138.09
  -2  -6   7    8.25   62.43
   2   6  -7   57.12   84.50
   2   6  -7  193.25   82.31
   1   1  -940487.85  929.48
   7  -4   2 4337.85  299.91
  -7   4  -2 4331.85  288.87
  -1  -1   940750.00  963.17
  -1  -1   942500.86  788.75
  -1  -1   942871.81  939.97
   1   1  -939799.85  886.58
  -7   4  -2 4449.66  224.94
  -7   4  -2 3759.54  407.93
  -1  -1   939872.97  898.78
  -7   4  -2 4385.63  195.99
   1   1  -939270.07  617.53
   7  -4   2 3984.00  179.98
   1  -5  -6 7088.01  323.93
   1  -5  -6 6729.30  260.72
  -1   5   6 6480.51  237.12
  -1   5   6 7039.93  263.52
  -1   5   6 6750.53  144.76
  -1   5   6 6983.20  300.72
  -7  -1   2  -64.00  104.03
   7   1  -2   49.63   76.04
  -7  -1   2  108.94   36.68
  -6  -3   373136.51 1366.17
  -6  -3   372550.44 1630.26
   6   3  -367666.37 1230.99
  -7  -1   2   63.24   25.02
  -7  -1   2  362.15  194.83
  -6  -3   372562.15 1157.19
  -1   1  -8  121.09   47.42
  -1   1  -8   22.95   97.27
  -6  -3   368983.16 1507.54
   1  -1   8  142.10   91.96
   1  -1   8   57.01   68.00
  -1   1  -8  -32.54   81.74
  -6  -3   373718.20 1095.75
   1  -1   8    0.44   47.13
  -7  -1   2  153.74   54.06
   7  -7  -5  212.96   98.27
   7  -7  -5  217.23   91.40
  -7   7   5  244.75  101.68
   7  -7  -5  125.32   29.98
  -7   7   5  111.83  193.98
  -3   0  -6 1658.00  177.48
   3   0   6 1836.37   98.73
   3   0   6 1698.22  217.92
   3   0   6 1676.25  271.86
  -3   0  -6 2118.14  208.74
   4   4   1 9650.13  415.84
  -4  -4  -1 9819.73  322.24
  -4  -4  -110166.10  422.09
   4   4   1 9646.52  313.30
   0   6   4  382.21  114.45
   0   6   4  439.10   29.07
   0  -6  -4  431.82  111.44
   0  -6  -4  460.44  145.61
   0   6   4  673.53  138.26
   0   6   4  471.25   31.30
  -4   4  -622470.93  526.05
   0  -1  -833571.52  658.56
   4  -4   621315.15  572.06
  -4   4  -621515.52  494.42
   0   1   836807.77  711.52
  -4   4  -622799.47  398.09
   0   1   835656.41  866.48
   0   1   836602.51  712.86
  -4   4  -621995.83  624.13
   0   1   835674.07  743.52
   4  -4   621702.64  524.90
   0  -1  -836042.99  825.17
  -5   9  -118685.24  550.84
  -5   9  -119474.40  510.81
   5  -9   118970.82  504.11
   5  -9   119655.15  360.49
   5  -9   119217.35  393.38
   5  -9   118381.96  385.59
  -4   8   4 3681.85  156.33
   4  -8  -4 3703.81  145.82
  -4   8   4 4161.26  238.34
   4  -8  -4 4425.48  384.84
  -4   8   4 3823.27  135.63
   4  -8  -4 3580.35  225.12
   4  -8  -4 3864.70  137.34
   6  -8  -4 7863.07  137.11
   6  -8  -4 7578.77  293.37
   6  -8  -4 7600.95  203.64
  -6   8   4 7615.25  273.02
   6  -8  -4 7584.36  264.55
  -6   8   4 7708.30  309.22
   2  -9   215519.29  344.51
   2  -9   215314.38  401.50
   2  -9   215835.07  267.32
   2  -9   215360.78  406.31
  -2   9  -214277.19  297.48
  -2   9  -214843.92  353.40
   2  -9   137547.88  777.65
   2  -9   137705.56  772.51
   2  -9   138429.26  669.56
  -2   9  -135615.95  705.42
   2  -9   138720.54  855.07
  -2   9  -137045.59  702.13
  -7   1   8 4553.91  263.20
   7  -1  -8 4287.44  176.52
  -7   1   8 4619.21   48.24
  -7   1   8 4870.77  229.04
  -7   1   8 4831.82  223.03
  -7   1   8 4650.59   59.89
  -3  -6   1 1621.31  303.72
   3   6  -1 1357.76  163.40
  -3  -6   1 1645.45  156.05
   3   6  -1 1290.67  141.65
  -1  -3   925221.80  627.82
  -1  -3   924038.77  254.27
   1   3  -924948.99  661.10
   1   3  -925151.35  279.33
  -1  -3   925951.27 1003.49
   1   3  -923344.42  243.65
   1   3  -923951.38  628.44
  -8   6   510152.37  368.52
   8  -6  -510364.20  357.85
  -2   6  -7 1257.21  195.76
   2  -6   7 1027.86  286.69
   8  -6  -510172.94  563.10
  -8   6   510318.44  341.93
  -2   6  -7 1225.01  171.13
   2  -6   7 1108.18  183.85
  -7   3   8  187.98  165.93
  -7   3   8   63.86   91.23
  -7   3   8   91.53   67.57
   7  -3  -8   95.03   74.98
   7  -3  -8  105.56   91.65
  -8   5   627406.34  635.83
  -8   5   626981.55  643.62
  -6   8  -2   67.68   55.97
   6  -8   2   -3.51   63.15
   6  -8   2  112.09   49.47
  -6   8  -2  129.42  115.69
   8  -5  -626506.04  907.91
  -6   8  -2   -3.94   90.88
   6  -8   2   63.16  104.87
   8  -5  -626846.53  938.40
  -2   1   920449.74  540.90
   2  -1  -919083.27  454.47
  -6   7  -336090.28  651.12
  -2   1   919727.79  489.43
  -2   1   920378.46  524.75
   6  -7   335581.74  631.60
  -6   7  -336203.71  823.45
   6  -7   334052.37  726.20
   6  -7   333895.76  828.02
   2  -1  -918827.58  370.75
  -6   7  -336878.36  799.27
  -2   1   919280.72  486.95
  -6   7  -335769.09  681.20
  -4  -5   1 9504.55  629.53
  -4  -5   110041.49  495.52
   4   5  -1 9202.56  460.72
   4   5  -1 8988.32  349.53
  -1   6   5  608.68   87.25
   1  -6  -5  640.41  115.55
  -1   6   5  634.69   46.33
  -1   6   5  655.67  116.06
   1  -6  -5  682.09  157.58
  -1   6   5  741.37  144.42
  -3  -6   6 2019.12   49.97
   0  -8   0 6360.10  261.17
  -3  -6   6 1914.30  148.12
  -5   4  -515153.33  373.72
  -3  -6   6 2185.17   86.75
   5  -4   514889.89  590.64
   5  -4   514259.59  423.08
   0   8   0 6026.63  257.40
   3   6  -6 2012.17  111.05
   0   8   0 6099.96  172.01
  -5   4  -515550.80  343.30
  -3  -6   6 2228.34  139.52
   0  -8   0 6570.40  390.72
   0   8   0 6412.98  417.69
   0  -8   0 6193.58   93.10
  -5   4  -515498.02  474.62
   0  -8   0 5937.28  441.16
  -5   4  -514913.54  315.06
  -3  -6   6 1892.79  149.39
  -6  -1  -1 6275.09  343.45
   6   1   1 5658.43  218.85
   6   1   1 5749.33   76.57
  -6  -1  -1 6210.52  243.53
   6   1   1 5798.21  329.65
  -6  -1  -1 6347.45  335.51
   7  -8  -3 5008.41  246.12
   7  -8  -3 4896.38   91.91
  -7   8   3 4950.64  241.43
   7  -8  -3 5005.73  231.48
   7  -8  -3 4694.42  131.18
  -7   8   3 4779.59  252.76
   1   7   1  289.64  124.59
   1   7   1  355.73  106.74
  -1  -7  -1  378.97  111.82
  -1  -7  -1  333.31  123.01
  -4  -4   813208.27  366.43
  -5  -3   844699.69  940.21
  -4  -4   813616.79  193.56
  -4  -4   813492.28  143.50
   4  -3   640747.50  946.10
  -4   3  -643634.02  801.34
  -2   0  -7 2486.21  213.13
  -5  -3   843542.70  735.37
  -3   9   1  304.36   72.07
  -3   9   1  234.37   97.21
   4  -3   641658.20  846.69
   2   0   7 2209.98  121.31
  -5  -3   843301.83  609.75
  -4  -4   814306.28  298.96
  -4  -4   812647.94  396.16
   4   4  -813305.03  359.21
  -4  -4   813058.04  466.25
   3  -9  -1  357.71  155.89
  -2   0  -7 1879.09  134.64
   2   0   7 1801.81  403.21
   3  -9  -1  344.06   88.89
   3  -9  -1  330.31   87.69
  -4   3  -642692.39  852.57
  -5  -3   843017.45  854.65
  -5  -3   842876.74  692.36
  -5  -3   843307.08  760.54
   3  -9  -1  409.43   66.88
  -4   3  -641334.54  930.27
  -2   0  -7 2388.70  146.89
   2   0   7 2237.12  154.06
   8  -1  -6  660.46  215.68
  -8   1   6  672.42  113.04
   8  -1  -6  550.19   91.41
  -8   1   6  672.04   18.46
  -8   1   6  656.75  240.30
  -8   1   6  612.06   97.87
  -8   1   6  693.04   88.10
  -8   1   6  687.34   31.66
   2   5   3 2582.00  247.36
  -2  -5  -3 3186.51  268.97
  -2  -5  -3 3276.98  211.68
   2   5   3 3025.63  212.82
   2   7  -570115.11 1151.89
  -2  -7   566893.37 1090.02
   6   0   214245.24  597.23
  -2  -7   571520.98 1206.80
  -2  -7   569275.42 1338.47
  -2  -7   569539.82 1772.07
   2   7  -569903.99 1288.05
  -2  -7   570104.39 1425.01
  -6   0  -215939.74  520.92
   6   0   214367.61  191.50
  -6   0  -216059.08  681.03
  -6   0  -215708.03  507.13
  -6   0  -215764.77  221.28
  -6  -3   6 9097.48  415.63
  -8   5   0 1395.60  189.12
   8  -5   0 1124.51  140.16
  -6  -3   6 9401.52  277.02
  -6  -3   6 9487.02  194.61
  -8   5   0 1589.82  225.10
  -8   5   0 1297.56  150.91
   8  -5   0 1392.68  224.32
  -6  -3   6 9401.24  200.61
  -6  -3   6 9025.62  209.70
  -6  -3   6 8829.00  350.27
  -8   5   0 1171.07  287.04
   8  -5   0 1275.56  157.03
   5  -5   5 1791.76  312.86
   8  -7  -2  -31.48   77.41
   5  -5   5 1688.05  292.86
  -5   5  -5 1775.83  161.51
   8  -7  -2   56.86  121.81
  -8   7   2  223.77  103.45
   8  -7  -2  -18.21   26.22
   8  -7  -2   61.08   29.41
  -5   5  -5 1937.30   97.85
  -5   5  -5 1617.82  334.39
  -8   7   2   72.84   95.64
  -5   5  -5 1746.63  106.50
   4  -5   6 3107.43  226.94
   4  -5   6 3682.86  412.69
  -4   5  -6 3818.30  174.88
  -4   5  -6 3689.11  365.49
  -4   5  -6 3590.04   98.52
  -4   5  -6 3740.83  262.59
  -8   7   3 7874.58  548.84
   7  -6   2  385.00   81.39
   8  -7  -3 7821.40  109.78
   8  -7  -3 8219.82  315.29
  -7   6  -2  377.84   92.01
   8  -7  -3 7898.09  302.57
  -3   2   937819.60  760.67
  -3   2   937747.19  706.69
   3  -2  -934962.45  881.32
  -3   2   937214.39  807.14
  -7   6  -2  399.32   90.23
   3  -2  -935433.36  699.85
  -7   6  -2  142.86  175.65
  -3   2   937964.05  862.18
   7  -6   2  131.83  112.67
  -7   6  -2  241.85  182.78
  -8   7   3 8531.12  511.32
  -3   9  -3 2504.00   93.40
   3  -9   3 3255.44  350.64
   3  -9   3 2827.97  126.60
   3  -9   3 3085.72  182.03
   3  -9   3 2833.67  188.21
  -3   9  -3 2931.03  184.11
   7  -8   013528.67  265.09
   7  -8   013990.08  252.20
   7  -8   015005.77  710.56
  -7   8   013905.23  261.40
  -7   8   013778.81  369.92
   7  -8   014045.99  336.45
  -7   8   014369.81  436.94
  -3   4   8  156.30   73.02
   3  -4  -8   69.00   72.88
  -3   4   8  200.83   73.71
  -3   4   8  201.21   88.83
  -3   4   8  110.64  148.11
   3  -4  -8  179.60   87.42
   0  -3  -7  555.93  122.84
   0   3   7  753.07  239.56
   0  -3  -7  402.80  236.40
   0   3   7  466.71  109.14
   0   3   7  476.40  117.22
   0   3   7  458.96   71.97
   4   0   5 3320.52  103.86
   4   0   5 3575.87  222.24
   4   0   5 3564.22  262.03
  -4   0  -5 3795.55  215.09
  -4   0  -5 3341.83  258.06
  -4   0  -5 3575.60  183.69
   8  -4   0  557.00   87.98
  -8   4   0  372.32  116.08
   8  -4   0  481.81   66.46
  -8   4   0   63.95  129.32
  -8   4   0  260.49  106.10
   3  -8   512585.39  374.68
  -3   8  -513122.97  660.93
  -3   8  -512686.66  415.84
  -3   8  -511893.32  182.03
   3  -8   511581.29  448.48
   3   3   445625.63  554.30
  -3  -3  -447432.88 1049.00
  -3  -3  -445261.71 1109.97
   3   3   447560.95 1134.74
   3   3   446953.36 1070.83
   3   3   444436.25  575.13
   1  -4  -7  352.77  180.65
  -1   4   7  155.61   51.66
  -1   4   7   95.89  101.56
  -1   4   7  333.20   98.48
  -1   4   7  125.12   96.89
   1  -4  -7  172.33  109.60
  -5   9   2 6771.68  270.31
   5  -9  -2 6104.51  170.01
  -5   9   2 6794.17  243.50
   5  -9  -2 6499.55  170.06
   5  -9  -2 6449.12  239.81
   5  -9  -2 6772.71  230.47
   1   6   343852.42 1057.17
   1   6   343786.54 1313.19
  -8   2   131259.71  512.13
   3  -4   7  985.07  292.78
  -1  -6  -343830.90 1073.42
   8  -2  -128091.27  466.06
  -3   4  -7 1032.23   60.55
  -8   2   129960.29 1171.63
  -1  -6  -343349.81  947.17
  -8   2   131562.11  583.76
   8  -2  -127976.17  443.50
   3  -4   7  815.17  146.29
  -3   4  -7  861.67  143.38
  -3   4  -7 1037.83   63.06
  -8   2   129139.37  808.16
  -7   3  -233623.07  702.79
  -7   3  -232630.30  768.95
  -7   3  -232585.24  758.90
   7  -3   230036.54  650.25
   7  -3   230169.19  559.39
  -7   3  -233058.96  800.22
   6  -1  -914067.27  188.32
  -6   1   914459.57  284.01
   2  -9   3 3596.27   85.92
   6  -1  -913881.95  441.52
   0  -8   5 1121.52   27.11
   0   8  -5 1092.01  123.30
  -6   1   914794.58  445.15
  -2   9  -3 3169.68  185.67
  -8   3   7  556.17  110.39
   2  -9   3 3631.18  205.34
   0  -8   5 1155.28  151.56
  -6   1   914805.47  304.85
  -8   3   7  507.77  115.36
   8  -3  -7  616.75  200.63
   2  -9   3 3514.30  318.57
  -2   9  -3 3380.79  168.57
   2  -9   3 3404.44  212.43
   0  -8   5 1082.97  149.65
   0   8  -5 1127.13   55.41
   8  -3  -7  438.66  112.83
   0  -8   5 1131.57  140.98
  -6   1   914565.76  457.15
   5   2   268776.30 1447.48
   5   2   270501.43 1675.76
  -5  -2  -274275.27 1967.42
  -5  -2  -274288.47 2299.51
   3  -7   630212.56  801.25
   3  -7   630114.17 1046.35
  -3   7  -630007.56  353.15
  -3   7  -630330.23  792.01
  -3   7  -630458.67  752.80
   2  -9   015818.01  284.89
  -2   9   015624.59  459.29
   2  -9   015461.52  401.10
  -2   9   015079.88  390.03
   2  -9   016112.44  354.30
   2  -9   015728.81  400.68
  -7  -1   712728.11  194.25
  -7  -1   712710.13  288.23
  -7  -1   712832.34  326.45
  -7  -1   712675.15  412.84
  -1   5  -8  839.23  170.23
  -7  -1   712800.70  364.73
   1  -5   8 1130.87  186.22
  -1   5  -8 1018.01  184.84
  -7  -1   712674.69  177.67
   1  -5   8  964.23  173.40
   2   2   636828.60  940.21
   3  -3   7 4345.13  264.79
  -3   3  -7 5026.26  141.03
  -3   3  -7 4627.79  135.64
  -2  -2  -637685.66  921.31
   2   2   637297.62  597.72
  -2  -2  -636137.42  844.52
   2   2   638647.19  862.93
  -3   3  -7 4820.65  291.53
   2   2   636205.49  696.52
   3  -3   7 4455.33  222.99
  -3   3  -7 4503.38  226.23
  -5   3  -5  247.53   77.37
  -5   3  -5  185.33   84.83
  -5   3  -5  286.44  117.66
   5  -3   5  282.64  116.79
   5  -3   5  232.54  142.79
  -5   3  -5  309.23  135.69
  -2   8   3 6478.06  380.27
  -2   8   3 6556.71  301.83
   2  -8  -3 6467.52  230.38
   2  -8  -3 6561.75  131.24
   2  -8  -3 6286.58  294.48
  -2   8   3 6308.18  148.35
   4  -9  -2 1068.85  100.86
  -4   9   2  901.47  148.48
   4  -9  -2 1091.21  173.11
   4  -9  -2 1180.79  100.86
  -4   9   2 1336.66  114.74
   5  -6  -7 8512.09  261.94
  -1   0   9    0.65   70.65
  -5   6   7 8480.91  321.56
  -5   6   7 8503.51  158.75
   5   1   3   37.83  181.99
  -5  -1  -3  127.11   84.35
  -5   6   7 8532.18  283.42
   5  -6  -7 8161.06  181.20
   1   0  -9   69.79   79.46
  -1   0   9  101.62   80.48
   1   0  -9  -69.00   86.86
  -5   6   7 8426.72  260.16
   5  -6  -7 8324.86  331.40
  -5  -1  -3   19.70   17.57
   5   1   3  -63.75   87.65
  -1   0   9  -37.57   70.55
   1   0  -9  117.31   75.64
  -5  -1  -3   53.69   94.00
  -1   0   9   45.65   81.20
  -2  -7   129161.18  677.00
   2   7  -128729.62  644.19
  -2  -7   131357.88  689.31
   2   7  -128715.57  675.22
  -2  -7   129845.95  679.74
   8  -2  -714634.96  393.35
  -8   2   716203.91  399.66
  -8   2   716273.44  641.19
  -8   2   715645.67  595.89
   8  -2  -715507.79  605.73
   3   4   3 2287.03  234.34
  -7   0   0 1276.57   47.52
  -3  -4  -3 2115.88  345.19
   7   0   0  936.92   68.81
   7   0   0 1296.74   98.66
  -7   0   0 1194.34  125.65
  -7   0   0  984.49  194.98
  -3  -4  -3 2180.85  237.41
  -7   0   0 1268.74  343.98
   3   4   3 1877.09  193.59
  -8   1   2  -12.88  109.69
   8  -1  -2  169.43   41.29
   8  -1  -2  256.13   43.92
  -8   1   2  398.86  137.91
  -8   1   2  305.51   46.32
  -8   1   2  477.84  143.63
  -6   9   1 7254.57  289.23
   6  -9  -1 7064.65  286.69
   6  -9  -1 6921.81  170.13
   6  -9  -1 7480.05  176.82
   6  -9  -1 7292.15  237.53
  -6   9   1 6653.12  261.81
  -6   2   913171.17  250.79
   6  -2  -912528.47  166.87
  -6   2   913234.14  293.69
  -6   2   913355.75  443.71
   6  -2  -912373.99  457.98
  -6   2   913610.95  414.21
  -8   6   027253.83  646.56
  -1   8   2 1005.17  133.91
   1  -8  -2 1105.84  154.34
  -8   6   027090.00  610.24
   1  -8  -2  978.81   74.86
   8  -6   025425.89  596.01
   8  -6   025725.60  582.96
  -8   6   026814.24  612.28
  -1   8   2 1200.78  160.16
   8  -6   023981.55  422.63
  -8   6   026411.02  996.65
  -1   8   2 1160.84   62.01
   1  -8  -2 1043.89  131.55
  -5   7   652881.32 1168.28
  -5   7   652049.51  844.22
   5  -7  -650349.22  976.51
   5  -7  -650391.74 1003.55
   5  -7  -651903.32 1151.14
  -5   7   651424.55 1035.21
   6  -6  -7 5164.74  113.51
  -8   7   1  -14.09   71.63
   8  -7  -1  212.57   93.35
   6  -6  -7 4858.40  263.81
  -6   6   7 5125.62  258.96
   8  -7  -1   65.47   40.00
  -6   6   7 5105.57  419.41
  -6   6   7 5237.73   85.03
  -8   7   1   -0.18   25.83
  -8   7   1 -101.33   75.47
   8  -7  -1   24.60   79.46
   6  -6  -7 5260.25  226.34
  -7   1  -110078.16  312.88
  -7   1  -1 9969.02  396.62
   7  -1   1 9214.41  229.48
   7  -1   1 9507.89  411.38
  -7   1  -1 9886.95  170.77
  -7   1  -110344.30  421.65
   6   2   0 7929.21  246.14
  -6  -2   0 8777.69  398.33
  -6  -2   0 8726.85  277.39
   6   2   0 7933.93  384.61
  -6  -2   0 8890.02  416.78
  -8   7   4 5071.38  282.97
   8  -7  -4 4761.62  253.51
   5  -9   2 1029.05   75.81
  -5   9  -2 1156.07  125.50
   8  -7  -4 5077.27  256.95
  -8   7   4 5316.50  258.49
   5  -9   2 1150.78  199.87
   5  -9   2 1187.56  118.13
  -5   9  -2 1032.50   90.26
  -5   9  -2 1133.54  161.29
   5  -9   2 1370.20  170.17
  -7   0   833244.00  574.89
  -7   0   833762.00  594.70
  -7   0   835069.06 1031.37
  -6  -3   2  710.60  149.26
   7   0  -830835.33  628.13
  -6  -3   2  737.78  171.88
  -5  -4   722960.71  384.11
  -5  -4   723352.98  435.27
  -7   0   834145.21  486.76
   6   0  -936290.74  661.54
   6   0  -939246.22  556.15
  -6   0   937970.03  775.29
  -6  -3   2  554.13  281.97
   6   3  -2  641.87   88.99
   6  -9   019510.30  404.15
  -5  -4   722956.43  448.53
   6  -9   019668.12  812.60
  -7   0   834659.32  982.09
  -6   0   939884.45  909.07
   6  -9   018792.53  355.61
  -5  -4   723206.27  332.91
   6  -9   018883.60  358.86
  -5  -4   722365.61  503.04
  -6   0   939584.03  893.21
  -6   0   939137.23  555.34
  -6   9   020166.72  800.99
  -5  -4   723896.36  436.74
  -6   9   019107.61  439.77
  -6   0   939771.22  647.53
  -2  -4   9   19.29  198.26
  -2  -4   9  148.82   90.69
   2   4  -9  173.26  189.26
   2   4  -9   84.38   84.67
  -3  -2  -5 1180.46  181.25
   3   2   5 1077.64   82.09
  -5  -4   166691.45 1326.83
   5   4  -161989.46 1509.28
   5   4  -160035.95 1398.00
   3   2   5 1050.42  174.72
  -3  -2  -5  946.19  169.79
  -5  -4   164740.84 1502.46
   3   2   5 1068.94  188.13
   3   2   5 1067.02   78.02
  -5  -4   164009.60 1497.47
  -4  -3   9 4919.74  191.20
  -4   9  -3 1347.56  307.97
  -4   9  -3 1567.63  136.59
  -4  -3   9 4825.70  269.74
  -6  -2   8  778.37   56.49
   3   5  -8 3052.79  203.27
   4   3  -9 5397.40  175.91
  -3  -5   8 3024.23  304.74
  -6  -2   8  780.47   67.04
  -6  -2   8  801.14  110.74
  -6  -2   8  821.44   56.68
  -6  -2   8  825.79  139.84
   3   5  -8 3519.63  177.11
  -3  -5   8 3540.85  172.89
  -4  -3   9 5150.35   98.08
  -4   9  -3 1960.95  162.67
   4  -9   3 1626.81   65.09
   4  -9   3 1549.13  143.98
  -3  -5   8 3277.23  224.44
   4  -9   3 1558.80  150.71
   4  -9   3 1441.14  197.12
  -4  -3   9 4634.75  448.98
  -6  -2   8  712.23  120.70
   6  -7  -6 8381.86  285.23
  -6   7   6 8656.04  342.25
   6  -7  -6 8277.88  208.46
  -6   7   6 8155.85  298.80
   6  -7  -6 8610.73  131.14
  -6   7   6 8648.93  131.54
   6  -7  -6 8312.53  338.41
  -8   4   7  230.93  107.49
  -8   4   7  309.25  100.95
   8  -4  -7  224.39  103.47
   8  -4  -7  223.36  104.36
  -4  -5   7 7556.31  216.07
  -4  -5   7 7651.62  104.58
  -4  -5   7 7869.08  365.53
   4   5  -7 7603.64  212.67
  -4  -5   7 7199.38  258.86
  -4  -5   7 7624.66  118.06
  -4  -5   7 7712.53  236.97
   1   2   7  331.69  126.39
   1   2   7   -0.79   98.79
   1   2   7  241.00  104.70
  -1  -2  -7  405.64  132.02
  -1  -2  -7  243.49  106.42
   1   2   7  309.67   94.96
  -5   3   9 1739.37  193.31
  -1  -8   333677.50  629.36
   1   8  -331015.78  587.58
   5  -3  -9 1695.21  137.64
  -5   3   9 1896.13  170.46
   1   8  -332121.70  518.08
  -1  -8   332173.64  736.28
   5  -3  -9 1826.21  144.59
  -1  -8   334316.86  709.94
  -5   3   9 1724.47  125.70
  -5   3   9 1728.35   81.00
  -1  -8   332559.29  740.21
  -5  -2   919763.49  262.86
   5   2  -918919.52  300.20
   6  -5   425643.21  584.98
  -5  -2   920268.15  536.75
  -5  -2   919350.33  331.14
  -6   5  -426922.77  731.45
   7  -4  -8   -9.14   61.84
  -7   4   8    6.23   72.24
   5   2  -919385.31  336.56
  -7   4   8  155.96   90.12
  -5  -2   919528.56  523.30
  -5  -2   918457.08  304.07
  -6   5  -427970.31  617.85
   7  -4  -8    5.76   69.91
  -7   4   8  -71.47  150.26
  -6   5  -426679.85  650.21
  -5  -2   919378.28  384.92
  -6   5  -427345.32  778.28
   6  -5   424920.51  587.46
   3  -5   755865.95 1314.99
  -3   5  -755073.90  845.54
  -3   5  -755419.26  843.45
  -3   5  -756806.23 1240.23
   3  -5   756368.05 1295.51
  -3   5  -754207.74 1313.60
  -2   6   615984.62  393.24
  -5   6  -558076.06 1017.68
  -2   6   615523.56  276.05
  -5   6  -558681.94 1012.82
  -5   6  -559877.75 1282.10
   5  -6   558277.43 1298.54
  -5   6  -557756.25 1314.69
  -2   6   615250.71  291.35
   2  -6  -615312.12  385.54
   5  -6   557641.57 1301.39
  -2   6   616102.83  486.70
  -1  -4   9  350.66  189.03
  -1  -4   9   96.22  124.77
   1   4  -9  616.68  153.65
   1   4  -9  618.33  140.95
   6  -4   418406.49  428.84
  -6   4  -420034.45  533.77
  -6   4  -420184.73  467.01
  -6   4  -419263.78  442.55
   6  -4   418536.39  483.96
  -6   4  -420232.64  446.34
  -8   3   0    6.69  222.80
  -8   3   0  162.93  103.31
  -8   3   0  183.45   64.33
  -8   3   0  183.73  115.43
   8  -3   0  126.23   53.26
   8  -3   0  175.42   58.20
  -4   2  -627986.89  558.00
  -4   2  -627748.06  577.55
   4  -2   626352.63  567.67
  -4   2  -628116.18  719.10
   4  -2   626446.15  534.35
  -4   2  -626425.86  534.06
   4  -2   625502.48  695.34
   0  -7   7  850.23  143.38
   0   7  -7  914.34  133.32
   0  -7   7  808.75  169.75
   0   7  -7   -0.87  134.60
  -6   9   235375.50 1106.11
   6  -9  -236739.86  784.42
   6  -9  -235699.00  736.17
   6  -9  -234652.82  571.15
   6  -9  -236257.27  733.14
  -6   9   237257.88  810.58
   3  -8  -434244.20 1159.32
  -3   8   432931.57  582.89
  -3   8   433742.17  815.87
   3  -8  -432969.39  699.98
   3  -8  -432302.93  632.75
  -3   8   432530.30  629.80
   6  -1   3 1598.82   75.47
   6  -1   3 1948.71  177.35
  -6   1  -3 1728.48   76.11
  -6   1  -3 1987.20  178.32
  -6   1  -3 1876.19  197.82
  -6   1  -3 1448.56  189.41
  -7   8   448251.69 1037.28
   7  -8  -447296.32  677.92
  -7   8   447677.51 1084.51
   7  -8  -447486.76 1011.31
   7  -8  -448052.30 1034.11
   7  -8  -446307.90  740.50
  -2   5   711845.36  615.56
  -2   5   712103.08  330.52
   4  -3  -937659.63  768.85
  -4   3   940214.85  864.60
  -4   3   940675.97  932.77
  -2   5   711097.74  244.34
  -2   5   711239.51  262.47
   4  -3  -936652.68  686.77
   2  -5  -711109.20  398.28
   2  -5  -711319.47  325.01
  -4   3   941230.08  957.69
  -4   3   939946.56  786.73
  -1   7   4 1721.07   54.68
   1  -7  -4 1775.54  215.57
  -1   7   4 1538.28  266.60
  -1   7   4 1514.55   63.27
  -1   7   4 2079.49  197.69
   1  -7  -4 1857.61  155.20
  -7  -2   5 2136.38  195.71
  -7  -2   5 2188.98   88.05
  -7  -2   5 2172.87   97.63
  -7  -2   5 1985.73   89.79
  -7  -2   5 2095.41   71.92
  -7  -2   5 2440.63  155.01
  -4   6  -6 1016.59   51.02
   4  -6   6  939.35  167.40
   4  -6   6 1010.34  172.28
  -4   6  -6  842.81  153.73
  -4   6  -6 1022.62   55.09
  -4   6  -6  694.07  181.39
   1   0   858725.03 1423.14
   1  -7   7 5671.32  547.37
  -1  -8   271260.87 1333.94
   1   0   857706.94 1380.68
  -1   0  -859019.41 1320.28
  -1   7  -7 5896.47  313.59
   1   8  -265629.42 1333.61
  -1  -8   268901.60 1073.63
   1   0   856385.75 1180.09
  -1  -8   268961.28 1461.52
   1   8  -267589.36 1097.89
  -8   0   5   76.56   56.97
  -1  -8   268102.16 1841.15
  -1   0  -855558.05 1063.94
   1  -7   7 5657.06  469.63
  -8   0   5  292.22  191.91
  -1   0  -857045.83 1180.54
   1   0   860369.21 1155.65
  -1   7  -7 5589.83  505.10
  -8   0   5  271.44   54.75
  -8   0   5  103.04   96.20
  -8   0   5  105.04   48.55
   7   2  -4 2190.60  152.58
  -7  -2   4 2646.70  375.98
   3  -2   7   15.44   56.27
  -7  -2   4 2237.79   80.85
  -3   2  -7   28.60   49.43
   3  -2   7  -19.00   46.23
  -7  -2   4 2305.72   58.78
  -3   2  -7   50.68   51.47
  -3   2  -7  119.14   95.45
  -7  -2   4 2113.07  167.45
  -7  -2   4 2328.47  189.77
  -7  -2   4 2522.92  102.42
   3  -2   7    3.77   81.40
  -3   2  -7  -37.12   69.07
  -4   6   7 4685.83  179.10
  -4   6   7 4819.71  146.91
   4  -6  -7 4213.77  154.57
  -4   6   7 4430.75  194.91
  -4   6   7 4816.34  251.89
   4  -6  -7 4869.21  267.19
  -8   0   427300.56 1076.91
   8   0  -425232.09  418.12
   4  -6  -7 4567.28  178.49
  -8   0   426597.77  380.45
   8   0  -424931.18  349.49
  -8   0   427886.93  531.28
  -8   0   426507.74  694.42
  -8   0   426853.47  529.35
  -8   0   426751.62  447.45
  -5  -3  -1  227.35  178.23
  -5  -3  -1  222.66  141.50
   5   3   1  283.80  101.26
   5   3   1  241.34  144.04
  -5   5   829078.38  560.33
   5  -5  -826934.21  473.63
  -1   9  -2 1293.44   98.93
   1  -9   2  948.60   82.13
   5  -5  -828434.09  952.93
   0  -2   914295.93  448.92
   0  -2   914401.83  231.49
   1  -9   2  902.53  144.60
  -1   9  -2  982.47   99.87
   1  -9   2  937.58  142.63
   0   2  -913857.81  442.30
   1  -9   2 1101.50   78.09
   0   2  -913347.06  203.83
   0  -2   913058.12  687.56
  -5   5   829323.91  667.17
   0   2  -913518.71  447.64
  -5   5   829055.36  668.70
  -5   5   828173.23  615.40
   1   8  -4   11.28   86.18
  -1  -8   4    4.79   27.95
  -1  -8   4  160.14   74.21
   1   8  -4   94.72   73.53
  -1  -8   4    9.62   44.60
   0  -3   932471.58  819.23
   0  -3   932700.99  434.56
   0   3  -931239.11  794.03
   0  -3   934330.10  827.30
   0   3  -931242.60  441.50
   0   3  -931204.17 1175.22
  -7  -1   122667.93  469.71
  -7  -1   122235.19 1023.99
   7   1  -1 9853.94  120.85
  -7  -1   121553.77  995.90
  -7  -1   121599.40  303.34
   7  -7   216493.46  505.73
  -7   7  -217236.45  410.98
  -7   7  -217020.44  477.76
  -7   7  -216804.85  419.55
   7  -7   216567.25  392.78
  -7   7  -217033.97  384.86
   7  -7   216309.21  370.25
  -4   7   617154.24  511.67
   0  -7  -320141.24  596.21
   4  -7  -616634.56  332.33
   0   7   319545.68  253.32
   4  -7  -616790.94  514.18
   0  -7  -319398.89  500.14
   0   7   319800.41  269.69
   4  -7  -616461.44  349.54
  -4   7   617176.72  329.41
   0   7   319797.60  509.22
  -4   7   616560.90  373.04
   0   7   320627.95  898.86
   0   6  -824539.58  675.30
   0   6  -825066.81 1009.44
   0  -6   825463.97  731.04
   0  -6   824926.82  629.20
  -8   1   7 1531.53  135.58
   8  -1  -7 1616.30  155.06
  -8   1   7 1839.01  168.93
  -8   1   7 1547.03  133.13
  -8   1   7 1714.95  142.50
  -6  -3   741534.97  701.44
   7  -8   1  -84.86   47.14
  -6  -3   739931.83  706.51
  -6  -3   739889.21 1026.91
  -7   8  -1  -88.44   73.51
   7  -8   1   41.14   85.66
  -6  -3   740738.22  674.48
  -7   8  -1    9.81   43.44
  -6  -3   738876.08  745.47
   7  -8   1  111.74   51.99
  -6  -3   739874.87  652.59
  -7   8  -1   28.68   57.77
   1   6  -8 1318.63  147.65
   1   6  -8   -0.24  139.67
  -1  -6   8 1509.64  338.22
  -1  -6   8 1307.43  159.29
  -2  -7   625214.40  329.92
  -2  -7   625421.74  329.73
  -2  -7   624687.05  569.62
  -2  -7   625076.44  576.91
  -2  -7   625338.76  593.13
   2   7  -624920.65  706.11
   3   4  -942206.62  990.23
  -3  -4   941810.99  996.54
  -3  -4   940806.94  962.32
  -3  -4   940653.50  853.73
   3   4  -941248.43  837.87
  -6   5   8 2438.64   56.95
  -6   5   8 2661.50  182.61
  -6   5   8 2219.69  348.96
  -6   5   8 2149.56  188.06
   1  -9   321232.88  830.05
   6  -5  -8 2383.41  320.62
  -1   9  -320415.86  482.91
   1  -9   321329.40  822.85
   1  -9   321500.16  421.24
  -1   9  -321167.12  452.82
   6  -5  -8 2223.51   71.55
   1  -9   321892.43  444.55
   6  -5  -8 2508.89  186.36
   5   0   429945.77  758.63
  -5   0  -431205.82  482.19
   5   0   429186.58  774.95
  -5   0  -432586.12  793.74
   5   0   428347.07  515.35
  -5   0  -430948.96  763.95
  -5   0  -431780.73  803.27
  -3   9   2  804.28  141.32
   3  -9  -2  555.56  179.10
   3  -9  -2  664.47   71.62
  -3   9   2  803.76   87.83
   3  -9  -2  702.35  102.00
   3  -9  -2  874.55  212.17
   6  -9   142172.96  758.32
   6  -9   140717.25  967.55
  -6   9  -142203.30  790.31
  -6   9  -139864.80  790.92
   6  -9   140640.32  974.76
  -6   9  -142565.39  968.57
   6  -9   140365.72  748.43
   8  -6  -6 9260.24  349.15
  -8   6   6 8999.70  340.20
   8  -6  -6 9061.40  336.14
  -8   6   6 9452.00  356.16
  -6   6  -4  384.73   75.85
  -6   6  -4  341.64  115.53
   6  -6   4  417.84  117.95
  -6   6  -4  357.00  122.03
   6  -6   4  409.59  125.86
  -6   6  -4  431.23   80.63
   2  -9   447508.99  742.77
   2  -9   445742.42  993.01
   2  -9   445479.27 1010.63
  -2   9  -443401.10  745.04
  -2   9  -446533.98 1317.83
   2  -9   447080.06 1053.43
   5  -8   419244.51  727.03
  -1   9  -125345.53  462.86
   1  -9   127049.39  507.07
   6  -3  -9 8587.14  266.37
  -1   9  -125131.67  756.97
  -5   8  -420073.17  324.49
  -6   3   9 8903.78  345.28
   1  -9   126319.26  615.85
   6  -3  -9 8519.93  130.15
   1  -9   126073.26  900.02
  -5   8  -419283.18  331.13
   5  -8   419065.11  942.78
  -5   8  -420306.68  541.72
  -6   3   9 8880.80  131.20
  -6   3   9 8902.76  253.75
   5  -8   419679.22  313.29
  -6   3   9 8840.55  369.46
  -5   8  -420509.35  565.24
   5  -2   5  700.24  145.09
   5  -2   5  548.39   81.72
  -5   2  -5  923.41  197.46
  -5   2  -5  758.11  151.78
  -5   2  -5  720.11   87.41
  -5   2  -5  730.94  122.65
  -2   9   1 7697.50  303.08
  -2   9   1 8069.35  198.35
   2  -9  -1 7894.62  161.25
   2  -9  -1 7788.47  273.37
   2  -9  -1 8018.62  270.57
   2  -9  -1 7911.99  275.40
   3   6   0 1463.38  191.69
  -3  -6   0 1564.74  160.57
  -3  -6   0 1215.88  196.44
  -9   4   4 7616.21  251.31
   9  -4  -4 7723.21  334.97
  -9   4   4 8291.96  370.29
   9  -4  -4 7420.24  253.77
   3   6   0 1292.44  156.50
  -2   3  -812050.62  207.66
  -2   3  -812572.64  296.74
   2  -3   811662.50  679.30
  -2   3  -812130.92  400.55
  -2   3  -812109.74  463.24
   2  -3   811896.47  387.36
   0   8   116734.11  285.06
   0   8   117501.33  457.10
   0  -8  -118482.48  489.49
   0  -8  -117553.36  470.93
   0   8   117588.12  495.61
   0  -8  -117849.42  253.94
  -6   3  -437307.77  803.42
  -2   7   511388.37  419.33
   2  -7  -510744.38  309.56
   1  -8   6 1584.41  202.12
  -6   3  -438948.21  727.73
   2  -7  -510610.35  432.17
  -1   8  -6  709.01  313.81
  -2   7   511035.46  318.55
  -2   7   510878.98  198.19
  -6   3  -438743.79 1218.45
   6  -3   434686.58 1095.95
  -1   8  -6 2047.95  192.60
   2  -7  -510901.69  197.41
   1  -8   6 1772.35  178.32
   1  -8   6 1644.65  186.06
   6  -3   435098.33  668.25
  -2   7   510851.77  213.61
  -6   3  -439504.50 1154.26
   3  -9   4 5174.56  299.79
   3  -9   4 5426.32   91.32
  -3   9  -4 5372.55  449.78
   3  -9   4 5712.87  266.99
  -3   9  -4 5012.40  155.96
  -3   9  -4 5772.26  273.82
   3  -9   4 5503.90  431.24
  -7  -2   613605.46  316.04
  -7  -2   613298.48  392.28
  -7  -2   613143.73  229.71
  -7  -2   613783.86  298.41
  -7  -2   613318.62  346.87
  -7  -2   613281.26  317.45
   5  -9  -339761.57  773.45
  -5   9   339516.80 1270.08
   5  -9  -339556.80  694.53
   5  -9  -338582.78  672.29
   5  -9  -339213.40  848.68
  -5   9   339903.01 1077.70
  -5   8   5 1388.53   81.82
   2  -2  -922424.40  480.67
  -5   8   5 1488.01  188.20
  -2   2   924329.90  688.48
  -5   8   5 1517.21  130.94
   5  -8  -5 1445.60   81.76
  -2   2   923831.81  534.30
   5  -8  -5 1249.81  121.11
  -2   2   924824.75  600.10
   2  -2  -923058.47  539.79
  -2   2   924066.51  578.83
   5  -8  -5 1287.99  139.59
  -8   0   617591.08  281.15
  -8   0   617986.38  378.22
  -8   0   617080.15  433.68
  -8   0   618216.52  233.54
  -8   0   617533.74  339.93
  -8   0   617825.28  509.07
   7  -2   2 1954.99  165.39
  -7   2  -2 2403.54  209.16
  -7   2  -2 2424.04  390.69
  -7   2  -2 2298.74  170.20
   7  -2   2 2216.44   96.09
  -7   2  -2 2235.75   98.44
  -3  -6   7 1421.00   36.28
  -2   4  -8 8148.27  125.64
  -3  -6   7 1380.47   34.99
   3   6  -7 1400.13  124.77
  -2  -6  -213900.78  830.09
   2  -4   8 8635.03  354.29
  -3  -6   7 1235.29  149.03
  -2   4  -8 8453.68  179.26
   2  -4   8 7882.48  379.55
   2   6   213405.54  423.01
  -2   4  -8 7620.08  399.58
   2   6   213626.92  501.14
  -3  -6   7 1481.80  138.91
  -3  -6   7 1490.04  239.70
  -2   4  -8 8095.95  564.47
  -1   3   832287.59  782.45
   7  -6  -744777.69  992.67
   7  -6  -743457.07  545.46
   1  -3  -831869.16  766.10
   7  -6  -744133.72  960.19
  -1   3   832554.73  708.66
  -1   3   832332.89  655.01
   7  -6  -743915.09  546.16
  -7   6   746019.08 1020.31
   1   7  -725212.12  617.35
  -1  -7   723501.72  587.66
   1  -3  -831172.04 1002.98
  -7   6   746269.96 1032.71
  -1  -7   722478.03  609.06
   1   7  -722858.73  576.25
  -1  -7   723751.10  853.84
  -1   3   832161.26  607.53
  -7  -2   3 9406.49  117.15
   7   2  -3 8391.76  191.90
   8   0  -335165.10  537.27
  -8   0   335234.96  916.52
  -7  -2   3 9696.16  412.97
  -8   0   336245.48 1318.62
  -8   0   335363.29  552.49
  -8   0   336956.06  645.29
  -7  -2   310033.77  605.00
  -7  -2   3 9509.30  355.28
  -8   0   336533.87  609.55
   8   0  -333902.26  519.57
  -6  -1   916052.35  458.70
  -6  -1   914961.32  228.50
  -6  -1   914141.67  280.98
  -6  -1   915125.96  436.16
  -6  -1   915169.53  243.29
   6   1  -914521.67  411.35
  -3  -5  -263905.60 1376.36
   3   5   261846.86 1339.24
   3   5   262238.98 2017.26
  -3  -5  -262681.42 1546.41
   9  -5  -412348.86  367.01
   6  -8  -5 4224.97   97.46
   9  -5  -412368.33  417.05
   6  -8  -5 3925.78  207.69
   0   1  -9 7244.06  323.27
  -9   5   412759.84  361.28
  -6   8   5 4106.62  263.82
   0  -1   9 7714.45  483.26
   0  -1   9 7192.46  556.09
  -9   5   412393.92  456.53
   0   1  -9 7406.74  165.81
  -6   8   5 4214.32  217.64
   0   1  -9 7874.57  523.07
   0  -1   9 7942.06  178.90
   6  -8  -5 4269.86  251.07
   6  -8  -5 4289.47  161.00
  -4  -5   0 5830.63  262.96
   4   3   3 2487.07  219.30
  -4  -5   0 6023.17  345.88
   4   5   0 5951.98  257.45
   4   5   0 5395.97  555.95
  -8   7   0   21.66   40.05
   7  -7  -6 1660.35  168.30
  -4  -3  -3 2658.23  218.70
  -4  -3  -3 2617.25  271.82
   7  -7  -6 1901.00  182.76
   8  -7   0  187.15   93.06
  -7   7   6 1700.64  189.71
  -7   7   6 1353.13  168.65
   7  -7  -6 1692.40   43.35
   4   3   3 2944.19  266.87
   8  -7   0    9.71   80.38
  -8   7   0   53.22   88.04
   8  -7   0   -1.43   72.62
  -8   7   0   80.42   83.46
   4  -5  -8 1613.01  115.57
  -4   5   8 1646.98  166.23
  -4   5   8 1567.83  134.59
  -9   4   3 5100.98   86.71
  -4   5   8 1690.93   99.11
  -9   4   3 4987.90  332.49
   9  -4  -3 4871.18  199.59
   9  -4  -3 4819.75  289.01
   4  -5  -8 1420.90  305.82
  -4   5   8 1627.11  262.62
  -9   4   3 5080.34  327.61
  -9   4   3 5564.62  316.64
   9  -5  -3  665.40   14.48
   9  -5  -3  745.34  149.56
   9  -5  -3  661.35  208.68
  -9   5   3  902.71  172.48
  -9   5   3  603.94  115.13
   4  -8   5 2313.62  190.37
  -4   8  -5 2030.89   88.31
   4   2   421351.74  955.97
   2  -8   6  -17.36   93.01
  -4   8  -5 2068.45  209.93
  -2   8  -6   58.32  170.73
   4   2   420914.61  279.72
  -4   8  -5 1978.67   60.47
   4  -8   5 2360.87  240.98
   2  -8   6 -128.79  108.47
  -2   8  -6   72.42  184.69
  -4  -2  -422221.30  675.34
  -4  -2  -422684.36  638.60
  -4   8  -5 2415.40  214.51
   4   2   421216.88  616.31
   8  -5  -7  574.45  135.33
  -8   5   7  797.76  137.31
  -8   7   5   67.85   73.26
  -9   4   5 2727.35  173.76
   8  -7  -5  -53.18   78.07
  -8   5   7  593.99  143.78
  -9   4   5 2730.65  229.33
   8  -7  -5   63.64   75.20
   8  -5  -7  648.77  134.94
   9  -4  -5 2433.76  170.32
  -8   7   5  -58.81   67.70
   9  -4  -5 2371.38  210.92
  -1  -8   1  597.44  136.41
  -1  -8   1  667.39  108.63
   1   8  -1  622.67   32.56
  -1  -8   1  575.05  136.28
   1   8  -1  664.94  129.64
   1   8  -1  632.36  121.09
  -1  -8   1  650.44   26.92
   0  -4   921533.93  957.58
  -1   1   9 5568.12  258.95
   0  -4   920508.47  599.05
   0   4  -920937.22  936.86
   1  -1  -9 5457.73  250.42
   0   4  -919927.93  623.53
  -1   1   9 5297.02  223.71
   1  -1  -9 4908.17  288.38
  -1   1   9 5565.97  469.80
  -1   1   9 5476.51  185.36
  -6   8  -3  519.37   71.36
   6  -8   3  484.76  152.30
   6  -8   3  449.08  176.82
   6  -8   3  436.46   66.31
  -6   8  -3  565.53  143.32
  -6   8  -3  471.00   81.35
  -6   8  -3  688.69  118.29
   9  -3  -421816.42  622.43
   9  -3  -422042.56  462.75
  -9   3   423510.44  469.46
  -9   3   423590.60 1055.50
  -9   3   423697.32  679.43
   6  -9  -3 9026.94  492.22
   6  -9  -3 8669.47  176.75
  -6   9   3 9033.28  567.37
   6  -9  -3 8922.19  179.25
   6  -9  -3 9123.33  316.85
  -6   9   3 9285.30  514.60
   0   2   8 6869.20  339.39
   0   2   8 7087.14  206.61
   0  -2  -8 6432.81  251.93
   0  -2  -8 6780.75  313.86
   0   2   8 7027.55  228.03
   0   2   8 7024.65  257.97
   2   7   0  -24.39  146.14
  -2  -7   0    0.27  151.27
  -2  -7   0  -61.27   91.73
   2   7   0  -42.61   92.08
   2  -7   7 1915.88  239.59
  -4  -6   473395.78 1484.90
  -3   6  -715880.37  762.00
  -4  -6   475583.59 1787.71
  -4  -6   472082.32 1477.44
   3  -6   716237.06  872.43
  -3   6  -714817.55  557.52
  -2   7  -7 2139.00  216.76
   2  -2   822519.47  543.51
   2  -7   7 2016.66  201.80
  -4  -6   471599.48 1442.21
  -3   6  -715312.10  185.46
   3  -6   715666.31  513.92
  -2   2  -823790.91  659.35
  -2   2  -822326.93  399.33
   4   6  -472738.96 1477.08
   2  -2   822000.75  984.74
  -2   2  -823040.89  827.34
  -4  -6   472964.16 1113.27
  -2   7  -7 2287.98  241.25
   2  -2   823067.04  425.20
  -4  -6   475286.27 1270.23
  -1  -8   511063.12  601.73
   1   8  -510953.20  166.31
  -1  -8   511219.22  371.36
   1   8  -510842.87  280.53
  -1  -8   511244.23  315.05
  -1  -8   511093.21  190.34
   4  -9  -3 1879.00  114.57
  -2   4   814284.58  402.64
   4  -9  -3 1807.33  118.60
  -4   9   3 1977.90  130.01
  -2   4   814049.48  406.65
  -4   9   3 2115.35  194.50
   4  -9  -3 1625.79  202.65
   4  -9  -3 1989.81  174.88
   2  -4  -813392.11  416.91
  -2   4   814105.16  317.82
  -2   4   813833.18  347.42
   2  -4  -814335.10  408.22
   3  -3  -9 1669.71  143.58
  -3   3   9 1440.06  253.33
  -3   3   9 1459.74  167.60
  -3   3   9 1900.61  238.11
   3  -3  -9 1631.57  226.83
  -8   5  -1 3763.20  260.67
   8  -5   1 3693.53  321.77
  -8   5  -1 3825.33  311.02
   8  -5   1 3171.76  144.76
  -8   5  -1 3855.07  232.76
  -8   5  -1 3722.54  258.20
  -8   1   1 1403.29  218.75
   9  -3  -5 1142.09  169.99
  -9   3   5 1286.45  180.09
   8  -1  -1 1188.28  104.68
  -8   1   1 1276.35   66.29
   9  -3  -5 1133.30  122.64
   8  -1  -1 1150.17   83.03
  -9   3   5 1185.81  121.48
  -8   1   1 1520.61  113.23
  -9   3   5 1080.28  187.35
  -3  -1  -625830.43  712.10
  -3  -1  -623450.26  604.77
   0  -8   644485.39 1342.11
   3   1   623575.25  514.45
  -1   6  -828420.36  763.88
   1  -6   827244.18  785.73
   0  -8   641938.47  996.54
  -3  -1  -623197.15  526.46
   3   1   624401.73  622.28
   0  -8   643024.49  973.28
  -1   6  -827205.19  783.24
   0   8  -641888.31  909.05
   3   1   623450.20  721.40
   1  -6   826815.60  708.37
   3   1   623044.19  494.77
  -5  -5   422892.97  295.57
  -5  -5   421940.55  521.62
  -5  -5   421582.12  487.52
  -5  -5   421320.08  468.11
  -5  -5   422236.48  260.94
  -5  -5   422444.18  694.74
   4   0 -1020896.26  356.65
   3   1 -10   62.40   58.58
  -4   0  1022555.26  628.37
   4   0 -1020331.02  422.38
   3   1 -10   -8.16   24.66
  -4   0  1022546.13  462.56
  -3  -1  10  -73.68   69.96
  -4   0  1022233.74  675.31
  -3  -1  10  -80.74   97.13
  -3  -1  10   98.02  103.99
  -4   0  1023166.16  690.17
   8  -8  -2 2067.39  351.77
   8  -8  -2 2219.27  171.21
   1  -9   423890.13  546.82
  -1   9  -422886.25  346.40
   1  -9   423392.98  379.59
   1  -9   423358.23  590.64
  -8   8   2 1972.87  346.07
  -8   8   2 2029.29  194.70
   8  -8  -2 1977.61  116.20
   1  -9   423125.49  606.54
  -1   9  -422248.19  513.54
   8  -8  -2 1900.96   54.81
  -5   9  -314449.88  394.29
  -2  -1  -7  273.09   93.71
  -5   9  -315454.38  484.18
   2   1   7  182.65   64.01
  -2  -1  -7   27.54  127.43
   5  -9   315599.87  530.39
   5  -9   315583.36  358.01
  -5   9  -316416.66  661.00
   2   1   7   -1.08  178.89
  -7  -1   8 1840.14  114.11
   2   1   7  462.81  139.19
   5  -9   315339.85  400.23
   2   1   7  290.30  101.10
  -9   5   524277.84  671.69
  -7  -1   8 1714.20  144.44
  -7  -1   8 1757.27   96.01
   9  -5  -524023.01  954.37
  -7  -1   8 1773.48  153.72
  -9   5   524951.80  858.03
  -2  -1  -7  171.25   61.78
  -7  -1   8 1666.10   89.87
  -7  -1   8 1697.07  136.66
   9  -5  -523986.52  578.15
  -2  -6   8 -105.77   95.84
   2   6  -8   -0.27   79.92
  -2  -6   8   37.52   77.96
   2   6  -8   81.10   82.06
  -2  -6   8  -85.21   78.54
  -5  -5   5    3.95   61.77
  -5  -5   5   -0.38   37.80
  -5  -5   5   57.68   43.83
  -5  -5   5  126.17   63.37
  -5  -5   5   97.60   60.99
  -5  -5   5   62.77   52.02
   8  -2   035592.57  590.60
  -8   2   038226.24 1014.52
  -8   2   037939.83  968.29
  -8   2   038935.63  639.27
  -8   2   039633.62  980.88
   8  -2   036165.00  647.13
   4   1 -1023260.94  464.20
  -5   7  -5 3664.39  254.95
   5  -7   5 3892.10  278.97
  -4  -1  1025228.67  434.64
   6   3  -121484.09  464.03
   4   1 -1023342.06  447.65
   6   3  -121715.89  650.36
  -4  -1  1024075.69  545.53
  -5   7  -5 3813.24  184.13
   5  -7   5 3868.94  245.05
  -6  -3   123023.32  671.49
  -4  -1  1025916.03  694.55
  -4  -1  1025087.14  720.04
  -5   7  -5 4464.71  464.12
  -5   7  -5 3890.04  166.59
  -6  -3   123470.42  711.63
  -6  -3   123703.25  523.06
  -4  -6   5 9656.61  210.90
  -4  -6   5 9820.47  485.06
  -4  -6   510462.09  210.89
  -4  -6   510286.54  341.68
  -4  -6   5 9944.19  299.49
  -4  -6   5 9806.86  159.82
  -1  -7  -2  513.82  159.33
   1   7   2  409.49  147.37
   1   7   2  380.57  125.19
  -1  -7  -2  618.01  234.93
  -4  -6   314315.34  394.44
  -4  -6   315253.69  622.16
   4   6  -314020.66  594.63
   4   6  -313478.35  365.07
  -4  -6   314302.74  617.82
  -9   3   3  839.43   93.81
  -9   3   3  927.31   71.14
   9  -3  -3  907.49   50.15
  -9   3   3  985.22  190.30
  -9   3   3 1025.08  203.01
   9  -3  -3 1109.78  171.09
  -4   8   5 3444.76  259.05
   4  -8  -5 3629.51  143.61
  -4   8   5 3649.16  155.44
  -4   8   5 3262.58  235.53
   4  -8  -5 3385.23  144.67
   4  -8  -5 3632.10  249.57
  -8   4  -111324.28  287.51
   8  -4   110168.33  413.49
  -8   4  -111020.36  432.78
  -8   4  -111354.92  291.35
   8  -4   110257.48  276.93
  -8   4  -111369.36  650.43
   8  -8  -328756.56  719.60
   8  -8  -328828.90  679.23
   7  -5   311911.54  352.67
   8  -8  -327174.39  449.92
  -7   5  -313156.13  351.09
   8  -8  -328372.75  357.31
   1  -9   049480.13  881.82
  -7   5  -312968.80  361.97
  -8   8   329348.78  720.54
  -8   8   329141.31  738.58
  -1   9   045921.19  924.16
  -1   9   046241.86 1315.27
   7  -5   312395.23  527.21
   1  -9   049144.14 1053.70
   1  -9   049105.02 1044.03
  -7   5  -313353.84  381.84
  -7   5  -313460.02  390.46
   1  -9   051035.12 1012.26
  -2   5  -8  462.29  145.28
  -2   5  -8  516.63  169.12
   2  -5   8  415.56  142.22
   2  -5   8   75.99  242.06
  -3   1  -7 1075.68  112.05
  -3   1  -7 1087.38  179.22
   3  -1   7  700.85  109.99
   3  -1   7  660.92   97.43
  -3   1  -7  884.81  109.23
   3  -1   7  888.90  171.74
  -9   5   236585.27  510.19
   4  -1   6 5786.58  177.37
   7  -9  -1 2832.50  226.78
  -9   5   237597.47 1003.72
  -4   1  -6 6138.68  547.97
   4  -1   6 5271.80  336.37
   4  -1   6 6086.67  251.10
  -9   5   236751.46 1024.37
  -9   5   237636.94  937.21
   7  -9  -1 2844.21  170.51
  -7   9   1 2736.25  218.92
   9  -5  -234541.24  840.64
   9  -5  -234140.67  451.30
   7  -9  -1 3130.55  172.47
   9  -5  -234697.07  732.34
  -4   1  -6 6127.07  251.61
  -4   1  -6 6543.27  305.48
  -7   9   1 2645.00  192.11
  -4   1  -6 5690.14  236.53
   7  -9  -1 2424.79  162.98
  -7   2   930732.99  755.93
  -7   2   930363.38  762.07
  -7   2   930474.16  360.51
  -7   2   929668.24  363.60
  -7   2   929564.24  578.08
   7  -2  -928055.07  592.65
  -3   0  10 2373.82  243.56
   3   0 -10 2217.53   92.62
  -9   6   3 8353.56  390.67
  -3   0  10 2399.75  214.60
   3   0 -10 1922.17  163.06
  -3   0  10 2267.34  293.02
   8  -6   128949.04  691.07
  -3   0  10 2569.63   88.80
  -8   6  -130704.80  688.44
  -8   6  -129802.63  580.63
  -9   6   3 8507.41  302.57
  -8   6  -130917.19  716.14
   9  -6  -3 7630.51  302.31
   9  -6  -3 7826.91  553.12
   8  -6   128399.93  534.00
  -8   6  -129221.79  724.94
  -7   5   8  952.30  151.36
  -7   5   8  858.11  141.18
  -7   5   8  862.06  160.25
   7  -5  -8 1051.25  153.81
   7  -5  -8  837.81  149.20
  -8   3   817014.59  489.67
   4  -9   4 1590.87  207.19
  -4  -4  -2 6062.39  394.89
   4   4   2 6753.71  299.95
   8  -3  -816524.16  470.55
  -4   9  -4 1750.60  187.97
   8  -3  -816032.88  431.38
   4   4   2 6253.24  379.32
  -4   9  -4 1719.97  310.85
  -4   9  -4 1316.73  109.53
  -8   3   817045.48  486.45
  -8   3   816940.68  425.58
  -4  -4  -2 6635.54  306.97
   4  -9   4 1298.67  161.12
   4  -9   4 1484.96   56.16
  -8   2   824997.81  535.06
  -8   2   826462.36  634.61
   8  -2  -824437.43  563.37
  -8   2   825959.22  612.99
  -3  -2  1035757.94  465.89
  -3  -2  1033927.84  908.08
   7  -9  -2   88.29  167.77
   3   2 -1032262.29  485.43
  -7   1   9  627.57   32.17
  -7   1   9  679.29   38.42
  -3  -2  1034806.38  886.38
  -3  -2  1033188.11  758.34
   7  -9  -2   83.94   36.50
   7  -9  -2   80.40   34.92
   7  -9  -2  -24.30   81.22
  -7   1   9  676.93  141.95
  -7   1   9  616.67   80.70
   3   2 -1033453.95  878.76
   7  -1  -9  657.14   95.97
  -7   9   2   76.36   93.57
  -7   9   2   42.55   89.85
   3   2 -1032382.08  693.11
  -7   1   9  679.98  143.24
  -1  -5   9  191.41  107.82
   9  -6  -4  399.46  141.01
   9  -6  -4  618.57  128.72
  -1  -5   9   -2.05  221.89
   1   5  -9  151.10  111.05
   9  -4  -2 1637.52   78.83
  -9   6   4  664.75  158.01
  -9   6   4  461.67  125.20
   1   5  -9  157.10  121.50
  -9   4   2 1504.01  124.09
   9  -4  -2 1602.51  127.27
  -9   4   2 1551.40  100.99
  -9   4   2 1640.52  371.10
  -8   8   116977.52  267.85
  -8   8   117326.14  510.77
   8  -8  -116471.83  512.65
  -8   8   116965.06  485.92
   8  -8  -116660.36  391.79
  -5  -5   3    0.27   71.66
  -5  -5   3   84.62   87.32
  -5  -5   3   89.23   81.52
   8  -8  -116331.66  335.10
   8  -8  -116665.70  428.41
   5   5  -3  131.63  132.29
  -5  -5   3  103.08  128.22
   5   5  -3  114.69   94.96
   3  -6  -727052.41  568.70
  -3   6   727867.05  553.90
  -3   6   729345.36  590.70
  -3   6   728536.00  532.85
   3  -6  -727948.76  735.00
  -3   6   729049.77  736.69
  -7   4  -3  -33.17  101.16
  -7   4  -3  -51.85   74.25
  -7   4  -3  -25.57   81.17
  -7   4  -3    3.44   72.52
   7  -4   3  218.82   88.12
   7  -4   3    2.40  131.98
   6  -7   4   37.46  119.43
  -6   7  -4  215.49  100.17
  -6   7  -4   98.72   55.02
  -6   7  -4   81.06  102.38
   6  -7   4  262.41   99.93
  -6   7  -4   84.84  101.61
  -7   8   528112.65  678.68
  -7   8   528409.51  740.98
  -3  -7   432616.02  730.41
   4  -7   6 1303.63  205.65
  -3  -7   432732.97  587.23
  -3  -7   432378.92  536.76
   7  -8  -526544.02  359.00
   7  -8  -527026.69  682.24
  -4   7  -6 1021.62  290.70
   7  -8  -526849.23  418.71
   3   7  -431235.24  795.33
   7  -8  -527044.61  640.40
  -3  -7   432033.24  722.50
  -3  -7   433870.63  581.57
  -4   7  -6  941.10  195.84
   4  -7   6  962.59  306.89
  -4   7  -6 1053.95   47.93
   3   7  -432014.06  522.14
  -4   7  -6  969.52   41.65
  -5  -4   8  519.56   53.38
  -5  -4   8  435.43   89.75
  -5  -4   8  300.04   43.12
  -5  -4   8  454.27  128.71
  -5  -4   8  366.59   80.25
  -5  -4   8  433.18  109.53
  -6   9  -217244.74  421.63
   6  -9   219013.29  353.70
   6  -9   218311.70  608.55
  -6   9  -219199.72  841.21
   6  -9   217977.28  408.32
  -6   9  -218313.61  541.52
  -7  -2   732908.04  516.84
  -7  -2   732022.64  586.97
  -7  -2   732479.78  658.84
  -7  -2   731320.76  696.19
  -7  -2   732272.48  580.60
  -7  -2   732503.73  492.31
   5  -4  -9  124.02  104.90
  -4   1  1012016.76  239.14
  -5   4   9   15.19  150.85
  -4   1  1011403.15  672.22
   4  -1 -1010965.20  246.27
  -5   4   9  114.41   95.67
  -5   4   9    7.87  132.52
  -4   1  1011637.71  298.81
   5  -4  -9  378.09   59.34
   4  -1 -1010878.90  285.24
  -4   1  1012016.52  464.51
   5   4   040195.24  857.69
   5   4   041259.47 1065.43
  -5  -4   042307.85  896.50
  -5  -4   040511.36 1536.04
  -5  -3   925930.91  653.29
  -5  -3   926230.79  331.11
  -5  -3   925487.18  614.65
  -5  -3   924911.07  367.54
  -5  -3   925150.39  499.70
  -5  -3   925810.69  458.40
  -2  -5   918359.89  575.15
   2   5  -917822.69  563.72
  -2  -5   918389.85  479.96
   2   5  -918852.11  496.33
   9  -4  -6  149.51  103.27
   9  -4  -6   86.44   91.87
  -8   0   730605.33  434.94
  -8   0   729764.92  856.25
  -8   0   728692.37  604.16
  -9   4   6  167.84   91.12
  -8   0   729202.53  786.02
  -8   0   730001.40  737.24
  -8   0   730353.13  402.73
  -9   4   6  104.63  194.05
   5   0 -10  230.26   51.16
  -5   0  10  137.28  119.95
  -5   0  10  234.80   69.79
  -5   0  10    7.86   57.24
   5   0 -10  170.47   52.00
  -5   0  10  191.51  111.70
   7  -6   3 2958.12  291.88
  -7   6  -3 3145.00  200.71
   7  -6   3 2758.42  209.20
  -7   6  -3 2867.82  162.76
  -7   6  -3 2510.25  187.60
  -7   6  -3 2905.04  181.33
   4   1   528583.25  509.55
  -4  -1  -529791.26  454.13
   4   1   529711.80  758.76
  -4  -1  -532034.98  846.58
   4   1   529393.72  836.23
   4   1   529345.90  437.89
  -4  -1  -530787.80  780.51
  -3  -7   3    5.76   84.40
  -3  -7   3   48.86   83.69
  -3  -7   3   47.85   15.14
   3   7  -3  111.02   76.21
  -3  -7   3   62.80   66.99
  -3  -7   3   86.08   24.65
  -8   0   211334.89  478.31
  -8   0   212481.10  491.82
  -8   0   212534.68  273.62
   8   0  -211352.55  179.73
   8   0  -211354.82  223.11
  -8   0   212298.56  184.59
   9  -3  -6 6318.90  246.39
   3  -7  -6  229.64   60.43
  -3   7   6  337.24   61.89
  -9   3   6 6986.16  313.51
   9  -3  -6 6353.48  305.82
  -9   3   6 7152.75  255.93
   3  -7  -6  191.51  131.59
  -3   7   6  208.16  117.33
  -3   7   6  275.74  135.37
   3  -7  -6  314.78  141.29
  -3   7   6  226.57   82.93
  -7  -2   2  -62.71  116.88
  -6   2  -423326.29  620.49
   7   2  -2   45.52   90.91
  -6   2  -422981.51  589.04
  -6   2  -422460.14  569.74
   6  -2   420686.95  383.22
  -7  -2   2  102.21   60.70
   6  -2   421254.99  898.99
  -7  -2   2    2.94  188.08
  -6   2  -423348.14  420.01
   1   5   5  756.11  164.95
  -1  -5  -5  727.98  181.76
  -1  -5  -5  723.47  267.02
   1   5   5  822.34  175.95
  -4  -4   923395.28  724.21
   6   1   216724.66  453.12
   6   1   215891.71  160.55
  -4  -4   923910.71  679.36
  -6  -1  -217328.74  587.10
  -6  -1  -217788.71  593.85
  -4  -4   923799.50  637.57
   4   4  -924314.09  697.08
   4   4  -923631.07  604.50
   6   1   216567.70  582.47
  -6  -1  -217004.59  494.29
  -4  -4   924120.92  605.37
   7  -9   0 1400.87   95.89
  -7   9   0 1835.07  156.95
   7  -9   0 1629.80  197.56
   7  -9   0 1596.90  127.98
  -7   9   0 1724.36  197.79
   7  -9   0 1524.00   92.28
   0   0   9  115.79  166.37
   0   0   9   36.52   67.37
  -6  -4   5  253.05   83.27
  -6  -4   5  393.25   33.94
   0   0   9   15.38   76.66
  -5  -5   611035.40  193.45
  -6  -4   5  271.70   75.93
  -5  -5   610104.70  238.43
   0   0  -9   26.95  147.20
  -5  -5   610958.37  286.67
  -5  -5   610593.92  205.15
  -6  -4   5  487.32   85.45
  -6  -4   5  360.94  135.31
  -5  -5   610813.45  356.04
  -5  -5   611267.76  444.06
   0   0   9    0.96   48.37
   0   0  -9  -22.25   47.96
  -6  -4   5  431.49  180.19
   0   0  -9  133.04   76.46
  -5   1  1032684.43  588.11
  -2  -2  10 6743.64  343.80
   5  -1 -1030025.17  645.76
   9  -6  -2 4054.22  389.58
  -5   1  1032167.58  877.58
  -9   6   2 4166.16   70.53
   2   2 -10 6539.44  296.74
  -9   6   2 4443.78  388.18
  -5   1  1032791.43  562.37
  -5   1  1033070.48 1206.54
   2   2 -10 6377.47  100.53
   2   2 -10 6529.95  353.14
  -2  -2  10 6208.85  357.02
   5  -1 -1030498.75  724.42
  -9   6   2 4265.53  306.18
  -2  -2  10 6745.73  142.63
  -2  -2  10 6695.66  289.71
   9  -6  -2 3845.29   68.20
   9  -6  -2 3935.29  247.52
  -2  -1  10  476.36  159.75
  -2  -1  10  497.76  121.09
   2   1 -10  455.18  145.87
   2   1 -10  439.62  118.78
  -2  -1  10  594.94  143.89
   2   1 -10  352.47   45.44
  -2  -1  10  555.35   80.08
   3  -8   6 6526.94  626.14
  -4  -5   8 4032.84  173.94
   3  -8   6 6354.02  309.56
  -4  -5   8 3929.98   64.83
  -4  -5   8 3958.13  223.20
  -4  -5   8 3747.82  195.64
  -4  -5   8 3678.10   68.93
  -3   8  -6 6484.02  324.90
  -4  -5   8 4217.71  185.22
  -3   8  -6 6455.36  353.36
   4   5  -8 4207.12  197.77
  -6  -4   4 4939.80  124.06
   7  -3  -9  116.33   67.80
  -7   3   9   60.54   69.43
  -7   3   9  217.14  176.04
  -6  -4   4 4773.50   90.79
  -6  -4   4 4970.80  300.29
   7  -3  -9   26.60    5.82
  -6  -4   4 5254.14  239.00
  -7   3   9   60.94  106.18
  -6  -4   4 4607.58  255.35
  -6  -4   4 4944.61  301.36
  -1  -4  -635094.61 1261.49
  -1  -4  -634250.25  889.19
   1   4   636395.21  888.44
   1   4   634645.81  518.49
   1   4   634071.10  599.01
   1   4   635990.68  914.88
   0  -5  -635943.99 1339.04
   0   5   636858.39  551.47
   0   5   636347.73  863.65
   0  -5  -636478.74 1207.76
   0   5   636446.73  921.86
   0   5   635826.28  659.13
  -6   4   9 2057.10  201.70
  -6   4   9  718.31  321.35
   9  -2  -510462.96  418.14
   6  -4  -9 1827.03  290.00
  -9   2   4 7803.18  396.23
  -9   2   510478.29  443.10
  -9   2   4 8370.57  397.87
  -9   2   4 7967.98   99.25
  -9   2   4 8384.23  210.43
   9  -2  -4 7753.11   89.92
   9  -2  -5 9845.59  414.43
   9  -2  -4 7519.23  212.40
  -9   2   4 8350.77  122.41
  -9   2   510701.18  264.73
   6  -4  -9 1991.56  109.90
  -4  -2  10 7947.98  383.27
  -4  -2  10 7980.99  374.12
  -4  -2  10 7902.56  264.09
  -4  -2  10 8185.67  147.35
   4   2 -10 7465.63  154.89
   4   2 -10 7803.28  224.07
  -1   8   3  489.84  146.60
  -1   8   3  437.18   75.44
   1  -8  -3    4.54  267.80
  -1   8   3  411.40  115.74
   1  -8  -3  635.04  121.39
  -7   0  -1  271.48  130.35
  -7   0  -1   85.93  127.19
  -7   0  -1  164.24   94.85
  -7   0  -1  122.59   45.76
   7   0   1  142.03   24.65
   7   0   1  188.94   79.46
   7  -8   2 7836.33  387.30
  -7   8  -2 8035.83  426.20
  -7   8  -2 8638.03  359.37
  -7   8  -2 8373.66  275.27
   7  -8   2 8117.32  230.49
   7  -8   2 7620.91  255.18
  -1  -1  -8   11.93   86.19
  -1  -1  -8  -16.01   60.16
  -3  -7   517097.27  325.31
   1   1   8  183.15   63.74
   1   1   8   51.15  122.65
   3   7  -5  158.28   48.30
  -3  -7   516179.25  387.17
  -3  -7   517360.85  285.93
   1   1   8    0.42   82.07
   1   1   8  144.07   71.14
  -3  -7   516047.37  690.18
  -3  -7   516997.29  690.08
   2  -8  -4 5023.87  219.15
  -2   8   4 5005.35  129.10
   2  -8  -4 4968.82  112.43
   2  -8  -4 4737.73  306.22
  -2   8   4 5054.88  221.62
  -2   8   4 4803.93  510.53
  -4  -6   6   84.88   69.59
  -4  -6   6  -30.95   71.11
  -4  -6   6    0.66   55.13
  -4  -6   6   78.87   35.13
  -4  -6   6    0.13   39.88
  -4  -6   6  114.70   53.84
  -8   4   817375.91  463.17
   8  -8  -427159.78  685.60
   8  -8  -427255.95 1028.44
   8  -4  -817726.90  515.27
   8  -4  -817046.08  476.12
  -8   4   817711.36  515.66
  -8   8   427796.65 1090.64
   8  -8  -426268.68  349.61
  -8   4   818344.44  817.83
  -8   8   427505.87  699.14
  -2   9  -542907.06 1321.89
   2  -9   543974.47  996.85
   2  -9   544113.60 1023.12
  -2   9  -543397.79  622.65
  -2   9  -544672.52 1051.73
   2  -9   542087.29 1043.83
   2  -9   543586.14  594.14
  -6  -3   821076.91  530.49
   2  -1   8 4710.26  177.48
   2  -1   8 4876.24  315.52
  -2   1  -8 4460.62  298.92
  -2   1  -8 4649.51  174.20
  -6  -3   821724.63  516.91
  -6  -3   821427.41  638.83
  -6  -3   820900.29  319.44
  -6  -3   821918.55  372.34
  -2   1  -8 4998.98  222.60
   2  -1   8 4559.06  202.20
  -6  -3   821349.59  537.99
  -2  -4  -510030.43  728.74
   2   4   510201.25  422.53
   2   4   510022.91  435.34
   8  -1  -8 7740.27  276.00
  -8   1   8 8751.32  297.99
  -2  -4  -5 9957.93  393.54
  -8   1   8 9272.83  321.41
  -8   1   8 8822.16  254.80
  -3   5   8 2268.04  156.84
   3  -5  -8  781.00  230.80
  -3   5   8 2416.43  151.65
  -3   5   8 2433.79  139.75
   0   5  -911755.99  468.94
  -4  -6   2 5404.38  258.49
  -3   5   8 2733.30  205.69
   4   6  -2 5473.28  243.82
  -4  -6   2 5787.31  255.48
   4   6  -2 5285.27  276.13
   3  -5  -8 2068.20  310.51
   0  -5   911822.65  713.99
  -4  -6   2 5753.78  283.93
   0   5  -911400.79  467.68
   0  -5   911602.64  486.55
  -7   9   3 1459.76  346.12
  -9   6   5 9409.07  397.88
  -5  -1  10 8165.07  376.27
  -5   1  -5  688.45  159.34
  -5   1  -5  -11.87   96.15
   9  -6  -5 9030.42  373.66
   9  -6  -5 8955.59  562.02
  -5   1  -5    7.76   87.40
   5  -1   5   16.87   74.14
  -9   6   5 9210.50  348.95
  -5  -1  10 8091.69  137.74
   5   1 -10 7465.03  235.90
   7  -9  -3 2419.50   76.37
  -7   9   3 2462.01  208.41
   5  -1   5  -16.20   89.42
   5   1 -10 7833.69  182.22
   7  -9  -3 2542.66  205.49
  -5  -1  10 7913.26  360.57
  -5  -1  10 7527.81  231.33
   7  -9  -3 2620.85   81.19
   7  -9  -3 2261.20  195.20
   6   2   1  308.48   95.73
  -2   9   2 1958.59   96.26
  -6  -2  -1  347.63  106.84
  -2   9   2 1823.88  278.33
  -6  -2  -1   85.53  155.13
   6   2   1  -33.32  146.24
   2  -9  -2 2341.46  184.98
   2  -9  -2 1967.97  161.31
  -6  -2  -1  182.98  147.83
   2  -9  -2 1881.27  290.70
  -2   9   2 1876.07  338.61
   2  -9  -2 1947.83   77.60
  -2  -7   7  506.98  127.76
  -4  10  -1 3616.95  333.79
  -4  10  -1 2924.20  157.81
   4 -10   1 3240.68  323.96
  -2  -7   7  642.15  128.20
   4 -10   1 3104.31  182.52
   4 -10   1 3833.79  332.07
  -2  -7   7  557.69  128.21
   2   7  -7  604.25  113.44
   4 -10   1 3198.80  132.41
  -8   3  -1  -45.17  109.77
  -8   3  -1  125.13   56.23
  -8   3  -1  162.89   71.47
   8  -3   1  197.46  124.37
   8  -3   1  146.30   59.68
  -8   3  -1   17.92  121.03
   1   8   0 5609.44  284.94
   1   8   0 5476.69  268.28
   1   8   0 5467.35   71.98
  -1  -8   0 5687.65  287.83
  -1  -8   0 5698.85  482.09
  -1  -8   0 5563.73  270.24
   7   0  -9 2253.94  226.84
  -4   4   9 6124.10  253.18
   4  -4  -9 5647.30  193.33
  -7   0   9 2835.07  206.15
  -7   0   9 2982.00  364.19
  -7   0   9 2647.22   87.03
   0  -9   3 7725.86  163.32
  -4   4   9 6082.84  194.15
   4  -4  -9 5722.18  258.35
   0  -9   3 7829.67  326.31
  -7   0   9 2791.60   88.33
   0  -9   3 7783.00  281.83
   0   9  -3 7426.11  196.53
  -4   4   9 6406.90  249.08
  -4   4   9 5940.33  283.40
  -7   0   9 2855.77  115.71
   0   9  -3 7473.51  199.20
   0  -9   3 7368.35  322.87
   0  -6  -5 2245.89  345.62
   0  -6  -5 1992.92  424.86
   0   6   5 1940.17   85.55
   0   6   5 1911.10   55.55
   0   6   5 1885.31  195.79
   0   6   5 2299.67  230.55
   9  -5  -611843.31  685.65
   9  -5  -612558.39  646.83
  -9   5   612687.83  399.86
  -9   5   613132.63  442.81
  -9   3   2    3.94   98.21
  -6  -2   9 1729.94  128.81
  -6  -2   9 1544.06   92.94
  -6  -2   9 1750.53   94.03
  -9   3   2  -29.95   48.55
   9  -3  -2   87.97   58.65
   9  -3  -2   87.48   28.86
  -6  -2   9 1857.41  107.94
  -9   3   2    0.71  111.25
  -6  -2   9 1535.38  161.98
  -4  10   0 4730.26  222.95
   4 -10   0 4553.83  338.68
   4 -10   0 4524.45  198.26
  -4  10   0 4612.16  345.00
   4 -10   0 4583.53  290.08
   4 -10   0 4600.50  198.56
   3  -1 -10 5183.88  208.38
   3  -1 -10 4807.32  162.52
  -3   1  10 5121.16  312.98
  -3   1  10 5310.39  271.54
  -3   1  10 5252.60  228.23
  -3   1  10 5016.27  251.76
   0   9  -218587.10  436.61
   0  -9   219165.74  541.47
   0   9  -218615.62  415.19
   0  -9   219446.91  839.75
   0  -9   220153.91  537.15
   0  -9   219627.90  306.96
  -3   9   3   99.29  103.72
  -3   9   3  104.19   70.06
  -3   9   3   46.65   52.59
   3  -9  -3   38.52   76.11
   3  -9  -3  -11.75   57.08
   3  -9  -3  -16.19   61.81
   3  -9  -3  -35.57   99.77
  -7  -1   057553.65 1932.31
  -7  -1   054834.16 1394.42
  -7  -1   056554.80 1159.38
   7   1   052326.23 1021.94
   6   0   3 7406.47  326.27
   6   0   3 7492.32  373.15
  -6   0  -3 7836.42  132.93
  -6   0  -3 7842.22  367.59
   6   0   3 7126.45  171.92
  -6   0  -3 7919.33  352.78
  -6   0  -3 8164.92  625.59
   8  -7   1  181.14  112.28
  -1   3  -9 1320.30  196.79
   1  -3   9 1130.65   54.54
   1  -3   9 1140.78  176.02
  -8   7  -1  160.22   93.95
  -1   3  -9 1060.22   83.61
  -1   3  -9 1316.14  179.40
  -8   7  -1  -36.89  162.22
   1  -3   9 1151.89  183.19
  -8   7  -1   24.93  105.33
   8  -7   1  124.29   60.70
  -8   7  -1   41.40  143.72
  -1   3  -9 1212.35   84.85
   8  -7   1   14.50  146.13
  -6  -4   6  338.31   69.11
  -6  -4   6  314.45   68.31
  -6  -4   6  336.88   86.68
  -6  -4   6  357.85   45.97
  -6  -4   6  278.12   64.33
  -6  -4   6  296.04   71.81
  -8  -1   5 1110.25   64.46
  -8  -1   5  960.80  150.24
  -8  -1   5 1011.14  305.86
  -8  -1   5  937.96   59.09
  -8  -1   5 1050.68   62.12
  -8  -1   5 1039.83   81.25
   5 -10   0  261.84  132.04
   7  -3   3 1723.99  116.63
  -7   3  -3 2131.26  177.10
  -7   3  -3 2272.64  187.35
  -5  10   0  242.84  176.93
   7  -3   3 1952.50  175.61
  -7   3  -3 2038.32  119.03
   5 -10   0  123.54   70.61
  -5  10   0  182.97   87.08
  -7   3  -3 2130.45  357.69
   5 -10   0  277.55   98.54
   5 -10   0  197.07   76.66
   5  -9  -417059.26  326.15
  -5   9   418458.91  861.21
  -5   9   417511.41  636.28
   5  -9  -416966.15  331.92
   5  -9  -418061.25  508.09
   5  -9  -417111.21  393.25
   0   4   7 1488.18   76.97
   0  -4  -7 1511.56  190.52
   2   5   4 8101.86  409.63
   0   4   7 1467.67  196.26
  -2  -5  -4 8410.31  726.04
  -2  -5  -4 8557.32  365.62
   2   5   4 7865.13  375.66
   0  -4  -7 1349.01  189.38
   0   4   7 1400.38   87.55
   0   4   7 1577.46  187.33
   8  -8   049906.20 1185.67
  -8   8   049898.58 1109.27
  -8   8   050660.79  860.84
   3   3 -10   -7.52  212.35
   8  -8   050708.04 1341.83
  -1  -8   623157.45  903.78
  -8   8   051966.06 1591.43
   3   3 -10 2418.68  314.68
  -3  -3  10 2638.97  256.83
  -1  -8   623493.84  600.00
  -1  -8   621734.80  558.19
  -3  -3  10 2239.75  184.18
  -3  -3  10 3252.10  249.95
   1   8  -622324.77  729.08
   8  -8   049259.54  893.81
   3   7  -215352.12  433.56
  -3  -7   216683.19  450.14
  -3  -7   215762.09  466.03
  -3  -7   216545.98  468.40
   3   7  -215057.94  439.02
   2   3 -1012379.75  494.30
  -2  -3  1012247.42  496.01
  -2  -3  1012711.43  641.70
   8  -6  -7  982.52  343.63
  -9   2   6 4665.28  193.43
   9  -2  -6 4651.05  325.37
  -8   6   7 2453.21  219.47
   2   3 -1012384.46  642.26
  -8   6   7 2438.66  216.82
  -2  -3  1012498.94  483.17
   9  -2  -6 4197.82  274.87
  -9   2   6 4853.52  270.83
  -9   2   6 5380.28  307.79
   8  -6  -7 2507.42  336.69
   6  -9  -4  634.27   60.52
  -9   2   318989.67  356.58
  -9   2   319915.18  318.70
  -6   9   4  551.10  122.02
  -1   9  -510403.49  350.53
   1  -9   510795.57  391.52
   6  -9  -4  753.60  143.20
  -6   9   4  693.80  265.54
  -1   9  -510641.06  134.08
   9  -2  -317760.77  233.92
  -9   2   319306.22  665.70
   1  -9   510873.50  151.52
  -9   2   318429.21  965.11
   6  -9  -4  658.49   60.01
   1  -9   510101.88  381.70
   9  -2  -317585.39  340.35
   1  -9   510689.92  403.26
  -2   0  1011301.95  443.25
  -2   0  1011133.30  381.69
   2   0 -1010235.12  340.83
  -2   0  1011119.10  387.30
   2   0 -1010567.82  216.34
  -6  -4   3 5001.78  491.49
  -6  -4   3 5223.10  455.50
   6   4  -3 5122.19  192.54
  -6  -4   3 5374.52  208.87
  -6  -4   3 5480.25  208.40
  -2   0  1011042.47  321.88
  -8   7   6 7609.13  333.77
   8  -7  -6 7094.69  319.10
  -3   9  -511658.60  411.94
   3  -9   510652.90  451.35
  -3   9  -510886.87  139.40
   8  -7  -6 7442.64  340.04
   3  -9   511048.61  167.70
   3  -9   511144.86  386.53
  -8   7   6 7189.89  352.00
  -3   9  -511331.16  432.84
   3  -9   511232.70  412.96
   7  -1   235260.98  774.81
  -7   1  -238826.06  982.61
  -7   1  -239447.19 1217.00
  -7   1  -240566.87 1467.24
   7  -1   235319.38  536.66
  -7   1  -239724.36  618.93
  -3  10  -127317.71  811.80
   5   5  -2   79.99   79.09
  -5  -5   2   85.30   78.98
  -3  10  -125871.80  552.03
  -5  -5   2   34.75  104.38
   5   5  -2  121.68  102.96
   3 -10   127208.27  551.51
   3 -10   126110.68  611.68
  -5  -5   2   54.65   96.75
   3 -10   126589.08  603.75
   3 -10   127077.34  488.15
  -1  -6  -447491.20 1227.86
   1   6   446367.85 1189.18
  -1  -6  -446849.15 1086.66
   1   6   445763.00 1069.80
  -9   5   1 3104.69  292.99
  -9   5   1 3236.20  446.95
  -9   5   1 3354.62  101.24
  -9   5   1 2996.35  305.02
   9  -5  -1 3266.77   89.92
   9  -5  -1 2881.38  187.10
   8   1  -4  147.59   40.60
  -8  -1   4  192.58   49.62
  -8  -1   4  178.26   44.69
  -8  -1   4  121.29   34.01
  -8  -1   4  173.28  218.15
  -8  -1   4  253.47  117.80
  -8  -1   4  156.74   44.28
   2   3   612431.53  504.68
  -6   7   7  486.72  136.63
  -2  -3  -612910.97  501.78
  -6   7   7  680.46  160.64
  -6   7   7  763.29   47.11
   6  -7  -7  755.25  156.13
   2   3   612320.95  728.84
   6  -7  -7  518.03  213.85
  -2  -3  -612062.87  750.00
   2   3   612119.94  193.96
   2   3   611910.90  188.79
   6  -7  -7  655.06   56.60
   5 -10   1 3203.65  169.13
   5 -10   1 3005.97  381.19
   5 -10   1 3191.94  221.39
   4 -10   256006.00 1235.89
  -5  10  -1 2927.01  158.29
   5 -10   1 2790.23  168.01
   4 -10   256988.80  974.68
   4 -10   255448.53 1142.37
  -5  10  -1 3650.15  222.73
  -4  10  -251571.32  970.96
   4 -10   255644.46 1166.40
  -4  10  -256074.45 1207.83
   5  -2 -10  315.92   86.50
   5  -2 -10  592.97   65.71
   5   2   311442.39  418.56
  -5   2  10  570.68  126.22
  -5  -2  -312186.59  425.00
   5   2   311691.79  502.36
  -5   2  10  608.07  171.75
  -5   2  10  667.16  150.83
  -5  -2  -312157.33  858.82
  -1   6   6 9099.62  167.96
   1  -6  -6 9068.54  423.10
  -1   6   6 8883.26  257.98
   1  -6  -6 9271.60  545.12
  -1   6   6 8838.64  656.07
  -1   6   6 9246.84  340.17
   0  -8  -2  130.34  125.68
   0   8   2  171.23  104.73
   1  -2   910938.62  430.54
   0  -8  -2   -2.45   20.22
   0  -8  -2   14.04   79.57
   1  -2   911502.59  314.24
   0   8   2  261.05  123.38
   1  -2   911350.66  385.09
  -1   2  -911227.77  433.75
  -1   2  -911024.59  204.20
  -1   2  -911099.82  400.49
   0   8   2  167.22   17.14
  -9   7   3 9470.95  358.70
   9  -7  -3 8938.51  362.11
  -9   7   3 9351.00  408.54
   9  -7  -3 9139.23  596.51
   1  -4   916624.13  884.04
   3 -10   233775.83  692.31
   3 -10   233552.18  757.95
  -3  10  -232429.87  967.72
  -1   4  -916642.21  537.44
  -1   4  -915432.85  575.44
  -1   4  -915630.85  176.47
   1  -4   916321.53  544.69
   3 -10   234237.98  723.39
  -3  10  -231478.75  604.35
   3 -10   233523.38  761.67
  -3  -6  -1  866.92  190.13
   3   6   1  834.89  192.44
   2  -6   8 2096.13  231.03
   0  -9   4 4978.80  182.60
  -3  -6  -1  765.72  153.29
   0  -9   4 4737.66  280.62
   0   9  -4 4834.23  180.41
   2  -6   8 1720.08  244.75
   0  -9   4 5001.17  274.98
   0   9  -4 4616.85  199.64
  -2   6  -8 1513.83  247.22
   3   6   1  908.63  156.50
  -2   6  -8 1685.69  210.44
   0  -9   4 4772.00   98.48
   3   5  -9 1963.07  195.68
   3   5  -9 1866.65  160.65
  -3  -5   9 1744.44  272.31
  -3  -5   9 1788.67  151.88
   7  -7   328568.20  654.75
  -7   7  -329501.33  621.53
   7  -7   327556.24  739.96
  -7   7  -329130.02  590.40
  -7   7  -330052.90  730.65
  -7   7  -330065.94  682.07
   5 -10  -1 1007.53  126.28
   3  -7   723018.23  717.86
  -3   7  -721980.81  732.90
  -5  10   1  941.73  137.06
  -3   7  -723211.92  651.63
  -5  10   1 1000.86  140.24
   5 -10  -1  852.51  101.15
   3  -7   722270.57  653.49
   5 -10  -1  825.15  101.03
   1  -5  -7 5460.38  267.63
   1  -9  -118213.83  256.36
  -8  -1   6  330.64  101.08
  -1   5   7 4884.33  149.01
  -1   9   117422.82  471.92
   1  -9  -117617.74  496.38
   1  -9  -117767.48  493.47
   1  -5  -7 5192.24  316.93
  -1   9   117061.62  768.34
  -1   5   7 5083.78  134.54
   1  -9  -118494.48  751.58
  -1   5   7 4529.03  285.55
  -8  -1   6  303.04   56.72
  -8  -1   6  409.44  131.77
  -8  -1   6  285.69   68.36
  -1   5   7 5073.22  265.12
  -8  -1   6  327.30   72.85
  -8  -1   6  309.79   40.24
  -5   7   713225.60  465.06
  -4   2  10 2174.91  207.14
   5  -7  -713024.60  524.13
  -5   7   713110.22  351.19
   5  -7  -713344.13  463.88
  -4   2  10 2600.99  239.09
  -4   2  10 2261.43  240.75
  -4   2  10 2384.89  129.30
   4  -2 -10 1848.28  135.11
  -5   7   713146.84  582.30
   4  -2 -10 2273.92  128.83
   5  -7  -711938.50  250.03
  -5   7   712624.56  333.29
  -7   9  -1 1132.84  126.54
   1   3   7  399.97   59.67
   7  -9   1 1226.47  101.41
   7  -9   1 1287.50  103.96
  -7   9  -1 1114.84  179.52
   1   3   7  389.56  131.75
  -7   9  -1  902.48  102.48
   7  -9   1  898.99  347.53
   1   3   7  343.12   54.05
   1   3   7  401.65  154.78
  -1  -3  -7  349.07  148.33
  -1  -3  -7  372.51  133.30
   7  -9   1  992.72  109.39
  -9   4   134330.47  569.49
   9  -4  -131908.60  637.56
   3  -8  -537821.26  650.23
   3  -8  -537216.30  757.04
  -3   8   537838.16  758.94
  -9   4   134246.82  892.36
   9  -4  -132067.54  491.30
   3  -8  -538101.25  964.66
  -9   4   133173.30  961.95
  -9   4   135101.73  678.27
  -3   8   539025.04  996.79
  -3   8   538367.66  869.38
  -3  -6   834794.35  732.27
  -3  -6   833830.42 1029.74
   3   6  -834590.65  771.69
  -3  -6   832760.79  795.73
  -9   6   136561.50  969.51
   9  -6  -134188.61  638.35
  -2   3   9 6055.17  227.66
  -2   3   9 6351.10  244.78
  -2   3   9 6258.56  281.25
  -9   6   137384.04  929.02
   2  -3  -9 5940.08  260.53
  -2   3   9 6008.05  427.18
   9  -6  -134778.71  834.33
   9  -6  -134092.87  786.84
   2  -3  -9 5714.44  246.60
  -9   6   136886.90  680.08
  -9   6   136945.55  810.53
  -6   1  10 5202.64  328.68
  -6   6   817347.84  321.30
   6  -6  -815778.45  273.54
  -6   1  10 5132.77  202.08
   6  -6  -816695.54  459.18
  -6   6   817368.49  520.55
   6  -1 -10 4505.59  167.53
  -6   1  10 5367.82  244.12
   6  -1 -10 4984.67  158.30
  -6   6   817410.48  472.71
   6  -6  -816874.01  509.42
  -6   1  10 5700.80  307.38
  -6   6   817855.34  504.87
   1  -2  -9   21.23   85.16
   5  -5   6 1809.06  186.36
   1  -2  -9   58.97   69.05
   5  -5   6 1748.50  197.17
  -5   5  -6 1472.02  284.30
  -5   5  -6 1502.75  101.56
  -1   2   9   35.03  108.89
  -1   2   9  127.92  159.49
  -1   2   9   58.50  126.72
  -1   2   9    4.37   65.42
  -5   5  -6 1904.26  154.41
  -5   4  -642527.93  886.94
   5  -4   641141.68  991.95
  -5   4  -641135.66  951.25
  -5   4  -643305.97 1023.54
   5  -4   641269.56  895.78
  -5   4  -642296.72 1047.77
   4 -10  -120753.29  695.02
   9  -7  -4 1700.22  200.92
   4 -10  -120621.20  463.54
   4 -10  -121156.66  443.34
  -9   7   4 1156.33  386.69
  -9   7   4 1932.15  192.65
  -4  10   120582.52  530.20
   9  -7  -4 1928.43  200.30
  -4  10   121507.89  488.43
   4 -10  -120672.71  463.38
   0  -9   1 5267.52  204.12
   0   9  -1 4939.90  115.42
   0  -9   1 4763.11  270.51
   0  -9   1 4709.52  470.74
   0  -9   1 5289.84  147.44
   0   9  -1 4930.45  228.53
   3 -10   0 3355.98  141.52
   3 -10   0 2972.69  341.02
   0   7  -8 2722.37  420.94
  -9   7   215777.86  200.47
   0  -7   8 2808.73  394.89
   9  -7  -214616.43  203.40
   3 -10   0 2966.15  192.00
  -3  10   0 3026.09  165.63
   3 -10   0 3313.77  159.21
  -4   4  -7  136.86   46.42
   4  -4   7   -3.92   93.85
  -9   7   215780.01  544.60
   0  -7   8 2838.88  458.13
  -4   4  -7  101.04   88.56
  -3  10   0 3306.87  192.27
   9  -7  -214842.53  225.70
  -4   4  -7   -3.75  209.24
  -4   4  -7   57.43   49.17
  -9   7   216369.40  476.82
   4  -4   7  220.74  109.22
   9  -7  -215212.69  712.29
   0   7  -8 2680.59  248.07
   9  -7  -214794.19  467.20
  -2  -8   3  255.94   30.06
   2   8  -3  153.92   48.09
  -2  -8   3  210.90   69.30
   2   8  -3   87.84  127.84
  -2  -8   3  261.07  116.54
  -2  -8   3  225.63  115.30
   5   3   2 1587.82  181.79
  -2  -8   4  226.92  105.81
   2   8  -4  283.36   68.53
   2   8  -4  357.09   48.43
  -2  -8   4  238.98  105.63
  -2  -8   4  188.41   42.83
  -2  -8   4   -0.38   83.73
   5   3   2 1428.51  242.85
  -5  -3  -2 1651.62  188.30
  -5  -3  -2 1551.15  251.60
  -3  -7   6 4543.70  231.11
  -3  -7   6 4187.49  179.33
  -3  -7   6 4256.13  234.39
   3   7  -6 4257.99  145.15
  -3  -7   6 4606.90  132.10
  -3  -7   6 4201.68   84.63
   7  -4  -919373.96  508.23
  -5   6   8  283.70  193.27
  -7   4   921018.89  589.54
   5  -6  -8  327.39   65.96
  -5   6   8  383.94  176.27
  -5   6   8  219.46  126.52
   5  -6  -8  176.18   99.36
   5  -6  -8  268.16  128.99
  -7   4   920127.67  744.37
  -7   4   919979.33  608.77
  -5   6   8  325.05   53.67
  -2  -7  -114588.38  523.85
   2   7   113491.99  513.79
   2   7   113790.46  723.79
  -2  -7  -113907.50  460.45
   9  -3  -737593.06  883.74
   9  -3  -738081.54 1164.35
  -9   3   739486.09  897.37
  -9   3   740064.70  859.18
  -1  -2  10 3759.49  270.97
  -4  -5  -1 4525.88  438.48
   4   5   1 4382.99  333.14
   3   4   4  597.68  333.07
  -1  -2  10 3471.92  413.93
   1   2 -10 3447.84   77.16
   3   4   4  828.88  300.80
  -1  -2  10 3839.66   86.07
   1   2 -10 3857.02  284.19
  -3  -4  -4  844.26  204.57
   1   2 -10 3732.33  251.78
   4   5   1 4731.18  263.85
  -4  -5  -1 4152.04  332.77
  -1  -2  10 3633.89  290.70
  -3  -4  -4  957.43  177.21
  -5  -5   715649.07  349.07
   6   0 -10  811.40   53.42
  -5  -5   715271.48  359.55
  -6   0  10  771.17  171.94
  -6   0  10  914.33  177.83
  -5  -5   715803.04  268.73
  -5  -5   714633.56  366.17
  -5  -5   715312.11  312.99
  -5  -5   715096.08  300.31
   6   0 -10  901.50   80.59
  -6   0  10  951.88  114.26
   5   1   4  721.82  269.51
  -5  -1  -4  775.86  283.70
   5   1   4  406.42   31.91
  -5  -1  -4  550.04  160.13
   5   1   4   29.78  151.12
  -5  -1  -4  538.73   35.65
   3   3   516189.14  193.39
  -9   4   7 3110.18  229.73
   9  -4  -7 3233.79  368.11
  -3  -3  -517554.51  604.22
   3   3   518164.01  580.71
  -9   4   7 3644.23  381.16
  -3  -3  -517890.15  588.77
   9  -4  -7 2785.50  226.46
   3   3   516588.56  590.93
  -4   5  -7 8421.69  402.76
  -4   5  -7 7919.60  321.21
  -1   8  -733199.50 1237.75
   1  -8   732812.64  808.54
  -8   1   0 6173.75  232.76
  -8   1   0 5946.65  354.31
   4  -5   7 7580.34  607.00
   8  -1   0 5500.46  181.78
   4  -5   7 7751.46  352.59
   1  -8   733087.53  926.16
  -4   5  -7 7686.42  160.55
  -4   5  -7 7681.01  224.52
   8  -1   0 5382.24  113.63
  -1   8  -733736.17  887.82
  -8   1   0 6197.19  377.03
   6  -8  -619736.22  903.94
   6  -8  -619310.66  388.79
  -6   8   619482.68  611.19
   6  -8  -619002.71  469.25
   6  -8  -618748.87  310.70
  -6   8   619312.76  504.25
  -4   9   431100.95  613.41
  -4   9   430597.35  806.53
  -4   9   432006.96 1209.10
   4  -9  -430139.68  591.63
   4  -9  -430072.10  560.48
   4  -9  -430258.69  793.40
   4  -9  -430415.46 1139.97
  -5   8  -517153.52  547.45
   5  -8   516397.88  587.36
  -5  -2  10 4518.84  477.75
   5  -8   516342.55  492.50
  -5   9  -428728.51 1123.27
  -5   8  -517130.73  349.57
  -5  -2  10 3541.38  167.27
  -5   8  -516383.61  273.03
  -5   9  -428172.62  431.85
  -5   8  -518234.89  906.84
  -5  -2  10 4314.80  462.31
  -5  -2  10 4047.89  113.06
   5  -9   427760.83  660.11
   5   2 -10 3551.05  133.99
   5  -9   426979.89  814.86
   5   2 -10 3658.45   87.28
  -5   9  -429924.42  734.72
   5  -9   428305.06  525.89
  -5   9  -426934.26  447.98
  -7  -3   5 4255.69  144.33
  -7  -3   5 3918.70  175.36
  -7  -3   5 4288.82  131.76
  -7  -3   5 4412.39  249.37
  -7  -3   5 4355.49  147.37
  -7  -3   5 4054.82  209.72
  -4  -3  10 9129.73  298.59
  -4  -3  10 9916.01  407.31
  -4  -3  10 9863.07  417.37
   4   3 -10 9848.77  274.00
  -3   0  -7 1797.55  160.03
   3   0   7 2039.54  112.53
   7  -7  -7   73.85  106.09
   3   0   7 2230.93  260.14
  -3   0  -7 1858.76  225.21
   7  -7  -7  103.42   31.03
   7  -7  -7    0.00   45.95
  -7   7   7  230.55  125.32
   7  -7  -7  252.93   92.99
   3   0   7 2096.72  171.29
  -3   0  -7 1634.48  114.68
  -7   7   7  228.67  117.28
  -8   5   8 2747.28  238.89
  -7  -2   8 7505.19  225.61
  -7  -2   8 6980.08  263.08
   8  -5  -8 2929.59  426.62
   8  -5  -8 3431.23  234.37
  -8   5   8 2970.45  213.18
  -7  -2   8 7261.47  137.70
  -7  -2   8 7199.94  154.68
  -7  -2   8 6886.90  234.93
  -7  -2   8 6915.18  266.54
   6  -2 -1015750.86  241.32
  -8  -1   311768.60  165.13
  -8  -1   310973.84  250.91
  -8  -1   311593.22  482.72
  -6   2  1016669.62  353.89
  -6   2  1016786.16  267.49
   6  -2 -1015418.55  368.73
  -8  -1   311164.78  459.03
  -8  -1   311829.43  263.95
  -6   2  1016891.59  580.68
   8   1  -310564.64  211.46
  -6   2  1016831.40  540.61
   1   3 -10 1346.98  203.55
  -1  -3  10 1347.40  215.87
  -1  -3  10 1676.03  193.65
   1   3 -10 1537.59  217.12
   6   3   022029.60  775.90
  -6  -3   022435.27  714.39
   6   3   021413.12  710.07
  -6  -3   022814.08  565.34
  -6  -3   023132.40  748.07
  -8   0   8 4912.26  242.03
   1   7  -8  853.46  138.41
  -8   0   8 5005.38  391.38
   8   0  -8 4611.76  229.90
  -1  -7   8  995.61  153.22
  -8   0   8 4810.90  208.09
  -1  -7   8  798.31  159.78
  -8   0   8 4807.41  183.44
   1   7  -8    0.49  142.91
  -1  -7   8  717.81  175.91
   8  -8  -5 2300.94  227.05
   6 -10   0 1771.82  129.50
   9  -6  -6  103.83  108.64
  -1   7   517909.21  923.34
   6 -10   0 1850.15  120.46
  -1   7   518119.28  498.04
   9  -6  -6  157.37  114.15
  -1   7   517681.63  357.96
  -9   6   6 -152.41  105.98
  -6  10   0 2030.45  196.26
  -6  10   0 1570.29  150.97
  -8   8   5 2380.25  413.71
   6 -10   0 1739.81  120.52
   1  -7  -518345.01  623.99
   1  -7  -518298.79  768.21
  -8   8   5 2250.84  215.92
   8  -8  -5 2561.86  218.35
  -9   6   6   31.77  203.25
  -1   7   517780.58  332.37
   6 -10   0 1796.32  195.36
  -3  10  -3 6384.31  163.88
  -7   9   4 1292.73  187.45
   3 -10   3 6929.11  136.88
   0   7   424638.60  303.26
  -3  10  -3 6815.22  279.67
   7  -9  -4 1183.61   96.43
   0  -7  -424880.52  638.23
   0   7   424650.07  647.85
   0   7   424230.35  314.76
  -7   9   4 1222.44  170.54
   7  -9  -4 1242.28  162.97
   0   8  -728284.12  760.83
   3 -10   3 7284.51  299.43
   7  -9  -4 1144.62   94.94
   0  -8   727270.48  704.63
   0  -8   727891.21  732.46
   0  -7  -425566.46  772.56
   3 -10   3 6168.18  492.77
   3 -10   3 7006.81  304.38
   0   8  -727096.14  705.06
   7  -9  -4 1200.53  165.99
   0   7   425868.87  749.39
   0  -8   726482.71  751.96
   1  -7   8 2543.29  278.00
   6  -8   4  206.37  103.60
  -5   8   6  241.63   97.14
  -1   7  -8 2649.71  438.83
   5 -10   2 3535.14  118.28
   5  -8  -6  266.61   83.93
  -5  10  -2 3401.73  242.54
   6  -8   4  137.29  247.08
   1  -7   8 2746.76  236.04
   5 -10   2 3120.49  185.05
  -5   8   6  486.31  146.29
  -5   8   6  326.12   58.94
   5 -10   2 3908.60  327.69
  -6   8  -4  339.75  110.07
   5 -10   2 3491.37  261.29
  -1   7  -8 2522.58  268.25
   5  -8  -6  272.76   62.02
  -5  10  -2 3104.54  142.70
   5  -8  -6  357.81  138.89
  -6   8  -4  185.06   98.74
  -6   8  -4  345.68  123.16
  -6   8  -4  271.72  131.06
   6 -10  -1  182.51   80.16
  -9   1   5 1902.43  214.00
  -4   3  -7 5261.62  231.86
  -4   3  -7 5053.55  322.72
  -4   3  -7 5288.99  175.23
   6 -10  -1  126.34  103.96
  -9   1   5 1755.28  207.00
   6 -10  -1   31.72  176.38
  -6  10   1   22.35   98.64
  -9   1   5 1654.08  102.12
   6 -10  -1  113.96   58.67
  -9   1   5 1704.04  115.20
   4  -3   7 5054.25  318.14
  -6  10   1  146.28   88.13
   4  -3   7 5149.59  234.44
   9  -1  -5 1869.95  115.05
  -4   3  -7 4975.96  270.11
  -6   5  -5  449.16  130.32
   6  -5   5  288.92  172.84
   6  -5   5   48.58   93.96
  -6   5  -5  434.63  106.27
  -6   5  -5    2.15  134.08
  -6   5  -5  340.01   85.02
  -1  -1  1013883.28  505.23
  -1  -1  1013555.90  457.20
  -1  -1  1014837.96  463.24
  -1  -1  1014252.75  252.64
   1   1 -1013046.35  319.37
   1   1 -1013516.25  477.87
   1   1 -1013739.63  685.58
  -7  -3   412742.69  718.78
   7   3  -412163.01  262.07
  -6   9  -3  535.61   80.15
  -7  -3   412477.94  425.23
   6  -9   3  679.17  117.33
   6  -9   3  564.32  115.82
  -7  -3   413269.21  438.93
  -6   9  -3  722.77  127.54
  -7  -3   412752.37  288.72
  -7  -3   413227.30  198.27
  -6   9  -3  595.63  157.11
   6  -9   3  665.62  182.81
   4   6  -722437.48  435.93
  -6  -4   7  499.55   73.55
  -6  -4   7  210.44   81.65
  -4  -6   722197.44  433.77
  -4  -6   720615.79  500.54
  -6  -4   7  327.55   91.66
  -6  -4   7  348.99   72.46
  -4  -6   722671.37  356.80
  -6  -4   7  217.13   68.75
  -4  -6   723364.83  317.41
  -6  -4   7  229.91  101.92
  -4  -6   722188.30  758.53
  -4  -6   723200.71  518.56
   8   0  -1 5877.33  179.28
  -8   0   1 5963.71  384.89
  -8   0   1 6887.58  378.10
   8   0  -1 5951.49  102.34
  -8   0   1 6616.84  160.42
  -8   0   1 5867.19  376.47
   7   2  -1  172.29   76.53
  -4   0  -6 3682.99  128.50
  -4   0  -6 3298.34  229.36
  -7  -2   1  470.07  143.49
  -4   0  -6 3740.43  291.00
   4   0   6 3360.83  116.18
  -7  -2   1  104.67   88.79
   4   0   6 3570.27  234.61
  -7  -2   1  307.20  156.02
   5  -6   618623.79  578.36
  -5   6  -617720.76  301.28
  -5   6  -617335.02  586.39
   5  -6   617530.70  561.09
  -5   6  -617972.19  507.41
  -5   6  -617832.42  320.14
   2   8  -2 7167.97  281.11
  -2  -8   2 7648.94  332.14
  -2  -8   2 7892.10  261.24
  -2  -8   2 7377.07  331.59
   2   8  -510804.92  239.23
  -2  -8   511582.42  393.14
  -5   3  -6 3973.53  176.06
  -2  -8   510715.42  192.09
  -2  -8   511203.37  623.14
  -5   3  -6 4192.00  316.79
   5  -3   6 4190.36  197.32
  -2  -8   510981.48  622.13
  -2  -8   511399.45  179.28
   2   8  -511032.77  195.20
  -5   3  -6 4342.88  283.67
   5  -3   6 4044.30  284.37
  -5   3  -6 4196.04  311.54
  -7  -1   9  -50.89   70.41
  -7  -1   9   61.24   63.65
  -7  -1   9  -42.46   40.24
   4   6  -122475.33  847.09
  -4  -6   124561.26  690.24
  -7  -1   9   -8.87   54.49
  -7  -1   9  -14.12   77.83
   4   6  -121934.76  634.71
   7   1  -9  209.23   73.93
  -4  -6   123735.13  608.21
  -7  -1   9    5.03   58.49
  -9   1   4 8709.35  419.84
  -2  10  -2  877.33  115.79
   2 -10   2 1193.83   78.00
  -2  10  -2  815.37  160.52
   9  -1  -4 7931.09  116.88
   9  -1  -4 8180.90  196.64
  -9   1   4 8276.87  421.97
   2 -10   2  938.62  159.97
   2 -10   2  893.32  159.43
  -9   1   4 8590.35  133.18
   2 -10   2  790.10  179.72
  -9   1   4 8646.78  189.78
  -9   1   4 9053.56  178.74
   1  -1   9 1626.62  215.88
   1  -1   9 1603.96  107.29
  -1   1  -9 1538.42  164.75
  -1   1  -9 1568.34  173.80
  -3   4   920627.93  483.62
   3  -4  -919936.72  531.82
   8  -5   2 6021.62  223.68
  -3   4   920332.04  489.94
  -8   5  -2 6728.48  244.42
  -3   4   920478.73  795.94
   3  -4  -919569.88  473.71
   8  -5   2 6327.88  412.93
  -8   5  -2 6865.07  302.88
  -8   5  -2 6622.81  329.01
  -3   4   920837.49  524.63
  -7   6   8 7987.17  592.02
  -9   2   7 1460.32  297.76
   9  -2  -7 1655.53  144.94
   7  -6  -8 8339.64  555.64
  -9   2   7 1861.89  161.81
  -7   6   8 8294.42  343.25
  -9   2   7 1531.86  146.22
   7  -6  -8 8354.16  354.30
   9  -2  -7  -10.57  299.01
  -9   2   2 3821.57  122.62
  -9   2   2 3586.52  128.79
  -1   5  -9 3355.64  278.05
  -1   5  -9 2998.82  299.00
   9  -2  -2 3125.08  120.28
  -9   2   2 3596.68  322.84
   1  -5   9 3262.90  266.77
   9  -2  -2 3216.30  140.76
   1  -5   9 2515.93  280.38
  -7  -3   613790.94  329.39
  -6   4  -5 2313.52  148.91
  -6   4  -5 2249.54  157.30
  -7  -3   613754.60  228.67
   6  -4   5 1932.24  198.32
  -6   4  -5 2156.07  213.40
   6  -4   5 1870.10  153.67
  -7  -3   613421.55  388.28
  -7  -3   614123.92  387.51
  -7  -3   613146.38  392.05
  -6   4  -5 1890.37  146.25
  -7  -3   613477.37  281.91
   2   6   3  682.69  189.31
  -2  -6  -3  560.88  195.33
  -2  -6  -3  669.72  156.62
   2   6   3  647.98  287.91
   4 -10   3 9295.58  394.12
   4 -10   3 9037.85  246.44
  -4  10  -3 8822.06  343.12
  -4  10  -3 8583.64  196.20
   4 -10   3 8905.42  545.46
   4 -10   3 9154.22  325.78
   0   1   9 4798.94  386.58
   0   1   9 5030.26  318.28
   0  -1  -9 4758.38  198.28
   0   1   9 4990.32  205.22
   0  -1  -9 4744.76  282.08
   0   1   9 5356.11  210.60
  -6  -4   2 3227.23  272.25
  -5  10   2  513.21  128.39
   5 -10  -2  555.04  198.09
  -6  -4   2 3259.03  184.16
   6   4  -2  -40.99  101.01
  -6  -4   2 2902.21  434.09
   5 -10  -2  373.83   80.36
   5 -10  -2  510.78  100.56
   5 -10  -2  371.81  142.24
  -5  10   2  281.22  106.20
   6  -1   411621.74  460.72
  -6   1  -411740.54  423.56
  -6   1  -412769.61  720.57
   6  -1   411157.34  205.38
  -6   1  -412163.06  224.77
  -6   1  -412720.90  444.86
   8  -2   1  364.97   87.71
  -8   2  -1  318.87   94.27
   8  -2   1  319.91   95.15
  -8   2  -1  329.82  145.84
  -8   2  -1  306.51   94.84
  -8   2  -1  302.31  158.73
  -2  -4  1010698.50  388.41
   2   4 -1010015.34  368.55
   2   4 -1010366.88  453.27
  -2  -4  1010567.85  469.83
   0   9  -5   99.31  117.36
   0  -9   5  134.66  167.98
  -8  -1   7 3319.48  232.30
   0  -9   5   81.24   96.90
   0   9  -5   35.99   40.37
  -8  -1   7 3634.83  281.58
   0  -9   5   39.56   16.66
  -8  -1   7 3157.66  165.38
   0  -9   5   68.07   77.77
  -8  -1   7 3318.90  121.76
  -8  -1   7 3264.76  138.09
  -3  -7   144462.37 1063.45
  -3  -7   141529.00 1352.88
   3   7  -139357.22 1264.03
  -2   8  -7  -59.37  108.25
  -2   1  10  320.72  112.38
  -2   8  -7  -65.93  123.34
   2  -8   7   85.53  121.43
   2  -8   7   27.51  103.18
   2 -10   117289.62  358.16
   2 -10   117504.90  341.55
   2  -1 -10  312.64  126.20
  -2  10  -116074.03  404.15
   2  -1 -10  297.53  182.32
   2 -10   116876.90  482.65
  -2   1  10  219.40  112.17
  -2   1  10  250.12   68.95
   2 -10   117343.06  491.66
  -2  10  -116597.44  368.33
  -2   1  10  300.41  130.70
   1  -4  -8 9798.49  383.47
  -1   4   8 9433.88  385.16
  -1   4   8 9438.59  251.92
  -1   4   8 9466.59  227.69
   1  -4  -8 9662.03  623.28
  -1   4   8 9492.45  359.14
  -1  -6   9  223.21  110.48
   9  -7  -521541.88  620.95
   4  -9   5 1395.54  226.14
   9  -7  -520787.99  609.30
   1   6  -9   -0.63  198.08
  -9   7   521441.56  668.66
  -4   9  -5 1592.11  358.09
  -4   9  -5 1493.46   48.04
   1   6  -9  229.26  208.19
  -4   9  -5 1384.01   52.61
  -1  -6   9  -94.13  237.21
  -4   9  -5 1532.88  200.47
   4  -9   5 1345.09  172.98
  -9   7   521618.87  932.38
   9  -3  -1 2856.57   96.15
  -9   3   1 3055.40  284.19
  -9   3   1 3311.92  197.95
  -9   3   1 3032.24  222.38
   9  -3  -1 2971.59  133.35
   3  -2 -10 7976.69  259.73
  -3   2  10 8177.41  369.86
   8  -6   211921.80  395.39
  -3   4  -8   45.85   31.64
   8  -6   212342.28  476.19
  -3   2  10 8630.59  324.93
   3  -2 -10 7473.03  239.46
  -3   2  10 8492.31  608.45
  -8   6  -212848.88  599.45
  -3   2  10 7724.38  290.60
  -3   4  -8  -14.44   82.80
   3  -4   8  272.90  195.34
  -3   4  -8   -1.37   30.90
  -8   6  -213116.23  352.49
   3  -4   8    7.48   96.24
  -8   6  -213597.53  431.26
  -3   4  -8   12.15  104.25
  -8   6  -213569.04  400.85
   4  -7  -715864.29  362.82
   4  -7  -716636.77  366.88
   4  -7  -716399.53  561.52
  -4   7   716938.01  600.43
  -4   7   716835.11  375.80
  -4   7   717056.58  550.64
  -4   7   716761.82  360.48
  -9   1   610718.35  263.96
  -9   1   610227.33  374.88
  -9   1   610846.62  435.35
  -9   1   610967.35  292.63
   9  -1  -610147.18  273.30
  -7   8   6  842.99  147.31
   7  -8  -6  745.98  281.33
  -7   8   6  587.59  172.18
   7  -8  -6  633.65   70.85
   7  -8  -6  578.35   59.96
   7  -8  -6  655.88  133.43
  -4   8  -616512.07  248.71
   4  -8   616385.19  619.48
  -4   8  -616821.44  560.49
  -4   8  -617280.72  608.37
  -4   8  -616829.69  218.12
   4  -8   616868.66  533.74
   2   0   812474.14  326.61
   9  -7  -1 6093.35  311.22
   2   0   812076.29  530.14
   9  -7  -1 6340.56  289.67
  -2   0  -812983.41  493.27
   9  -7  -1 6067.00  134.03
   2   0   813119.57  358.35
  -9   7   1 6597.62  301.97
  -9   7   1 6403.87  129.28
   2   0   812610.80  308.14
  -2   0  -812155.84  341.79
  -2   0  -812562.99  335.24
  -9   7   1 7082.82  604.78
   0   3   829058.62  805.72
   0   3   829645.47  571.08
   6  -6   5 1941.09  210.11
   6  -6   5 2358.07  200.20
   0  -3  -829414.93  795.64
   0   3   829599.13  539.66
  -6   6  -5 2115.44  194.92
  -6   6  -5 2240.20  223.91
  -6   6  -5 2190.23  191.09
  -6   6  -5 2307.82  127.62
   0   3   829792.40  722.77
   0  -3  -828346.13  706.32
   2  -6  -7 5366.62  247.03
   2  -6  -7 5577.02  331.51
   9  -5  -7 7047.45  325.68
  -2   6   7 5564.93  425.71
   9  -5  -7 7048.90  322.76
  -2   6   7 5622.43  154.45
  -9   5   7 7111.01  566.61
   8  -9  -2 2467.18   83.28
  -2   6   7 5564.11  316.20
  -8   9   2 2309.18  217.98
  -9   5   7 7711.55  335.56
  -2   6   7 5445.72  168.93
   8  -9  -2 2441.56  335.27
  -8   9   2 2518.28  233.40
   8  -9  -2 2660.33  120.27
   8  -9  -2 2643.45  240.19
  -3  -5  -310321.55  491.73
   3   5   3 9603.56  762.73
   3   5   3 9242.53  659.07
  -3  -5  -310166.12  417.41
   7  -2   3  190.36   52.65
  -7   2  -3  276.59   93.69
   7  -2   3  131.66  115.40
  -7   2  -3  204.13  129.41
  -7   2  -3  -10.16  190.28
  -7   2  -3  265.49  122.40
  -6  -1  10  566.85  257.31
   6 -10   1 6322.98  342.73
   6   1 -10  327.81   58.76
  -6  -1  10  528.64  146.02
   6 -10   1 6108.78  216.60
  -6  -1  10  489.01   48.07
   6   1 -10  442.09   83.71
  -6  10  -1 6212.22  368.46
   6 -10   1 5894.11  334.75
  -6  10  -1 6164.77  534.86
  -6  -1  10  390.22   87.05
   6 -10   1 6040.51  190.06
  -3  10   1 7492.07  322.54
   3 -10  -1 7595.65  282.90
   3 -10  -1 7787.84  446.59
  -3  10   1 8141.16  238.90
   3 -10  -1 7880.02  467.21
   3 -10  -1 7994.57  201.37
  -8   8  -1 8959.13  388.18
   8  -8   1 8724.02  289.90
   8  -8   1 9264.67  252.09
  -8   8  -1 9556.27  560.77
   4  -6   7 8516.63  403.82
  -4   6  -7 8611.59  140.16
   4  -6   7 8660.79  410.62
  -2  10  -3  155.35   52.44
   2 -10   3  239.17   42.68
  -8   8  -1 9397.63  247.55
   2 -10   3  220.76  118.33
   2 -10   3  157.53   89.76
   2 -10   3  269.84  115.38
  -4   6  -7 9234.47  368.13
  -4   6  -7 8739.48  437.11
  -2  10  -3  246.88   91.09
  -4   6  -7 8566.90  147.68
   8  -8   1 9373.91  421.24
   2   2   740703.08  700.38
   2   2   741873.14  983.29
   2   2   740376.83 1115.39
  -2  -2  -740166.83  960.81
  -2  -2  -741468.71 1102.22
   2   2   739606.51  666.43
  -4   6   8 5212.27  237.96
  -4   6   8 5672.60  302.34
  -4   6   8 5241.95  212.73
   4  -6  -8 5252.21  200.48
  -4   6   8 5779.58  188.88
   4  -6  -8 5155.46  311.88
   6 -10  -2 6011.95  172.05
   6 -10  -2 6067.30  269.62
  -6  10   2 5879.49  275.17
   6 -10  -2 5809.13  168.47
  -6  10   2 5792.25  291.23
   6 -10  -2 5863.75  250.22
  -3   3  -826012.68  754.87
  -3   3  -825594.43  630.77
  -3   3  -825535.19  582.88
   3  -3   824840.31  717.53
   3  -3   824799.27  612.58
  -3   3  -824902.35  439.15
  -6   5   9  947.85  153.87
  -8   4  -228484.55  761.66
  -6   5   9  832.57  254.54
  -8   4  -228133.95  569.85
   8  -4   225617.24  578.81
  -8   4  -228757.76  627.91
  -8   4  -227907.59  715.08
   6  -5  -9  648.97   93.81
   8  -4   225788.51  542.59
  -6   5   9  811.81   83.57
   6  -5  -9  777.19  248.39
  -6   5   9  949.56  167.10
   5  -3 -10 4161.27  204.51
  -8   2   9 4008.17  265.84
   8  -2  -9 3244.16  191.70
  -5   3  10 4512.81  322.25
  -5   3  10 4856.38  150.13
  -8   2   9 4397.62  258.29
  -8   2   9 3882.50  182.19
  -5   3  10 4704.49  280.68
  -5   3  10 5257.51  203.58
   5  -3 -10 4341.39  142.24
  -3  -4  1025447.89  744.33
   3   4 -1025842.40  610.49
   0   6  -9 7531.49  392.27
   0   6  -9 7703.01  394.27
  -3  -4  1025313.34  894.02
   3   4 -1027162.85  779.82
   0  -6   9 7634.92  410.06
   0  -6   9 6997.36  357.21
  -3  -4  1026371.95  758.88
   3   2   6 1922.33  362.77
   3   2   6 1895.24  250.18
  -3  -2  -6 1816.88  215.99
  -8   9   1  492.76  252.01
   3   2   6 1662.83   69.17
   3   2   6 1638.03  108.42
   8  -9  -1  521.10   90.93
  -8   9   1  331.56  128.66
   8  -9  -1  492.00   62.26
   8  -9  -1  471.03  158.95
   8  -9  -1  570.52  115.26
  -3  -2  -6 1718.07  246.82
  -5  -5   1   52.17   93.99
  -5  -5   1  188.54  125.51
   5   5  -1  138.03  211.80
   5   5  -1   65.92  155.40
   1   8   145347.70 1038.15
  -5   5   918240.57  451.40
   5  -5  -916878.76  338.69
  -2   7   6   76.33   42.54
  -2   7   6   11.69  108.75
  -5   5   918620.34  531.66
  -5   5   918196.63  497.72
  -1  -8  -149334.33 1179.07
  -5   5   919116.28  784.80
   2  -7  -6   56.82   70.36
  -2   7   6   -7.47   66.57
   2  -7  -6  -71.35  104.50
   1   8   145272.84 1132.40
  -1  -8  -147227.82 1120.46
   5  -5  -917334.30  795.32
  -1  -7  -3   -0.76  153.97
   0  -9   0 6409.96  319.85
   1   7   3  431.38  285.74
  -5  -4   9  -36.96   89.99
  -5  -4   9   44.02   67.79
  -5  -4   9    8.37   46.95
   0   9   0 6762.59  306.54
   0   9   0 6602.27  119.61
   0   9   0 6881.58  503.18
  -5  -4   9   -0.28   76.44
   0  -9   0 6905.40  142.35
   1   7   3  389.79  139.09
  -1  -7  -3  375.58  125.10
   0  -9   0 7012.73  277.82
   0  -9   0 6660.40  319.18
  -4  10   2 3551.95  177.02
   4 -10  -2 3084.77  171.58
  -3   5  -816317.82  607.87
   3  -5   816966.86  598.67
   4 -10  -2 3241.39  206.94
   4 -10  -2 3137.71  245.84
  -3   5  -816725.06  234.78
   4 -10  -2 3308.71  171.68
  -3   5  -816530.47  241.35
  -3   5  -816995.66  813.07
   3  -5   816556.83  560.23
  -4  10   2 3607.62  411.58
  -8   3   9 6884.59  338.41
  -8   3   9 6538.42  412.70
   5   4   1  -21.83  136.78
  -8   3   9 6741.59  336.87
  -5  -4  -1   26.55  103.58
  -5  -4  -1  207.88  139.59
   5   4   1   29.95  108.18
   8  -3  -9 6207.03  266.76
  -7  -3   325306.50  516.73
  -8   9   3   80.04  102.01
  -7  -3   325014.67  735.38
  -1  -4  10   40.51  135.27
  -7  -3   323395.75  674.70
   1   4 -10  216.82  135.81
  -1  -4  10  248.32  117.62
   1   4 -10  233.94  148.62
  -8   9   3   26.17  100.65
   8  -9  -3   93.50   30.76
   8  -9  -3  133.58  100.31
   8  -9  -3   22.05  113.27
   7   3  -322531.27  446.60
   8  -9  -3  116.62   26.81
   9  -5   0 2962.69  190.68
  -9   5   0 4173.30  266.35
  -9   5   0 3667.75  322.79
  -9   5   0 3676.77  138.00
   9  -1  -3 4028.53  123.95
   9  -5   0 3248.98  119.56
  -9   1   3 4697.84  124.65
  -9   1   3 4767.49  145.88
  -9   1   3 4496.59  342.40
  -9   1   3 4671.45  344.00
   9  -1  -3 4284.50   95.50
  -2   9  -6 2152.43  213.51
   2  -9   6 1788.02  202.22
  -2  -6   9 4110.21  407.91
  -2  -6   9 3994.33  294.01
   2  -9   6 1719.82  235.11
   2   6  -9 3683.15  268.88
   2  -9   6 1749.99  219.53
   2   6  -9 3692.59  240.28
  -2   9  -6 1802.79  238.55
  -7   8  -3 6549.19  374.09
   7  -8   3 7138.66  270.76
   7  -8   3 6812.89  375.47
  -7   8  -3 7297.70  292.16
  -7   8  -3 7403.34  219.50
  -7   8  -3 7040.90  344.89
  -6   3  10 3230.32  172.15
  -6   3  10 3640.98  285.52
  -6   3  10 3528.96  261.67
  -6   3  10 3326.31   90.91
   6  -3 -10 3068.61   87.27
  -2   5   8 2594.52  374.32
   2  -5  -8 2784.74  210.94
  -2   5   8 2327.90  326.91
  -2   5   8 2567.09  242.20
   2  -5  -8 2985.79  242.68
  -2   5   8 2389.42  124.54
  -1   9  -6   -2.21   74.47
   1  -9   6  656.33  176.82
   1  -9   6 1020.03  171.23
  -2   9   3 2576.61  192.88
  -2   9   3 2834.69  246.33
  -2   9   3 3017.99  172.95
   2  -9  -3 2844.23   86.03
   2  -9  -3 2685.36  426.29
   2  -9  -3 2756.00  337.74
   1   0 -10   43.54  133.91
   1   0 -10  636.61   70.61
  -7   9  -215450.19  579.78
  -1   0  10  271.02  107.84
   4   3   4 7898.94  396.15
  -4  -3  -4 7132.47  426.88
  -4  -3  -4 7849.21  613.53
   4   3   4 7749.20  426.67
  -1   0  10  -84.17  123.07
   7  -9   214402.58  546.40
  -7   9  -214930.41  596.51
  -1   0  10  360.85  122.51
   7  -9   214604.77  923.32
  -7   9  -215627.10  843.47
   7  -9   214883.10  327.01
  -4   8   6 3304.24  277.19
   4  -8  -6 2966.70  140.15
  -4   8   6 3022.96  160.28
   4  -8  -6 2891.39  151.79
   4  -8  -6 3371.92  276.29
  -4   8   6 3362.70  150.65
   6  -3   5 1219.52  181.99
   6  -3   5 1175.19  195.06
  -6   3  -5 1492.76  120.61
  -6   3  -5 1508.43  193.51
  -6   3  -5 1533.79  144.74
  -4   2  -710031.19  693.35
   4  -2   7 8426.67  701.98
  -4   2  -7 9263.09  273.76
   4  -2   7 9035.48  279.65
  -1  -8   7 4836.99  280.76
  -4   2  -7 9679.92  284.62
   4  -2   7 9377.32  283.64
  -4   2  -7 9718.87  276.81
   1   8  -7 4875.87  245.12
  -1  -8   7 4959.26  286.72
  -1  -8   7 4969.39  279.44
  -5   0  -534062.98  856.85
  -9   6   0  901.99  134.84
  -5   0  -534857.61  915.61
  -5   0  -534223.27  555.33
  -6  -3   9  114.17   67.21
  -6  -3   9  -16.01   46.19
  -9   6   0  785.94  166.53
  -6  -3   9   63.86   43.14
  -9   6   0  714.10   78.73
   9  -6   0   -9.02  125.83
   9  -6   0  609.25   65.48
  -5   0  -535073.46  874.61
   5   0   531730.18  607.41
  -9   6   0  813.14  178.21
  -6  -3   9    3.49   74.70
  -6  -3   9   14.85   86.48
  -6  -3   9   94.04   49.55
   5   0   533206.68  846.53
   5   0   533383.99  947.34
   2 -10   0 5569.51  276.44
  -2  10   0 5958.68  189.07
   2 -10   0 5958.57  153.69
   2 -10   0 6292.52  222.74
  -2  10   0 6078.44  264.19
   2 -10   0 6060.87  475.07
  -8   1   9  142.49   89.01
  -8   1   9    6.69   56.26
   8  -1  -9  178.36   84.73
  -8   1   9   -9.04   85.57
  -7  -3   7 3928.39  150.71
   4  -3 -10  555.24   91.65
   3   7  -7 5602.69  204.76
  -7  -3   7 3590.96  191.68
  -7  -3   7 4058.90  130.77
  -3  -7   7 5649.61  243.81
  -7  -3   7 4295.18  175.89
  -4   3  10  746.99  167.61
  -3  -7   7 5739.57  270.59
  -4   3  10  661.58  102.01
  -4   3  10 1042.82  248.28
   4  -3 -10  761.05  114.94
  -3  -7   7 6106.97  269.63
  -7  -3   7 4137.39  125.53
  -7  -3   7 4047.56  128.18
  -9   8   3 7169.61  349.65
   9  -8  -3 7103.89  325.36
   4   5  -9   14.09   76.72
  -4  -5   9  295.87   81.84
  -4  -5   9  152.53   86.81
   9  -8  -3 6992.68  350.89
  -4  -5   9  140.42  116.45
  -4  -5   9  125.00  105.06
  -9   8   3 7490.59  373.56
  -8   7  -2  845.49  130.41
  -8   7  -2  787.10  201.97
   2   7  -812443.35  400.46
  -2  -7   811744.55  700.80
  -2  -7   812771.52  418.82
  -2  -7   812921.05  410.93
  -8   7  -2  944.34  143.99
   8  -7   2  833.34  167.04
   8  -7   2  899.82  185.22
  -8   7  -2  869.20  155.25
   6  -9  -5 7735.03  360.60
  -6   9   5 8002.55  302.19
   6  -9  -5 7644.93  166.21
   6  -9  -5 7497.52  167.97
  -6   9   5 8102.05  662.57
   6  -9  -5 7856.99  278.37
   8   1  -2 1661.09  103.66
  -8  -1   2 1496.39  125.80
  -8  -1   2 1952.26  234.23
  -1  -2  -814449.18  436.97
  -1  -2  -814552.39  531.69
   1   2   814674.55  331.95
   1   2   815851.01  925.99
   1   2   815483.54  452.82
   1   2   814670.58  437.79
   2   8  -116168.95  780.77
  -2  -8   117405.12  528.73
  -2  -8   117328.16  836.67
   3 -10   4 6060.39  294.68
   3 -10   4 5580.84  517.07
   3 -10   4 5882.63  101.54
   2   8  -116135.98  488.34
  -3  10  -4 5469.71  119.01
  -2  -8   117310.40  493.01
   3 -10   4 5507.81  328.00
  -3  10  -4 5999.42  286.85
   2  -7   8 8446.03  403.23
  -2   7  -8 8722.58  407.38
   2  -7   8 8898.55  454.27
  -2   7  -8 8810.05  469.09
  -2  -8   6 4485.83  203.20
  -2  -8   6 3700.28  255.49
  -2  -8   6 4044.78  255.65
   2   8  -6 4197.98  172.86
  -9   8   2 1486.81  193.98
   7  -5   425536.44  604.62
  -9   8   2 1289.08  206.27
   9  -8  -2 1283.39   87.99
  -7   5  -426475.45  607.47
   9  -8  -2 1031.90  186.73
  -7   5  -427069.16  677.09
  -7   5  -426222.17  593.21
  -7   5  -427688.11  631.83
   9  -8  -2  995.22   40.13
   7  -5   425713.50  626.65
   9  -8  -2 1055.90  281.15
   5  -7   6  753.87  164.38
   5 -10   316407.01  444.46
  -5  10  -314960.14  302.14
   5 -10   316633.12  279.44
   5  -7   6  560.17  180.47
  -5  10  -316262.79  823.76
  -5   7  -6  565.76  262.55
   5 -10   316359.14  459.84
  -5   7  -6  526.33   53.66
  -5  10  -316789.67  472.48
   5 -10   316514.33  587.33
  -5   7  -6  374.99  169.12
  -5   7  -6  536.38   49.20
  -9   1   719322.11  507.51
  -7   1  10 2828.42  260.13
  -7   1  10 3071.00  259.12
  -9   1   720008.56  916.90
  -9   1   719908.25  635.12
   7  -1 -10 2725.80  243.13
  -7   1  10 3097.88  127.84
  -9   1   720285.08  482.89
  -8   7   718735.13  945.36
   7  -5  -9   43.47  167.05
  -7   5   9  -80.53   86.42
  -9   4   012413.13  409.52
   8  -7  -719349.52  927.73
  -9   4   012291.44  308.74
   7  -5  -9   68.34  100.89
  -9   4   013258.05  489.43
   9  -4   012051.99  463.13
   9  -4   011866.84  252.53
  -7   5   9   81.98  130.64
   8  -7  -718418.38  561.15
  -9   4   012649.71  541.61
  -8   7   718969.63  577.30
  -7   5   9   30.74   90.51
  -5   2  -6 4784.47  225.02
  -5   2  -6 5649.83  238.52
   1  -9  -2 1585.58  181.87
  -1   9   2 1704.66  120.09
   1  -9  -2 1628.07  187.39
  -5   2  -6 5444.50  186.65
   5  -2   6 5103.85  554.38
  -1   9   2 1579.25  209.47
   1  -9  -2 1599.14   52.45
  -1   9   2 2101.97  183.22
   5  -2   6 5363.15  303.24
  -5   2  -6 5076.42  320.32
   4   4   3 4467.39  358.86
   4   4   3 4629.79  521.36
   3  -9  -4 2246.13  100.14
  -4  -4  -3 4546.80  491.16
   3  -9  -4 2897.71  282.86
   3  -9  -4 2563.72  246.89
  -3   9   4 2387.58  435.80
  -4  -4  -3 3726.78  359.61
  -3   9   4 2337.63  116.17
  -3   9   4 2325.66  163.40
  -7   2  10 4177.45  171.84
   7  -2 -10 3511.91  297.01
  -7   2  10 4054.52  304.13
  -7   2  10 4864.03  505.70
   8  -9   0  482.16  174.84
   8  -9   0  596.53   67.89
  -8   9   0  601.43  164.30
   8  -9   0  622.90  192.97
   8  -9   0  632.39   77.67
  -8   9   0  510.28  233.72
  -5   9   5  139.85   88.21
  -5   9   5  264.89  138.27
   5  -9  -5  -49.27   92.31
   5  -9  -5   54.62   76.47
  -5   9   5  233.96   61.19
   5  -9  -5    9.44   54.77
  -6   7  -516418.83  428.98
   6  -7   516185.07  500.57
  -6   7  -516176.87  509.40
  -6   7  -516222.92  530.97
  -6   7  -515694.75  322.67
   6  -7   516075.05  880.15
   3  -2   8 2276.79  169.59
   3  -2   8 2229.75  222.77
   3  -2   8 2359.88  257.73
  -3   2  -8 2438.14  208.17
  -3   2  -8 2280.67  249.55
  -3   2  -8 2143.38  298.66
  -3   2  -8 1975.10  210.07
  -5  -5   812579.52  373.52
  -5  -5   812854.53  180.80
  -5  -5   813574.30  320.25
  -5  -5   813801.20  333.62
  -5  -5   813575.31  336.80
  -5  -5   813546.72  269.84
   7 -10  -113088.79  738.39
   7 -10  -112363.07  255.92
   7 -10  -112889.99  357.11
  -7  10   113205.15  468.15
  -7  10   112168.23  406.47
   7 -10  -112373.95  377.29
   2 -10   4 2149.29  222.53
  -7   6  -4  698.89  133.07
  -2  10  -4 2041.56  122.69
   2 -10   4 2140.04   99.83
  -2  10  -4 2278.30  183.56
  -7   6  -4  577.57   99.32
   7  -6   4  723.01  150.61
   7  -6   4  723.05  130.09
   2 -10   4 2676.45  195.66
  -7   6  -4  563.08  110.79
   2 -10   4 2072.03  216.24
   4   2   5 7295.44  375.90
  -9   3   8 7865.89  328.59
   9  -3  -8 7583.79  327.88
  -4  -2  -5 7891.41  407.58
  -9   3   8 8421.91  511.39
  -4  -2  -5 7827.65  423.25
   9  -3  -8 7999.19  331.28
   4   2   5 7397.21  420.61
  -9   3   8 8114.83  350.12
  -5  -3  10  390.78  131.20
  -1  -9   3  663.54  151.96
  -5  -3  10  604.95  145.21
  -5  -3  10  476.53   91.51
   1   9  -3  538.35   91.52
  -1  -9   3  534.43   50.21
   1   9  -3  563.48   58.55
   5   3 -10  384.27   76.34
  -5  -3  10  352.40  144.06
  -1  -9   3  674.17  149.41
  -1   8   4  430.40   44.48
  -1   8   4  553.98  130.27
   1  -8  -4  492.72  120.07
  -1   8   4  481.89  162.02
   1  -8  -4    8.65  161.46
  -1   8   4  431.64   60.16
  -8   4   9 8394.33  304.03
   8  -4  -9 8061.09  320.83
  -8   4   9 7946.38  391.22
   8  -4  -9 7778.49  372.64
  -8   4   9 8205.93  386.34
   9  -8  -4  623.97  160.97
   9  -8  -4  739.20  166.77
  -9   8   4  767.64  185.08
  -7  -1  -1 7730.06  435.43
   7   1   1 7571.07  291.37
  -7  -1  -1 7713.39  318.28
  -9   8   4  746.92  292.91
  -7  -1  -1 8091.71  438.42
   0  -3  1023677.84  683.12
   0   3 -1024079.62  714.29
   0   3 -1023379.10  727.93
   0  -3  1024375.77  706.42
   6 -10   2 3835.30  339.77
   6 -10   2 4061.19  139.12
  -6  10  -2 4436.19  217.42
   6 -10   2 4184.20  196.15
  -6  10  -2 3970.26  172.55
   6 -10   2 4109.80  550.71
  -6  10  -2 4298.79  290.61
   4  -5  -933095.60 1182.28
   4  -5  -931911.38  658.88
  -4   5   933916.40 1014.60
  -4   5   933677.59  662.33
  -4   5   934429.09 1155.68
  -4   5   933504.29  788.08
   3  -9   614783.21  947.08
   7   0   2   60.51  154.06
  -7   0  -2   -3.52   87.75
   3  -9   614896.24  792.60
  -7   0  -2  102.96  192.06
  -3   9  -614952.25  563.18
  -7   0  -2   43.10  110.94
  -3   9  -615495.49  517.68
   8  -3   217903.87  466.75
  -1  -9   4 4494.49  114.62
  -8   3  -219268.38  517.86
   1   9  -4 4298.52  230.43
   8  -3   217710.08  363.06
  -1  -9   4 4521.92  139.75
  -8   3  -219085.21  623.05
  -8   3  -218980.79  583.27
  -1  -9   4 4480.86  278.45
  -8   3  -218968.77  470.79
  -1  -9   4 4428.74  275.91
   1   9  -4 4460.75  146.38
  -7   4  -4    5.78  164.82
  -7   4  -4  136.75   69.93
  -7   4  -4   78.36  147.56
  -7   4  -4   19.29   97.69
   7  -4   4   83.04   74.51
   7  -4   4  239.86  167.57
  -6  -4   8   88.21   80.69
  -6  -4   8   85.38   54.03
  -6  -4   8  209.28   59.63
  -6  -4   8   30.61   59.51
  -6  -4   8  129.74  106.35
  -6  -4   8   50.85   48.09
  -8   9   4 3081.12  268.37
   8  -9  -4 2554.10   96.78
   8  -9  -4 2915.73  229.53
   8  -9  -4 2457.31  405.02
   8  -9  -4 2469.14   92.61
  -8   9   4 3185.25  250.86
   0   2 -10 6702.35  355.18
   0  -2  10 7128.14  139.69
   0   2 -10 6678.84  130.32
   0  -2  10 7220.73  557.31
   0  -2  10 6225.86  347.73
   0   2 -10 6638.94  342.85
   1   0   9 5153.15  216.70
   1   0   9 5327.30  206.67
  -1   0  -9 4985.78  312.16
   1   0   9 4574.37  590.52
   1   0   9 5344.20  245.12
  -1   0  -9 5082.04  315.70
  -1   0  -9 4877.17  239.18
  -5  10   3 1583.47  149.74
  -8   6   8 1088.44  187.61
   8  -6  -8 1175.68  183.05
  -5  10   3 1453.44  201.83
   5 -10  -3 1463.86  109.65
   5 -10  -3 1295.16  175.55
  -8   6   8 1062.89  315.04
   8  -6  -8  965.15  182.41
   9  -7  -619061.59  587.51
  -9   7   620000.66  943.91
   9  -7  -619430.71  604.40
  -9   7   619972.20  638.61
   6 -10  -3 7954.91  303.55
  -3   6  -8  165.82  135.68
  -3   8  -711293.25  522.52
  -3   6  -8  397.42  163.63
   9  -6  -7  590.56  290.07
   9  -4  -8  668.76  254.92
  -6  10   3 7914.10  527.60
  -6  10   3 8493.25  373.14
   6 -10  -3 8091.27  297.67
  -9   4   8  500.70  264.50
  -9   6   7  742.60  164.49
   3  -8   710623.53  441.69
   3  -6   8  228.97  146.58
   9  -4  -8  613.97  153.47
   3  -6   8  183.59  253.49
  -9   4   8  622.57  148.96
   3  -8   711259.58  515.96
  -9   6   7  682.21  167.98
   9  -6  -7  726.29  164.67
  -9   4   8  583.12  138.57
  -3   8  -711515.84  472.89
   6 -10  -3 8087.51  331.28
   6 -10  -3 7768.29  300.07
   7 -10  -237529.57  828.19
   1  -6   920865.71  669.47
  -1   6  -921386.13  701.86
   7 -10  -236572.16  901.58
  -7  10   238377.01  927.81
   7 -10  -235994.87  754.39
   7 -10  -236710.32  622.09
  -7  10   237211.39 1272.18
  -1   6  -920965.51 1173.12
   1  -6   920641.52  720.33
  -7   9   5   50.61  110.72
   7  -9  -5  115.67  152.05
   7  -9  -5    3.29   50.91
   7  -9  -5   76.10   50.43
   7  -9  -5  -77.36  174.93
  -7   9   5   41.71   93.34
   7 -10   0 2268.93  242.37
   7 -10   0 2230.03  122.15
   7 -10   0 2660.53  256.61
  -7  10   0 3251.92  250.31
   7 -10   0 2306.69  121.40
  -7  10   0 2214.67  188.07
   4 -10   4  206.24  133.92
   4 -10   4  495.57  124.72
  -4  -4  10 2443.65  155.67
   4 -10   4  402.13   38.98
  -4  10  -4  455.78  146.71
  -8  -1   8 2299.37  127.62
  -8  -1   8 2258.38  170.62
  -4  10  -4  465.98  147.15
  -4  -4  10 2423.66  234.67
   4   4 -10 2871.01  166.36
  -8  -1   8 2003.22  139.83
   4   4 -10 2469.63  242.54
  -4  10  -4  432.91   85.20
  -8  -1   8 2155.74   59.25
  -8  -1   8 2160.85  112.43
   4 -10   4  456.67  282.71
  -8  -1   8 1547.73  297.47
  -4  -4  10 2134.70  276.94
   6   2   213147.24  918.83
   6   2   213434.08  451.22
  -6  -2  -214787.91  952.69
  -6  -2  -214021.93  742.58
  -6  -2  -214250.77  595.37
  -9   7   0 3816.15  409.70
  -8   8   6 6861.48  345.25
   9  -7   0 2737.95  114.49
   9  -7   0 2981.46  237.30
  -9   7   0 3314.03  271.03
  -9   7   0 3350.20  203.98
   9  -7   0 3093.47  367.04
  -8   8   6 7049.63  379.93
  -9   7   0 3080.68  237.85
   8  -8  -6 6917.78  598.52
   8  -8  -6 6381.08  321.46
  -2   8   529506.55  489.27
  -2   8   529262.84  566.87
   2  -8  -529976.76  887.51
  -2   8   529140.47  981.14
   2  -8  -529806.65  689.55
  -2   8   530258.59  855.64
   1 -10   2   77.21   74.03
   1 -10   2   61.09   96.43
  -1  10  -2   69.92   59.66
   1 -10   2   66.87   93.78
   1 -10   2    3.70   47.04
  -1  10  -2    5.98   52.71
  -9   2   8   86.69   97.17
   9  -2  -8  -19.68   80.14
  -9   2   8  111.88   85.60
  -9   2   8   86.83   89.73
  -6  -1  -3 1830.73  232.30
  -9   2   1 9146.79  854.57
  -9   2   110121.50  257.17
  -6  -1  -3 2429.19  438.61
  -6  -1  -3 2018.25  252.52
   6   1   3 1958.34  252.19
   9  -2  -1 9427.76  202.32
  -9   2   110076.16  469.86
   9  -2  -1 9518.05  201.55
  -9   2   110553.77  315.44
   6   1   3 1605.94  211.09
  -1  -9   2  531.99   93.01
  -7   0  10 6456.75  140.28
   1   9  -2  377.30   66.88
   1   9  -2  568.98  106.21
  -1  -9   2  344.03  148.06
  -1  -9   2  462.50  146.92
  -7   0  10 6633.17  153.86
   7   0 -10 6203.23  197.42
  -7   0  10 6868.68  576.09
  -7   0  10 7036.30  167.44
  -7   0  10 6754.85  343.65
   0  -9   6 1112.55  180.43
   0   9  -6 1298.20  152.58
   0  -9   6 1212.29  176.60
   0  -9   6  -32.01  276.02
  -6  -2  10 2953.06  142.75
  -6  -2  10 3390.26  256.19
  -2   4  -9  876.84  212.04
  -6  -2  10 3045.61  171.04
  -6  -2  10 3400.05   79.47
  -2   4  -9  945.79   45.18
  -6  -2  10 3378.60  245.20
  -2   4  -9 1025.25  179.33
  -2   4  -9  962.55   75.63
  -6  -2  10 3318.79  107.74
   2  -4   9  936.89  177.53
   2  -4   9  879.90  189.41
   1 -10   3 7416.18  157.78
   1 -10   3 7550.06  581.76
   1 -10   3 7530.08  214.44
   1 -10   3 7249.11  347.44
  -1  10  -3 6971.49  188.14
  -1  10  -3 6961.29  225.57
  -4   7  -7 3344.14  329.03
  -8  -2   512094.33  236.03
   4  -7   7 3229.54  284.52
  -8  -2   511246.97  628.73
  -8  -2   511194.20  224.63
  -8  -2   511018.52  719.43
  -8  -2   511323.53  177.40
   4  -7   7 3179.14  298.54
  -8  -2   511040.78  314.01
  -4   7  -7 3869.27  278.61
   2  -3   9  220.95  143.46
   0   8   3 4259.29  329.50
   2  -3   9  296.66  207.68
  -9   8   1  -99.46  155.15
   9  -8  -1   10.34   82.81
   0  -8  -3 4174.17  266.49
  -9   8   1    9.77   49.31
  -2   3  -9  117.90   42.52
   9  -8  -1   36.90   35.92
   0   8   3 4582.95  275.42
  -9   8   1   47.60   92.91
   9  -8  -1   14.83   50.95
   6   4  -1 3498.38  292.80
   9  -8  -1  172.82  106.05
  -6  -4   1 3458.32  312.22
   0  -8  -3 4079.54  322.74
   6   4  -1 3265.80  201.10
  -2   3  -9  114.74  202.61
  -2   3  -9  407.25  137.90
  -6  -4   1 3573.00  291.71
  -6  -4   1 3573.94  216.85
  -2   3  -9  177.28   41.79
  -4  -6   841697.18  860.53
  -4  -6   842846.17 1197.20
   4   6  -842199.03  865.15
  -4  -6   840094.56  905.96
  -4  -6   843544.48 1188.53
   3   6   2  657.72  207.93
  -3  -6  -2  636.79  165.29
  -3  -6  -2  708.13  209.06
   3   6   2  843.82  305.29
   3 -10  -239431.35  861.95
   3 -10  -241382.43  924.30
   3 -10  -239693.29  693.33
   3 -10  -239275.58  849.09
  -3  10   240632.40  768.19
  -3  10   238743.94  959.65
  -7   3  10   43.87   67.53
 -10   5   418210.57  676.57
  10  -5  -417328.12  471.27
   7  -3 -10   89.40   80.83
 -10   5   418667.07  482.35
  10  -5  -418280.64  939.47
  -7   3  10   84.32  107.00
  -7   3  10  -16.52  202.52
  -7  -2   9 4210.98  116.78
  -7  -2   9 4318.77  104.24
  -7  -2   9 4337.60  129.09
  -7  -2   9 3968.05  242.77
  -7  -2   9 3965.62  168.66
  -7  -2   9 4306.41  213.54
  -9   0   5 9135.18  340.80
   0   4 -10 1328.76  219.10
  -7  -3   211889.56  477.77
   0   4 -10  610.62  369.96
  -9   0   5 9244.98  289.98
  -7  -3   211983.91  521.08
   7   3  -211326.49  468.85
  -9   0   5 9447.37  211.11
  -9   0   5 8860.36  401.14
   0  -4  10 1124.98  202.70
   0  -4  10 1300.40  216.54
  -9   0   5 9643.76  176.90
  -9   0   5 9211.99  439.52
  -7  -3   212062.97  335.79
   4   6   0 9947.86  377.63
  -4  -6   010304.52  785.10
  -4  -6   010322.90  396.18
   4   6   0 9087.15  718.74
   2   5 -10 8211.93  421.35
  -2  -5  10 8654.08  425.22
   2   5 -10 8001.98  354.80
  -2  -5  10 8103.33  570.91
  -5  -6   5  381.78   87.95
  -5  -6   5  316.21  134.96
  -5  -6   5  379.36  103.84
  -5  -6   5  261.61  104.56
   1  -3  -9 1272.42  145.53
  -1   3   9    7.28  101.92
  -1   3   9  402.22  132.41
   3   7   0 8967.39  374.84
   3   7   0 9467.66  433.70
  -1   3   9  358.92   87.75
  -3  -7   010248.10  444.01
  -3  -7   0 9568.15  398.76
  -1   3   9  -10.77  129.96
   1  -3  -9  -18.77  127.66
  -8   0   9 3325.86  364.76
  -8   0   9 3533.21  235.64
  -8  -2   652746.35 1024.67
  -9   1   2   61.47  109.16
  -8  -2   652601.23 1001.49
  -9   1   2  -10.63   45.90
  -8   0   9 3922.00  333.79
  -9   1   2  -46.42  102.82
   9  -1  -2  145.19   41.03
  -8  -2   654459.89 1047.28
  -8  -2   651536.42 1239.96
  -8  -2   650822.18 1144.68
  -8   0   9 3329.42  144.95
   9  -1  -2    0.03   38.84
  -8  -2   651770.65 1103.67
   8   0  -9 3386.24  313.47
   2  -2 -1026684.19  584.86
  -2   2  1029078.89  747.44
  -2   2  1027950.82  714.18
  -2   2  1028538.50  681.51
   2  -2 -1027660.10  651.99
  -2   2  1029276.04  604.49
  -5  -6   4 7760.71  283.74
  -5  -6   4 8297.82  496.17
  -5  -6   4 8317.38  299.51
  -5  -6   4 8407.59  305.01
  -3   7   7 3371.97  137.06
   3  -7  -7 3870.55  201.65
  -3   7   7 3247.52  285.07
  -3   7   7 3406.39  153.89
   3  -7  -7 3444.10  306.17
  -3   7   7 3642.98  311.93
 -10   4   4 1843.33  478.17
 -10   4   4 1973.81  260.56
  10  -4  -4 1999.61  238.26
 -10   4   4 2177.17  154.91
  10  -4  -4 1756.39  153.39
 -10   4   5 4958.10  593.51
 -10   4   5 5249.03  355.25
  10  -4  -5 4779.44  392.60
   2   7   2 9211.58  468.52
  10  -4  -5 5099.35  323.55
 -10   4   5 5210.87  387.44
  -2  -7  -210013.35  811.03
  -2  -7  -2 9637.23  686.14
   2   7   2 9289.22  666.77
 -10   5   5 4478.01  335.16
  -4  -1  1114149.55  282.62
   4   1 -1113134.72  220.74
  10  -5  -5 3658.70  399.45
   4   1 -1113102.49  343.63
  10  -5  -5 4182.55  496.99
   1   5 -1012007.49  523.22
  -1  -5  1012964.44  530.67
  -4  -1  1113588.39  569.65
   1   5 -1012455.33  470.31
  -4  -1  1113980.37  540.07
 -10   5   5 4401.46  242.32
  -4  -1  1113674.66  549.39
  -1  -5  1012116.89  466.22
  -3  -6   9 9164.01  653.36
   3   6  -9 9979.20  353.15
  -3  -6   9 9778.00  545.45
   3   6  -910120.15  380.62
  -3  -6   9 9633.07  330.66
   8   2  -4 1462.07  149.20
  -8  -2   4 1671.44  101.73
  -8  -2   4 1493.86  231.00
  -8   0   018348.58  681.30
  -8   0   018657.16  666.15
   8   0   017227.91  396.86
  -8   0   019027.66  713.77
  -8  -2   4 1412.31  206.08
  -8  -2   4 1413.98  162.54
   7  -7   4 1796.04  338.57
  -7   7  -4 3022.47  225.33
  -9   0   610651.51  238.51
  -7   7  -4 2559.09  258.24
  -9   0   611482.95  282.12
  -9   0   611022.27  447.73
  -7   7  -4 2526.79  224.03
   7  -7   4 2563.98  233.98
  -7   7  -4 2729.64  146.19
  -9   0   610355.72  392.95
  -4   0  11 5381.11  342.82
   4   0 -11 5004.63  143.14
   4   0 -11 5335.50  208.57
  -4   0  11 5211.48  225.53
  -4   0  11 5199.97  379.82
  -4   0  11 5705.81  133.72
  -7  -2   0  -60.16   80.44
   7   2   0 -101.32   80.71
  -7  -2   0  -23.44  123.52
  -7  -2   0   20.22  121.84
  -4  -7   411993.82  388.50
  -4  -7   411613.88  318.20
   4   7  -411223.70  332.64
  -4  -7   411421.63  322.42
  -4  -7   411911.02  388.35
  -2  10   1 1309.94   95.43
  -1  10  -1 4227.12  141.00
   1 -10   1 4391.05  116.71
   2 -10  -1 1358.24  163.98
  -2  10   1 1400.83  301.32
   2 -10  -1 1310.70  154.22
   3  -6  -8 8278.32  486.52
  -1  10  -1 4247.42  363.18
   1 -10   1 4370.94  277.14
   2 -10  -1  903.99  287.47
  -3   6   8 8401.35  453.03
   3  -6  -8 8150.52  681.67
   1 -10   1 4675.45  184.56
   2 -10  -1 1155.45   70.00
  -3   6   8 7981.51  257.47
   1 -10   1 4377.24  473.36
  -3   6   8 7972.05  381.40
  -3   6   8 8159.25  228.51
   1   9  -513346.65  478.15
  -1  -9   513972.55  331.05
   1   9  -513655.81  221.68
  -1  -9   513057.22  493.08
  -1  -9   513449.78  477.94
  -1  -9   513365.69  194.86
  -8   1  -1 1551.83  226.18
   8  -1   1 1302.11   60.45
  -8   1  -1 1334.23  263.84
  -8   1  -1 1338.50   62.59
  -8   1  -1 1412.93  238.34
   8  -1   1 1146.09  132.57
  -2   4   9   -4.11   53.86
   2  -4  -9    7.97  164.36
  -2   4   9   24.66   63.49
  -2   4   9   26.08   78.42
   2  -4  -9   90.18  153.80
  -2   4   9   -2.68   75.36
  -6   9  -417424.26  584.10
   3   1   722847.18  614.78
   3   1   721379.99  520.54
   6  -9   415904.49  729.37
  -6   9  -417412.98  475.60
   6  -9   417308.27  642.68
   3   1   721291.61  498.12
  -3  -1  -722460.83  731.20
   3   1   721958.27  761.71
  -6   9  -417736.50  428.19
  -6   9  -418201.25  562.72
  -3  -1  -722360.70  914.30
   0  -1  1027676.96  491.43
   0   1 -1025395.14 1053.90
   0  -1  1026556.18  726.17
   0   1 -1026337.39  716.39
   0  -1  1026802.25  682.87
   0  -1  1025144.30  744.50
   0   1 -1024904.89  435.44
  -9   3   0 5884.30  172.95
   9   0  -4  446.54   44.34
   9  -3   0 5443.58  168.84
  -9   0   4   65.64  165.93
  -9   0   4  447.43   50.70
  -9   3   0 5591.94  192.01
  -9   0   4  386.59   48.15
  -9   3   0 5505.66  353.06
   9  -3   0 5556.58  171.53
  -9   3   0 5612.02  396.42
  -9   0   4  400.93   60.70
  -9   0   4  638.10  165.99
  -5   9  -5 3065.54   81.15
  -5   9  -5 2941.04   92.97
   5  -9   5 2883.11  225.23
  -5   9  -5 3153.27  275.00
   5  -9   5 2712.95  523.37
  -5   9  -5 3339.08  274.55
  -4  -7   5   -0.49   47.01
  -4  -7   5  195.69   90.07
  -4  -7   5   29.30   90.33
  -4  -7   5  262.85  161.82
  -4  -7   5  125.04   35.51
  -4  -7   5  -57.88   94.11
  -6   2  -515940.95  521.54
  10  -5  -318126.77  947.32
   6  -2   514770.83  306.69
  -6   2  -515826.87  315.13
  10  -5  -317436.44  466.01
 -10   5   318406.82 1018.71
   6  -2   514350.76  517.90
 -10   5   318465.91  732.21
  -6   2  -515037.15  447.72
  -6   2  -515449.66  472.34
 -10   5   318379.02  465.76
  -3   3  1011006.25  359.84
  -3   3  1011069.55  356.37
  -3   3  1010764.11  416.63
  -3   3  1011126.87  325.75
   3  -3 -1010298.86  482.52
   3  -3 -1010393.71  328.79
   3   1 -11 1968.24   76.07
  -3  -1  11 2121.70  234.37
  -3  -1  11  619.06  456.54
   3   1 -11 2032.38  180.25
  -3  -1  11 2010.51  171.17
  -3  -1  11 2064.94  112.04
  -2   5  -9 7039.61  431.36
   2  -5   9 6672.11  676.55
   0   9   116700.94  515.51
   2  -5   9 7284.21  660.17
   0   9   116377.59  850.53
   0  -9  -117257.93  547.52
   0  -9  -117219.96  535.63
   0  -9  -117621.01  546.80
  -2   5  -9 6936.52  372.52
  -4   9   510381.09  440.51
  -4   9   511424.44  473.23
   4  -9  -510424.46  376.73
   4  -9  -511006.33  455.87
   4  -9  -510178.71  288.56
  -4   9   510791.14  282.90
   4 -10  -3  269.41  119.10
  -4  10   3  335.23  142.18
   4 -10  -3  160.91   67.59
  -4  10   3  345.18  149.83
   4 -10  -3  288.34   84.64
 -10   6   4 2616.62  363.47
  10  -6  -4 2764.90  223.79
  10  -6  -4 2777.19  258.07
 -10   6   4 2624.23  291.96
  -6  -5   5 6723.80  424.75
  -6  -5   5 6013.87  377.14
  -6  -5   5 6173.63  227.46
  -6  -5   5 6012.07  227.38
   9  -8  -5   -2.49  102.87
  -7   1  -339878.87 1031.65
   9  -8  -5   75.21  104.41
  -7   1  -338321.60  944.61
  -9   8   5  -97.29  126.58
  -7   1  -338325.12 1448.92
   7  -1   335141.64  556.50
   7  -1   335318.44  886.42
  -7   1  -338749.48  612.11
  -9   8   5  -88.51  115.85
   1 -10   4 1924.98  265.71
   1 -10   4 2293.64  217.44
   1 -10   4 1995.93   64.69
   1 -10   4 1955.07  222.87
  -1  10  -4 1935.69   82.94
  -1  10  -4 1183.06  252.90
   5   0 -11  175.38  104.41
  -5   0  11  131.69   45.42
  -5   0  11  337.67  154.05
   7 -10  -3 1954.34   86.50
   5   0 -11  160.85   51.99
   7 -10  -3 2000.21  345.29
  -5   0  11  287.81   71.83
   7 -10  -3 1966.95   88.39
  -7  10   3 1874.61  217.69
  -7  10   3 1860.70  357.55
  -5   0  11  327.75  138.76
   7 -10  -3 1874.75  195.72
  -6   4  1020587.18  667.95
   6  -4 -1017997.75  499.72
  -6   4  1020493.01  600.62
   8  -8   2 1849.50  148.50
  -6   4  1020010.71  408.13
  -6   4  1020900.20  508.68
   8  -8   2 2117.34  234.62
  -8   8  -2 1653.22  149.02
  -8   8  -2 1430.01  251.68
  -8   8  -2 1837.35  207.99
  -8   8  -2 1741.52  167.29
   8  -8   2 1718.10  148.53
   6  -4 -1017795.42  388.01
  -4  -5  -218589.15  719.19
   9  -5  -821529.13  646.06
  -4  -5  -220048.61  615.62
   9  -5  -821238.95  632.84
  -9   5   821871.61  646.60
  -9   5   821735.87  610.31
   4   5   218845.87  709.03
  -1   1  1017037.60  515.39
  -1   1  1017941.76  393.26
  -7  10  -115198.86  836.82
  -1   1  1017678.36  471.32
   7 -10   114538.02  338.57
   7 -10   114154.43  336.70
   7 -10   115098.32  565.44
   1  -1 -1016607.79  547.01
   1   5   6  721.27  182.48
  -6  -3  -1 3661.84  353.77
   7 -10   114297.79  341.22
  -7  10  -113781.23  583.36
  -1  -5  -6 1052.73  208.69
  -1   1  1017152.38  574.63
  -6  -3  -1 3782.88  251.30
   1   5   6  401.22  323.04
   1  -1 -1016966.60  760.12
   6   3   1 3565.52  327.51
  -6  -3  -1 3987.08  336.81
  -1  -5  -6  785.84  184.39
   6   3   1 3408.23  232.55
  -7  -3   8  577.57  135.30
  -7  -3   8 1190.14   96.63
  -7  -3   8  855.24  125.70
  -7  -3   8  847.21  127.23
  -7  -3   8 1053.49  123.24
  -7  -3   8  924.33  181.61
   5  -4 -10   59.32   42.78
  -5   4  10  -32.06   62.06
   2  -2   911451.63  379.48
  -2   2  -911767.83  248.31
  -2   2  -911718.39  252.65
  -5   4  10   15.11   86.45
  -2   2  -911842.94  492.63
   2  -2   911678.34  494.42
   2  -2   911705.59  257.79
   5  -4 -10 -131.38   72.47
  -5   4  10   17.60   37.89
  -5   4  10  -45.75   74.30
  -2   2  -912151.38  414.21
  -5  -6   613234.66  273.85
   0  -2  -9    0.39   90.45
   0   2   9    9.83   72.26
   0   2   9   64.50   56.69
  -5  -6   613229.22  213.18
   0   2   9  -90.00  106.96
  -5  -6   613338.35  367.98
  -5  -6   613455.76  364.86
   0   2   9   17.45  112.39
  -5  -6   613617.36  290.69
   0  -2  -9   20.68   70.42
  -5  -6   612945.60  363.65
  -6   7   8 3729.39  157.71
   6  -7  -8 3535.29  288.71
  -6   7   8 3889.98  241.43
  -6   7   8 3613.01  221.99
   6  -7  -8 3990.26  223.02
  -6   7   8 3381.86  287.28
   6  -7  -8 3442.30  121.84
  -7   3  -4 9109.28  363.34
  -7   3  -4 8748.82  556.41
  -3  -2  1116172.16  640.28
  -3  -2  1116122.11  729.05
   7  -3   4 7836.17  222.80
  -7   3  -4 8962.40  572.41
   3   2 -1114983.54  672.05
   7  -3   4 7905.82  347.89
  -3  -2  1117111.80  594.46
  -7   3  -4 8663.48  225.12
  -4   1  -719653.17  419.46
  -4   1  -720018.52  496.25
  -4   1  -718885.42  477.00
   4  -1   719509.41  676.74
  -4   1  -720241.83  654.54
   4  -1   719278.23  403.23
   4  -1   719482.75  503.20
  -8   9  -1  280.22  124.22
   8  -9   1  145.21  149.75
   8  -9   1  104.56   82.37
   8  -9   1  243.61   71.52
  -8   9  -1  226.98   97.25
  -8   9  -1   16.94   65.51
  -6  -5   4 6691.56  249.33
  -6  -5   4 7044.95  285.41
  -6  -5   4 6709.02  249.38
  -2  -1  -8 1985.94  160.82
  -6  -5   4 6301.99  307.45
   2   1   8 1724.57  119.37
   2   1   8 1514.96  104.91
   2   1   8 1662.63  258.40
  -2  -1  -8   10.99  219.33
 -10   6   3  705.35  168.23
  10  -6  -3  962.64  192.51
 -10   6   3   31.44  113.25
  10  -6  -3  954.78  274.31
   6   0   4 2493.97   71.94
   6   0   4 2778.13  266.96
  -6   0  -4 3141.69  258.56
  -6   0  -4 2496.66  256.67
  -6   0  -4 1782.02  442.79
   6   0   4 2655.52  260.03
  10  -4  -3  773.30  115.00
 -10   4   3  853.06  200.29
 -10   4   3  656.09  399.09
 -10   4   3  647.83  106.93
  -5  -6   331000.67 1023.01
   5   6  -328620.48  725.67
  -5  -6   328467.46  723.52
   5   6  -328749.22  660.85
  -5  -6   331203.27  783.73
  -5  -6   329945.87  714.34
   4   7  -3 6572.82  465.04
  -4  -1  -6  -17.42  120.98
  -4  -1  -6   68.61  100.23
  -4  -1  -6   42.78   34.83
   4   1   6   17.88   28.17
   4   1   6  -38.86  109.02
   4   2 -11  329.50  158.35
  -4  -2  11  781.82  179.68
   5   5   0  712.75  199.50
  -5  -5   0  677.98  201.62
  -4  -2  11  582.17  209.46
  -4  -7   3 7202.48  324.40
   5   5   0  692.34  259.90
   4   1   6   -8.76   27.93
  -4  -7   3 7994.38  301.59
   4   1   6 -122.06   84.01
  -4  -2  11  609.38  194.58
  -5  -5   0  583.45  268.56
  -4  -7   3 7543.31  324.84
   6  -8  -7  819.51  190.87
   6  -8  -7  858.67  115.95
   6  -8  -7  819.65   61.56
  10  -4  -6  -54.13   74.79
  -6   8   7  941.37  199.62
 -10   4   6   55.53   90.77
  10  -4  -6   52.10   98.15
   6  -8  -7  773.83  233.43
  -6   8   7  934.28   63.25
  -6   8   7  945.01  149.48
 -10   4   6  220.35  126.06
   3   5 -10 3039.65  210.11
  -3  -5  10 3082.63  272.50
   3   5 -10 3118.82  280.12
  -3  -5  10 3219.27  211.48
  -3  -5  10 2931.34  281.32
  -9   1   8  130.20   92.63
  -9   1   8   48.80  115.60
   0  -8   810996.77  494.77
  -9   1   8  301.88  104.09
  -9   1   8  286.68   91.89
   0   8  -811285.07  490.09
   0  -8   811337.00  463.25
   9  -1  -8   30.99   85.40
   0  -8   810858.27  434.73
   0   8  -810883.67  734.42
 -10   3   5 3813.28  327.29
  10  -3  -5 3438.63  297.18
  -1  -9   1  103.00   94.64
  -1  -9   1  -21.62   69.63
  -1  -9   1  -25.50  166.14
  10  -3  -5 3384.98  180.68
 -10   3   5 4101.57  306.69
   1   9  -1  216.42  110.51
 -10   3   5 3803.52  308.31
  -5  -1  11  202.13  131.50
   5   1 -11  199.31   43.40
   0   6   6 2952.28  485.75
  -5  -1  11    6.31   71.30
   0  -6  -6 2896.16  247.82
   0   6   6 2776.00  112.00
   5   1 -11  308.31   64.98
   0   6   6 3017.91  259.66
   0  -6  -6 2694.96  297.33
  -5  -1  11  147.85   32.94
   0   6   6 2704.07   75.12
  -5  -1  11  141.91  140.09
 -10   6   5 6894.66  317.78
  10  -6  -5 6638.04  365.74
  10  -6  -5 6133.87  314.85
 -10   6   5 6565.47  404.90
  -3   8   6 4196.92  346.27
  -6  -5   620146.50  489.62
  -6  -5   620809.64  669.47
  -6  -5   621774.40  399.73
   2   8   0  224.20  127.88
  -6  -5   621534.35  465.49
  -6  -5   620899.32  660.84
   3  -8  -6 4114.48  136.18
   3  -8  -6 4079.46  211.45
   3  -8  -6 4601.89  575.73
  -3   8   6 4165.68  137.39
   2   8   0   49.86  213.94
  -6  -5   620695.82  568.70
  -2  -8   0  102.77  100.56
  -3   8   6 4256.42  325.21
  -2  -8   0  -12.01  100.61
  -2  -8   0   -1.24  101.35
  -3   8   6 4075.58  153.36
  -5   1  11 2231.89  277.80
   5  -1 -11 1988.40  200.25
  -5   1  11 2287.98  210.59
   5  -1 -11 2287.18  194.79
  -5   1  11 2502.09  243.05
  -5   1  11 2184.37  108.32
  -3   0  1118064.65 1008.70
  -3   0  1117234.22  413.54
   3   0 -1115823.26  294.00
  -3   0  1117549.76  584.93
  -3   0  1117145.46  727.78
  -8   5   9 8912.77  411.80
  -3   1  -8 8047.08  270.67
   1  -8   815185.66  615.69
  -3   1  -8 7515.21  400.28
  -1   8  -815930.87  907.98
  -1   8  -815885.02  612.12
   8  -5  -9 8225.29  395.28
   1  -8   815822.82  548.13
   3  -1   8 7729.25  265.56
   3  -1   8 7400.60  705.14
   8  -5  -9 8419.83  593.42
  -8   5   9 8768.12  415.94
  -3   1  -8 7926.71  260.76
   3  -1   8 7436.43  244.96
  -8   5   9 8966.91  359.06
  -8  -2   7 6461.92  218.10
  -8  -2   7 7072.46  145.68
  -8  -2   7 6152.39  294.88
   2   8  -7 2500.36  167.39
  -8  -2   7 6382.43  232.71
  -8  -2   7 6764.01  271.87
  -2  -8   7 2072.78  184.81
  -2  -8   7 2320.86  213.81
  -2  -8   7 2054.08  209.68
  -8  -2   7 6877.40  148.73
   0   5   715278.23  543.36
   0   5   714574.40  242.63
   0   5   715070.27  266.38
   0  -5  -715970.11  532.09
   0   5   715562.56  542.71
   0  -5  -715390.41  573.54
  -1  -6  -5 7218.45  447.90
   1   6   5 6941.45  389.87
  -1  -6  -5 7607.58  382.28
   1   6   5 8023.74  421.29
   2 -10   5  852.46  186.30
   2 -10   5  913.48  174.27
  -2  10  -5   -8.52   78.74
   7  -7  -8 2173.77  208.51
  10  -5  -6 4732.66  514.36
  -7   7   8 2199.52  391.10
  -7   7   8 2054.51  410.24
 -10   5   6 4386.92  322.36
   7  -7  -8 2209.98  240.94
  10  -5  -6 4284.59  265.59
 -10   5   6 4690.81  442.84
   2   5   5 3215.71  305.47
  -2  -5  -5 2748.71  277.66
   2   5   5 2532.59  287.12
  -2  -5  -5 3255.21  313.83
  -4   1  1112056.72  468.13
   4  -1 -1111830.05  270.42
 -10   3   4 5746.04  325.22
  10  -3  -4 5524.00  338.05
 -10   3   4 6031.76  381.52
 -10   3   4 5163.56  408.41
  -4   1  1112073.48  532.28
  -4   1  1111901.52  253.71
   4  -1 -1111478.13  323.16
  -4   1  1111931.42  333.26
  -5  -3  -3  877.56  183.65
   3 -10   521945.41  657.97
   5   3   3  985.98  230.15
   5   3   3 1037.55  197.49
   3 -10   521323.24  689.57
  -3  10  -522297.64  694.71
  -5  -3  -3  931.61  234.49
   3 -10   521115.57  617.72
  -3  10  -522468.02  648.35
  -7  -1  10 3222.37  148.57
   8   1  -1   81.38  114.79
   2   4   6  678.20  463.44
  -7  -1  10 3296.84  105.24
  -7  -1  10 3387.41   83.06
  -2  -4  -6 3733.03  328.37
   2   4   6 4607.16  501.69
  -8  -1   1  243.48  151.67
   7   1 -10 3247.16  140.94
  -7  -1  10 2701.16  441.78
  -8  -1   1  -20.99  149.12
  -8  -1   1  271.01  143.52
  -7  -1  10 3159.62  246.39
  -2  -4  -6 3967.49  312.65
   6  -8   5 5394.34  302.92
   6  -8   5 5598.61  374.54
  -6   8  -5 5270.85  151.53
  -6   8  -5 5639.71  326.09
  -6   8  -5 5392.20  224.69
  -6   8  -5 5422.69  331.89
   5   2   4  475.76  179.94
  -5  -2  -4  280.26  177.99
   5   2   4  391.89  169.99
  -5  -2  -4  386.81  163.65
   1   4   7 8348.13  231.49
   1   4   7 8429.03  448.91
  -1  -4  -7 8025.17  423.75
   1   4   7 8449.21  246.69
   1   4   7 8949.45  404.70
  -1  -4  -7 9377.91  444.24
  -4  -7   6   22.93   33.82
  -4  -7   6   31.10   75.22
  -4  -7   6    0.11   33.84
  -9   0   7  554.30  151.12
  -4  -7   6   30.01   31.74
  -4  -7   6   -4.96   47.26
  -9   0   7  595.13  118.34
  -9   0   7  551.15  148.34
  -9   0   7  539.93  102.75
  -4  -7   6   -0.11  134.43
   7  -8  -7 8000.81  123.84
  -7   8   7 8813.11  709.77
   7  -8  -7 7938.32  407.79
  -7   8   7 8545.90  598.59
   7  -8  -7 7602.66  324.52
   7  -8  -7 7640.10  144.50
  -7   9  -3 7377.32  311.84
   7  -9   3 7343.72  711.32
   7  -9   3 6857.17  313.05
  -7   9  -3 7081.92  324.61
   5  -7  -8 9828.89  315.52
   5  -7  -8 9971.29  458.52
  -5   7   810149.08  515.18
   5  -7  -8 9885.31  258.40
  -5   7   810161.65  440.75
  -5   7   8 9804.51  221.47
  -5   7   8 9706.73  343.23
   7  -9   3 7172.85  281.13
  -7   9  -3 7548.91  380.30
  -7   9  -3 7327.37  232.98
   0   7  -9 1907.82  207.07
   8  -9  -5 2579.65  430.00
  -5   8  -6  131.50  107.04
  -5   8  -6   41.87   30.16
   8  -9  -5 2411.90  235.37
   5  -8   6   46.44  132.10
   0  -7   9 1913.79  224.26
   0  -7   9 1909.68  266.62
   5  -8   6   80.24  111.39
   0   7  -9   -1.01  218.60
  -8   9   5 2806.74  246.87
  -5   8  -6   31.79   26.52
  -5   8  -6 -104.79  118.16
  -8   9   5 2739.29  280.68
   1   8   229299.53  780.70
  -1  -8  -231064.25  899.39
   1   8   228383.79  857.21
  -1  -8  -229969.05  807.40
  -9   6  -112122.25  486.82
  -9   6  -112639.67  454.96
  -9   6  -111892.97  428.21
  -9   6  -112739.32  382.37
   9  -6   110969.03  267.58
   9  -6   111242.60  391.02
   9  -5   1  736.99  130.93
   8   2  -313847.50  427.64
  -9   5  -1  800.52  303.61
  -8  -2   315909.35  359.68
  -9   5  -1  674.97  206.43
  -9   5  -1  912.96  102.37
  -8  -2   314200.66  548.61
  -8  -2   315894.15  614.40
   9  -5   1   18.49  101.62
  -5  10  -4 8174.50  393.11
   5 -10   4 7683.74  210.22
   0  -5  10   72.33  230.58
   0  -5  10 -129.02  121.78
  -4   9  -6 9583.98  482.47
   0   5 -10   -6.95  125.21
  -9   8   0 3320.36  442.29
   9  -8   0 2671.91  209.71
   9  -8   0 3043.87  270.02
  -4   9  -6 9695.09  437.16
   4  -9   6 9429.96  398.98
  -9   8   0 2847.94  117.40
   5 -10   4 7771.72  434.54
   9  -8   0 2785.38  189.65
  -9   8   0 3390.22  256.93
   0   5 -10  141.94  133.51
   4  -9   6 9456.14  498.14
  -5  10  -4 8357.92  372.73
   5 -10   4 7745.38  343.19
  -5  10  -4 7767.09  171.97
  -3  -7   828481.95  690.89
   3   7  -828080.27  649.93
  -3  -7   828148.22  691.66
  -3  -7   825893.04  984.61
   5  -1   6    9.42  134.79
   1   7  -917182.43  934.75
  -5   1  -6   -5.47  110.38
  -6  10  -3 2451.74  213.74
   6 -10   3 2228.99  185.98
   6 -10   3 2384.89  279.45
   6 -10   3 2051.58  176.88
  -6  10  -3 2683.94  261.21
  -1  -7   917830.85  553.44
  -5   1  -6  415.67  248.56
   5  -1   6    3.73  102.70
   1   7  -918196.45  598.82
  -6  10  -3 2458.06  207.84
  -5   1  -6  291.18   62.81
  -5   1  -6  234.33  108.73
   6 -10   3 2236.90  161.86
   5  -1   6  144.78   53.52
  -1  -7   917284.41  633.01
  -3  -8   4 1602.47  185.43
  -3  -8   4 1255.03  105.92
  -3  -8   4 1561.66  186.63
   3   8  -4 1206.63  206.72
 -10   3   624898.98 1166.73
  10  -3  -622514.05  548.26
 -10   3   622752.27  699.74
 -10   3   623676.55  543.58
  10  -3  -622277.77 1060.82
  -8   5  -3    3.67  135.54
   8  -5   3 1094.55  247.18
  -8   5  -3  -23.01   89.01
   8  -5   3 1422.48  245.05
   8  -6   3 1835.64  157.51
  -8   6  -3 2282.17  183.50
  -8   6  -3 2600.54  187.30
  -8   6  -3 2029.15  182.23
   8  -6   3 1888.71  191.91
  -9   0   320939.75  345.84
  -9   0   321929.67  731.63
   8  -2   2 8708.03  282.73
  -8   2  -2 8802.62  702.18
  -8   2  -2 9375.72  522.95
   8  -2   2 8309.34  314.50
  -9   0   322244.86  418.14
  -8   2  -2 9435.61  197.97
  -9   0   320602.34  723.72
  -9   0   321390.50  416.29
  -8   2  -2 9973.17  461.98
   9   0  -319799.40  318.21
   9   0  -319371.48  426.28
  -6   6   9 9875.38  375.83
  -6   6   910598.16  682.71
   6  -6  -9 9610.49  404.79
  -6   6   910066.72  181.55
  -6   6   9 9714.91  666.15
   6  -6  -9 8975.53  194.39
  -3   7  -8  194.58  170.38
  -3   7  -8  239.26  245.68
   3  -7   8  285.39  144.70
   3  -7   8   81.92  159.98
   3  -5  -9   50.15  114.28
  -3   5   9   46.20   88.04
  -3   5   9  149.91   75.92
   3  -5  -9  136.09   87.49
   5  -8  -7 8389.48  221.33
  -5   8   7 8208.82  262.25
  -3   5   9  111.48  154.62
  -5   8   7 8130.49  203.98
  -5   8   7 7932.65  291.33
  -3   5   9  215.99  188.56
   5  -8  -7 8498.67  268.05
   5  -8  -7 8240.54  737.59
  -5   8   7 8775.61  422.60
  -2  -2  1111538.35  491.06
   7  -4 -1016855.69  738.30
  -7   4  1018287.78 1008.41
  -7   4  1017899.88  475.04
  -2  -2  1111089.38  639.90
   2   2 -1111078.17  506.72
   2   2 -1111248.94  431.45
  -2  -2  1111489.04  519.84
  -7   4  1018145.49  610.57
 -10   5   2  320.98  140.22
   1 -10   0 1229.04  193.39
   1 -10   0 1290.58  193.19
 -10   5   2  287.19  154.75
  10  -5  -2  419.75  109.61
   1 -10   0 1486.10   62.78
 -10   5   2    9.38   84.28
  -1  10   0 1070.30  299.04
  -1  10   0 1419.20   81.57
   1 -10   0 1219.73  253.83
   6 -10  -4 5194.36  158.06
   6 -10  -4 5349.92  157.95
   6 -10  -4 5343.79  245.15
   6 -10  -4 5864.23  306.91
  -6  10   4 5455.73  350.26
  -6  10   4 5746.81  450.58
  -1   9  -7 8534.27  392.71
   1  -9   7 9235.87  438.04
   1  -9   7 8583.52  439.67
   1  -9   7 8691.58  404.78
  -1   9  -7 9555.49  458.54
   3   3 -11  928.13  214.16
  -3  -3  11  961.84  208.37
   3   3 -11  894.40  141.15
  -3  -3  11   -6.16  348.98
  -3  -3  11  827.47  146.19
  -3  -8   5 4258.94  438.62
  -3  -8   5 3399.39  120.96
  -3  -8   5 3550.45  251.79
   3   8  -5 3852.17  101.41
   3   8  -5 3852.24  129.45
  -3  -8   5 3948.78  180.11
  -3  -8   5 3812.34  117.72
  -3  -8   5 3665.78  100.76
  -4   4  10 3313.61  217.51
  -4   4  10 3046.62  165.94
   4  -4 -10 2805.19  204.22
   4  -4 -10 2402.71  149.80
  -4   4  10 3166.82  209.28
  -4   4  10 3090.32  252.23
  -6  -5   321417.56  611.32
   6   5  -320396.69  483.93
  -6  -5   322304.36  659.85
  -6  -5   321924.69  541.82
  -6  -5   322766.29  546.70
 -10   6   2   11.71   99.10
   2   1 -11 7383.39  220.72
  -2  -1  11 7863.29  430.50
  -2  -1  11 7710.09  152.27
   2   1 -11 7335.35  328.52
  -2  -1  11 7162.45  328.13
 -10   6   2  419.05  158.54
  -2  -1  11 7328.04  389.07
 -10   6   2  287.25  233.82
  10  -6  -2  291.13  161.64
  10  -6  -2  -55.73   73.79
   1  -6  -7  548.54  303.43
   1  -6  -7  390.24  137.16
  -1   6   7  406.39   60.76
  -1   6   7   52.48  259.31
  -1   6   7  487.45  164.11
  -1   6   7  468.04   53.44
  -3  -8   3  674.43  163.96
  -3  -8   3  856.08  196.96
   3   8  -3  524.95  112.41
  -3  -8   3  777.86  165.53
   9  -9  -210973.57  632.20
  -9   9   211151.67  463.51
  -1  -8   8  -87.93  110.95
  -1  -8   8  -85.35  197.19
   1   8  -8   -0.85  103.80
  -9   9   211040.19  760.57
   9  -9  -210399.23  463.82
  -1  -8   8  -16.02  185.77
   1   8  -8  -44.73   90.43
  10  -7  -410361.85  434.25
   6  -1 -11  180.37   64.24
   6  -1 -11  147.04   42.77
  -6   1  11  241.55  100.61
 -10   7   410520.86  508.59
  -6   1  11  430.29   63.90
  10  -7  -410778.00  451.75
 -10   7   410646.59  417.16
  -6   1  11  156.76  173.73
  -6   1  11  206.85  159.04
   4 -11   1  438.59  164.99
   4 -11   1  280.61   65.98
   4 -11   1   35.77  102.17
  -4  11  -1  420.17  193.36
   4 -11   1    5.03  102.39
  -4  11  -1  294.11   93.26
   0  -7  -5    4.42  179.33
   0  -7  -5  540.46  143.96
   0   7   5  864.04  172.63
   9  -9  -322884.92  635.18
   0   7   5  401.29  201.01
   9  -9  -321376.71  690.92
  -9   9   323184.51  704.04
  -9   9   322293.32  704.78
  -1  -9   613697.58  501.94
  -1  -9   613978.07  413.46
   1   9  -613559.98  362.28
  -1  -9   614005.14  491.57
   6   0 -11 1406.07   75.71
  -6   0  11 1328.57   97.18
   6   0 -11 1204.71  156.08
  -6   0  11 1311.83  217.06
  -6   0  11 1015.81  237.74
  -6   0  11 1480.57   77.42
 -10   7   3  304.87  287.98
   5 -11   018599.44  448.81
  10  -7  -3  170.29  125.53
   9  -7  -7 6497.16  350.43
  -5  11   018141.69  486.08
   5 -11   018536.50  500.08
  10  -7  -3  123.74  118.26
  -5  11   018420.77  792.89
  -9   7   7 5578.02  588.95
 -10   7   3  200.00  123.14
  -9   7   7 5845.08  354.25
   9  -7  -7 5442.57  603.24
   5 -11   018712.95  410.37
   5 -11   018346.42  450.11
  -2   6  -9 8753.71  829.40
  -2   6  -9 8762.52  429.24
  -7  -4   5 2346.20  178.15
  -7  -4   5 2221.62  138.14
   2  -6   9 8241.32  446.30
  -7  -4   5 2352.60  139.89
  -7  -4   5 2498.12  206.82
   2  -6   9 8908.76  460.79
  -2   9  -7 9654.15  428.88
   2  -9   7 9522.15  423.05
   2  -9   7 8758.57  474.51
  -2   9  -7 9820.92  484.15
  -5  -6   713974.30  386.01
  -5  -6   714201.66  270.48
  -5  -6   714892.12  351.37
  -5  -6   714080.22  387.46
  -5  -6   714396.79  309.19
   7  -6  -9  850.11  177.02
  -7   6   9 1267.17  196.08
  -7   6   9  930.55  181.38
   7  -6  -9 1221.90  181.47
  -7   6   9 1089.87  187.46
  -5  11  -1  206.64   83.55
   5 -11   1  185.04  116.32
   5 -11   1  106.75   67.29
  -5  11  -1  136.93  113.68
   5 -11   1  342.23   94.31
   5 -11   1  268.69   98.69
  10  -3  -341234.71 1006.17
 -10   3   343876.31 1030.97
  -8   2  10 4699.38  190.89
  -8   2  10 4694.09  316.27
   8  -2 -10 4457.58  211.69
 -10   3   342524.89 1257.29
   5 -10  -4  -10.04  165.82
   5 -10  -4  452.56  151.41
  -8   2  10 4816.90  317.74
 -10   3   342129.18 1169.01
   5 -10  -4  600.36   84.67
   5 -10  -4  403.13  146.47
  -5  10   4  620.42  112.57
  -5  10   4  501.09  176.45
  -8  10   213157.41  475.31
   8 -10  -212919.84  499.63
   8 -10  -212291.45  322.56
   8 -10  -212638.54  220.28
   8 -10  -212879.37  410.33
  -8  10   213456.93  505.17
   1 -10   5 4652.90  320.15
   1 -10   5 4939.80  530.77
   1 -10   5 4604.92  265.17
  -1  10  -5 4539.34  244.17
   0   0 -10 3145.95  260.92
   0   0  10 3345.49  150.19
   0   0 -10 3457.13  146.96
   7  -8   4  122.40  104.74
  -7   8  -4  128.61   71.77
  -7   8  -4   75.11  204.67
  -7   8  -4  227.99  221.75
   7  -8   4  239.52  244.71
  -7   8  -4  236.89   66.13
   0   0  10 3042.91  285.68
   0   0  10 3278.34  217.62
   0   0  10 3518.60  243.18
  -5   6   9 9282.33  406.98
  -5   6   9 9610.03  342.70
  -5  -2  11  -18.25   56.16
  -5  -2  11  -35.44   99.87
   5   2 -11    9.27   47.50
  -5  -2  11  120.88  100.76
   5  -6  -9 9223.48  421.98
  -5   6   910024.21  380.92
  -5   6   9 9932.54  344.28
  10  -6  -6  413.17  163.35
  -8  10   112018.57  439.31
 -10   6   6  536.78  313.53
   3   4   510352.32  497.70
   8 -10  -112564.66  377.33
 -10   6   6  523.28  149.93
   8 -10  -112154.86  232.71
   8 -10  -111432.58  345.52
   3   4   510880.64  526.36
  -8  10   113477.94  512.74
  -3  -4  -510158.10  528.24
  -3  -4  -510676.79  485.22
  10  -6  -6  432.10  145.68
   8 -10  -112712.69  511.79
   2  -9  -4 2085.74  196.11
   2  -9  -4 2327.65   78.38
  -9   7  -1 3633.38  159.04
  -2   9   4 2157.30   74.31
   9  -7   1 3317.68  143.02
  -2  -6  -432787.51 1567.51
  -5  -4  10 2837.10  250.45
  -9   7  -1 3521.33  242.02
  -9   7  -1 3796.20  272.18
  -2   9   4 1353.58  453.94
   2  -9  -4 2299.31  266.11
  -9   7  -1 3495.92  246.37
  -5  -4  10 2961.06  146.93
   9  -7   1 3272.40  259.68
   2   6   432213.85  986.56
  -2   9   4 2312.25  156.00
   2   6   431364.55  882.51
  -2  -6  -433410.33 1377.85
  -5  -4  10 2415.79  230.62
  -5  -4  10 2939.89  273.19
  -2   9   4 2200.07  334.99
  -5  -5   9  722.10  109.95
  -5  -5   9  663.76  248.59
  -5  -5   9  592.70  181.20
  -2  -3  11 6017.38  318.32
  -6  -5   718651.66  329.89
  -2  -3  11 6278.16  640.15
  -6  -5   717233.59  529.97
  -6  -5   719402.95  632.18
  -2  -3  11 5617.87  393.74
   2   3 -11 5357.00  538.47
  -6  -5   718830.04  521.49
  -6  -5   718938.38  323.53
  -6  -5   719538.02  608.24
   2   3 -11 5575.29  390.68
   9  -4   1  752.01  171.24
  -9   4  -1  885.86  174.30
   9  -4   1  594.49  177.04
  -9   4  -1   11.07  338.52
  -9   4  -1  635.37   94.54
   4   7  -2  -75.23   90.91
   4   7  -2  125.30  152.91
  -4  -7   2  187.96  203.39
  -4  -7   2  175.04  202.78
   2  -8   8 5419.61  596.91
  -2   8  -8 5189.51  354.32
  -2   8  -8 5843.12  407.35
   2  -8   8 5603.91  413.86
  -4  -7   2  130.59  114.73
  -5   2  11 4051.51  338.19
  -6   9   6 6435.62  288.71
   5  -2 -11 3475.43  160.95
   6  -9  -6 6199.33  250.96
   6  -9  -6 5915.61  149.68
   6  -9  -6 6419.69  366.09
  -5   2  11 3557.75  151.16
   6  -9  -6 6067.93  256.73
   5  -2 -11 3202.79  232.07
  -5   2  11 4234.36  262.31
  -5   2  11 3804.69  293.35
  -6   9   6 6900.55  393.50
   5   4   217155.33  697.54
  -1  -1  -9 7976.43  400.40
  -5  -4  -219022.59  608.09
   1   1   9 7543.53  414.82
   5   4   217205.11  562.25
   1   1   9 7491.69  231.11
   1   1   9 7374.66  281.86
  -5  -4  -218222.79  752.07
  -1  -1  -9 7349.82  455.13
   1   1   9 7660.22  435.64
  -8  -1   9 2159.32  117.37
  -8  -1   9 2150.13  160.80
  -8  -1   9 2650.00  196.89
  -8  -1   9 2125.84  167.33
  -6  -4   9  -79.63  102.94
  -1   7   622859.82  345.41
  -6  -4   9  112.57   91.14
   1  -7  -623112.10  784.64
  -1   7   623092.58  752.30
  -1   7   622189.05  458.00
  -6  -4   9    8.35   75.06
  -1   7   622578.73  628.50
   1  -7  -623269.98  641.72
  -6  -4   9  156.29   56.42
  -8   4  -3 2837.30  200.68
  -7  -4   6 9846.49  279.16
  -7  -4   6 9308.13  205.03
   4 -11   0 2719.71  188.86
  -4  11   0 2597.86  191.46
   0   4   8 1322.33   96.26
  -5   5  -7   64.92   99.56
  -7  -4   610158.01  533.95
  -8   4  -3 2435.91  248.10
  -7  -4   610868.54  253.97
  -8   4  -3 3001.76  253.24
   8  -4   3 2473.16  190.01
   0   4   8 1225.46   82.62
   5  -5   7   61.71  117.47
  -5   5  -7  167.56   53.08
   0   4   8 1258.44  194.95
   5  -5   7  289.26  129.28
   0   4   8 1513.93  223.10
  -4  11   0 2699.78  186.25
  -5   5  -7    7.94  135.31
  -5   5  -7   82.03   48.00
  -7  -4   610288.51  252.39
   4 -11   0 2478.87  161.75
   8  -4   3 2351.14  148.57
  -7  -4   610072.01  230.21
   0  -4  -8 1526.79  216.99
   0  -4  -8 1327.16  206.60
  -8   4  -3 2379.45  225.09
   4 -11   0 2405.96  262.17
  -9   3   9 1511.36  206.35
 -10   4   2  -47.35  159.74
   9  -3  -9   -0.41  119.97
  10  -4  -2  147.51   77.27
  -9   3   9 1604.01  162.28
 -10   4   2  159.16   72.22
  -9   3   9 1556.97  212.47
 -10   4   2   84.79  137.95
  -2   1  -9 7686.45  232.06
   2  -1   9 7129.66  417.36
  -2   1  -9 7555.53  406.82
   2  -1   9 7571.59  276.77
  -1   7  -9 3266.49  323.25
   2  -1   9 7724.60  233.97
  -1   7  -9 2886.34  301.64
   1  -7   9 2959.85  321.58
  -2   1  -9 7870.54  305.26
   1  -7   9 2816.99  478.91
   4 -11   2 7284.74  323.36
   4 -11   2 7782.58  317.23
  -4  11  -2 6849.10  216.78
   4 -11   2 7427.70  180.77
   4 -11   2 7343.63  312.46
  -4  11  -2 7362.40  512.49
   1  -9  -324042.75  745.73
  -1   9   321941.63  610.53
   1  -9  -323027.39  973.68
   4 -10   5 6654.29  326.46
  -4  10  -5 6165.08  353.51
   4 -10   5 5991.28  405.88
  -1   9   322631.64  721.53
  -4  10  -5 6530.77  373.16
   4 -10   5 6012.20  346.73
  -8   7  -3 3235.30  218.56
   8  -7   3 3204.25  269.20
  -8   7  -3 3841.76  196.60
 -10   4   7 1002.98  155.89
  10  -4  -7  815.30  174.80
  -8   7  -3 3663.26  211.78
   8  -7   3 3695.56  192.35
  10  -4  -7  743.42  152.11
  -8   7  -3 3558.14  423.69
 -10   4   7  977.55  185.26
  -3   1  11 1010.22  178.90
  -3   1  11 1000.24   88.69
   3  -1 -11  844.33  126.87
   3  -1 -11   21.92  103.28
  -3   1  11  623.97  365.10
  -3   1  11 1032.99  251.73
   2   3   7 5988.65  194.29
  -6  -3  10 2573.79  217.41
   7 -10  -4  157.49   47.15
  -4  -3  11 1072.21  212.69
   7 -10  -4  268.28  115.75
   2   3   7 6226.29  355.51
  -5  -6   2 5391.79  562.29
   5   6  -2 4891.40  262.42
   2   3   7 6392.10  140.39
   4   3 -11    4.18   60.24
   7 -10  -4  262.73   47.45
   7   3  -1   -0.48   57.09
   5   6  -2 5064.57  305.32
  -5  -6   2 5208.16  309.41
  -5  -6   2 5422.26  280.09
  -7  10   4  313.20  154.47
  -6  -3  10 2573.90  131.87
  -7  -3   1  143.52  136.59
  -2  -3  -7 6983.14  417.97
  -2  -3  -7 6496.36  373.65
   2   3   7 6269.59  424.93
  -7  -3   1   58.90  160.72
  -4  -3  11  884.52  139.50
  -7  -3   1  104.99  148.11
  -6  -3  10 2718.21  188.70
   7 -10  -4  250.08  124.07
  -5  -6   2 5113.24  282.89
  -7  10   4  364.64  230.96
  -4   8  -720590.85  674.77
   4  -8   721253.45  761.02
   4  -8   718961.73 1003.94
  -4   8  -720282.32  746.05
   5   1   5  357.17  224.48
  -5  -1  -5  479.52  173.07
   5   1   5    9.43  144.45
  -5  -1  -5  549.57  180.83
   7 -10   212723.10  350.21
  -9   1   1    6.97   58.36
   9  -1  -1   50.06   55.30
  -7  10  -214076.09  602.46
  -9   1   1   35.34   52.10
   9  -1  -1  136.64   37.10
  -9   1   1   47.73  213.69
  -9   1   1  -24.65  117.38
   7 -10   213449.20  556.38
  -7  10  -213140.44  351.04
   7 -10   213288.24  577.88
  -7  10  -214106.55  530.01
   7 -10   213533.66  302.90
  -8   1  10  645.84  167.24
  -8   1  10  781.90  162.92
  -8   1  10  584.26   89.25
   8  -1 -10  550.56  103.30
  -7  -4   4   81.47  173.74
  -7  -4   4  112.35   68.23
   7   4  -4  140.97   70.63
  -7  -4   4   35.63  121.92
  -7  -4   4   -9.87  108.10
  -8   3  10 1216.22  134.84
   0  -9   7  901.35  190.16
   8  -3 -10 1313.26  154.27
  -8   3  10  937.49  380.11
   0  -9   7  872.74  178.88
   0   9  -7  -10.58   83.12
  -8   3  10 1447.53  216.38
  -1   5   817167.25  907.20
   5  -4   711892.05  499.37
  -5   4  -712603.65  506.41
   1  -5  -815679.68  584.68
   1  -5  -817934.34  569.10
  -1   5   816627.98  349.05
  -5   4  -712035.00  373.96
  -1   5   817042.97  446.80
  -5   4  -711739.43  405.33
  -5   4  -712521.96  439.36
  -1   5   816732.41  554.60
   5  -4   712407.44  398.93
   9  -6  -8  756.29  190.18
   9  -6  -8 1016.47  183.64
  -9   6   8  925.13  197.89
  -9   6   8 1016.63  184.60
 -10   2   5 2507.59  280.93
   1  -3  10 1208.26  205.15
  -1   3 -10 1385.34  215.86
  10  -2  -5 2210.73  141.42
   1  -3  10 1309.65  343.13
 -10   2   5 2327.59  280.98
  -1   3 -10 1479.34  232.92
 -10   2   5 2743.41  136.19
   7  -9  -6 1401.19   60.06
  -9   2   9 1443.56  202.81
   7  -9  -6 1453.13  222.83
   9  -2  -9  -20.85   80.36
   7  -9  -6 1370.37   68.51
   7  -9  -6 1318.51  172.02
  -7   9   6 1400.51  326.74
  -7   9   6 1431.32  231.54
  -9   2   9 1553.68  192.36
  -9   2   9 1723.75  148.20
  -9   8   6 1063.25  195.33
  -9   8   6  917.28  211.39
   9  -8  -6 1122.73  207.00
   9  -8  -6  951.07  349.26
  10  -7  -523031.44 1052.54
 -10   7   523054.47  759.04
   9  -2   026998.42  455.78
  -9   2   029271.28  619.61
  -9   2   029891.45  953.18
   9  -2   027091.63  705.82
 -10   7   524262.05 1049.65
  -9   2   029641.51  614.09
  10  -7  -521957.50  690.24
  -9   2   028736.03  891.72
   9  -9  -1 4567.48  251.02
   2   7  -919130.06  596.22
   9  -9  -1 4423.64  134.46
   9  -9  -1 4190.89  165.93
   9  -9  -1 4349.97  336.27
  -2  -7   918527.68  619.03
  -2  -7   919229.97  570.29
  -9   9   1 4500.69  303.07
   2   7  -919792.07  602.17
  -9   9   1 4609.76  324.45
  -2  -7   918407.37  549.83
  -6   5  -611833.06  490.04
   1   7   4 8883.43  476.32
  -3  10   3 9763.46  329.02
  -3  10   310105.93  250.93
   0  10  -330008.35  548.19
   6  -5   612636.84  462.80
   3 -10  -3 9928.22  419.49
   3 -10  -3 9781.63  303.84
  -6   5  -612252.53  391.49
  -1  -7  -4 8757.97  500.99
   1   7   4 8806.41  424.67
  -1  -7  -4 9175.86  710.49
  -3  10   3 9835.69  441.91
  -6   5  -613007.48  308.81
   6  -5   612382.52  413.24
   0 -10   331368.94  857.10
   0 -10   331484.79  528.39
   0  10  -328962.72  583.89
  -6   5  -612104.38  289.14
   0 -10   329930.03 1230.14
   3 -10  -3 9818.12  334.70
   0 -10   330901.88  676.18
  -8   7   8 3184.00  279.23
   8  -7  -8 3117.51  287.92
  -8   7   8 3646.40  285.53
  -3  -5  -413816.59  630.15
   3   5   413549.93  551.96
   8  -7  -8 3596.93  267.37
   3   5   413337.37  607.93
  -3  -5  -413660.67  533.95
   5 -11  -129534.18  629.85
   5 -11  -128540.65  618.74
   5 -11  -128718.01  911.35
  -5  11   128878.88 1047.58
   5 -11  -129688.85  936.29
  -5  11   130602.14 1029.27
  -6   2  11 3235.41  153.03
  -6   2  11 3623.51  298.45
  -6   2  11 3320.51  113.12
   6  -2 -11 3361.42  169.05
   6  -2 -11 3284.52  166.99
  -6   2  11 3218.32  565.02
  -2  10   2 9330.26  215.09
  -2  10   2 9643.58  354.17
  -2  10   2 9159.48  413.08
   2 -10  -2 9189.21  357.59
   2 -10  -2 9761.63  385.95
   2 -10  -2 9532.83  172.65
   2 -10  -2 9538.05  371.84
  10  -3  -721472.89  559.73
  -9   9   4 3973.04  306.50
   9  -9  -4 4200.31  301.03
 -10   3   722490.49  826.96
 -10   3   723235.29  712.18
 -10   3   722339.07  582.95
  -9   9   4 4436.84  326.03
  10  -3  -720799.71  640.59
 -10   3   722005.70  655.42
   9  -9  -4 3601.22  283.74
  -1   4 -1014178.06  584.85
  -6  -4   0 7181.12  334.81
   6   4   0 6581.25  303.74
   1  -4  1012823.08  534.21
   6   4   0 6271.15  705.71
  -6  -4   0 7118.56  452.89
  -1   4 -1014121.55  550.92
   1  -4  1014220.74  541.45
  -6  -4   0 7214.27  716.44
   8  -8  -7 2598.38  241.86
   8 -10  -3  275.33  115.81
  -8   8   7 3291.81  288.10
  -8   8   7 2730.03  267.88
   3   3   6 3276.33  677.59
   8  -8  -7 2740.92  274.24
  -3  -3  -6 4910.74  364.28
  -3  -3  -6 5289.95  387.20
   8 -10  -3  263.18  129.94
   3   3   6 5227.87  348.69
   8 -10  -3  153.19   65.37
  -8  10   3  324.30  141.93
  -8  10   3  155.70  138.69
   8 -10  -3  164.38   40.30
   6 -11   016318.36  580.78
  10  -7  -2 8096.92  373.04
 -10   5   7 7016.95  332.75
  10  -5  -7 6633.54  370.65
  -6  11   016589.52  530.89
   6 -11   016003.69  519.65
  10  -5  -7 6963.75  335.35
 -10   7   2 8581.17  494.81
  -8  -2   8 1502.12  112.46
   6 -11   016445.17  398.54
 -10   7   2 8728.50  363.57
  -8  -2   8 1644.99  111.34
 -10   5   7 6801.88  637.83
  -6  11   015628.98  448.81
  -8  -2   8 1372.13  148.73
  -8  -2   8 1501.98  113.71
   6 -11   016656.82  396.99
  10  -7  -2 8511.35  393.09
  -8  -2   8 1488.64   76.71
   6   1 -1112959.14  340.47
  -3  -8   6 2366.37  210.65
   6   1 -1114243.69  364.40
  -6  -1  1115001.88  240.46
  -6  -1  1114132.85  919.65
  -9   4   9 1523.43  225.28
  -6  -1  1114437.00  549.19
  -3  -8   6 2308.97  214.16
  -3  -8   6 2135.62  217.84
  -9   4   9 1403.14  216.75
   9  -4  -9 1611.53  178.58
   3   8  -6 2129.91  174.33
   9  -4  -9   17.62  150.46
  -6  -1  1114327.37  343.87
  -9   4   9 1646.18  175.31
  -7   2  -4   10.68   43.74
  -4   2  11 6136.97  383.24
  -7   2  -4   52.42   97.70
   4  -2 -11 5297.73  203.68
  -7   2  -4  156.46  105.27
  -4   2  11 5883.25  325.92
   7  -2   4  -71.07   46.90
   7  -2   4   21.11  109.26
  -4   2  11 5771.50  231.52
   4  -2 -11 5227.98  202.97
  -7   2  -4   75.89   96.08
  -4   2  11 6077.02  199.30
  10  -2  -6  653.22  110.04
  -2   0  11 2970.22  244.20
 -10   2   6 1079.40  205.67
  -5   6  -7   19.38   52.55
   5  -6   7   78.20  116.75
  -5  11  -216445.52  539.75
   5 -11   216678.97  563.10
  -5   6  -7    2.06   27.28
 -10   2   6  828.28  109.11
 -10   2   6  554.08  332.12
   5  -6   7   53.80  117.45
   5 -11   217572.10  331.06
  -2   0  11 2473.35  434.48
   2   0 -11 3054.14  117.45
   5 -11   217858.17  487.33
  -2   0  11 2921.11  284.85
  -5   6  -7   -5.46   94.18
  -4  -7   7  -23.95   91.29
  -4  -7   7    1.12   71.16
  -4  -7   7   -0.05   72.97
   5 -11   216824.90  470.33
  -5   6  -7  -56.63   76.87
  -5  11  -217200.07  547.42
  -2   0  11 3077.89  116.74
   3 -11   2  127.14  213.42
   3 -11   2  131.32   90.11
   3 -11   2  115.72  119.81
  -3  11  -2   55.36  114.41
   3 -11   2  277.64   56.04
  -3  11  -2  212.90  148.84
  -4   4  -8 6263.77  162.01
   3 -11   1  731.34  149.94
  -3  11  -1  478.07  114.11
   3 -11   1  533.46   89.41
   1   6 -10    1.07  208.50
   4  -4   8 6786.53  381.33
  -4   4  -8 6770.15  303.53
  -4   4  -8 6655.07  169.94
   1   6 -10 2101.98  212.70
   3 -11   1  736.55  257.33
  -1  -6  10 2015.56  399.16
  -1  -6  10 1977.70  269.60
   3 -11   1  754.79   99.65
  -4   4  -8 6817.85  399.06
   4  -4   8 6379.49  316.20
  -3  11  -1  843.85  190.51
  -4  -5  10   34.61  104.63
  -4  -5  10  196.28  108.53
   4   5 -10  -12.56   79.19
  -4  -5  10   -9.52   79.96
   4   5 -10    7.82   58.95
  -4   5  -812509.16  556.74
   1   9   0  103.63  119.03
  -4   5  -812809.06  442.26
  -4   5  -812468.28  224.17
   1   9   0  161.28  204.03
  -1  -9   0  180.38  112.50
  -4   5  -812160.36  212.03
   4  -5   812650.56  821.79
  -1  -9   0   41.35  129.77
   4  -5   812675.95  485.02
  -1  -9   0  230.59  127.95
   8 -10   010227.81  245.60
   8 -10   010347.13  235.01
   8 -10   011007.79  508.73
  -8  10   011051.72  624.42
  -8  10   011430.05  495.92
   8 -10   010496.99  822.49
  -6   6  -6 2791.48  121.59
   6  -6   6 2631.06  240.52
   6  -6   6 2451.70  239.61
  10  -2  -4   -2.57   43.70
 -10   2   4   68.22   49.05
 -10   2   4   21.75  133.73
 -10   2   4 -151.99  124.91
  -6   6  -6 3124.74  276.67
  -6   6  -6 2743.34  134.48
  -6   6  -6 2882.97  220.14
   0 -10   223567.72  466.82
   0  10  -221531.30  512.44
   5  -9  -612677.94  287.70
   0  10  -222445.96  500.30
  -5   9   613105.47  569.03
   5  -9  -612333.23  324.45
   5  -9  -612395.78  854.80
   0 -10   223610.07  700.82
   0 -10   223389.18 1070.43
  -5   9   613466.29  547.42
   5  -9  -612254.66  434.39
  -5   9   612423.49  281.77
   0 -10   224066.20  365.23
   3   8  -2   60.81   94.73
  -3  -8   2  -55.20   88.98
  -3  -8   2  -63.25  191.22
  -3  -8   2 -106.34  190.79
  -3   9   5 2107.41  268.42
   3  -9  -5 2028.65  273.85
  -3   9   5 2260.78  114.23
   3  -9  -5 2340.32  177.46
  -3   9   5 1969.13  168.87
   3  -9  -5 2128.91  162.93
   1   3   8  599.77   65.99
  -1  -3  -8  769.60  163.72
   1   3   8  776.50  200.61
   1   3   8  637.79  131.04
  -1  -3  -8  -23.50  140.49
  -9   0   8 3497.19  177.75
  -9   0   8 3195.80  236.89
  -9   0   8 3326.05  185.35
  -4   7   8 7092.09  239.00
   4  -7  -8 6841.69  245.25
   4  -7  -8 7473.10  407.56
  -4   7   8 7470.39  398.20
  -4   7   8 7230.41  385.54
  -4   7   8 7260.15  265.97
   0 -10   4  252.18   42.84
   0  10  -4  300.79   58.66
   0 -10   4  362.68  143.55
   0  10  -4  197.76  131.63
   6 -11  -1 2874.27  155.62
   6 -11  -1 3014.13  154.93
  -6  11   1 3358.18  388.34
   6 -11  -1 2695.31  310.48
   0 -10   4  524.10  144.92
  -6  11   1 3111.20  243.50
   6 -11  -1 2940.90  229.59
   0 -10   4  246.86   71.78
  -4  -6   9  138.01  150.73
   4   6  -9   20.78   75.61
  -4  -6   9   98.64  148.60
  -4  -6   9  187.07  100.17
  -4  -6   9  -18.36   90.13
   3   7   1 1665.61  388.48
   6  -1   5 3017.24  108.29
   6  -4   6 9562.83  419.32
  -3  -7  -1 1764.13  228.67
  -3  -7  -1 1719.35  467.88
  -6   1  -5 2860.01  250.37
   6  -4   6 9228.47  318.36
  -6   4  -6 9920.97  306.38
  -6   4  -6 9672.61  433.50
  -6   4  -6 9362.41  297.59
  -6   4  -6 9666.47  433.50
  -6   1  -5 3312.98  275.39
   6  -1   5 3004.34  302.10
   3   7   1 1683.47  262.49
  -6   1  -5 3245.22  112.65
  -6   1  -5 2752.88  255.45
   1  -2  10 9828.17  383.41
  -1   2 -10 9538.48  431.63
   1  -2  10 9581.17  206.60
  -1   2 -10 8907.84  405.66
   1  -2  10 9086.27  448.39
  -1   2 -10 9016.68  275.64
   2   6 -10 3174.58  288.17
   2   6 -10 3080.63  254.84
  -2  -6  10 2593.89  229.64
  -2  -6  10 2818.69  291.62
   8  -9   2  194.45  154.88
   8  -9   2  219.85   85.66
  -8   9  -2  113.70   93.38
   8  -9   2  169.76   81.04
  -8   9  -2  175.70  132.70
  -8   9  -2  187.63   81.71
  -8   9  -2  133.60   87.02
  -7  -4   7 6937.22  249.55
  -7  -4   7 7176.12  315.11
  -7  -4   7 6524.68  194.35
  -7  -4   7 6883.72  201.57
  -7  -4   7 6891.11  235.71
  -7  -4   7 6726.92  195.02
   6 -11   110726.39  510.64
   2  -3 -10 1356.78  159.04
   4   6   1  266.01  231.00
  -2   3  10  -23.92   91.04
   6 -11   111450.66  415.58
  -4  -6  -1  238.33  179.21
   4   6   1  137.90  159.67
   6 -11   110367.26  311.02
   2  -3 -10 1498.76  169.24
   6 -11   110387.00  459.83
  -4  -6  -1  341.52  251.61
  -6  11  -110817.20  506.24
  -6  11  -111490.66  452.45
  -2   3  10  -13.64   74.06
  -7  -3   9 8941.96  234.12
  -7  -3   9 9123.90  212.18
  -7  -3   9 9669.63  197.89
  -7  -3   9 9417.46  176.13
  -7  -3   9 9225.79  289.22
  -7  -3   9 9669.97  350.36
   8   2  -221385.39  447.94
  -8  -2   221682.74  755.42
  -8  -2   223506.89  745.73
  -8  -2   224009.93  816.52
   4 -11  -1 8390.37  474.26
  -4   8   7 2139.73  251.21
   4 -11  -1 7900.05  244.05
  -4  11   1 7725.66  548.03
   4 -11  -1 7799.59  296.64
   4  -8  -7 1742.29  144.05
  -4   8   7 1739.48  124.59
  -4   8   7 1605.93  232.41
  -4   8   7 1428.56  233.37
   4  -8  -7 2044.77  266.81
  -4  11   1 7705.17  276.04
   4 -11  -1 8015.52  293.57
   4  -8  -7 2055.46  129.83
  -3   9  -7 2838.11  289.88
  -3   9  -7 3107.20  329.89
   3  -9   7 3021.21  333.75
   3  -9   7 2894.13  265.90
   9   0  -215865.71  305.85
   4 -11   3 1915.97   82.59
  -9   0   217688.80  672.17
   4 -11   3 1945.52  197.89
  -4  11  -3 1623.84  344.61
  -9   0   217771.68  410.39
   4 -11   3 1940.97  227.20
  -4  11  -3 1708.95   99.92
  -9   0   216458.44  669.20
   4 -11   3 2232.83  212.65
   7   1   2 1679.85  191.80
  -7  -1  -2 1377.68  261.99
  -7  -1  -2 1762.32  264.86
  -7  -1  -2 1785.32  214.68
  -9  -1   5 4484.81  118.06
  -9  -1   5 4257.15  144.21
  -9  -1   5 4731.45  134.28
  -9  -1   5 4945.00  512.79
  -9  -1   5 4542.51  111.27
  -9  -1   5 4696.30  334.39
   0  -9  -2 4909.42  342.64
   0   9   2 4195.72  291.29
   0  -9  -2 4756.10  313.87
  -1   2  10    1.60   59.21
   0   9   2 4621.71  325.85
   1  -2 -10 1890.73  198.10
  -1   2  10   -5.53   88.77
   1  -2 -10 1602.08  154.70
   6   5  -215392.17  562.53
  -6  -5   216960.44  478.00
  -6  -5   215682.51  562.37
   6   5  -216205.31  447.09
  -6  -5   217061.83  619.15
  -6   5  10 8288.70  249.45
   6  -5 -10 7637.24  259.56
  -6   5  10 9035.02  352.48
  -6   5  10 8139.33  419.25
  -6   5  10 8734.18  370.48
   6  -5 -10 8401.58  585.99
  -7  -2  1028361.25  550.73
  -5   3  -7   88.94   75.95
   4 -10  -4 5842.15  233.29
  -7  -2  1029041.88  454.75
  -4  10   4 6052.53  372.13
  -7  -2  1028172.33  711.60
  -2  -9   414483.43  514.63
   2  -7  -7  779.39  209.19
  -4  10   4 5583.84  225.85
   2   9  -412896.92  303.44
  -5   3  -7   15.06   69.92
  -2  -9   413973.25  507.99
  -4  10   4 5950.18  342.76
   4 -10  -4 6063.13  589.75
  -5   3  -7    0.91  123.88
  -7  -2  1028447.03  753.18
  -2   7   7  469.69  130.55
   4 -10  -4 5711.21  177.97
   4 -10  -4 5475.04  230.62
   5  -3   7  -15.01  120.52
  -5   3  -7  124.45   66.79
  -2  -9   414611.42  285.90
  -2   7   7  904.42  117.29
   5  -3   7   78.90   74.93
  -7  -2  1027090.01  510.82
  -2   7   7  754.74  193.36
   2  -7  -7  596.73  252.84
  -9  -1   612419.06  422.11
 -10   6   1 1349.09  164.73
  -3  11  -3  604.07   73.95
   3 -11   3  706.97  136.85
   3 -11   3  584.26  155.13
  -9  -1   612171.75  229.40
  -9  -1   611730.22  424.27
   2   4 -1111291.02  548.68
  -3  11  -3  704.60  237.02
   3 -11   3  563.91   95.47
 -10   6   1 1068.18  418.12
  -9  -1   612099.95  493.80
 -10   6   1 1182.98  221.67
  -2  -4  1111101.82  440.18
   2   4 -1111242.55  449.04
  -2  -4  1111649.44  534.70
  -2  -4  1111393.58  537.43
  10  -6  -1   18.49   82.73
   3 -11   3  573.05  160.02
   3   4 -11  -28.27   85.48
  -3  -4  11  110.04  245.19
   1   2 -11  645.85  288.35
  -1  -2  11  748.99  171.03
  -1  -2  11  -17.62  268.93
  -3  -4  11  108.24  238.38
   1   2 -11   39.54  245.71
  -3  -4  11   92.90   99.59
   3   4 -11  -20.10  208.48
  -1  -2  11  593.29  324.35
 -10   5   111888.47  231.23
 -10   5   111941.42  346.15
 -10   5   111744.77  499.86
  10  -5  -110936.11  270.23
 -10   5   111993.00  577.77
  10  -5  -110898.99  339.48
   8  -6  -9 7256.35  632.24
  -9   1   9 5964.50  293.40
  -8   6   9 7511.10  361.33
  -9   1   9 5535.10  303.11
  -9   1   9 5358.98  467.79
   8  -6  -9 6832.13  625.71
  -8   6   9 7922.92  652.76
  -8   6   9 7813.12  683.79
  -9   1   9 5725.21  225.72
   9  -1  -9 5052.89  261.66
   3 -11   0  891.89  287.16
  -3  11   0  900.51  253.72
   3 -11   0 1147.32  101.65
  -3  11   0  928.30  193.07
   3 -11   0  958.91  215.65
   3 -11   0 1053.34  164.28
  -8   0  10 8040.03  209.70
  -8   0  10 7901.87  275.97
   8   0 -10 7544.29  260.99
  -8   0  10 8362.62  363.77
  -8   0  10 8559.79  380.51
   7   4  -3    0.75   54.11
   0   6 -10 2237.70  540.33
   4  -3   8 4890.72  252.67
   0  -6  10 4251.42  355.86
  -7  -4   3 1089.89  139.09
   0  -6  10 4016.27  321.94
  -4   3  -8 4975.38  243.87
  -4   3  -8 5023.47  169.56
  -7  -4   3 1245.03  137.14
  -4   3  -8 5197.46  351.94
  -7  -4   3 1212.37  330.00
   4  -3   8 5560.60  612.42
   0   6 -10 3638.07  548.53
  -4   3  -8 4587.59  165.97
  -2   6   826174.80  524.92
  -2   6   826709.23  500.53
   2  -6  -826066.09  818.84
  -2   6   827799.22  795.45
  -2   6   827616.32  707.10
   2  -6  -825613.24  983.22
   1   3 -11 5039.82  375.44
  -1  -3  11 5240.11  378.76
  -1  -3  11 5048.96  307.44
   1   3 -11 5001.99  340.17
  -1  -3  11 5193.73  612.48
   4   0   7 6350.43  311.92
  -4   0  -7 6608.19  393.82
  -8   4  10    3.21  138.42
   4   0   7 6186.98  167.08
   4   0   7 6489.59  435.25
   8  -4 -10  111.82  178.43
  -4   0  -7 6388.79  288.24
  -4   0  -7 6451.07  497.95
  -8   4  10  143.76  141.47
  -8   4  10  218.86   98.07
 -10   3   210486.20  252.72
  10  -3  -2 9163.90  221.64
  -1   5 -10   74.36  141.45
   1  -5  10   84.16  132.37
 -10   3   2 9664.75  942.76
   1  -5  10  101.95  238.66
  10  -3  -2 9610.64  379.67
  -1   5 -10  185.05  155.22
 -10   3   2 9857.01  846.35
  -3   0  -8  856.46  130.76
   4  -6   8 8418.03  434.32
   4  -6   8 8508.78  462.53
   3   0   8  667.02   85.00
  -3   0  -8  728.99   98.19
   3   0   8  500.45   93.12
  -4   6  -8 9034.45  402.75
  -3   0  -8   60.37  194.58
  -4   6  -8 8597.32  496.83
   3   0   8  660.69  207.59
  -2  -9   3 3272.95  255.66
  -1  10   1  -31.28  171.35
  -2  -9   3 2647.74  145.89
   2   9  -3 2394.86  169.01
   1 -10  -1   47.88  183.91
   1 -10  -1   79.42   92.37
  -2  -9   3 2946.60  257.93
   1 -10  -1    5.04  101.60
   9  -8   1 9655.30  347.14
  -9   8  -110226.77  266.81
   9  -8   1 9494.70  242.77
  -9   8  -1 9709.07  404.47
   9  -8   1 9588.18  449.79
  -9   8  -1 9440.39  362.41
  -9   8  -110009.70  413.82
   1  -8  -5   13.91  140.49
   2 -10   6   35.81  177.21
   1  -8  -5  135.09  182.26
   2 -10   6  574.73  162.88
   2 -10   6  788.47  174.79
  -2  10  -6   15.06   95.10
  -1   8   5  102.58  118.66
  -1   8   5  -27.20   92.59
  -4   6   9  -18.06   84.85
  -4   6   9   87.25  107.69
   4  -6  -9   60.27  141.81
   4  -6  -9  222.18  131.57
  -4   6   9   59.99  112.36
  -4   6   9  119.45  125.43
  -9   3  -1  819.19  186.93
  -9   3  -1  602.74  134.24
  -9   3  -1   91.18  207.87
   9  -3   1  537.94   98.95
  -9   3  -1  761.42  104.79
   9  -3   1  553.78   78.05
  -8   3  -3 2569.53  336.36
   8  -3   3 2223.96  123.75
   8  -3   3 2498.39  209.12
  -8   3  -3 2380.30  263.56
  -8   3  -3 2454.65  121.99
  -8   3  -3 2931.66  237.83
  -8   0  -112390.03  427.59
  -8   0  -113027.80  568.93
  -8   0  -113386.58  592.69
   8   0   111534.90  350.82
 -10   2   7 4356.17  288.79
 -10   2   7 4712.11  358.71
  -2  -8  -1 4012.23  313.13
  -2  -8  -1 4215.30  339.42
 -10   2   7 4855.57  338.46
   2   8   1 4215.77  493.87
  10  -2  -7 4495.12  315.30
   2   8   1 3551.82  321.82
  10  -2  -7 4071.05  223.70
  -7  -2  -1  200.45  154.70
  -7   1  11  181.85  110.08
  -7   1  11  316.71  161.61
  -7  -2  -1   77.79  153.75
  -7  -2  -1   59.36  184.51
   7  -1 -11  200.54   73.74
  -7   1  11  381.45  156.18
   7   2   1   56.75   91.51
   7  -5   517368.33  484.95
   7  -5   518292.72  845.54
  -8   9   6  -53.27  116.49
  -7   5  -517690.51  680.89
   8  -9  -6  211.96  151.13
  -7   5  -517527.97  433.13
  -7   5  -518541.40  467.71
  -7   5  -518135.83  568.12
  10  -7  -6 1810.34  246.85
  -8   9   6   91.40  102.33
 -10   7   6 1931.04  236.95
   8  -9  -6  296.89  131.58
 -10   7   6 1972.38  267.93
  10  -7  -6 1995.85  233.49
 -10   8   3  -84.18  237.17
  -2  -8   8  117.70  110.03
   2   8  -8   25.09   78.76
 -10   8   3 -253.20  161.00
  -2  -8   8  -97.10  193.77
  -2  -8   8  113.24  104.79
  10  -8  -3  109.12  121.40
  10  -8  -3   94.65  126.50
   8  -8   318415.11  716.78
  -3   4  10 8346.25  573.41
  -3   4  10 8520.30  303.03
  -8   8  -318161.09  584.68
  -8   8  -317609.81  680.17
  -3   4  10 8492.90  331.62
   3  -4 -10 7910.02  543.77
  -8   8  -317134.29  419.98
   3  -4 -10 8121.01  296.04
   8  -8   316640.24  609.09
  -3   4  10 8606.39  323.99
  -8   8  -318739.30  499.05
   9  -9   0 7351.47  174.11
   9  -9   0 7848.24  435.28
  -9   9   0 7926.72  192.66
   0 -10   1 6329.51  408.07
   0 -10   1 6407.83  364.31
   9  -9   0 7735.10  300.89
   9  -9   0 7711.33  313.03
   0  10  -1 6061.46  279.48
  -9   9   0 8246.56  412.09
  -9   9   0 7453.33  383.36
   0 -10   1 6421.28  359.20
  -7   6  -5  -10.79  142.43
  -6  11   2 1284.80  189.83
   7  -6   5  946.16  171.73
   6 -11  -2 1089.73  152.80
  -7   6  -5    1.78   53.85
   7  -6   5  998.24  169.68
   6 -11  -2 1279.75  275.31
   6 -11  -2 1234.02  103.18
   6 -11  -2  852.69  106.07
  -6  11   2 1191.09  176.80
   0  -8  -4  956.75  166.04
   0   8   4  220.73  308.39
 -10   6   7 1455.04  226.57
 -10   6   7 1169.19  206.79
  10  -6  -7 1069.35  381.18
   0  -8  -4  -15.61  211.95
   0   8   4  446.44  265.42
  10  -6  -7 1439.78  211.19
  -5  11   2 4590.09  244.70
   5 -11  -2 4198.72  203.44
   5 -11  -2 5427.12  430.20
  -5   5  10 1639.31  175.03
  -7   0  -3  429.61  326.02
  -7   0  -3  444.13  182.16
   5 -11  -2 4887.36  211.26
   7   0   3   -9.78   92.32
   5 -11  -2 4786.92  202.76
  -7   0  -3  532.87  157.29
   5  -5 -10 1203.24  327.71
  -5  11   2 4233.25  294.41
  -5   5  10   24.01  352.74
   5  -5 -10 1316.86  102.91
  -2  -9   537560.33  651.37
   6  -7   613246.61  531.82
  -4  -4  -4  466.51  211.15
   4   4   4  314.66  196.13
  -2  -9   539755.87  628.15
  -4  -4  -4  450.51  175.30
   2   9  -539866.40  832.66
   6  -7   613845.31  514.37
  -6   7  -613832.02  774.42
  -2  -9   539391.17 1460.86
   4   4   4  531.46  183.74
  -6   7  -612598.40  247.07
  -6   7  -613072.47  876.67
   2   9  -539175.11  660.09
  -2  -9   541088.58  705.60
  -2  -9   540321.62 1018.88
  -6   7  -612875.84  264.60
  -7   5  10  481.00  167.48
  -7   5  10  343.79  317.92
  -7   5  10  610.98  141.09
   7  -5 -10  510.90  143.10
  -6  -5   8  135.43   98.09
 -10   2   3  230.10  183.81
  -6  -5   8  -84.42   54.33
 -10   2   3  281.81   62.18
 -10   2   3   53.67  172.94
  -6  -5   8   -1.21   60.31
  10  -2  -3   -0.67   38.86
  -6  -5   8   30.20   76.58
   4   3   528925.62 1384.62
  -5  -3  1118501.46  455.07
  -4  -3  -530450.57  973.40
  -5  -3  1119122.07  645.21
   4   3   529049.15 1443.60
  -4  -3  -531629.95  967.98
   5   3 -1119393.69  422.21
  -5  -3  1118813.70  636.99
 -10   8   4  949.23  195.76
  -9  -1   4  876.32  366.27
  10  -8  -4 1039.08  203.56
  -9  -1   4   76.40  372.07
  -9  -1   4 1006.56  127.49
  10  -8  -4  916.21  195.52
   9   1  -4  718.90  108.28
 -10   8   4 1013.11  225.04
  -9   5   913875.31  872.77
   8 -10  -4 6043.43  348.87
  -5  -6   8 1139.36  132.29
  -5  -6   8 1016.27  135.72
  -5  -6   8 1184.26   98.93
   8 -10  -4 6797.05  353.68
  -9   5   913990.98  887.60
   9  -5  -913203.58  840.36
  -9   5   912728.52  743.37
  -8  10   4 6158.07  376.86
   9  -5  -912426.75  765.39
  -5  -6   8  995.02  132.10
  -8  10   4 7047.29  604.71
   0 -10   515281.68  551.55
  -6   9  -518524.99  417.35
   0 -10   515607.90  620.96
   6  -9   518534.83  707.02
   0  10  -514692.67  382.50
  -6   9  -519066.71  642.45
  -6   9  -519669.07 1019.27
   6  -9   518234.46  576.87
  -6   9  -518198.14  332.52
   0 -10   515749.02  574.78
   9  -9  -5  146.23  112.55
  -5   7  -7  352.94  144.14
   5  -7   7  494.44  305.80
   5  -7   7  461.70  325.22
  -9   9   5  118.91  129.38
   9  -9  -5  -61.80  112.66
  -5   7  -7  154.55  170.47
  -9   9   5    9.24  116.98
  -7   2  11 6421.52  670.56
  -7   2  11 6326.48  207.17
  -7   2  11 6176.92  715.07
   7  -2 -11 5575.48  217.64
   3   6   3 1703.67  250.27
   5  -3 -1114776.34  399.33
   6  -3 -11   69.69   40.75
  -6   3  11  -84.38  176.80
  -3  -6  -3 1357.72  232.28
   3   6   3 1620.86  285.05
   5  -3 -1113901.81  454.08
  -5   3  1116015.87  401.27
  -5   3  1115960.82  351.22
  -3  -6  -3 1449.33  496.10
  -6   3  11  -12.62   87.78
   6  -3 -11   -3.73  131.82
  -5   3  1115538.30  547.43
  -5   3  1116731.83  632.52
  -6   3  11  -17.30   52.44
  -6   3  11    9.51   30.95
  -4  -7   1 7735.20  375.69
   4   7  -1 6507.85  337.94
  -3   4  -9  -62.62  154.97
  -3   4  -9   -1.31   51.14
  -4  -7   1 8369.10  683.35
   3  -4   9    5.54  194.43
   4   7  -1 6849.11  362.69
   3  -4   9   38.91  169.18
  -3   4  -9  -76.28  199.88
   3 -10   6 5298.49  637.41
   3 -10   6 5450.05  683.94
  -1  -1  11 1238.64  371.84
  -1  -1  11  833.38  191.37
   1   1 -11  850.28  103.00
  -3  10  -6 5822.83  339.32
   3 -10   6 5759.72  340.03
   1   1 -11    4.82  157.16
  -1  -1  11 1164.57   74.40
  -3  10  -6 5120.31  670.42
  -2  -7  -3   -8.15  220.98
  -1   4   9 7251.26  389.24
   1  -4  -9 7348.64  371.51
  -1   4   9 7748.78  352.64
   2   7   3  745.15  239.40
  -1   4   9 7374.01  389.31
  -1   4   9 6937.47  328.66
  -2  -7  -3  914.29  178.80
   2   7   3 1180.36  204.70
   1  -4  -9 7435.95  362.95
  -6  -2  -319870.29 1065.07
  -6  10  -4  608.07  169.75
   6   2   317361.69  589.20
   6 -10   4  706.17  390.93
  -6  -2  -319385.27  742.95
   6   2   317376.65  684.00
  -6  10  -4  834.37  109.17
  -6  10  -4  590.83   77.24
   6 -10   4  714.25  247.08
  -6  -2  -318753.83  708.52
  -6  10  -4  690.77  321.13
   6 -10   4  768.84  107.56
  10  -7  -130664.08  825.22
 -10   7   133097.93  841.64
  10  -7  -130941.98  831.74
 -10   7   132165.02  973.60
 -10   7   132116.17  886.26
  -8  -1   010145.64  545.29
  -8  -1   010291.13  530.87
  -8  -1   010347.03  551.74
   8   1   0 8962.80  467.44
  -2   7  -918527.57  766.63
  -1  -9   7   96.09  122.92
   2  -7   919476.11  748.31
   1   9  -7   -3.56  117.26
  -2   7  -918629.83  681.03
  -1  -9   7  -27.50  173.81
  -1  -9   7  207.60  206.40
   2  -7   918371.60  690.77
  -9  -1   7 1076.36   88.79
  -9  -1   7  990.21  145.14
  -5  11  -310897.67  376.69
  -1  10  -6 5419.16  292.28
  -5  11  -310661.05  437.22
  -9  -1   7 1129.41  194.49
   5 -11   310571.78  401.50
   5 -11   311674.79  509.36
   5 -11   310363.48  614.02
   1 -10   6 5204.17  326.78
   1 -10   6 5424.33  362.95
   1 -10   6 5527.62  344.85
   5 -11   311244.60  304.58
  -6   3  -6  157.95  124.89
  -5  -5  -1  154.28  132.74
  -6   3  -6  -18.31   77.42
   5   5   1  128.22  128.07
  -6   3  -6  201.48  106.47
  -6   3  -6  -17.24   60.95
  -5  -5  -1  241.37  173.11
   6  -3   6   90.02   99.00
   5   5   1  233.16  164.56
   6  -3   6  -15.59   58.18
   8 -10   1 1120.13  108.38
  -8  -3   5 2190.41  198.19
  -8  10  -1  959.25  156.49
  -8  -3   5 1862.04  198.05
  -8  -3   5 1332.88  380.15
   8 -10   1 1045.62  106.76
   8 -10   1 1047.70  125.79
  -8  10  -1 1240.75  120.01
   8 -10   1  948.81  420.28
  -8  -3   5 1830.69  112.90
  -8  10  -1 1470.11  219.93
   3  -8   8 1948.87  302.32
  -3   8  -8 1872.33  254.10
  10  -4  -1   30.94   60.77
  10  -4  -1   30.83   35.09
   3   2   710249.69  550.86
   3  -8   8 2101.59  258.68
   3   2   710978.00  456.29
 -10   4   1   55.16   59.66
  -3   8  -8 1985.00  308.85
 -10   4   1 -119.19  137.48
  -7   0  1117391.20  312.86
  -3  -2  -710851.92  461.92
 -10   4   1  111.72  121.65
 -10   4   1   25.62   41.91
  -7   0  1117463.52  633.95
  -7   0  1117936.63  635.10
   7   0 -1115216.41  331.28
  -3  -2  -710694.08  543.05
   6 -11   2  896.67  204.33
   6 -11   2  815.98  137.63
  -6  11  -2  816.92  315.58
   2 -11   2 1430.18  217.42
  -2  11  -2 1435.02  138.77
  -6  -2  1113797.11  342.73
   6   2 -1114724.55  290.49
   6 -11   2  877.77  129.06
  -6  -2  1115021.11  561.11
  -6  -2  1115020.16  552.52
  -6  11  -2  737.11  103.33
   6 -11   2  843.11  142.15
  -2  11  -2 1456.84  124.60
   2 -11   2 1590.87  101.40
   2 -11   2 1469.97  373.91
   2 -11   2 1769.92  119.39
  -8  -3   6  978.94  168.88
  -7  11   1  769.67  180.92
   8  -1   2 5257.46  269.01
   2  -8  -619380.28  739.74
  -8   1  -2 5813.27  411.34
  -2   8   619458.56  701.85
  -8   1  -2 6174.18  293.01
  -8   1  -2 5862.45  388.56
   2  -8  -619222.26  838.39
   7 -11  -1   -6.79  182.40
  -2   8   618958.16  344.62
  -8  -3   6 1040.85   85.83
  -2   8   619024.03  315.06
  -7  11   1  724.60  268.80
  -2   8   619471.50  548.02
   7 -11  -1  404.42  121.72
  -8  -3   6  941.33  137.34
  -8  -3   6 1048.67   88.06
  -5   9  -6  680.51  208.63
   5  -9   6  543.99  168.69
   5  -9   6  675.80  214.60
  -5   9  -6  576.22  187.00
  -3   2  11 7868.11  313.97
   3  -5   9 1900.51  261.16
  -3   2  11 7949.43  573.19
  -3   2  11 7669.66  242.07
   3  -2 -11 7262.97  242.37
  -3   5  -9 2299.84  214.76
   3  -5   9 2019.93  249.29
  -3   2  11 7797.43  408.27
   3  -2 -11 7155.21  275.08
  -3   5  -9   -4.31  263.46
  10  -8  -2   -6.47  100.23
 -10   4   8 1412.27  194.19
  10  -4  -8 1401.27  356.51
   1  -1  10  -30.84  223.87
 -10   4   8 1314.23  199.00
  -1   1 -10   53.20   54.00
 -10   8   2   13.63  129.05
   1  -1  10  154.28   91.27
   1  -1  10   -6.81  100.00
  10  -8  -2 -129.60  194.41
 -10   8   2   61.54  107.11
  10  -4  -8 1289.62  196.99
 -10   4   8 1424.92  201.15
   1  -1  10   61.18   91.77
  -1   1 -10  154.71  122.84
  -1   1 -10   85.66  103.60
  -3  -6  10 2615.15  456.34
  -3  -6  10 2376.05  207.36
   3   6 -10  -19.78  293.38
   3   6 -10 2253.84  341.83
   3   8  -716299.62  364.99
  -3  -8   716830.67  530.54
   0   3   921545.91  679.79
   5 -10   5 4957.57  285.35
  -5  10  -5 5907.26  368.19
  -3  -8   716066.45  515.32
   0   3   922279.50  616.14
   5 -10   5 4901.63  388.93
   0   3   921400.63  436.08
  -3  -8   715786.69  416.69
   0  -3  -921432.36  620.56
   0  -3  -922682.33  705.44
  -5  10  -5 5510.31  364.10
   0   3   922192.70  744.49
   1   4 -11  888.93  217.41
  -1  -4  11  683.91  201.77
   1   4 -11  607.46  208.68
  -1  -4  11  719.09  313.97
   6 -10  -5   23.64  166.33
   6 -10  -5  323.73  102.09
  -6  10   5  436.88  208.63
  -6  10   5  329.57  172.19
   6 -10  -5  180.63   60.65
   6 -10  -5  290.57  251.76
  -5  -6   1 1243.99  239.51
   0  -1 -10 8570.19  276.76
   5   0   6   -0.55   95.46
   5   0   6  -40.86  127.90
  -2  -2  -8 3056.07  249.62
   5   6  -1 1302.69  320.86
   2   2   8 2693.44  108.20
   5   6  -1 1386.32  402.94
   0   1  10 8684.00  306.16
  -5   0  -6  639.89  429.50
   0   1  10 8992.15  335.25
   0   1  10 9450.35  289.05
   2   2   8 2968.37  329.20
   0  -1 -10 8392.99  387.72
  -5  -6   1 1448.29  193.49
   2   2   8 3058.97  199.90
   2   2   8 2971.59  247.62
  -2  -2  -8 2685.88  303.60
  -5   0  -6 2181.41  220.15
   0   1  10 9007.89  459.05
   7 -11   0 7086.69  360.55
  -7  11   0 7519.13  391.51
   7 -11   0 7056.86  220.72
  -7  11   0 7133.06  300.23
   7 -11   0 7661.55  254.94
   7 -11   0 7487.87  398.78
   2  -1 -11 5138.54  181.05
   2  -1 -11 5224.45  269.84
  -2   1  11 5312.55  294.99
  -2   1  11 6208.68  319.51
  -2   1  11 5668.43  305.27
  -2   1  11 5936.37  358.07
  -2  -9   2 5883.34  351.44
  -7   4  -5   45.20   84.32
  -2  -9   2 5928.12  417.30
  -2  -9   2 6305.98  601.15
  -7   4  -5   -4.95   68.83
   7  -4   5  104.39   83.25
  -7   4  -5   -8.26   64.85
  -7   4  -5  -11.78   96.50
   2   9  -2 5888.10  285.26
   7  -4   5  245.58  119.81
  -4  -4  11 5398.57  349.76
   4   4 -11 4932.65  233.49
  -4  -4  11 4698.45  360.65
 -10   3   8 2678.80  418.38
 -10   3   8 3289.86  385.41
  10  -3  -8 2869.57  232.53
  10  -3  -8 3046.06  259.40
  -4  -4  11 4552.13  246.74
  -2  11  -322617.92  587.46
   2   0   915347.09  409.51
   2 -11   323597.90  390.78
  -2   0  -915702.78  417.16
   2   0   916360.80  425.71
  -2  11  -323016.58  565.12
  -2   0  -915380.34  407.15
   2 -11   323327.21  698.49
  -2   0  -916141.35  585.78
   2 -11   324992.59 1147.06
   2   0   915509.78  379.02
   2 -11   324175.91  543.24
  -3   3  -913527.59  266.27
   3  -3   914170.46  576.80
   3  -3   913491.16  438.58
  -3   3  -913508.89  268.53
  -3   3  -914149.26  576.18
  -3   3  -914499.31  717.67
  -4   9   6    4.77   56.83
   4  -9  -6  -73.63  115.73
  -4   9   6   88.40  128.83
  -4   9   6   61.84  141.17
   4  -9  -6    0.43   62.27
  -4   9   6  219.21   69.12
  -7   9  -4  646.82   75.47
   7  -9   4  620.38  195.66
  -7   9  -4  587.35  275.77
   7  -9   4  398.66  134.67
  -7   9  -4  659.17  174.55
  -7   9  -4  340.28  148.59
   6   3   2 1470.90  269.64
  -6  -3  -2 1413.27  294.36
  -6  -3  -2 1705.11  271.35
   6   3   2 1469.47  210.46
  -6  -3  -2 1364.06  208.31
  -3  -8   1  786.75  189.77
   3   8  -1  807.84  178.36
   3   8  -1  884.69  179.00
  -3  -8   1  649.39  183.81
  -3  -8   1  852.80  173.65
  -3  -7   9 1286.17  170.36
  -3  -7   9 1186.16  189.43
   3   7  -9   -0.96   74.25
   7  -7   5  889.47  159.04
  -6  -1  -4    9.43  114.00
  -6  -1  -4  -80.16  109.81
  -7   7  -5  965.30  179.02
   6   1   4 -128.71  139.73
  -6  -1  -4  138.72  114.83
  -9   6  -212912.35  492.83
  -7   7  -5  701.55   98.65
   9  -6   211555.71  639.90
  -9   6  -212724.97  399.25
  -7   7  -5  677.11   91.28
  -9   6  -212758.26  458.46
  -9   6  -213068.67  360.31
   9  -6   211461.31  312.60
  -7   7  -5  834.47  163.57
   6   1   4   56.71  236.70
   7  -7   5  834.88  193.11
  -7  10   520548.92  729.56
   7 -10  -519413.87  327.56
   7 -10  -520267.73  664.16
  -7  10   520504.72  926.83
   2 -11   110677.25  282.50
  -2  11  -1 9861.96  520.22
   2 -11   110983.35  424.88
   7 -10  -519298.96  324.58
   7 -10  -519826.50  554.23
  -2  11  -110444.16  283.59
   2 -11   110782.68  235.42
   2 -11   110854.13  432.56
  -2   5   9 1140.14  277.39
   2  -5  -9  882.51  340.14
  -2   5   9   -8.38  268.46
 -10   1   534191.72  610.80
  10  -1  -530941.92  594.75
   2  -5  -9 1150.22  297.30
 -10   1   533765.86 1483.13
 -10   1   534025.07  989.05
   3 -11   4 8023.35  390.81
  -3  11  -4 7880.10  559.46
   3 -11   4 7645.57  629.25
  -7  -4   8 2703.61  144.78
  -7  -4   8 2635.46  121.16
  -7  -4   8 2459.81  161.41
  -7  -4   8 3028.66  218.06
   3 -11   4 7254.35  629.47
  -7  -4   8 2627.90  170.26
  -7  -4   8 2588.99  122.55
 -10   8   5 8057.93  423.59
 -10   8   5 8423.43  477.33
  10  -8  -5 7977.61  427.27
  10  -8  -5 8180.34  422.58
   7 -10   3 1173.28  266.54
  -7  10  -3 1441.51  198.10
  -7  10  -3 1474.23  172.00
  -7  10  -3 1371.93  226.10
   7 -10   3 1453.83  164.26
   7 -10   3 1337.53  265.92
  -7  10  -3 1077.90   96.81
 -10   1   610740.71  259.00
 -10   1   610113.84  724.38
 -10   1   610261.05  491.68
  -7  11   2  630.91  302.41
  -7  11   2  676.88  164.72
   7 -11  -2   10.69  127.82
   7 -11  -2  592.60  254.36
   7 -11  -2  522.46   71.55
   7 -11  -2  410.72  122.24
  -8  -3   4 1515.68  118.02
   8   3  -4 1252.33  102.06
  -8  -3   4 1634.39  211.00
   9  -5   2 5598.43  240.86
   9  -5   2 5249.32  376.15
  -9   5  -2 6214.42  367.24
  -9   5  -2 6203.56  331.54
  -9   5  -2 5694.33  388.33
  -9   5  -2 5967.82  241.61
   4   5   311531.05  577.07
   4   5   310938.59  500.35
   3 -11  -1 2336.70  205.77
  -4  -5  -311495.48  623.09
   3 -11  -1 2289.10  198.95
  -4  -5  -312160.34  522.63
  -3  11   1 2089.60  347.39
   3 -11  -1 1762.93  181.30
  -3  11   1 1608.60  219.38
   3 -11  -1 1939.87  183.11
  -4  -7   8 1302.24  163.76
   4   7  -8 1430.11  123.65
  -4  -7   8 1011.59  251.67
   4 -11  -2 8692.30  381.29
   4 -11  -2 8798.60  317.29
  -4  11   2 8545.22  282.54
   4 -11  -2 8679.26  311.77
  -4  11   2 8625.61  400.83
   4 -11  -2 9130.04  356.37
  10  -5  -8 7284.03  388.86
 -10   5   8 7587.68  396.72
 -10   5   8 7745.36  385.77
  10  -5  -8 7441.47  387.68
  -9   7   8 2600.86  503.35
  -4  -2  -6 3593.64  322.03
   9  -7  -8 2741.28  278.30
   4   2   6 3514.98  378.55
   9  -7  -8 2392.95  263.74
  -9   7   8 3238.84  292.02
  -4  -2  -6 3899.49  352.32
   4   2   6 3808.79  304.26
  -4   2  -8  -43.25   63.44
  -4   2  -8   11.68  109.26
  -8  -2   911552.89  320.80
   4  -2   8    5.28   60.03
   4  -2   8  100.74  109.23
   4  -2   8  -16.06   61.22
  -4   2  -8   75.77  118.88
  -8  -2   911077.96  243.06
  -8  -2   910355.41  494.74
  -8  -2   911406.11  590.35
  -4   2  -8  -92.81   70.15
   4 -11   4 1009.99  387.82
  -4  11  -4  937.09  183.76
   4 -11   4 1041.54  196.58
   4 -11   4 1166.76  180.39
  -1  -8  -3   13.19  505.13
  -8  -3   7  373.24  140.52
  -8  -3   7   47.88   55.48
   1   8   3 2255.53  257.14
  -1  -8  -3 2255.42  244.12
   9  -8  -7  364.70  160.49
  -9   8   7  335.45  289.84
  -8  -3   7   59.42   43.62
   1   8   3 2093.54  291.34
  -8  -3   7  -61.87   78.95
   9  -8  -7  371.60  169.14
  -8  -3   7   11.05   39.33
  -9   8   7  267.05  157.00
  -8  -3   7   85.46   64.69
  -2  -9   6  238.75  129.69
  -2  -9   6  130.01  228.40
   2   9  -6  133.12   65.26
  -2  -9   6  155.43   77.79
  -4   3  1112700.81  357.40
   4  -3 -1111448.35  313.02
   7  -3 -11 2354.25  307.99
  -7   3  11 3113.19  308.31
  -4   3  1113212.75  860.01
  -4   3  1112013.65  447.15
  -7   3  11 2876.40  328.58
  -4   3  1112451.26  357.13
   4  -3 -1111529.21  349.60
  -7   3  11 3228.41  179.46
  -4   7  -8 9709.23  452.20
  -4   7  -8 9460.72  894.35
   4  -7   810511.42  504.83
   4  -7   8 9881.80  518.01
  -5   2  -722104.99  538.78
  -5   2  -722848.15  483.20
   5  -2   721843.55  472.45
  -5   2  -721618.12 1097.52
  -5   2  -721609.28  534.99
   5  -2   721055.37  735.84
   0   8  -9 2722.99  236.02
   0   8  -9    1.20  251.94
   0  -8   9 2164.03  252.11
   0  -8   9 1928.19  489.07
   5 -10  -5  124.58  139.47
  -5  10   5  247.85   96.33
  -5  10   5  526.45  290.69
   5 -10  -5  581.70  161.35
   5 -10  -5  228.43  149.04
   5 -10  -5  298.14   80.22
  -9   7  -2 5379.47  229.51
  -9   7  -2 5448.19  282.47
   9  -7   2 4429.32  305.61
   9  -7   2 5034.50  199.90
  -9   7  -2 5843.52  485.96
  -9   7  -2 5633.03  507.75
  -9  -1   3 2571.64  524.85
  -9   0   9 4722.18  202.69
  -9   0   9 5019.37  269.68
  -9  -1   3 2733.27  140.77
   9   1  -3 2821.16  191.48
  -9   0   9 4950.78  236.48
  -1   6 -10 2467.41  326.60
   1  -6  10 2598.66  317.28
   1  -6  10 2655.31  294.21
  -1   6 -10 2395.31  300.30
  -7  -3   015868.89 1146.36
   7   3   014509.05  451.49
  -7  -3   016038.43  662.17
  -7  -3   015493.20  486.19
   7 -11   1 4976.93  204.31
 -10   1   4   -7.85  149.67
   7 -11   1 4744.28  628.14
   7 -11   1 4509.04  206.21
  -7  11  -1 5080.80  347.45
   7 -11   1 4710.92  302.62
  10  -1  -4    0.26   36.37
 -10   1   4   96.63  152.27
  -7  11  -1 4791.27  380.89
 -10   1   4  122.66   80.29
  -9   1   0  783.42  122.71
   7  -8  -822944.58  766.98
  -9   1   0 1022.59  219.49
  -7   8   822662.16  749.47
   9  -1   0  775.45  104.21
   7  -8  -822120.64  636.30
  -9   1   0  607.18  237.75
  -7   8   822762.59  667.86
  -7  -4   2  139.92  258.60
   7   4  -2    0.96   60.43
  -7  -4   2  118.16   96.01
  -6   8   815755.18  615.04
   6  -8  -815842.89  623.61
  -6   8   815362.00  274.99
   6  -8  -815069.00  449.88
   6  -8  -815494.27  462.32
  -6   8   815231.31  445.00
  -6   8   815277.94  479.17
  -3   6  -9  127.55  328.61
   3  -6   9  113.67  156.78
   3  -6   9  256.57  165.23
  -3   6  -9  307.39  153.96
   1   9   1  282.57  300.04
  -1  -9  -1  509.09  168.07
  -1  -9  -1  572.79  301.44
  -1  -9  -1  387.43  175.79
   1   9   1  517.63  165.69
  -4   5  1013673.57  452.46
  -4   5  1012837.20  400.17
  -8  -1  10 3286.56  193.71
  -4   5  1012352.04  447.24
  -8  -1  10 2484.26  265.87
  10  -2  -8  -11.04  159.59
 -10   2   8  109.05  208.72
  -4   5  1012448.40  344.41
   1  -9   8 6287.88  431.81
 -10   2   8   97.26  100.57
 -10   2   8   77.34   88.65
   1  -9   8 6186.75  413.42
  -8  -1  10 3097.62  389.90
  -1   9  -8 6398.86  666.32
   1  -9   8 6706.40  642.75
  -1   9  -8 6673.03  442.08
   4  -5 -1012322.12  459.99
   4  -5 -1011997.81  333.88
  -8   5  1013971.17  594.30
   6 -11  -3 5774.21  440.23
  -8   5  1013834.91  563.33
  -6  11   3 5813.00  290.94
   6 -11  -3 5788.86  303.34
   8  -5 -1013194.23  475.57
  -6  11   3 6140.78  360.87
   6 -11  -3 5631.91  189.38
   6 -11  -3 5638.47  530.32
  -8   5  1013516.04  723.66
   2   5 -11 5264.49  405.35
  -2  -5  11 5467.31  385.33
  -2  -5  11 5540.77  327.19
   2   5 -11 5660.11  341.57
   9 -10  -2  275.73  119.93
   9 -10  -2  139.56  158.17
   7  -1   4   -9.23  185.51
  -7   1  -4  133.26  116.61
  -7   1  -4   53.63  119.50
  -9  10   2  233.06  149.49
  -7   1  -4   15.21  111.35
  -9  10   2   84.73  246.18
   2 -11   419795.14  537.30
   7   1 -11  736.86  131.83
   1   0 -11 3488.15  138.41
  -7  -1  11  678.20  150.63
  -1   0  11 3555.54  289.63
  -7  -1  11 1070.44  206.99
  -7  -1  11 1105.97   67.46
  -7  -1  11 1130.11  207.16
  -1   0  11 3727.16  144.72
  -1   0  11 3564.12  258.38
   2 -11   420112.83  652.15
   2 -11   420253.53  670.00
  -2  11  -418510.51  503.94
   0 -10   0 1358.90  176.48
   0 -10   0 1507.76  382.36
   0  10   0 1464.61  338.78
   0 -10   0 1534.96  222.10
  -3   7   810079.98  254.66
   3  -7  -810316.13  851.61
  -3   7   810144.60  433.34
  -3   7   810473.30  476.40
   3  -7  -8 9462.80  341.38
  -3   7   8 9784.56  343.21
  -1  -2  -9 8993.28  448.79
  -2  10   320521.20  588.30
  -1  -2  -9 8789.08  354.33
   2 -10  -321107.17  607.52
   2 -10  -321594.52  699.88
   1   2   9 9605.18  505.76
   1   2   9 9030.29  258.90
  -2  10   320893.06  708.56
   1   2   9 8739.44  228.68
   1   2   9 9381.82  360.42
 -10   1   7  549.98  174.82
 -10   1   7  891.98  185.05
  -4  10  -631622.47  975.18
   4 -10   630250.52  860.93
  -6  -4  10 1399.73  193.17
  -4  10  -631272.52 1341.82
  -6  -4  10 1516.77  295.15
 -10   1   7  739.73  164.30
   4  -9   7 2022.44  310.88
   4 -10   630884.50  993.01
  -4   9  -7 2119.18  314.64
   4  -9   7 2134.09  445.33
  -4   9  -7 2036.38  271.59
 -10   8   1  516.81  163.11
  10  -8  -1  786.13  285.36
  10  -8  -1  601.00  324.20
 -10   8   1  554.54  169.24
 -10   8   1  515.59  333.78
  -6   7   9   -9.14  104.96
  -6   7   9   68.59   68.32
  -6   7   9   66.61   93.62
   6  -7  -9  222.66  143.39
  -6   7   9  201.31  211.78
   6  -7  -9  105.98   93.35
   1  -8   9  405.73  199.65
  -9  -1   814590.14  496.13
  -9  -1   814247.17  374.45
  -1   8  -9  342.37  247.43
  -1   8  -9   -0.31  158.94
   1  -8   9  389.54  304.94
  -9  -1   813859.67  332.62
  -7   7   9 2831.02  252.33
  -7   7   9 2743.76  271.88
   7  -7  -9 2615.59  247.37
   7  -7  -9 3135.77  290.19
  -7   7   9 2621.64  260.75
  -8  -2   1  877.80  239.24
  -8  -2   1  790.69  234.46
   8   2  -1    1.66   57.87
  -8  -2   1 1087.77  237.59
  10  -2  -2 2417.80   91.16
 -10   2   2  605.93  402.86
  -5  -5  1013541.89  447.60
  -5  -5  1013683.43  380.70
  10  -2  -2 2075.91  178.82
  -5  -5  1013430.12  484.96
  -6  -5   1  275.67  131.85
  -6  -5   1  466.35  184.82
   6   5  -1    0.09  105.55
   6   5  -1  335.75  145.81
  -1  -8   9 8810.86  436.15
  -1  -8   9 8497.29  448.84
   1   8  -9 8138.61  696.68
  -1  -8   9 8726.08  419.17
   1   8  -9 8958.39  463.10
  -6   8  -6 -148.36  105.67
  -6   8  -6   18.21   34.06
  -6   8  -6  -32.79   96.38
  -6   8  -6   24.69   52.37
   6  -8   6  113.49  138.09
   6  -8   6   50.12  120.46
  -9  10   3 1588.25  241.55
  -9  10   3 1607.92  249.07
   0 -10   623584.24 1198.55
   0 -10   624105.38  646.08
   9 -10  -3 1609.71  239.86
   0 -10   624235.91  755.85
   0  10  -623081.31  584.54
   9 -10  -3 1594.40  361.21
   0   9  -8    0.34  109.53
   0  -9   8   91.69   95.48
 -10   6   0  358.47  128.20
   0  -9   8  -80.96   89.50
   9   0  -1 2039.06  125.95
   0   9  -8   -9.67   91.94
  -9   0   1 3171.43  182.08
 -10   6   0  120.56   96.23
 -10   6   0   40.76   97.16
  -9   0   1 3002.89  350.26
   0  -9   8   -1.93   96.62
 -10   6   0   31.47  146.77
  10  -6   0   -8.45   92.51
  10  -6   0  -79.16   77.35
 -10   7   7 5597.70  393.81
 -10   7   7 6068.76  373.92
  10  -7  -7 5691.90  648.37
  10  -7  -7 6064.03  366.92
  -8   6  -420118.48  541.53
  -8   6  -420007.74  804.35
   2 -11   017927.73  457.28
   2 -11   017304.40  573.48
  -2  11   016425.25  769.83
  -3  10   4  392.09   69.01
  -8   6  -419887.68  879.41
   8  -6   418966.94  518.33
  -2  11   016534.48  353.83
   3 -10  -4   -3.92   88.00
   3 -10  -4   38.32   40.99
   2 -11   017910.89  579.05
   2 -11   017997.28  429.76
  -3  10   4  185.92  113.48
   3 -10  -4  142.91  126.08
  -8   6  -419594.34  501.83
   8  -6   418099.04  540.42
   3 -10  -4  100.64   84.64
  -3  10   4  208.49  166.84
   3  -2   9 3123.03  576.65
  -3   2  -9 3257.44  142.40
  -3   2  -9 3269.64  149.77
  10  -3  -1  167.00  102.03
  -3   2  -9 3339.00  228.27
   3  -2   9 3175.99  156.54
 -10   3   1  205.62  253.57
  -3   2  -9 3645.78  320.78
 -10   3   1  -75.07  164.16
 -10   3   1  187.17   55.85
   3  -2   9 3341.28  203.69
 -10   3   1   28.05   56.75
  10  -3  -1   91.06   46.70
   9  -3 -10 9486.67  360.26
  -9   4  -216711.84  623.06
  -9   4  -216619.52  432.81
   9  -4   214427.14  352.31
  -9   3  1011231.27  499.07
  -9   3  1011220.87  490.58
   9  -4   214281.67  403.75
  -9   3  1010321.15  348.96
  -9   4  -215367.84  516.57
  -9   4  -215899.26  571.04
  -9   9  -1 5497.12  358.50
   9  -9   1 5376.75  252.51
   9  -9   1 5697.14  199.89
  -9   9  -1 5775.05  326.78
   9  -9   1 5348.69  390.81
  -9   9  -1 5953.45  270.62
  -9   9  -1 5455.11  307.16
   5 -11  -3 2814.47  167.03
  -5  11   3 2416.51  470.34
   5 -11  -3 2747.69  279.07
   5 -11  -3 2689.35  241.38
  -5  11   3 2723.31  189.65
   5 -11  -3 2512.59  164.28
  -9   2  10  782.29  167.86
  -9   2  10  474.93  109.93
   9  -2 -10   14.49   73.71
   3  -8  -710095.99  352.60
  -3   8   710183.96  355.41
  -3   8   7 9956.09  262.23
   3  -8  -7 9774.95  918.34
  -3   8   710855.34  515.63
  -3   8   710750.75  351.48
   8  -2   3 4551.32  484.56
   8  -2   3 4512.99  210.22
   9  -2   114698.45  380.47
  -8   2  -3 5005.71  136.84
  -9   2  -115679.23  283.09
  -8   2  -3 4241.69  277.58
  -8   2  -3 5610.47  357.43
   9  -2   114216.02  263.06
  -9   2  -115684.59  675.15
  -9   2  -115930.10  429.17
  -8   2  -3 4735.96  333.14
  -9   2  -115976.44  622.00
  -9  10   1  904.09  225.63
   9 -10  -1  813.00  141.37
  -9  10   1 1006.78  188.97
  -7   3  -528863.38  560.62
  -7   3  -529718.15  757.25
  -7   3  -528345.28  709.07
   9 -10  -1  621.50   74.50
   9 -10  -1  698.41  103.10
   7  -3   527340.78 1168.14
   9 -10  -1  826.82  215.72
   7  -3   527111.95  542.29
  -7   3  -529559.32  807.01
  -3  -5  11 1685.00  237.68
  -3  -5  11  -37.15  398.67
   3   5 -11    2.78  302.05
   3   5 -11 1723.13  234.28
  -8  10   5 2105.81  243.40
  -8  10   5 2290.96  492.52
  -8   5  -4 2307.63  194.31
   8 -10  -5 2250.83  261.17
   8 -10  -5 2009.06  234.64
   8  -5   4 2351.72  203.31
   8  -5   4 2360.25  183.36
  -8   5  -4 2546.49  296.57
  -8   5  -4 2494.48  218.99
   0   3 -11  218.30  169.21
   9  -6  -9  302.53  151.06
   0  -3  11  377.36  166.38
  -9   6   9 -173.83  172.82
   9  -6  -9   36.79  257.69
 -10   5   015032.04  593.33
 -10   5   015456.18  399.88
 -10   5   015884.78  328.78
   0   3 -11  374.69  160.88
  -9   6   9   71.71  108.00
  10  -5   014849.98  418.87
   0  -3  11  393.26  157.38
  10  -5   013820.72  393.49
 -10   5   015386.62 1085.95
  -9   6   9  -27.61  106.47
   1   5 -1121887.66  759.96
  -1  -5  1123648.58  834.75
   1   5 -1123937.10 1293.25
  -1  -5  1123427.45  740.01
  -7   9   7  260.86  135.38
   7  -9  -7  262.19  159.66
  -7   9   7  326.27  170.45
   7  -9  -7  179.87  114.29
   2   9  -1 8937.96  419.23
  -2  -9   1 9809.53  458.49
  -2  -9   1 9323.73  447.83
   2   9  -1 8859.60  397.63
  -2  -9   1 9806.60  383.19
   7 -11  -3  296.37   61.64
   7 -11  -3  -24.34  129.98
   7 -11  -3  236.85  127.21
   7 -11  -3  362.85   63.02
  -7  11   3  450.14  260.69
  -7  11   3  420.86  167.57
  -2   9  -821171.06  720.97
   2  -9   821102.19  802.96
   2  -9   820409.43  686.16
  -2   9  -822292.21  830.27
  -6  11  -311251.67  785.35
   6 -11   311961.24  238.00
   5  -8   7 9008.98  503.62
   6 -11   311485.51  573.28
   6 -11   311916.55  617.37
  -5   8  -7 9118.66  767.17
  -5   8  -7 8958.36  841.94
   5  -8   7 8272.37  453.25
   6 -11   311534.06  405.65
  -6  11  -311380.86  276.47
   6  -9  -7 2034.01   96.94
   1  -9  -418506.39  716.11
  -6   9   7 2134.48  291.12
   1  -9  -417404.12  583.91
   6  -9  -7 1981.61  174.39
  -6   9   7 2104.94  195.68
  -6   9   7 1986.11  163.23
   6  -9  -7 1788.56  106.78
  -1   9   417845.75 1078.09
   6  -9  -7 2117.68  280.95
  -1   9   417201.52  565.54
  -6  -4  -113828.22  632.56
   8  -9   3  -79.44  143.33
  -8   9  -3  110.47  160.62
  -6  -4  -113867.56  518.72
  -1  -7  1020155.86  989.48
   1   7 -1020434.37  713.61
  -8   9  -3   69.68  130.77
   8  -9   3  -85.64   86.61
   1   7 -1019582.12  700.41
   6   4   112352.61  481.16
  -1  -7  1020440.89  762.58
   6   4   112683.42  605.79
  -6  -4  -113682.19  679.43
  -8   9  -3   57.51   67.32
  -8   9  -3   41.21  122.79
   5   3   4  -19.47  233.11
   5   3   4  -62.04  142.13
  -5  -3  -4  -13.15  119.26
  -5  -3  -4   73.70  139.01
   9  -9  -622064.26  710.45
  -9   9   623763.93  823.29
   9  -9  -622655.62  742.02
  -9   9   623159.89  752.81
  -5  -7   5  482.64   96.28
   6  -2   6 2761.97  133.46
  -5  -7   5  399.29  132.82
  -6   2  -6 2798.83  137.11
  -6   2  -6 3272.66  213.38
  -5  -7   5  198.15  231.86
  -6   2  -6 3010.91  217.36
  -6   2  -6 2655.16  271.73
   6  -2   6 2563.34  290.11
  -8  -3   3   -9.51  200.90
  -8  -3   3  789.12  112.40
   8   3  -3    0.86   48.27
  -3   6   9 5805.85  276.17
   3  -6  -9 4986.40  268.88
  -3   6   9 5642.68  339.51
  -3   6   9 5642.89  351.08
  -3   6   9 5610.47  241.05
   3  -6  -9 5240.41  365.92
   2  -9  -5 3680.77  251.70
  -2   9   5 3401.17  343.98
   2  -9  -5 3396.56  622.85
  -2   9   5 3949.76  253.21
  10  -7   0 1531.89  133.54
 -10   7   0 1440.86  220.70
  -7   8  -5  376.38  137.92
 -10   7   0 1495.15   96.20
  -7   8  -5   84.99  135.43
   7  -8   5  -10.87  141.08
  -7   8  -5  235.09  113.90
  -7   8  -5   70.14  102.46
 -10   7   0 1461.93  252.73
   7  -8   5  177.57  113.61
  10  -7   0  -22.49  192.80
 -10   7   0 1552.33  186.56
  -1  10   2  259.66  237.71
   1 -10  -2  297.45  151.79
   6   0   517413.12  691.66
   1 -10  -2  452.87  270.94
  -1  10   2  245.61  154.32
   6   0   516699.27  613.89
  -6   0  -518159.70  660.32
  -6   0  -518851.60  624.30
  -6   0  -519007.90  630.14
   1 -10  -2  453.95  159.12
  -1 -10   4 5991.78  369.92
   2  -4  1016091.15  571.14
   1  10  -4 5697.01  181.68
   1  10  -4 5986.64  161.07
 -10   8   6 2860.58  303.51
  -1 -10   4 5869.19  378.73
   2  -4  1015550.38  611.11
 -10   8   6 3253.99  324.21
  -2   4 -1016592.26  581.44
  10  -8  -6 2587.54  497.94
  -1 -10   4 6173.40  146.82
  -2   4 -1015608.53  650.73
  10  -8  -6 2633.83  289.66
  -6   4  1123750.24  744.46
  -1 -10   3  362.48  168.46
   6  -4 -1122437.48  613.19
   1  10  -3  539.51  104.68
  -6   4  1123795.60  589.10
  -1 -10   3  475.72  167.97
  -6   4  1123808.61  801.09
  -1 -10   3  460.58  130.69
   5 -11   4 5421.72  319.73
   5 -11   4 5505.38  299.40
   8  -8  -8  487.72  161.09
   8  -8  -8  610.43  322.64
  -5  11  -4 5436.15  356.15
  -8   8   8  529.89  168.93
  -8   8   8  458.33  183.58
   5 -11   4 5242.58  405.66
   0  -2  11 2609.01  251.00
   0  -2  11 2780.95  275.76
   0   2 -11 2650.16  286.16
   0  -2  11 2580.74  282.01
   0   2 -11 2702.21  467.42
   4   1 -12  556.17  118.72
  -7  -3  10 2183.54   93.84
  10  -6  -8 4937.60  349.93
  -6  -6   5 2130.83  180.03
 -10   6   8 5709.07  359.57
  -4  -1  12  706.84  126.62
  -7  -3  10 1840.87  117.22
  -4  -1  12  695.39  231.36
  -6  -6   5 2111.68  177.42
  -6  -6   5 2193.44  304.65
  -4  -1  12  607.04  199.91
  -7  -3  10 1946.74  317.62
  10  -6  -8 5414.50  353.95
 -10   6   8 5297.54  360.53
  -8  10  -215930.49  446.50
  -8  10  -216738.81  628.84
   8 -10   215700.21 1095.92
  -8  10  -216374.11  666.09
   8 -10   215157.28  411.84
   8 -10   216152.44  377.84
  -5   8   8   20.22  107.28
  -8   7  -4 4006.24  259.39
   5  -8  -8 -113.76   63.40
   8  -7   4  713.73  456.37
   5  -8  -8   63.18   51.11
   8  -7   4 3490.84  215.89
  -5   8   8  111.47  105.42
  -8   7  -4 3551.04  206.82
   5  -8  -8  -54.23  203.58
  -5   8   8   35.49   45.80
  -5   8   8 -112.41   68.26
  -8   7  -4 3837.49  263.21
  -8   7  -4 3616.47  188.06
   0  -4  11  111.41  149.73
   0  -4  11  170.87  137.21
   0   4 -11  226.55  263.16
   0   4 -11   27.16  275.02
  -6  -5   9 7052.36  304.68
  -6  -5   9 7392.85  244.70
   0  -7  10 2057.53  257.77
  -6  -5   9 7726.87  232.29
   0   7 -10 2012.50  240.84
  -6  -5   9 7570.22  388.74
   0   7 -10   -0.35  244.48
   0  -7  10 2034.16  303.85
  -5  -7   4  454.38  112.77
  -5  -7   4  317.92  127.85
  -5  -7   4  178.85  131.62
   1   0  10 3431.43  291.55
  -1   0 -10 3438.76  291.61
  10  -9  -311270.87  513.19
   1   0  10 3318.11  226.73
 -10   9   311864.22  565.31
   1   0  10 3228.53  332.38
   1   0  10 3335.87  200.25
  -1   0 -10 3065.57  283.81
 -10   9   312129.03  527.96
  10  -9  -310856.71  460.78
   1   6   6 2945.89  334.04
  -1  -6  -6 3315.26  296.81
  -1  -6  -6 3077.11  361.26
   1   6   6 3092.50  325.87
  -8  -3   8  579.35   87.12
  -8  -3   8  731.81  116.99
  -8  -3   8  935.30  112.19
  -8  -3   8  758.03   80.38
  -8  -3   8  716.79  120.53
  -1  -5  -7 6748.36  416.39
  -1  -5  -7 6717.92  441.69
   1   5   7 6536.10  712.53
   1   5   7 7408.34  445.75
  -9   8  -2 5990.83  302.65
   9  -8   2 5433.04  205.70
  -9   8  -2 6196.94  242.44
   9  -8   2 5425.91  361.51
  -9   8  -2 5858.81  268.24
  -9   8  -2 6155.92  336.02
  -8   2  11 2463.10  518.92
  -8   2  11 2383.67  153.13
  -8   2  11 2998.41  287.04
   8  -2 -11 2205.17  164.43
  -2   3 -10 3734.31  337.54
  -2   3 -10 3793.31  293.22
   5   0 -12   73.63   62.17
   2  -3  10 3554.08  254.45
  -9   4  10  348.30  183.06
  -9   4  10  337.81  178.68
  -5   0  12  154.05   74.91
   9  -4 -10  369.33  235.32
   2  -3  10  401.83  544.53
  -5   0  12  109.74  149.42
  -9   4  10  503.26  127.35
  -5   0  12   69.69  165.58
  -5  -4  11 2687.48  261.11
  -5  -4  11 2343.47  173.52
   5   4 -11 2571.24  160.13
  -5  -4  11 2429.07  454.20
  10  -1  -3 4822.87  212.48
 -10   1   3 5686.32  408.00
  -6  -3  11 5666.88  335.95
 -10   1   3 4437.36  734.89
  -5  -7   6 6419.46  300.22
  -6  -3  11 5225.09  204.77
  -5  -7   6 6784.38  304.43
  -6  -6   6 5438.58  415.17
  -5  -7   6 7025.18  195.76
  -6  -6   6 5665.23  352.84
  -6  -6   6 5774.74  419.28
  -6  -3  11 5661.94  340.14
  -5   7   910881.99  482.32
  -5   7   910203.59  386.17
   3   7   213523.76  558.73
   5  -7  -910316.50  506.14
  -5   7   910722.14  266.40
  -5   7   910654.69  357.65
  -3  -7  -214648.63  691.61
  -3  -7  -214205.37  571.13
   3   7   213191.46  644.28
   5  -7  -910386.72  287.54
   5   4   319116.98  688.78
   5   4   318349.37 1238.52
  -5  -4  -319366.29  664.61
  -5  -4  -319757.84  826.43
   0   6   7  289.13  300.36
   0  -6  -7  267.31  196.67
  -4   0  12 -117.78  136.92
   0   6   7  319.82  174.10
  -4   0  12   13.86  273.74
   0  -6  -7  533.63  280.89
   4   0 -12  215.19   93.77
  -5  -6   9  653.55  222.96
  -5  -6   9  918.71  237.34
   9 -10  -4  560.64  185.49
  -9  10   4  409.23  184.15
  -9  10   4  417.69  173.28
   9 -10  -4  575.99  171.23
  -5  -2  -513363.18  597.47
   5   2   513514.65  639.85
  -5  -2  -513642.62  612.30
   5   2   513644.96  592.48
  -4  -6  10 4847.78  315.27
  -4  -6  10 5622.64  300.41
   4   6 -10 5631.17  311.03
  -4  -6  10 4826.56  264.84
   8 -11  -1 4075.47  326.92
   8 -11  -1 3305.49  210.08
  -8  11   1 3732.50  323.60
  -8   1  11 6909.61  414.09
  -1  11  -325641.24  545.27
  -8   7   9 1095.65  213.98
   1 -11   326232.64  446.95
  -8   7   9 1036.37  389.51
   1 -11   326307.38  800.34
  -8  11   1 3650.77  276.98
  -8   7   9 1155.09  205.15
   8  -7  -9 1083.76  202.17
   8  -7  -9 1067.03  218.99
  -8   1  11 6886.40  407.46
  -1  11  -324954.71  504.69
   2   5   6  423.39  199.23
  -2  -5  -6  300.40  192.23
   1 -11   326093.02  797.31
   8  -1 -11 6424.97  377.68
   1 -11   325917.91  496.60
   8 -11  -1 3691.39  372.70
   2   5   6  355.04  190.41
   8 -11  -1 3445.64  222.66
  -8   1  11 6662.51  319.80
  -2  -5  -6  274.45  168.71
   4   7   013521.23  504.24
  -9   1  1016621.59  536.91
  -5  -1  12 8424.95  862.04
  -5  -1  12 8993.59  488.57
  -4  -7   014479.97  638.95
  -9   1  1015352.93  453.46
  -9   1  1016659.76  395.89
   4   7   012706.96  563.90
  -5  -1  12 8200.60  268.44
   9  -1 -1014604.33  642.53
   5   1 -12 8031.89  241.07
  -4  -7   014512.53  548.31
   5  -4 -11  533.19   84.40
  -5   4  11  638.12  179.21
   5  -4 -11  737.13  235.61
 -11   5   5 1038.21  456.59
  11  -5  -5  801.50  209.50
  -5   4  11  569.16  157.19
  11  -5  -5  730.74  149.34
 -11   5   5 1093.98  250.02
  -5   4  11   12.62  214.95
  -3  -8   812067.84  397.38
   3   8  -812692.37  360.59
  -3  -8   812762.43  730.10
  10  -9  -4  -65.75   96.08
 -10   9   4    7.89  230.13
  10  -9  -4   69.19  105.36
 -10   9   4   50.55  123.13
   3 -11   5 8977.17  445.86
   2  -5  10 7103.42  433.76
   2  -5  10 7095.66  421.06
 -10   9   211499.54  511.51
 -10   9   211461.46  537.45
  10  -9  -211702.14  875.63
  -2   5 -10 7255.27  468.00
  10  -9  -211653.99  466.33
  -2   5 -10 7187.38  417.63
   3 -11   5 8606.50  451.02
  -3  11  -5 9272.76  667.80
   3 -11   5 8876.98  419.84
  -6  -6   4  521.81  124.75
  -6  -6   4  340.91  141.82
  -6  -6   4  374.30  125.23
  -7  11  -2 5610.86  232.48
   7 -11   2 5642.01  239.93
  -1   3  1010374.23  761.43
   1 -11   2 1045.99  200.70
   1 -11   2  983.16   93.90
   1 -11   2 1046.11  350.73
  -1   3  1010143.16  292.48
  -1   3  1010117.46  342.77
   1  -3 -10 9271.06  364.52
  -1  11  -2 1063.16   90.68
  -1  11  -2  813.74  121.25
   1 -11   2  901.64   76.03
   7 -11   2 5537.20  292.47
  -4  -2  12 3319.93  200.96
   7 -11   2 6066.24  727.90
  -4  -2  12 3079.79  353.91
   1  -3 -10 9765.21  406.91
  -1   3  1010313.36  369.69
   7 -11   2 5546.52  248.14
  -7  11  -2 6003.14  379.40
   4   2 -12 3065.56  192.99
  -2  10  -7 2489.40  319.42
  -2  -7  10 6125.44  344.73
  -2  -7  10 6201.36  395.46
   2 -10   7 2683.79  303.18
   2 -10   7 2309.30  274.12
   8 -11  -212739.04  248.06
  -8  11   213618.87  909.31
  -2  10  -7 2197.50  256.31
   2   7 -10 6202.53  379.91
   8 -11  -212188.12  249.87
   8 -11  -213289.26  438.49
   2   7 -10 6463.81  369.52
   2 -10   7 2356.71  533.37
  -8  11   213048.04  504.11
   8 -11  -212517.07  525.17
  -4  -8   5  540.67   80.56
  -7   4  11 2086.79  175.96
  -4  -8   5  492.35  148.11
   7  -4 -11 1484.63  180.40
  -7   4  11 1774.20  445.10
  -4  -8   5  372.57  152.59
  -7   4  11 1568.18  283.76
   0   9   3 8601.79  412.10
   0   9   3 7871.83  470.75
   0  -9  -3 8208.27  715.37
   0  -9  -3 9312.87  515.50
   8  -4   4 2210.27  383.58
  -8   4  -4 2761.90  220.93
  -8   4  -4 2305.95  241.10
  -8   4  -4 2493.39  228.35
  -8   4  -4 2914.80  250.30
   8  -4   4 2588.39  258.64
   3   1   8 1667.68  101.45
  11  -5  -4 3165.87  312.29
   3   1   8 1890.89  310.44
   3   1   8 1803.00  176.11
 -11   5   4 2663.49  688.82
  -3  -1  -8   66.47  247.34
  -3  -1  -8 1846.12  185.00
   3   1   8 2033.72  196.65
 -11   5   4 3368.84  212.03
 -11   5   4 3167.50  351.03
  11  -5  -4 2300.13  204.16
   2  -4 -1015527.58  518.67
  -6   6  10  231.04  129.92
  -2   4  1017770.25  536.82
   2  -4 -1016037.97  499.71
  -2   4  1017849.82  574.41
   6  -6 -10  135.75  107.10
  -6   6  10  226.22  200.60
   6  -6 -10  -16.51   68.83
  -2   4  1017424.54  434.58
  -2   4  1017433.39  738.27
  -6   6  10  -15.56  120.54
   2   9  -7 2726.35  279.02
   4   6   2 1854.38  262.22
  -4  -6  -2 2329.48  582.06
  -2   2  11 3923.42  239.43
  -4  -6  -2 2079.25  271.28
   4   6   2 2133.56  310.54
  -2  -9   7 2449.01  187.22
  -2  -9   7 2140.40  439.82
  -2   2  11 4132.12  289.67
  -2   2  11 4132.73  494.32
   2  -2 -11 3758.05  198.77
   2  -2 -11 3953.34  240.34
  -2   2  11 4263.19  199.66
  -4  -8   4 8301.39  272.86
   4   8  -4 7643.25  289.12
  -4  -8   4 8044.20  390.30
  -4  10   5  725.60   97.89
   4 -10  -5  885.43  208.59
  -4  10   5  474.63  117.79
  -1 -10   5 8359.96  226.76
   4 -10  -5  734.00  123.88
   4 -10  -5  714.16   83.80
  -4  10   5  964.84  215.04
  -1 -10   5 7584.67  416.93
   1  10  -5 8337.26  359.52
  -1 -10   5 8314.19  725.15
  -8   9   7 6841.85  453.05
   8  -9  -7 7080.15  419.32
   8  -9  -7 7043.23  363.03
  -8   9   7 7420.30  389.80
   3 -11  -2  733.05  143.60
  -1 -10   216298.10  400.57
   1  10  -214624.48  428.27
  -3  11   2  592.16  157.68
   3 -11  -2  573.21   71.03
  10  -4   0 1528.86  101.96
   3 -11  -2  656.84  153.89
  -1 -10   216225.37  987.72
  10  -4   0 1717.05  128.95
  -1 -10   216651.86  606.50
  -3  11   2  867.09  179.31
 -10   4   0 1500.51  200.88
 -10   4   0 1109.12  429.24
   1 -10   716167.06  968.12
   1 -10   715742.22  631.24
  -1  10  -716283.37  553.10
   1 -10   715347.30  609.47
  -7   6  1010659.25  444.27
  -7   6  1010762.76  767.98
  -3  -1  12  821.95  195.06
  -7   6  1010961.49  820.61
  -3  -1  12  844.75  216.28
   7  -6 -10 9468.60  706.16
   3   1 -12  849.81  155.78
  -3  -1  12  -28.62  244.93
 -11   6   410039.08  539.74
 -11   6   410123.38  387.69
 -11   6   4 9837.16  587.86
  11  -6  -4 9450.43  389.27
  11  -6  -4 8873.49  477.54
  -3  -2  12  160.79  157.28
   3   2 -12  105.56  186.31
  -3  -2  12  380.77  175.68
  -3  -2  12  109.51  105.90
 -10   1   8 5673.25  355.24
 -10   1   8 5658.22  287.30
 -10   1   8 5986.54  236.86
   9 -10   0 3197.80  352.03
   3   8   0  799.47  191.15
   9 -10   0 2945.40  117.94
 -11   6   5   -9.92  138.81
   3   8   0  756.39  363.09
   9 -10   0 2840.51  332.69
   9 -10   0 3005.83  135.78
 -10   3   9 4796.29  300.84
  -3  -8   0  899.19  208.24
  -9  10   0 2725.68  309.06
 -11   6   5 1070.52  202.50
  11  -6  -5 1145.56  334.41
  11  -6  -5 1165.46  235.87
 -10   3   9 4590.28  272.00
  -9  10   0 3362.34  267.38
  -3  -8   0  892.75  377.63
  10  -3  -9 4135.69  280.29
  -7  -4   911975.00  390.63
  -7  -4   912929.67  277.96
  -7  -4   912979.04  322.27
  -7  -4   912413.81  289.72
   0  -7  -615705.86  576.72
   0  -7  -615796.46  721.46
   0   7   615528.58  663.94
   0   7   615610.23  592.45
   4   1   719443.41  627.44
  -4  -1  -718892.65  617.39
   4   1   719429.54 1324.72
  -8   3  11 7038.56  259.42
 -10   4   9  153.64  122.61
  10  -4  -9    0.20   95.43
   8  -3 -11 6791.51  283.25
  -1  -9   812031.95  514.78
  -8   3  11 7036.39  735.47
  -4  -1  -719170.84  728.96
 -10   4   9  197.69  136.43
   1   9  -811533.83  423.16
  10  -4  -9   26.79  101.05
  -8   3  11 7346.18  447.75
  -1  -9   811730.79  494.98
  -1  -9   811508.15  484.17
  -3   3  11   31.80  104.22
   3  -3 -11   88.58  142.92
   3  -3 -11  122.90  152.37
   3  -7   911494.56  921.19
  -3   7  -911370.52  523.18
   3  -7   911016.68  583.39
  -3   3  11  354.25  105.53
  -3   3  11    4.27   86.90
  -3   3  11  224.70  126.11
  -3   7  -910815.35  604.40
   2  -8   9 7658.80  506.67
  -2   8  -9 6875.72  527.97
  -2  11  -5  -12.25  151.23
   2 -11   5 2350.65  245.70
   2 -11   5 2629.12  279.87
  -2   8  -9 7099.44  442.41
   2  -8   9 6549.61  432.92
   2 -11   5 2410.76  264.11
   2   8   214521.57  628.76
  -2  -8  -216989.14 1124.43
  -2  -8  -215479.64  612.95
  -5   1  12 1581.43  230.25
  -5   1  12 2021.51  106.37
   5  -1 -12  457.67  165.57
   2   8   214681.56  583.28
   5  -1 -12 1728.92  183.66
  -5   1  12 2132.49  306.08
  -5   1  12 1969.02  264.30
 -11   4   5 5055.67  236.41
 -11   4   5 4860.47  686.31
 -11   4   5 4990.81  428.29
  11  -4  -5 4458.68  235.47
  -2  -6  -521142.40  748.52
   2   6   519785.96 1271.78
  -2  -6  -520858.58  852.63
   2   6   520870.85  753.76
   5  -9  -711297.14  322.85
  -5   9   711245.40  356.79
  -5   9   711478.72  313.63
   5  -9  -712124.17  961.58
  -5   9   710917.70  275.31
  -5   9   712008.61  559.79
   5  -9  -711479.75  456.85
  -9  -1   2 3816.64  362.10
  -9  -1   2 3819.55  370.16
   9   1  -2 3772.40  155.19
  -9  -1   2 3721.83  187.43
   0  -5  -8 4441.45  352.91
  -8  11   0   99.24  144.62
   0   5   8 4066.99  354.07
   8 -11   0  276.59  115.23
   8 -11   0  133.58  110.00
   8 -11   0  168.77   89.79
   0   5   8 4256.43  331.82
  -8  11   0  168.34  108.47
   0  -5  -8 4072.57  353.64
   8 -11   0   12.91  158.52
 -11   5   6 2374.92  215.07
   2   8  -9 2898.93  250.07
   2   4   715998.35  733.34
  -2  -8   9 2527.59  244.30
  11  -5  -6 1807.09  270.22
  -2  -4  -716878.31  705.03
  -2  -4  -716597.50  679.62
   2   4   717110.12  647.53
  -2  -8   9 2334.97  256.32
  11  -5  -6 1977.64  210.27
 -11   5   6 1563.26  530.21
   4  -1   8 3607.36  366.32
   5   6   025735.15  883.44
  -4   1  -8 3953.99  217.44
  -4   1  -8 3836.43  336.98
   5   6   026529.41 1139.24
  -4   1  -8 4030.05  299.08
  -4   1  -8 4245.54  362.38
  -5  -6   027452.92  949.32
   4  -1   8 4037.36  367.03
  -5  -6   028566.77 1225.55
   4  -1   8 3839.10  171.84
  -1  11  -4 3751.94  199.75
   1 -11   4 4170.02  320.63
   1 -11   4 3721.10  554.63
   1 -11   4 4052.18  191.09
  -9  -2   6 6731.05  158.64
  -9  -2   6 6856.45  169.92
  -9  -2   6 6257.42  375.68
  -9  -2   6 6320.02  320.12
   4 -11  -3 3290.16  235.14
  -3   9   6  767.93  141.59
   3  -9  -6  825.38  239.63
  -4  11   3 3737.92  185.73
  -3   9   6  708.99   73.56
  -3   9   6  883.64   87.30
   4 -11  -3 3201.07  213.37
   4 -11  -3 3840.60  275.64
   3  -9  -6  712.49  143.44
  -4  11   3 3394.93  321.13
   4 -11  -3 3124.57  213.14
  -3   9   6  828.36  223.92
  -5  -7   3  372.33  140.39
   5   7  -3  325.77  134.33
  -5  -7   3  353.43  141.56
  -5  -7   3  322.58  141.37
   4  -8   8 6676.07  433.49
   0   1 -11 5142.73  338.62
   0  -1  11 5743.37  377.18
   0   1 -11 5290.94  150.73
   0  -1  11 5270.16  343.75
  -4   8  -8 6694.02  405.23
   0   1 -11 5298.43  336.28
   4  -8   8 6887.58  479.68
  -4   8  -8 5238.83  470.85
   0  -1  11 5455.87  301.89
   0  -1  11 5697.51  162.53
  -9  -2   5 7554.47  399.39
  -9  -2   5 8317.87  217.06
  -9  -2   5 8367.70  197.53
  -9  -2   5 8883.08  750.91
  -4  -5  11  273.39  254.23
  -1  -7  -5  157.54  143.51
  -7  -5   514525.70  486.82
  -1  -7  -5   15.34  314.39
   4 -11   5  429.69  252.47
   4 -11   5  219.15  158.85
   1   7   5  118.77  156.67
   4 -11   5  317.92  180.25
  -4  11  -5  382.70  160.57
  -7  -5   514561.30  393.64
  -4  -5  11  199.57  105.53
  -7  -5   514212.34  605.57
   4   5 -11   36.03  143.90
   1   7   5  231.14  171.74
  -4  -5  11   67.11  147.08
  -7  -5   612210.28  600.04
  -4  -8   618616.68  583.00
  -7  -5   611910.63  326.24
  -7  -5   611947.46  327.33
  -7  -5   612169.42  327.18
  -4  -8   619296.17  579.84
  -6   0  12 9828.34  254.56
   6   0 -12 9637.08  216.29
 -11   4   613545.24  610.21
  -7  -2  11 7994.38  654.39
 -11   4   614345.39  428.12
  -7  -2  11 8246.23  686.34
  11  -4  -613114.86  572.90
  11  -4  -612847.75  417.15
  -6   0  1210501.45  556.46
  -6   0  12 9849.55  506.97
 -11   4   614469.15  619.52
  -6  -6   7    0.28   85.97
  -6  -6   7  170.66   58.75
  -6  -6   7  101.07   47.02
  -6  -6   7   49.45   81.26
  -6  10  -5  230.55  167.26
   6 -10   5  253.74  125.63
 -10   8   0  -42.45  109.23
 -10   8   0  239.31  124.83
  10  -8   0  205.18  122.04
  10  -8   0  135.21   53.70
 -10   8   0   -0.47  109.13
   6 -10   5   79.31  183.79
  10  -8   0  167.73  145.48
  -6  10  -5  334.59  166.98
 -11   4   4  843.25  416.88
 -11   4   4  879.83  259.55
  11  -4  -4  702.92  120.00
  -2   2 -10  279.71  172.46
   2  -2  10  324.44  165.46
  -2   2 -10  354.36   64.10
   2  -2  10  353.51  105.24
   2  -2  10  -29.59  114.60
  -2   2 -10  431.35  139.30
  -2   2 -10  313.61  108.95
   9  -3   2   37.40  120.99
   9  -3   2  657.39   77.82
  -9   3  -2  -53.85  111.68
  -9   3  -2   47.70  112.69
  -1  -4  -8 2560.59  524.80
   1   4   8 3280.04  360.82
   0   5 -1111108.90  583.09
   0  -5  1111355.45  564.75
   1   4   8 3414.93  301.23
   0   5 -1111956.98  591.66
   0  -5  1112419.91  538.76
  -1  -4  -8 3592.15  333.61
   2 -11  -1 3757.69  279.07
   2 -11  -1 3819.95  286.71
   2 -11  -1 3608.54  249.95
  -2  11   1 3302.92  215.91
  -2  11   1 2820.23  449.98
  -8   0  11 7936.73  197.31
   0  -2 -10   -4.46  112.72
   0   2  10 2070.63  181.97
   5  -1   7    0.53  209.89
  -5   1  -7 2175.20  184.41
  -8   0  11 8715.05  699.24
   5  -1   7  -10.14   83.89
   0   2  10 2020.09  144.80
  -8   0  11 8241.84  425.06
 -10   0   6  -61.39  130.67
   8   0 -11 7055.84  232.28
   0   2  10 1833.60  166.26
  -5   1  -7 1625.25  324.05
  -5   1  -7 1521.38  262.31
 -10   0   6 -155.30  116.58
   0  -2 -10  -42.49   83.61
   0   2  10 1779.31  489.86
 -10   0   6  -41.82   47.02
  -5   1  -7 1815.96  118.67
  -8   0  11 7081.94  251.05
  -5  -2  12   17.08  106.26
   1 -11   1  701.54  179.87
   1 -11   1  647.32  313.61
   1 -11   1  498.78  106.30
  -5  -2  12  -26.72  116.64
   5   2 -12   -5.73   53.79
  -1  11  -1  636.14  229.37
  -5  -2  12   -6.12   61.76
  -2  -1  -9   14.72  149.52
  -2  -1  -9  -57.31  123.73
   2   1   9  621.53  147.58
   2   1   9  608.49   97.18
   2   1   9  545.51  230.16
   6  -1 -12 6971.43  172.61
  -1   1  11 3796.98  294.47
  -1   1  11 3989.09  284.67
   6  -1 -12 6884.58  210.87
  -6   1  12 8078.27  464.52
   1  -1 -11 4271.46  273.39
  -1   1  11 4194.91  246.77
   1  -1 -11 4077.83  181.97
  -6   1  12 7899.48  198.15
  -1   1  11 4034.45  320.16
  -6   1  12 8374.12  518.49
  -4   1  12 7103.00  409.66
   1  -7  -7  585.04  229.04
   8 -11  -3  213.20  130.95
   1  -7  -7  691.32  168.54
  -5  -7   7 3015.07  213.27
   4  -1 -12 6529.23  254.45
  -8  11   3  234.70  253.75
  -4   1  12 6663.93  280.59
   8 -11  -3  275.14  142.05
   8 -11  -3  233.61   49.62
  -1   7   7  592.82  177.00
  -4   1  12 7190.77  771.30
   8 -11  -3  150.33   83.98
  -5  -7   7 2679.98  213.11
   4  -1 -12 6858.08  199.18
  -4   1  12 7126.43  291.11
  -8  11   3  170.04  145.90
  -1   7   7   29.42  144.39
 -11   6   3 4542.78  438.65
 -11   6   3 4589.27  384.91
  11  -6  -3 4818.93  360.48
 -11   6   3 4495.47  270.56
  11  -6  -3 3810.91  269.62
   3 -10   7  689.70  207.12
   3 -10   7 1313.88  244.41
  -3  10  -7  885.88  215.77
   3 -10   7  652.45  229.97
  -3  10  -7  864.79  248.40
  -8   8  -410733.49  320.35
  -4  -8   311867.77  792.22
  -8   8  -411025.12  425.71
   1  -7  10  118.76  176.65
  -1   7 -10  324.10  201.94
   8  -8   410414.92  806.81
  -8   8  -410715.91  306.65
 -10   0   5 1047.56  506.95
  -4  -8   312176.11  406.60
 -10   0   5 2891.44  298.26
   4   8  -310617.88  391.95
   8  -8   410160.14  360.14
  -1   7 -10  184.18  317.77
   1  -7  10  239.46  160.19
  -8   8  -411355.16  461.45
  -4  -8   311686.39  470.16
   3   0 -12 9239.69  342.69
   3   0 -12 8846.14  303.98
  -3   0  12 9907.70  380.65
  -3   0  12 9372.80  448.26
  -3   0  12 8998.49  531.93
 -10   2   9  469.68  119.40
  10  -2  -9   15.67   89.02
 -10   2   9  282.71  126.64
 -10   2   9  164.59  144.99
  -9  -1   918233.54  410.15
   1  -6  -8 1904.62  409.41
  -6  11   4 2709.81  308.83
   6 -11  -4 2810.32  194.38
   3  -9   8 8036.14  870.96
   6 -11  -4 2777.44  143.72
  -1   6   8 1590.10  158.99
   1  -6  -8 1491.79  268.14
   6 -11  -4 2752.53  139.78
  -3   9  -8 7819.20  449.40
  -1   6   8 1610.91  251.23
  -1   6   8 1491.58   86.19
  -9  -1   918669.03  448.31
  -9  -1   918470.09  515.56
   3  -9   8 7157.45  441.37
   6 -11  -4 3045.94  272.05
  -6  11   4 2947.26  222.49
  -9  -1   916362.34  499.70
  -3   9  -8 7577.77  925.18
 -11   5   3 6772.31  895.53
 -11   6   6 3027.28  333.78
  11  -5  -3 6439.62  280.98
   7 -10  -616781.85  284.68
 -11   5   3 7076.43  477.66
 -11   6   6 2614.71  258.83
  11  -6  -6 2862.16  304.78
  -7  10   617247.64  696.73
   7 -10  -616280.09  301.00
  -7  10   617037.83  546.32
   7 -10  -616614.33  784.82
 -11   5   3 6997.97  285.83
   7 -10  -616854.92  660.96
   4   7  -9   13.63   70.29
  -4  -7   9  110.60   96.82
  -4  -7   9  -47.57   84.89
  -4  -7   9  235.66   99.62
 -10   9   5 6714.93  406.61
 -10   9   5 6227.75  754.38
  10  -9  -5 5970.77  388.36
  10  -9  -5 5802.52  402.52
  10  -9  -1 1496.16  460.04
  -3  -5  -516208.38  649.73
  10  -9  -1 1567.52  200.88
 -10   9   1 1049.85  410.90
   8   1   1 5541.92  284.12
   3   5   516394.24  725.56
  -8  -1  -1 6132.48  448.26
  -3  -5  -515564.68  744.82
  -8  -1  -1 6114.25  762.46
  -8  -1  -1 6134.36  343.67
 -10   9   1 1529.48  249.51
   3   5   516533.57  716.71
  -3   1  -923821.30  564.49
  -3  -3  12  289.61  175.71
   3  -1   923905.79  543.54
   7   4  -1   -0.05   65.61
  -7  -4   1  225.17  115.34
  -7  -4   1  -10.13  170.70
  -3   1  -923051.07  528.99
   3   3 -12   87.21  105.17
   3  -1   922732.39  518.22
  -3   1  -923703.52  800.24
  -3   1  -923071.88  519.39
   3  -1   922800.90  850.09
  -3  -3  12   74.44  164.59
  -3  -4  -6  174.09  173.52
  -3  -4  -6  169.76  174.26
   3   4   6  332.40  185.25
   3   4   6  264.86  199.67
  -8   0  -2  688.35  162.14
  -8   0  -2  750.82  225.48
  -8   0  -2  485.92  213.68
   8   0   2  564.80  146.56
  -5   6  10  364.54   77.23
  -9  -2   7 2741.13  231.43
  -5   6  10   18.22  143.83
  -5   6  10   40.40  265.36
  -9  -2   7 2535.42  223.15
  -9  -2   7 1144.57  317.22
  -5   6  10  552.38  121.66
  -9  -2   7 2328.96   98.78
   5  -6 -10  375.36  127.97
   5  -6 -10   19.16   64.03
   0 -10  -110368.59  476.80
  -7  10  -4  452.85  330.33
  -7  10  -4  667.21  173.63
   0 -10  -110040.64  479.03
  -7  10  -4  623.36   84.64
   7 -10   4  930.37  241.37
  -7  10  -4  592.60   75.05
   0 -10  -110479.90  454.51
   7 -10   4  539.31  269.66
   0  10   1 9973.97  472.36
   0  10   110218.69  455.94
 -11   7   4 4415.18  300.29
  -6  10   612982.28  418.82
   6 -10  -612892.90  572.01
  11  -7  -4 3705.62  343.88
   6 -10  -611894.75  408.85
  11  -7  -4 4283.10  307.73
 -11   7   4 3740.34  415.93
   6 -10  -612454.15  373.19
  -6  10   612547.68  583.64
   6 -10  -612116.77  395.65
   3  -5 -10 4017.63  308.82
   3  -5 -10 4457.95  243.00
  -3   5  10 4452.19  446.17
  -3   5  10 4596.84  215.20
  -3   5  10 4473.28  250.29
  -3   5  10 4690.91  291.47
  10  -5  -9  373.04  281.03
  -7  -2  -2  352.43  198.65
  10  -5  -9  429.16  174.66
 -10   5   9  602.43  306.18
 -10   5   9  343.57  152.69
  -7  -2  -2   27.70  280.59
   7   2   2  400.11  267.73
 -10   5   9  409.41  304.23
  -7  -2  -2  358.31  194.56
  -7  -1  -332986.59  952.01
  -7  -1  -332575.59 1040.24
  -7  -1  -333030.69 1042.92
  -6  -6   3 8926.92  424.60
   7   1   329779.57  867.73
  -6  -6   3 7951.54  354.38
   6   6  -3 7368.25  312.09
  -6  -6   3 8432.70  358.60
   7 -11  -4  901.61  134.49
   7 -11  -4   23.61  284.34
  -7  11   4  848.29  318.55
  -7  11   4 1075.20  223.67
   7 -11  -4 1056.29  185.57
  -9   5  10  -68.73  130.14
   9  -5 -10  188.54  128.46
  -9   5  10   61.65  102.80
  -9   5  10  147.91  131.10
  -8  -2  10 6438.03  243.36
  -8  -2  10 6551.93  475.57
  -8  -2  10 6257.12  221.64
  -8  -2  10 6393.86  326.54
  -2   6 -10 5815.68  683.44
   2  -6  10 5225.02  403.73
  -2   6 -10 5337.43  773.30
  -4  -3  12 6668.06  793.09
   2  -6  10 5632.76  409.68
   4   3 -12 6822.37  282.63
  -4  -3  12 6317.01  733.69
  -7  -5   4 4024.87  299.05
  -7  -5   4 3595.31  217.77
  -7  -5   4 4294.27  373.29
   5 -10   613541.49 1081.44
  -6  -1  12 2124.33  606.79
  -5  10  -614091.94  591.91
  -6  -1  12 3870.72  559.07
   6   1 -12 4077.57  142.30
  -5  10  -613888.77  632.39
   5 -10   612762.24  514.39
  -8   6  10 1411.67  238.32
  -8   6  10 1471.21  252.62
  -8   6  10 1596.36  372.92
   8  -6 -10 1344.53  222.14
  -7   2  -5  365.14  133.81
  -7   2  -5  248.24  125.09
  10  -2  -1   -1.25   37.74
 -11   7   5  354.08  207.95
  -7   2  -5  -10.52  136.43
 -10   2   1   15.22  191.53
 -10   2   1   82.41  176.14
 -10   2   1  261.37   72.66
 -11   7   5  491.26  281.61
  11  -7  -5  538.44  174.68
   7  -2   5  -22.81  105.06
   7  -2   5   15.39   41.40
  11  -7  -5  546.35  189.49
  -8  -3   214063.03 1086.18
   5   5   2  619.15  194.02
  -5  -5  -2  598.06  245.54
   8   3  -212753.79  352.38
   0 -10   7 5583.77  378.66
  -5  -5  -2  653.39  196.16
   0 -10   7 5529.26  334.94
   5   5   2  606.42  403.78
   0  10  -7 5136.60  287.79
   0 -10   7 5517.06  398.87
  -8  -3   214608.54  419.93
  -4   4  11  134.25  121.90
 -10   0   7 1059.78  220.02
  -4   4  11  293.27  178.07
 -10   0   7 1121.27  178.87
 -10   0   7 1257.88   99.00
  -4   4  11   46.99   80.68
   4  -4 -11   16.28   76.31
  -4   4  11  -22.63  161.49
   4  -4 -11  -16.41   53.48
  -7  -5   7  245.18   89.17
  -7  -5   7  394.26   85.71
  -7  -5   7  339.47  153.80
  -7  -5   7  180.65  124.15
  -5  -1  -6 1396.75  230.28
   9   2  -4 8887.62  210.89
   5   1   6 1190.54  199.00
  -9  -2   4 9981.93  243.48
  -5  -1  -6 1581.62  265.34
  -9  -2   410005.04  532.12
  -5  -1  -6 1522.55  234.86
   5   1   6    5.20  245.17
  -9  -2   410502.12  267.74
  -9  -2   410148.21  494.91
  -9  10   5 3185.73  342.47
   9 -10  -5 2942.08  295.54
  -9   0  10 2304.97  191.76
   9 -10  -5 2804.42  294.18
  -6   9  -6 2887.70  313.86
   6  -9   6 2456.66  265.03
  -9   0  10 2064.67  349.64
  -6   9  -6 2678.33  300.44
  -9  10   5 3140.65  309.21
  -9   0  10 2052.63  132.75
   6  -9   6 2296.09  324.73
  -5   5  -8    1.57  134.00
   5  -5   8   64.50  117.85
   2   6 -11  122.03  140.38
  -2  -6  11   22.78  134.31
   2   2 -1214143.42  519.89
  -5  12  -1  226.34  165.03
  -2  -6  11  -80.29  106.77
   5 -12   1  688.96  158.70
  -2  -2  1213875.02  501.71
  -2  -2  1214711.16  600.85
   2   6 -11   18.16  119.96
   5 -12   1  874.17   97.96
  -5   5  -8   18.34  170.68
  -2  -2  1214964.68  657.89
  -5   5  -8  114.64   46.64
   5 -12   1  743.28  146.14
  -5   5  -8  -11.03   44.89
   5  -5   8  147.19  140.76
  -2  -9   0 3621.82  295.82
   2   9   0 3152.66  300.13
   2   9   0 3739.39  308.99
  -2  -9   0 3522.99  556.52
  -2  -9   0 3164.85  327.60
   6  -5   7   73.13  331.70
  -6   5  -7 2533.99  206.38
  -6   5  -7 2554.09  138.58
   6  -5   7 2322.46  242.54
  -6   5  -7 2965.29  286.06
  -6   5  -7 2487.32  132.69
   9  -8  -8 1422.56  256.33
   9  -8  -8 1401.85  230.81
  -1 -10   6 4717.89  365.69
  -1 -10   6 5072.06  352.67
   1  10  -6 4349.89  325.15
  -9   8   8 1582.78  251.31
  -1 -10   6 4633.75  369.14
  -9   8   8 1472.58  257.69
  -3  -9   422963.17  466.85
 -11   3   5 2605.52  155.24
  -3  -9   422293.28 1116.94
  -3  -9   422500.66  711.11
   3   9  -421546.03  499.64
 -11   3   5 2271.73  323.08
  11  -3  -5 1725.41  251.65
 -11   3   5 2142.02  311.72
  11  -7  -3 3754.09  295.86
   1  10  -116121.16  791.35
 -11   7   3 4248.63  364.35
  -1 -10   116692.32  637.10
  -1 -10   116485.05 1041.39
  -1 -10   118168.61  506.36
 -11   7   3 4206.51  425.99
  11  -7  -3 3890.55  334.54
 -11   7   3 3986.75  293.78
   1   6 -11  175.91  154.87
   1   6 -11   -0.19  144.85
  -1  -6  11  285.76  192.12
  -1  -6  11  338.16  166.02
  -6   6  -710948.01  257.45
  -6   6  -711535.08  528.58
  -6   6  -711120.06  676.44
  -6   6  -710313.62  230.69
   6  -6   710553.49  802.93
   6  -6   711273.68  751.11
  -4   8   8  808.68  106.13
   4  -8  -8  660.29  211.57
  -5  12   0  184.03  179.69
   5 -12   0  163.99  132.85
  -4   8   8  486.57  119.88
  -5  12   0   83.05   96.82
   4  -8  -8  390.63  195.65
  -4   8   8 1054.32  116.82
  -4   8   8  883.07  221.02
   5 -12   0   -8.76   96.47
   5 -12   0   -4.60  169.75
   5 -12   0  266.58   99.20
  11  -5  -7  910.64  180.55
 -11   5   7  925.58  228.10
  11  -5  -7 1008.74  384.99
 -11   5   7 1027.28  318.97
   8 -11   1 1929.72  246.31
  -8   4  11 1027.46  231.75
  -3  -9   5  810.47  333.04
 -11   3   6 3991.05  361.17
   8 -11   1 1883.51  232.26
   8  -4 -11  853.15  160.51
  -8   4  11 1179.98  248.47
  -8   4  11 1059.86  154.03
  -8  11  -1 2066.11  279.74
   3   9  -5  557.55   76.49
   8 -11   1 1877.30  136.78
   8 -11   1 1646.78  301.98
  11  -3  -6 3443.53  209.50
  -8  11  -1 1930.86  187.95
 -11   3   6 4160.41  375.71
 -11   3   6 3813.40  205.42
  -3  -9   5  749.88  188.09
 -11   4   7 2172.12  298.37
  11  -4  -7 1861.19  271.30
  11  -4  -7 2326.27  215.35
  10  -7  -8 3216.67  307.57
 -10   8   7 1188.33  243.61
 -10   7   8 3121.68  557.96
 -10   8   7 1393.42  252.08
 -11   4   7 2086.37  207.26
 -11   4   7 2224.31  479.14
  10  -8  -7 1266.20  415.97
 -10   7   8 3038.13  316.08
  10  -8  -7 1087.50  233.15
  10  -7  -8 3201.70  317.13
   1 -11   5 2157.57  194.72
  -5   2  12 2395.25  233.70
   5  -2 -12 2050.16  137.72
  -5   2  12 2254.77  328.79
   1 -11   5 2006.14  490.52
   5  -2 -12 2104.80  134.45
 -10   0   4   26.81  144.09
   1 -11   5 2237.58  268.61
  -5   2  12 2383.92  273.97
 -10   0   4  215.28  261.29
  -1  11  -5 1978.31  176.16
  -5   2  12 2311.52  243.79
  10  -1  -220215.06  359.84
 -10   1   220865.87  846.30
 -10   1   221832.76  456.87
 -10   1   222012.44  830.99
  -6   2  12 1581.87  117.92
   6  -2 -12  897.90  114.07
   5 -11  -413423.70  367.52
  -5  11   413735.65  600.16
   5 -11  -413660.79  364.01
  -6   2  12 1225.71  291.21
  -6   2  12 1469.83  252.46
   5 -11  -414740.81  560.89
   5 -11  -413937.56  349.87
  -5  11   414264.13  622.14
  -9   9  -2    1.26   84.83
   9  -9   2   68.45   68.80
  -9   9  -2   32.56   78.52
   9  -9   2   44.51  139.32
  -9   9  -2   63.72  122.67
  -9   9  -2  173.84   94.75
   7  -9   516568.98  691.55
  -3  -7  10  -66.58  136.04
  -7   9  -516123.52  427.95
   7  -9   515916.39  550.72
  -7   9  -515837.49  330.87
  -7   9  -516240.58  616.07
   0   8   5  185.25  162.07
  -8   3  -4   -2.40   95.91
   8  -3   4  -51.77  119.86
  -8   3  -4   34.98   83.78
  -3  -7  10  373.50  126.96
  -8   3  -4  -19.61   44.62
   0   8   5   78.37  140.86
   0  -8  -5  -10.36  185.11
  -7   9  -516422.02  592.85
  -3  -7  10  328.53  145.15
   8  -3   4  265.78  104.01
  -8   3  -4    1.07   89.76
   0  -8  -5  256.51  144.43
   3   7 -10   20.72  178.00
  -4   7   9  673.81  112.49
 -11   4   3 4511.23  664.78
  -1  -9  -2 5857.08  386.09
 -11   4   3 4132.34  779.10
  -1  -9  -2 6240.21  426.68
 -11   4   3 4440.07  198.52
   4  -7  -9  856.17  205.58
   1   9   2 5160.89  659.93
  -4   7   9  691.83  113.89
  11  -4  -3 4061.84  203.32
   4  -7  -9  587.09  124.13
  -4   7   9  910.86  200.34
   1   9   2 4997.63  356.52
   6 -11   4 8505.03  350.41
  -6  11  -4 9271.91  470.73
   4 -12   111649.69  293.03
   6 -11   4 9141.97  536.52
   6 -11   4 8738.30  397.96
  -8  -3   9 2209.46  106.90
   4 -12   111504.26  355.78
   4 -12   111516.22  440.62
  -4  12  -110555.17  350.68
  -8  -3   9 2401.23  141.42
  -8  -3   9 2438.47  190.55
  -8  -3   9 2344.53  152.03
   4 -12   111673.21  432.75
  -6  11  -4 9202.25  446.85
  -4  12  -110979.11  377.74
   5  -6   813076.57  565.59
  -1   8   6 5799.81  433.35
   2   3 -12 1033.36  384.55
   1  -8  -6 5578.19  457.07
   2   3 -12 1444.89  272.59
  -2  -3  12 1360.22  279.72
   1  -8  -6 5588.57  342.19
  -2  -3  12 1429.64  257.39
  -5   6  -814045.49  650.34
  -1   8   6 6105.66  608.57
   5  -6   814266.61  559.52
  -5   6  -814120.35  510.89
  -8  10   6  201.83  138.01
   9  -6   3 8972.49  352.33
  -9   6  -3 9699.31  613.47
   8 -10  -6   14.21  259.74
  -8  10   6   61.12  295.71
  -9   6  -3 9576.51  686.19
  -9   6  -3 9589.66  555.52
  -9   6  -310287.97  569.52
   8 -10  -6  177.34  123.75
   9  -6   3 8855.96  307.67
   2   1 -12 4456.58  483.54
  -6  -5   0 1484.97  308.69
  -6  -5   0 1619.57  224.19
   6   5   0 1400.91  270.86
  -2  -1  12 1794.28  640.72
  -2  -1  12 4823.15  336.97
   6   5   0 1476.50  208.29
  -5   4  -8 -233.58  102.97
   5  -4   8  148.31  198.41
   2   7   4  355.44  194.07
  -5   4  -8   25.48  166.56
  -2  -7  -4    2.43  377.86
  -2  -7  -4  484.35  309.99
  -5   4  -8   -3.62  100.09
   2   7   4  398.96  356.07
   5  -4   8  -14.99   79.42
  -5   4  -8   10.08  246.72
   6 -12   0 5847.68  412.25
  -6  12   0 5569.15  283.95
   6 -12   0 5335.23  242.18
   6 -12   0 5814.77  380.24
   6 -12   0 5655.44  321.08
  -6  12   0 5706.41  333.95
  10  -3   0 3731.59  237.78
   9  -7  -9 6958.11  425.66
  -9   7   9 6930.21  418.72
 -10   3   0 4071.10  368.74
 -10   3   0 3954.72  175.10
   9  -7  -9 7353.23  419.55
  10  -3   0 3673.71  242.06
  -9   7   9 7532.24  446.10
 -10   3   0 4226.49  236.74
  -9   7   9 6976.46  414.08
 -10   3   0 4657.48  406.66
 -10   6  -1 1220.89  368.16
  10  -6   1  -14.84  295.30
 -10   6  -1 1116.55  153.24
  -4  -8   711805.72  251.19
  -4  -8   712259.94  321.61
  -4  -8   711907.86  444.78
  10  -6   1 1340.80  105.25
  -4  -8   712349.44  452.06
  -4  12  -212136.24  326.77
   4 -12   213007.96  471.11
   4 -12   212784.85  398.72
   4 -12   213432.31  431.68
  -4  12  -212316.95  409.92
   4 -12   212316.69  468.09
  -8  -2   0 7643.63  521.03
  -8  -2   0 8180.36  339.84
   8   2   0 7597.74  316.54
  -8  -2   0 8026.19  495.61
  -2  -3  -8  -29.82  120.46
   5 -12   2 2239.15  384.59
   2   3   8   -4.42  211.31
   5 -12   2 2202.70  111.93
   5 -12   2 2110.91  244.42
  -2  -3  -8  -46.15  137.71
   2   3   8   73.03  150.86
  -5  12  -2 2412.60  238.32
  -5  12  -2 1131.52  371.29
   5 -12   2 2130.60  205.12
   3   6   4  255.10  180.01
  -3  -6  -4  -36.54  263.02
  -3  -6  -4 -138.22  179.95
   3   6   4   48.82  157.42
   0   4   9 1505.79  107.62
   0   4   9 1178.71  454.25
   0   4   9 1234.71   91.98
   0  -4  -9 1061.87  188.36
   0  -4  -9   27.86  176.55
   9 -10   1  828.86  134.07
   9 -10   1  864.53  240.76
  -9  10  -1  957.81  231.22
   9 -10   1  945.36   96.81
  -9  10  -1 1220.27  193.28
   9 -10   1  618.05  180.87
  -9  10  -1  848.74  306.53
  -1   5   9 3554.92  310.17
   1  -5  -9 3499.44  505.88
  -6   1  -6 2606.84  234.37
  -1   5   9 3532.86  158.76
  -1   5   9 3400.16  131.65
   3   3   7 7420.98  923.60
  -1   5   9 3420.24  516.84
   1  -5  -9 3386.21  307.52
   3   3   7 8213.47  445.60
  -3  -3  -7 8117.80  475.45
  -3  -3  -7 8151.84  516.12
  -6   1  -6 2168.16  278.85
   6  -1   6  -14.32  215.96
  -6   1  -6 2153.68  231.94
  -5   9  -7 1894.26  306.90
  -9   0   0 6493.46  477.67
  -5   9  -7 1964.18  265.31
   9   0   0 6281.24  240.55
  -9   0   0 6775.44  471.14
   5  -9   7 1893.64  267.47
  -9   0   0 6942.45  488.15
   5  -9   7 2188.93  564.78
  -8   1  -3 7497.12  465.46
  -8   1  -3 7240.38  358.67
   8  -1   3 6959.99  367.68
   9  -9  -715259.79  649.81
  -8   1  -3 7777.23  434.96
   9  -9  -714899.30  584.57
  -9   9   715696.91  622.05
  -9   9   715418.27  672.06
 -11   3   4 1971.94  130.94
   3   9  -316258.83  704.14
  -3  -9   318112.61  639.64
 -11   3   4 1494.89  334.10
  -3  -9   318573.99  464.04
  11  -3  -4 1662.67  221.88
  -3  -9   317446.50  646.15
 -11   3   4 1569.01  302.96
  -9   1  -1  311.95  112.36
  -9   1  -1  303.20  339.58
  -7  -3  -113448.99  503.52
  -9   1  -1  107.39  322.90
  -7  -3  -113276.91 1079.14
   7   3   112315.05  730.48
  -7  -3  -113748.38  698.02
   9  -1   1   66.64   79.57
  -6   4  -7 6864.90  415.23
   6  -4   7 6465.53  691.10
  -6   4  -7 7100.50  374.31
  -6   4  -7 6999.69  248.85
   6  -4   7 6484.20  281.52
  -6   4  -7 7150.59  446.67
   6 -12   1 2452.70  265.52
   6 -12   1 2327.22  320.87
  -6  12  -1 2733.26  311.02
  -6  12  -1 2553.46  264.31
   6 -12   1 2455.17  198.50
   6 -12   1 2617.00  141.95
  -9   7  -3   -4.48  163.86
  -9   7  -3  101.32  100.23
  -9   7  -3   82.52  159.24
   7   0   4    8.10  113.43
   9  -7   3  206.65  211.07
  -9   7  -3   89.65   97.83
  -7   0  -4   83.95  137.04
  -7   0  -4  228.38  148.20
  -7   0  -4   63.40  267.65
   9  -7   3  139.68   87.03
  -5  -7   2  -30.62  125.38
  -7  11  -3    0.52   94.44
   5   7  -2 -173.42  128.13
   7 -11   3   29.85   41.82
  -5  -7   2  -62.23  117.55
   7 -11   3 -115.36  122.17
  -5  -7   2 -204.58  212.85
   7 -11   3  -20.14   78.40
   5   7  -2   16.89  209.69
   7 -11   3   95.16  227.78
  -7  11  -3 -172.91  218.32
  11  -6  -2  377.44  129.89
 -11   6   2  342.10  232.97
 -11   6   2  484.29  134.52
 -11   6   2  514.52  203.90
   5 -10  -6   93.83   56.24
   5 -10  -6 -281.56   98.90
   5 -10  -6  -91.85  122.04
  -5  10   6   18.79  144.08
  -5  10   6  -16.41   79.09
  -5  10   6  127.53   64.17
 -11   7   6   -9.99  164.97
 -10   7  -1 4394.73  524.82
  10  -7   1 4604.34  294.26
  10  -7   1 4066.92  264.71
 -10   7  -1 4726.43  352.49
  11  -7  -6   51.91  154.29
 -11   7   6  237.43  139.33
 -10   7  -1 4515.82  186.23
  11  -7  -6  192.21  136.49
 -10   7  -1 4957.32  465.09
  -9   5  -3    1.67   81.65
   9  -5   3  -51.39   64.72
  -9   5  -3   10.69  170.82
   9  -5   3  154.69  121.53
  -9   5  -3  177.91  119.07
  -9   5  -3  -34.04  111.38
  -6  -6   8  -45.91   50.02
  -9  -2   8 3184.53  234.38
  -6  -6   8   73.08   57.52
  -6  -6   8   -7.15   36.30
  -9  -2   8 3585.97  296.18
  -9  -2   8 3348.35  224.16
  -9  -2   8 3133.52  174.61
  -6  -6   8    0.02   60.21
   5 -11   5  380.79  166.39
   1 -11   019841.54  684.44
  -1  11   020054.47  930.90
  -5  11  -5  269.57  167.24
  -5  11  -5  371.82  178.07
   5 -11   5  313.87  149.77
   1 -11   019848.08  675.72
   1 -11   020582.88  543.14
   5 -11   5  453.83  205.73
  -7   6  -6  155.39   73.20
  -7   6  -6   47.06  232.21
  -7   6  -6   55.74   65.60
   7  -6   6   94.13  106.41
   7  -6   6  -38.41  201.22
  -7   6  -6   48.67  173.15
   4 -12   0 2030.51  207.98
   4 -12   0 2046.11  268.32
   4 -12   0 2131.41  155.26
  -4  12   0 1395.93  255.46
  -4  12   0 1266.63  172.43
  -7   1  12 1564.30  273.64
  -7   1  12 1532.73  102.03
  -7   1  12 1618.82  296.25
   7  -1 -12 1524.09  120.68
   8 -10   315883.66  694.03
  -4  -8   2 4793.74  299.82
  -8  10  -318174.36  812.05
  -8  10  -316652.46  387.30
  -4  -8   2 3884.88  325.36
   4   8  -2 4279.82  290.11
  -8  10  -317192.05  662.05
  -8  10  -316789.90  427.72
   4   8  -2 3682.02  301.31
   8 -10   316098.37  465.91
   8 -10   316199.51  372.85
  -4  -8   2 3525.62  322.53
   6 -12  -1 5369.12  230.90
  11  -6  -7 8760.16  434.31
  -4   5  -9 6348.65  353.72
  -6  12   1 5655.43  320.60
   6 -12  -1 5457.72  249.34
  -4   5  -9 6476.60  779.26
  11  -6  -7 9352.17  490.89
 -11   6   710061.88  520.19
 -11   6   7 9636.81  457.67
  -2   7   8  -87.06  131.68
   4  -5   9 6786.07  728.68
  -2   7   8   23.47   77.03
   6 -12  -1 5467.16  229.45
   4  -5   9 6361.38  377.85
   2  -7  -8 -116.39  112.89
  -2   7   8   91.10   53.35
  -6  12   1 5957.66  318.49
   6 -12  -1 5694.97  295.76
  -2   7   8   26.53  103.56
   2  -7  -8  -25.28  279.19
  -8  11   4 1066.71  233.06
   3   6 -11 7093.45  447.81
 -10   1   9 6611.61  359.14
  -3  -6  11 7271.09  424.76
  -3  -6  11 6539.28  340.16
  -3  -6  11 6905.46  437.31
 -10   1   9 6655.38  286.60
   3   6 -11 7198.94  363.00
   8 -11  -4 1036.23  211.14
 -10   1   9 6412.30  282.71
   8 -11  -4 1102.70  202.58
  -8  11   4  919.54  368.46
  10  -5   1 3086.24  155.18
  -2  10   4 9496.18  863.44
 -10   5  -1 3609.33  273.92
  10  -5   1 3366.99  198.27
   2 -10  -4 9859.93  462.19
 -10   5  -1 3723.03  356.66
 -10   5  -1 2989.23  312.19
   2 -10  -4 4427.91  343.81
  -2  10   4 9481.53  659.49
 -10   5  -1 3531.98  308.87
  -3   1  12 4538.08  371.77
  -3   1  12 4539.62  275.81
  -3   1  12 4609.51  165.58
  -3   1  12 4469.68  308.55
   3  -1 -12 3616.15  231.58
   3  -1 -12 4228.35  160.27
   5 -12  -1   29.75   91.55
   0   0  11  682.23  202.17
  -8  -4   6 2782.95  227.38
   6   2   4 4320.54  384.04
   5 -12  -1  184.45  152.64
  -6  -2  -4 5655.23  426.76
  -6  -3  -3 9787.07  564.41
   5 -12  -1  677.83  161.00
  -5  12   1  116.33  119.15
  -5  12   1  252.04  180.01
  -6  -3  -3 9479.54  606.58
  -8  -4   6 2677.45  146.31
  -6  -2  -4 4669.44  393.88
   0   0 -11  537.18   87.68
   0   0  11  -10.88  285.83
  -6  -2  -4 4903.29  405.63
   6   3   3 8957.04  551.89
   6   2   4 4968.86  400.63
  -8  -4   6 2555.22  190.42
  -6  -3  -3 9501.00  478.42
  -8  -4   6 2597.50  142.02
   6   3   3 9648.07  811.30
  -3  -9   6 8380.21  416.04
  -3  -9   6 8061.56  418.33
   5 -12  -1  -21.82   93.99
   0   0  11  686.54   94.77
  -6   7  -7  334.82  173.92
  11  -3  -7   45.67  134.53
  11  -3  -7   73.06   92.42
  -7   5  -6 5565.02  265.73
  -7   5  -6 5659.77  237.95
  -6   7  -7  896.06  209.00
  -7   5  -6 5222.35  217.50
 -11   3   7   91.70  117.17
 -11   3   7  -25.02   69.76
   7  -5   6 5997.33  352.37
   6  -7   7  496.64  191.30
 -11   3   7   22.60  186.21
  -7   5  -6 5612.08  358.30
   7  -5   6 5136.73  469.63
   6  -7   7  620.48  176.28
  -8  -1  11 2881.02  276.53
  -8  -1  11 3020.82  111.76
  -1  -1 -10   20.62  112.65
  -6   5  11 2119.04  245.60
  -6   5  11 2043.59  280.55
   5   3 -1211144.19  313.05
  -5  -3  1211638.02  553.70
  -5  -3  1211522.93  958.25
   6  -5 -11 1694.34  359.10
   1   1  10 1115.72  252.77
   1   1  10  888.79  226.66
  -6   5  11 2062.36  213.27
  -8  -1  11 3175.59  156.67
  -1  -1 -10   27.07  131.49
  -8  -1  11 3479.38  286.51
   1   1  10  900.76  118.70
  -4   9   717705.54  380.44
   4  -9  -717597.29  753.38
  -4   9   717531.44  614.18
   4  -9  -717755.67  698.82
  -4   9   717816.97  730.83
  -4   9   717750.38  454.65
  11  -5  -2 3234.75  205.98
 -11   5   2 3646.97  209.91
 -11   5   2 3201.24  390.85
 -11   5   2 3534.29  346.04
   2  -1  10  -28.99   79.30
   2  -1  10   92.17   62.09
  -2   1 -10  -53.47   95.59
   2  -1  10   31.85   87.85
  -2   1 -10   97.79  229.05
   2  -1  10  -85.39  242.00
  -2   1 -10  170.98  105.11
  -4  -4  -5 4814.39  455.46
   4   4   5 4695.87  417.55
   4   4   5 3916.68  701.03
  -4  -4  -5 4778.32  397.36
  -3  -4  12 3357.87  269.15
  -4   4  -9 1468.71  195.83
  -3  -4  12 3966.62  374.07
   3   4 -12 3536.13  268.73
   4  -4   9   36.55  155.89
   4  -4   9 1401.96  206.57
   3   4 -12 3531.25  368.31
  -4   4  -9 1541.43  145.92
  -3  -4  12 3594.33  363.03
  -4   4  -9 1467.05   88.90
   7   5  -3 7410.29  478.53
  -7  -5   3 7797.74  546.94
  -7  -5   3 8106.30  335.86
  -7  -5   3 8917.28  753.93
  -8  -4   520194.49  456.10
  -8  -4   521633.94  474.09
  -8  -4   519731.76  648.92
   1  -4  11  233.31  156.67
  -1   4 -11  491.74  197.95
  -7   5  11 1770.34  279.91
  -1   4 -11  476.23  358.19
  -7   5  11 1797.37  254.47
   7  -5 -11 1698.66  208.23
   1  -4  11  191.77  160.32
   6   2 -12 5791.36  285.71
  -7   0  12 6237.35  434.38
  -6  -2  12 6072.80  711.30
  -6  -2  12 5844.71  230.73
  -7   0  12 6552.69  454.80
  -6  -2  12 5783.89  421.35
   1  -3  11  883.08  192.32
   1  -3  11  870.85  218.65
  -1   3 -11  575.89  198.86
  -1   3 -11  521.22  192.66
 -10   0   8  940.66  106.69
 -10   0   8  852.55  185.48
  -1  -8  -4 9234.30  583.29
   1   8   4 8361.49  533.72
   1   8   4 9328.16  815.48
  -1  -8  -4 9371.33  493.15
 -10   0   8  528.90  265.33
   4  -2 -12  -98.32   63.43
  -5  -7   8  139.05   81.77
  -5  -7   8   -0.91   47.66
   4  -2 -12   11.55   70.70
  -4   2  12  -51.62  110.11
  -5  -7   8    0.41   83.76
   2 -11   6  746.54  213.05
   2 -11   6 1109.53  228.08
  -4   2  12  -56.00   75.66
  -4   2  12    2.36   99.11
  -5  -7   8   10.30   63.20
  -4   2  12  126.44  234.24
  -2  11  -6    0.79  148.74
  -2  -9   811498.76  437.27
   2   9  -812130.92  396.40
  -2  -9   811299.05  493.23
 -10   6   9 7879.11  465.36
  11  -7  -2 2048.77  270.79
 -10   6   9 7700.62  453.54
  11  -7  -2 1843.92  228.01
 -11   7   2 2142.60  292.55
   3 -11   6  161.43  124.42
 -11   7   2 2442.10  231.65
   3 -11   6  -37.87  231.81
   3 -11   6  -56.19  114.24
  -3  11  -6   -9.50  170.42
 -10   6   9 7855.04  414.43
  10  -6  -9 7806.56  441.24
 -11   7   2 1861.69  333.28
  10  -6  -9 7107.87  425.37
   0   6 -11 8814.83  897.53
   0  -6  11 9039.68  499.04
   0  -6  11 8832.02  900.40
 -10   9   6 7289.90  448.72
  10  -9  -6 6707.41  430.93
   0   6 -11 8953.01  930.40
 -10   9   6 7269.62  829.44
  10  -9  -6 6955.94  724.50
  10  -9   0  125.25  104.26
 -10   9   0  236.82  215.78
  11  -8  -4 9900.56  492.07
  11  -8  -410067.87  494.90
 -11   8   411245.23  511.74
 -10   9   0   98.02  124.26
 -11   8   411466.01  603.32
 -10   9   0  -15.15  105.92
  10  -9   0 -173.74  266.04
   4 -10   7  263.95  362.51
  -4  10  -7  280.64  218.91
   4 -10   7  287.54  165.67
  -4  10  -7  458.80  186.70
  -6  -5  1014718.16  661.72
  -6  -5  1014817.28  566.99
  -6  -5  1014556.22  486.52
  -1  10   3 1289.23  251.57
   1 -10  -3 1284.96  215.65
  -4  12  -3 1130.07  182.97
   1 -10  -3 1243.14  252.06
   4 -12   3 1251.44  204.19
  -1  10   3 1264.25  216.88
   2  -8  -7  683.28  166.73
  -2   8   7  833.81  231.07
   4 -12   3 1089.26  341.11
   2  -8  -7  831.02  426.63
   4 -12   3 1124.27  192.76
  -2   8   7  807.07  176.03
  -7  -5   8 6598.40  234.01
  -7  -5   8 7177.13  268.01
  -7  -5   8 7226.81  226.93
  -7   2  1210199.94  982.90
  -7  -5   8 6359.85  344.09
   7  -2 -12 8512.78  275.10
  -7   2  12 9303.28  527.69
  -7   2  12 9728.33  266.41
  -6  -4  11 1822.54  241.52
  -6  -4  11 2274.02  248.22
   3  -8   9   41.72  163.78
  -3   8  -9   25.51  127.93
   3  -8   9  190.33  261.21
  -3   8  -9 -100.57  153.06
   1   3   913195.53  276.36
   1   3   913657.46  500.76
  -1  -3  -913562.56  593.48
  -1  -3  -913093.63  505.43
   1   3   913929.73 1056.97
   1   3   913275.73  304.52
  -2  -4  12   57.37  213.71
   2   4 -12  896.01  216.09
   3 -12   2 2594.20  285.50
   2   4 -12 1297.07  274.45
  -3  12  -2 2283.76  151.34
   3 -12   2 2225.73  195.94
  -5   7  -8 1286.20  269.56
   3 -12   2 2552.08  250.09
  -3  12  -2 2560.49  311.88
   3 -12   2 2486.97  265.11
   5  -7   8 1178.91  443.10
  -2  -4  12  806.87  182.95
  -5   7  -8 1069.43  216.67
   5  -7   8 1109.77  246.66
  -2  -4  12 1086.91  232.54
   9   2  -3  190.18   68.31
  -9  -2   3  462.69  100.50
  -9  -2   3  452.75  211.98
   3 -10  -5 6495.81  524.34
  -7   7  -620661.78  615.40
  -7   7  -620704.35  724.27
  -3  10   5 6101.80  187.43
  -3  10   5 6057.44  228.88
  -3  10   5 6417.02  443.93
  -7   7  -619930.91  418.29
  -3  10   5 6063.22  489.88
  -7   7  -620351.31  557.89
   7  -7   619461.01  623.52
   3 -10  -5 6873.54  470.97
   7  -7   619732.59  676.85
  -4   6  -9 1688.96  243.58
   0   9  -9 2577.87  513.46
   4  -6   9 1819.09  266.31
   3 -11  -3 1875.39  416.85
   4  -6   9 1784.38  275.47
   3 -11  -3 3116.41  241.05
   0  -9   9 3009.49  338.16
  -3  11   3 3026.34  142.54
  -4   6  -9 1811.38  308.82
   0  -9   9 2767.48  524.96
   0   9  -9 3072.65  352.47
  -3  11   3 3743.26  318.82
   3 -11  -3 3261.83  292.93
   3 -11  -3 3161.85  180.25
  -6  -6   2 8257.13  790.24
   6   6  -2 7865.23  350.63
  -6  -6   2 8027.18  384.78
   6   6  -2 7475.25  421.41
  -6  -6   2 8155.86  634.95
  11  -8  -3  868.07  206.28
  11  -8  -3  643.48  197.70
 -11   8   3  513.32  183.03
 -11   8   3  648.69  413.02
  -2   6   9 4496.70  165.05
  -2   6   9 4686.33  314.49
   1  -9   9  514.29  190.96
  -2   6   9 5623.24  317.74
  -1   9  -9  467.15  273.31
   2  -6  -9 4693.91  305.70
   8  -9   4   -1.86  134.17
  -2   6   9 4977.62  357.83
   8  -9   4   48.89   92.50
  -8   9  -4  292.29   69.25
  -8   9  -4  184.88  121.53
  -8   9  -4  155.36  144.31
  -8   9  -4  -46.27   79.59
  -1   9  -9    0.18  174.30
  -8  -4   7  -85.58  113.93
  -8  -4   7  -59.94   44.89
  -8  -4   7  104.19   52.48
   2  -6  -9 4543.41  371.32
   1  -9   9  671.64  235.22
   4  -6 -10 1672.26  434.89
   4  -6 -10 1767.92  159.12
  -4   6  10 2290.31  288.89
 -10  10   3 5874.57  738.15
  -3  -8   9 5857.59  331.37
 -10  10   3 6155.89  427.10
   3   8  -9 6493.19  501.55
  -3  -8   9 6042.50  329.16
  10 -10  -3 5801.34  412.49
  -4   6  10 2210.26  177.99
  -4   6  10 2053.31  212.62
  10 -10  -3 5655.49  601.94
  -9  11   2  718.77  220.47
  -4  -3  -6 8484.49  527.52
   9 -11  -2  -33.45  102.41
   4   3   6 7527.94  550.15
   2   0 -1217103.81  537.78
  -2   0  1218100.64 1127.51
   9 -11  -2  546.08  243.17
  -2   0  1219616.78  985.36
  -2   0  1218248.15  613.20
  -9  11   2  723.72  196.25
   4   3   6 8250.07  464.74
  -4  -3  -6 7934.51  521.19
   2   0 -1217234.01  335.55
   4   5   4 1481.66  496.57
   0 -11   3 2906.14  315.70
   0  11  -3 3150.39  165.83
   0 -11   3 3379.24  133.70
   4   5   4 1743.52  311.42
  -4  -5  -4 2051.60  344.24
   0 -11   3 3237.35  320.14
  -4  -5  -4 1521.13  272.00
  -9  -1   1   33.81  152.29
  -9  -1   1  -87.07   87.21
   5  -3   8  180.75  141.83
   9   1  -1   21.54  111.00
  -5   3  -8   14.50  170.60
  -5   3  -8  338.74   84.79
  -5   3  -8  192.41   97.82
  -5   3  -8  240.60   81.17
   5  -3   8   46.89   84.42
  -9  -1   1  -51.28  154.30
   6 -12   2   47.76   68.18
   6 -12   2  -32.44  107.04
   6 -12   2   10.52  132.23
   6 -12   2   -8.20   40.87
  -6  12  -2   85.75  133.05
  -6  12  -2 -189.16   78.67
  -5  -5  1112162.48  508.69
  -5  -5  1111226.94  353.61
  -5  -5  1111894.19  483.61
   3 -12   115566.72  569.24
  -3  12  -115358.25  604.81
   3 -12   116172.11  562.11
   3 -12   115967.35  372.05
   3 -12   116549.90  544.93
  -3  12  -114837.23  430.03
 -10  10   2  196.22  305.70
  10 -10  -2  106.16  310.66
  10 -10  -2  316.68  239.98
 -10  10   2  248.69  296.39
 -11   8   5 5329.43  443.37
 -11   8   5 5279.40  376.15
  11  -8  -5 4991.56  652.28
  11  -8  -5 5252.14  392.73
 -10   0   3   75.33  114.27
 -10   0   3   99.76  115.83
 -10   0   3  -30.52   46.93
  10   0  -3   29.03   67.46
   9  -2 -11 1129.75  152.55
  -9   2  11  -29.55   91.88
  -9   2  11 1154.53  167.41
  -5  -6  10 7347.32  348.76
   4   4 -12 4335.02  414.06
   4   7   1 5418.59  727.50
  -4  -4  12 4770.49  387.89
  -4  -7  -1 6328.39  502.77
  -5  -6  10 7329.10  476.70
  -4  -4  12 4627.72  409.06
  -4  -7  -1 6601.68  412.45
   4   7   1 6547.65  682.52
  -5  -6  10 7581.17  319.92
  -4  -4  12 4868.41  273.10
  -9   2  -2  382.21  121.69
   9  -2   2    7.02   75.65
  -9   2  -2  469.64  200.83
  -9   2  -2  244.74  322.34
   0 -11   4 1965.60  112.10
  -7  -4  1012302.31  574.89
   7  -8  -9 3954.68  283.66
  -7   8   9 4433.34  295.74
  -2   7 -1011140.72  567.63
   2  -7  1011826.30  631.62
  -2   7 -1011076.30  633.14
   0  -8  1012557.34  563.57
  -7  -4  1011764.61  290.17
   7  -8  -9 5294.79  654.90
   0  11  -4 2134.02  215.40
  -7  -4  1012141.51  401.69
   0 -11   4 1602.16  270.85
   0 -11   4 1897.12  274.14
  -7  -4  1011220.91  429.20
   2  -7  1011295.08  589.56
  -7   8   9 4280.00  321.25
   0  -8  1012598.70  625.90
   0   8 -1013332.11  647.22
  -7   8   9 4303.61  373.05
   2 -11  -2   35.88   93.44
  -7  12   0 8657.71  437.15
   7 -12   0 8737.08  269.93
   2 -11  -2   -4.02   96.39
   2 -11  -2  -50.24   92.57
   5 -12   3 3878.60  273.25
   5 -12   3 4116.40  290.09
  -7  12   0 8399.58  360.19
  -2  11   2 -109.37  135.36
   7 -12   0 8971.16  442.16
  -5  12  -3 4563.18  538.28
   7 -12   0 8537.10  271.46
   7 -12   0 8866.35  475.40
   5 -12   3 4348.99  342.76
   9  -8   3 1804.30  153.66
  -9  11   115446.74  910.46
   9 -11  -116766.76  693.34
  -9  11   116203.21  674.56
   9 -11  -116247.91  488.54
   9 -11  -114943.76  434.88
   9 -11  -115613.62  298.62
  -9   8  -3   -0.33  110.68
   9  -8   3 1134.09  239.42
  -9   8  -3    1.43   70.88
   7 -12  -1   -4.71  231.01
   7 -12  -1  446.27  129.38
   7 -12  -1   21.25   98.38
  -7  12   1   67.59  115.50
   7 -12  -1  148.47   73.57
  -7  12   1  204.28  219.21
 -10   8  -1 3960.94  317.10
 -10   8  -1 4098.82  302.74
 -10   8  -1 3983.58  172.66
  10  -8   1 3918.28  156.89
 -10   8  -1 3665.13  456.22
  10  -8   1 3837.31  323.37
   5  -5 -11 4828.78  293.24
   1  -5  11  423.79  190.82
  11  -4  -8  691.10  162.23
  -7   4  -6  -15.85   75.62
   1  -5  11  169.61  344.48
   7  -4   6  655.05  121.29
  -5   5  11 4838.42  301.76
  -1   5 -11   93.52  281.16
  -5   5  11 5175.23  583.13
 -11   4   8  433.75  179.54
 -11   4   8  567.61  151.47
   9  -3 -1113592.38  433.40
  -9   3  1115413.91  652.88
  -9   3  1115651.15  440.12
  -1   5 -11  145.89  168.91
   5  -5 -11 4263.60  164.88
  11  -4  -8  332.72  188.60
   7  -4   6  749.35  322.82
  -5   5  11 4702.48  185.55
  -7   4  -6  -12.17  105.09
  -5   5  11 5126.51  298.48
   2  -3 -11   99.13  106.43
  -3  12  -3 2518.23  207.36
   3 -12   3 2960.22  278.68
  -2   3  11   67.25   81.90
  -2   3  11   -2.88   89.58
   3 -12   3 2778.09  208.00
   2  -3 -11  209.73  103.33
  -2   3  11  181.46  103.67
  -2   3  11  -29.99  196.01
  -3  -8  -1   -6.06  193.10
   3   8   1  297.58  192.74
   3   8   1  242.07  300.57
  -3  -8  -1  482.47  173.51
 -11   3   3 8782.75  243.06
   1   8 -10   -1.09  107.21
 -11   2   6 8767.01  484.76
 -11   3   3 8717.71 1001.69
  -3  -9   2 1162.12  230.88
  11  -2  -6 8930.36  283.69
  -1  -8  10  988.13  238.50
  11  -3  -3 7775.34  232.52
 -11   2   6 9494.55  269.47
  -3  -9   2 1171.25  223.97
 -11   2   6 9837.61  872.16
   3   9  -2  866.28  164.22
  -3  -9   2  961.45  301.23
  -1  -8  10  915.77  198.87
 -11   3   3 8895.93  546.64
  -1   2 -11 9258.12  487.37
  -1   2 -1110127.90  469.65
   1  -2  11 9392.89  400.09
   1  -2  11 9218.83  438.99
   1  -2  11 9529.79  510.06
   9  -6 -10  793.06  207.95
  -8  -4   414262.30  590.10
  -8  -4   415341.97  620.84
  -6   3  12 1472.68  521.39
  -9   6  10  787.64  243.55
  -7  -3  11   85.16   94.77
  -9   6  10 1000.98  241.09
   9  -6 -10  992.84  225.06
  -8  -4   414268.77  589.69
   6  -3 -12 1541.74  264.87
  -6   3  12 1679.50  253.21
  -6   3  12 1562.15  142.02
  -7  -3  11  -16.15   91.19
  -7  -3  11   -2.41   98.27
  -9   6  10 1153.66  196.59
  -9   4  -318823.05  588.39
  -9   4  -319225.32  981.90
   9  -4   317035.51  504.05
  -9   4  -319436.89  685.88
   9  -4   316675.40  386.11
  -9   4  -319303.44  537.31
  -4   0  -8  116.46   59.94
   4   0   8   74.40   53.21
  -4   0  -8  204.81  106.07
   4   0   8   62.91  167.25
   4   0   8  123.39   57.20
  -4   0  -8  -10.47  153.91
  -4   0  -8    8.39  102.26
   4   0   8   -4.82  105.38
   7  -9  -8  150.74  192.36
   7  -9  -8   -8.20  276.78
  -7   9   8  -23.65  168.69
  -7   9   8  251.10  128.52
   6   1   5   55.76  236.47
  -6  -1  -5 1098.99  238.59
  -6  -1  -5 1264.73  254.77
   6   1   5 1072.63  211.38
  -6  -1  -5 1433.14  254.03
   6 -12  -2  -20.55   60.10
  -6  12   2  376.97  272.68
  -4   3  -910774.57  526.03
  -4   3  -910416.47  368.77
  -6  -4  -2  900.59  421.12
 -10   3  10 8493.06  337.86
   6   4   2 1435.82  293.38
   6 -12  -2  227.50  135.64
   6 -12  -2   19.49   84.39
  -4   3  -9 9438.58  252.41
  -6  12   2  378.64  140.52
 -11   2   5 5560.48  465.35
   6 -12  -2   -4.03   61.17
   4  -3   9 9996.42  372.87
  -6  -4  -2 1910.33  337.82
  10  -3 -10 6834.96  338.29
  -4   3  -9 9456.59  362.02
 -11   2   5 6003.66  191.34
  11  -2  -5 4985.24  195.43
 -10   3  10 8256.81  433.62
   4  -3   910207.45  546.67
  -6  -4  -2 1553.00  305.36
   6   4   2 1225.21  222.57
 -11   2   5 5238.51  446.21
  -9  11   3 2143.12  287.82
  -9  11   3 2085.74  288.55
   9 -11  -3 1946.04  239.67
   9 -11  -3 2558.53  290.70
 -11   5   8 1489.91  387.67
 -11   5   8 1363.73  243.40
  11  -5  -8 1402.07  227.99
  11  -5  -8 1491.34  240.16
  -4  12   1 1472.02  230.80
   4 -12  -1  -14.67   85.68
 -10  10   4   89.27  167.26
  10 -10  -4  224.69  161.57
 -11   4   2  410.59  274.23
  10 -10  -4  -53.56  246.57
 -11   4   2  -51.40  180.91
 -10  10   4  196.93  161.56
  11  -4  -2  298.61   90.15
  -4  12   1  891.43  188.15
   4 -12  -1   -8.11   83.75
  -8  11  -2 3837.34  363.06
  -8  11  -2 3973.03  229.87
   8 -11   2 3468.26  276.62
   8 -11   2 4245.00  410.67
   1  10  -7  715.60  132.01
   8 -11   2 4085.14  207.45
  -8  11  -2 3820.69  359.93
  -1 -10   7  822.39  157.60
   8 -11   2 3731.69  200.28
  -1 -10   7  797.87  207.01
   0 -11   2 4861.00  646.28
   0 -11   2 5450.98  199.21
   0 -11   2 5176.53  383.18
  -4  11   4 3818.05  356.81
  -4  11   4 3741.79  289.87
   4 -11  -4 3312.56  220.73
   6  -3   7 6498.55  242.43
  -6   3  -7 7286.91  458.33
  -6   3  -7 6765.49  269.66
  -6   3  -7 6867.22  241.72
   4 -11  -4 3859.59  321.20
   4 -11  -4 3315.14  138.22
  -6   3  -7 7022.45  423.82
   6  -3   7 6559.56  426.78
   4 -11  -4 3436.84  371.80
   0  11  -2 5219.97  246.04
 -10   4  -1   -0.92  144.22
 -10   4  -1  340.15  163.55
 -10   4  -1  -23.81  184.93
  10  -4   1  465.10   86.21
 -10   4  -1  447.41  121.61
  10  -4   1  218.75   87.78
   1  10   0 2981.08  286.98
  -1 -10   0 3423.87  593.94
  -1 -10   0 3527.35  287.89
  -1 -10   0 3742.46  334.97
   1   3 -12 4998.44  363.04
  -1  -3  12 4800.00  716.79
   1   3 -12 4979.66  741.64
  -1  -3  12 5219.32  376.49
  -1  11  -6 6071.07  305.98
   1 -11   6 6117.63  747.81
   1 -11   6 6595.44  575.15
   4  -9   8   52.62  142.97
   1 -11   6 6055.83  403.32
  -4   9  -8   41.58  165.41
   4  -9   8   91.70  169.53
  -4   9  -8 -112.85  136.41
  -6   8   910344.68  422.96
  -6   8   910983.57  877.88
  -7  -1  12   79.13  146.35
   6  -8  -9 9617.90  534.59
   6  -8  -9 9463.27  380.07
  -7  -1  12   62.09  139.94
  -6   8   910112.55  222.41
  -6   8   9 9854.95  380.24
   1 -10   8 2325.40  592.90
   1 -10   8 2975.32  309.95
  -1  10  -8 2855.10  297.97
  -1  10  -8 3185.99  366.36
  -1  -2  12 6873.07  388.88
  -1  -2  12 6898.73  684.77
   1   2 -12 7124.10  390.18
  -1  -2  12 7214.53  458.30
   1   2 -12 6453.19  452.99
   4 -11   6  691.22  195.70
  -4  11  -6  829.27  195.93
   4 -11   6  772.46  247.84
   4 -11   6  939.70  225.35
  -4  11  -6  700.32  243.33
  -8   5  11  385.86  211.70
   8  -5 -11  445.05  153.95
  10  -4 -10 6589.22  356.21
  -7  11   5   44.79  103.88
   7 -11  -5   60.07  129.75
   7 -11  -5   37.95   46.22
 -10   4  10 6937.84  340.39
  -8   5  11  438.69  144.00
   7 -11  -5    9.41   93.26
   7 -11  -5   58.19   45.05
  -8   5  11  500.26  340.02
 -10   4  10 6759.29  421.98
  -7  11   5   36.38  247.61
   1  -2 -11 6925.34  281.76
  -1   2  11 8365.40  448.52
   1  -2 -11 7207.22  346.95
   9 -10  -6  -37.01  128.30
  -9  10   6   34.83  124.45
  -1   2  11 8522.13  309.79
  -1   2  11 8184.27  299.46
  -9  10   6   35.53  137.96
   9 -10  -6  194.24  206.72
  -1   2  11 8148.75  576.31
  -3   0  -9  -65.71  176.27
   3   0   9    3.59   95.26
  -9  -1  10 4343.74  165.18
  -9  -1  10 4669.82  482.52
  -3   0  -9  400.92   88.26
   3   0   9  181.41  112.78
  -9  -1  10 4891.43  243.47
  -9  -1  10 4194.43  228.11
  -3   0  -9  437.06  199.43
   3   0   9  363.00  291.21
  -1   9   5  -56.97   92.57
   1  -9  -5  108.81  216.19
   9  -1 -11 6189.41  268.57
  -9   1  11 6672.22  392.57
   1  -9  -5  -23.89  288.20
  -9   1  11 6446.41  218.12
  -1   9   5   92.25  115.81
  -5   3  12 1425.57  233.68
  -5   3  12 1626.27  142.52
  -5   3  12 1267.67  283.15
   5  -3 -12 1415.46  116.37
   5  -3 -12 1154.79  257.78
   8  -8  -9  538.15  179.04
   8  -8  -9  648.17  202.80
  -2 -10   4 7476.30  195.93
 -11   7   7   79.10  151.35
  -8   8   9  393.81  212.05
  11  -7  -7  287.39  159.72
 -11   7   7  246.62  172.94
  -8   8   9  613.48  179.02
  -2 -10   4 7730.71  738.84
  -2 -10   4 7697.87  424.65
   2  10  -4 7463.40  363.49
  -8   8   9  770.08  193.04
  11  -7  -7  156.26  170.54
   3  -4 -11 1097.55  152.61
  -3   4  11  -36.50   90.37
   3  -4 -11 1154.83  171.32
  -3   4  11   27.72  148.74
   7 -12   1 9443.54  480.99
  -7  12  -110579.55  486.56
   7 -12   1 9983.33  279.17
   7 -12   1 9974.87  517.70
  -7  12  -1 9369.43  555.03
   7 -12   1 9733.16  325.86
  11  -8  -2 1311.07  238.48
 -11   8   2 1409.08  252.73
  -4  -8   8 1531.28  211.54
  -4  -8   8 1812.86  208.07
 -11   8   2 1531.39  229.72
  -1  -9   914806.50  956.28
  -4  -8   8 2018.34  161.60
 -11   8   2 1287.18  295.83
  -1  -9   914668.28  606.85
  11  -8  -2 1624.79  238.50
   3   9  -7 6165.08  197.83
   1   9  -915137.23  874.57
  -3  -9   7 5609.18  349.49
  -3  -9   7 5549.83  353.46
  -3  -9   7 5735.42  355.52
  -6   9   8  -63.88   45.08
  -6   9   8  146.62  142.73
   6  -9  -8 -174.90  129.46
 -11   3   8  185.81  106.70
   6 -11  -5 1666.88  475.24
   6  -9  -8   31.07   43.34
   6 -11  -5 1479.48  207.61
  11  -3  -8  283.57  123.53
   2 -10   8  122.09  174.02
 -11   3   8  135.19  140.21
   6  -9  -8   19.94  128.93
  11  -3  -8    9.01  277.84
   6 -11  -5 1776.93  160.59
  -2  10  -8  159.05  156.61
  -6  11   5 1873.47  189.17
   2 -10   8  134.76  168.77
  -6   9   8   40.79   91.99
   2 -10   8  122.04  150.42
  -6  11   5 1621.70  290.48
  -6   9   8  -27.62  138.18
  -2  10  -8  246.56  196.21
   6 -11  -5 1770.77  121.65
 -11   3   8  185.58  265.98
  -5  -6  -122439.78  774.34
   5   6   120809.75  721.09
   5   6   120091.81  830.83
  -5  -6  -121431.12  906.11
   5 -12  -2   -3.25   81.47
  -5  12   2   71.48  126.97
  -5  12   2  112.24   89.63
   5 -12  -2  165.51   96.69
   5 -12  -2   -2.59   72.50
   5 -12  -2   90.84   81.61
   8  -6   5 4865.07  286.56
   8  -6   5 5213.79  301.53
  -8   6  -5 5062.57  253.78
 -10   2  10 7244.08  614.51
 -10   2  10 7001.65  293.64
  -8   6  -5 5283.29  228.87
  10  -2 -10 5564.03  510.58
  -8   6  -5 4712.40  265.27
  -8   6  -5 4740.94  329.03
 -11   2   7 2462.74  495.93
 -10  10   1   76.77  162.08
  10 -10  -1  471.02  362.67
 -11   2   7 2317.30  304.60
 -11   2   7 2852.33  171.55
  10 -10  -1  383.64  137.45
 -10  10   1  255.33  156.59
   8  -9  -8 8416.69  500.42
  -8   9   8 8998.13  462.40
  -8   9   8 9403.37  545.09
   8  -9  -8 8979.34  422.43
   7 -12  -2 4143.69  292.79
  -5   0  -7 9440.64  408.51
   7 -12  -2 4370.44  279.95
  -5   0  -7 9426.14  506.32
   2  -9   9 4495.53  428.29
   7 -12  -2 4689.78  273.83
  -5   0  -7 9343.26  647.78
  -2   9  -9 4461.59  467.15
   5   0   7 9592.65  580.53
  -2   9  -9 5167.98  403.90
   7 -12  -2 4229.20  173.89
   5   0   7 9192.65  695.87
  -7  12   2 4414.86  326.78
   2  -9   9 4294.29  379.84
  -7  12   2 4553.20  545.08
  -7   7  10  343.89  267.13
  -7   7  10  310.97  170.01
  -7   3  12  165.25  140.31
   7  -7 -10  400.85  188.44
  -7   7  10  320.53  166.80
  -7   3  12   15.80   75.52
  -8  -3   1 8837.20  368.29
   3 -12   014455.27  458.72
   3 -12   014979.42  410.48
  -7   3  12  176.38  160.02
  -3  12   013336.32  453.81
   3 -12   013874.47  839.39
   3 -12   014844.53  856.81
  -8  -3   1 9184.78  564.07
   7  -3 -12  123.57  159.47
  -3  12   013000.88  339.87
   8   3  -1 8334.75  320.21
   6  -8   7  574.76  197.24
  -6   8  -7  482.51  208.15
   6  -8   7  432.47  209.25
  -6   8  -7  305.69  322.35
  -3  -7  -327932.45  958.72
   3   7   325830.30 1011.16
   3   7   326929.60  916.76
  -3  -7  -326532.46 1696.36
   0 -11   5 2650.31  544.23
   0 -11   5 2891.01  163.53
   0  11  -5 2751.18  167.71
   0 -11   5 2483.02  315.94
   1  -8  10 1886.39  282.92
   1  -8  10 1796.88  333.23
  -1   8 -10    0.83  224.50
   0 -10  -2   94.47  153.71
   0  10   2   32.54  138.53
   0 -10  -2  190.99  157.10
   0 -10  -2  249.97  158.62
   0  10   2  351.83  255.93
  -2 -10   5 5190.92  378.35
  -2 -10   5 5128.61  378.98
   3  -4  10  134.28  213.61
  -3   4 -10  205.73  166.32
   3  -4  10  -16.37   99.65
  -3   4 -10   73.08  125.76
  -3  -2  -8  550.84  158.37
   3   2   8   -0.30  135.54
   3   2   8  423.37  187.45
  -3  -2  -8  -52.83  194.28
  -3   5 -10 7525.61  504.22
   3  -5  10 6141.28  446.71
   3  -5  10 7491.33  420.61
   7   4   0    1.34   82.15
  -3   5 -10 6869.98  408.74
  -7  -4   0 1199.49  289.41
  -7  -4   0  808.89  341.27
  -8  -4   819436.92  404.35
  -9  -2   9 3606.38  169.27
  -8  -4   819599.46  382.27
  -8   2  -4  181.20  123.30
  -8  -4   819984.10  405.89
  -8  -4   819245.71  711.44
  -9  -2   9 3544.18  160.88
  -9  -2   9 3802.66  214.31
  -9  11   0 3991.91  378.40
  -8   2  -4 -100.96  173.16
  -9  -2   9 3404.09  358.44
  -9  11   0 4603.40  299.09
  -8   2  -4  -14.18  116.35
   9 -11   0 3860.13  254.10
   9 -11   0 4013.08  231.66
   9 -11   0 3877.77  148.13
   8  -2   4   17.67  187.58
   9 -11   0 4142.05  397.67
   1  -4 -10  144.97  130.05
   2  10  -3 4057.51  364.19
  -1   4  10  -66.78  121.86
  -1   4  10  -15.03  101.74
   1  -4 -10  200.69  235.96
  -2 -10   3 4264.74  352.11
  -2 -10   3 3909.00  350.63
  -2 -10   3 4045.35  187.87
  -9   4  11  -10.57  282.02
  -9   4  11   70.07  177.49
   2  -9  -6  -27.70  175.62
 -11   6   1 4727.15  408.47
 -11   6   1 4019.38  358.22
  -2   9   6    2.21  136.09
  -9   4  11  201.96  166.88
 -11   6   1 4248.56  409.23
  11  -6  -1 4167.27  426.10
  -2   9   6  -40.83   99.17
   2  -9  -6  140.57  257.72
   9  -4 -11   81.85  105.90
 -11   2   4  180.90   61.88
 -11   2   4  394.81  333.07
  11  -2  -4  164.50   67.67
 -11   2   4 -143.29  183.25
   7  -1   5 3935.83  350.72
  -7   1  -5 4597.23  332.91
  -4   7  -9  179.38  180.69
 -11   8   6  268.56  167.36
  11  -8  -6  275.09  171.11
   4  -7   9  -91.03  161.62
 -11   8   6  190.32  198.55
  11  -8  -6  305.58  179.86
   4  -7   9  341.98  167.78
  -7   1  -5 4607.78  329.99
  -7   1  -5 4321.79  345.86
  -4   7  -9   -4.96  255.64
   1   4 -12  120.82  145.28
   0  -9  -411954.53  656.33
   0   9   411873.36  614.59
  -1  -4  12   59.17  129.13
  -1  -4  12  325.51  161.44
  -1  -4  12  -71.63  154.97
   0   9   411832.59  532.69
   0  -9  -411097.40  524.88
   1   4 -12   29.90  165.76
   7  -8   6 1246.08  412.50
  -7   8  -6  990.31  155.62
  -7   8  -6 1218.35  233.68
   7  -8   6  908.57  195.01
  -7   8  -6 1034.87   83.55
  -7   8  -6 1021.16  209.33
  -4  -6  11 8987.40  347.28
  -4  -6  11 8776.12  739.50
  -4  -6  11 9598.17  447.49
   4   6 -11 8967.13  442.14
   4 -12   4 6049.35  357.87
  -4  12  -4 5950.11  348.26
   4 -12   4 6144.07  388.79
   4 -12   4 6650.15  690.83
  -8   5  -510190.12  438.55
  -8   5  -510553.08  380.53
  -8   7  -5  484.76   99.40
  -8   5  -510200.62  318.40
   8  -5   5 9659.93  406.11
  -8   7  -5  672.56  152.59
   8  -7   5  591.69  179.39
  -8   5  -5 9816.95  356.27
   8  -5   5 9466.87  551.80
  -8   7  -5  429.86  107.41
   8  -7   5  711.17  155.07
  -8   7  -5  622.64  171.59
 -10  -1   6 1429.00  250.43
 -10  -1   6 1470.65  228.19
  -4  10   6 2125.40  140.57
   4 -10  -6 2431.79  206.34
   4 -10  -6 1979.44  187.65
 -10   1   1 8250.45  566.06
 -10   1   1 8157.21  269.95
  -4  10   6 2007.46  318.02
  -4  10   6 2123.56  192.54
   4 -10  -6 2565.22  188.58
   4 -10  -6 1973.13  329.59
 -10   1   1 8498.10  519.81
  -4  10   6 1966.21  301.05
  10  -1  -1 7733.25  210.37
  -6   7  10  715.28  189.22
  -6   7  10    6.02  303.81
  -6   7  10  879.82  276.18
   6  -7 -10  636.98  207.34
  -2  -9  -1  -17.09  121.60
  -2  -9  -1  -81.79  123.96
   2   9   1   75.35  243.97
  -2  -9  -1  122.53  118.18
   2   9   1   71.79  144.75
 -10   2   0  -84.80  243.42
   2   8   3 5334.01  422.52
  11  -6  -8 7682.96  448.51
 -10   2   0 1144.79  223.12
  10  -2   0 1163.36  111.01
   2   8   3 5934.85  458.71
  -2  -8  -3 5731.21  430.66
 -11   6   8 8098.92  486.55
 -11   6   8 8366.40  458.11
  11  -6  -8 7841.91  459.65
  -2  -8  -3 6370.97  510.87
   1 -11  -121169.74  712.93
   1 -11  -122479.15  745.52
   1 -11  -123003.51  678.15
  -1  11   121471.87 1092.19
   3 -12   4 8097.45  729.12
  -4  -8   1  717.66  194.60
  -3  12  -4 7748.04  349.64
   0  10  -8  -10.88   98.17
   0 -10   8  -11.99  377.47
   0 -10   8 1285.06  221.57
  -4  -8   1  689.29  199.16
   3 -12   4 7866.57  378.87
   0 -10   8 1105.57  247.70
   3 -12   4 7937.38  449.10
  -4  -8   1  371.08  202.32
   4   8  -1  425.02  178.51
   4   8  -1  565.96  174.06
 -11   7   1 3419.35  331.51
  11  -7  -1 3260.10  266.49
 -11   7   1 3284.44  259.27
 -11   7   1 2935.16  374.31
  -4  -7  10 4840.26  467.05
  -4  -7  10 4635.54  312.54
  -4  -7  10 4808.40  287.55
   4   7 -10 5141.69  288.63
   5   7  -1  678.83  314.04
  -5  -7   1  710.32  292.47
  -5  -7   1  431.23  188.97
  -5  -7   1  166.14  175.25
   5   7  -1  588.55  350.15
 -10   8   8 1512.70  499.84
  10  -8  -8 1983.29  275.74
 -10   8   8 1608.25  277.51
  10  -8  -8 1361.00  264.08
  -2  -8  10 1145.29  410.03
  -2  -8  10 1311.11  373.73
  -9  10  -2 1546.87  270.78
   9 -10   2 1560.66  299.59
   9 -10   2 1496.75  146.17
  -9  10  -2 1322.99  180.65
  -9  10  -2 2141.77  166.19
  -9  10  -2 1810.03  155.61
   9 -10   2 1705.81  152.44
   1   1 -1211925.35  778.21
  -1  -1  1212154.11  528.25
  -1  -1  1212465.71  517.49
  -1  -1  1212256.58  569.81
  -8  11   5 6809.22  398.33
  -6  -6   9  318.80   73.90
  -8  11   5 6602.05  472.01
  -6  -6   9  418.07   97.07
   8 -11  -5 6420.51  353.31
   8 -11  -5 6169.59  418.36
  -6  -6   9  140.88   98.51
  -6  -6   9   47.99   97.14
   7   5  -222604.20  605.44
  -7  -5   225692.31  707.06
 -10   0   9  494.78  110.20
  -7  -5   225699.00  921.63
 -10   0   9  451.77  115.19
 -10   0   9  358.19  152.52
  -8  -3  10  736.38  195.70
  -8  -3  10  -12.76  239.57
   4   6   3 1749.01  306.69
   4   6   3 1317.09  287.51
  -4  -6  -3 1590.17  273.32
  -4  -2  -7   38.42  122.08
  -4  -6  -3 1159.96  333.57
   4   2   7  -23.78  141.76
  -4  -2  -7  -25.03  251.07
   4   2   7   -0.77  103.26
  -9  11   415141.35  643.72
   9 -11  -415205.62  633.36
   9 -11  -415165.45  584.17
  -9  11   415142.91  643.44
   2  -5 -10  513.92  146.18
  -2   5  10  -55.12  244.07
  -3   2  12 3012.52  320.30
   3  -2 -12 3193.47  353.05
   2  -5 -10  326.27  168.82
  -2   5  10  262.80   81.52
   3  -2 -12 3224.06  176.09
  -3   2  12 3374.35  250.93
   2   2   911360.45  731.02
  -2   5  10  262.44  161.09
  -3   2  12 3607.03  287.33
  -2  -2  -910721.36  546.55
   2   2   910468.49  616.04
  -2  -2  -910641.16  450.42
   2   2   910427.11  237.65
   2   2   910335.58  254.03
  -2   5  10  -19.30  248.12
 -10  -1   5 6251.81  428.12
 -10  -1   5 5820.19  424.69
  -3   8   8 6396.00  299.19
  -3   8   8 6987.49  322.83
  -3   8   8 6600.66  352.62
   3  -8  -8 5950.63  491.97
   3  -8  -8 6368.44  491.60
  -3   8   8 6316.15  458.08
   0   3  10 1092.92  248.94
   0   3  10 1114.20  105.69
   0  -3 -10   15.32   94.11
   0  -3 -10   24.12  112.11
   0   3  10  945.43  125.51
  -1  -7  11 2745.52  356.94
  -8   7  1014951.07  631.50
   1   7 -11 3229.35  362.42
   8  -7 -1013630.69  598.19
  -8   7  1014775.59  982.50
  -1  -7  11 3066.02  304.14
  -8   7  1014580.44  589.32
   1   7 -11 3000.52  343.79
  -7  10   7  766.39  249.11
  -6  -3  12  616.90  204.36
  -7  10   7  773.74  175.91
   7 -10  -7  869.64  415.42
  -6  -3  12  518.88  333.64
   6 -12   3  900.32  167.14
   6 -12   3  594.50  235.42
   6 -12   3  762.88  154.68
  -6  12  -3  741.35  196.25
   7 -10  -7  743.51  153.87
  11  -5  -1  553.64  119.36
 -11   5   1  -22.39  189.40
 -10  -1   7 2652.89  541.56
 -11   5   1  560.06  289.06
 -10  -1   7 4095.39  269.63
 -10  -1   7 3667.83  129.24
 -10  -1   7 3880.35  174.12
  -5   8  -824064.85  803.71
   5  -8   824372.53  893.15
  -5   8  -823581.45  941.97
   5  -8   823488.79  845.40
   0 -11   1 4700.32  392.82
  10 -10  -5  809.83  232.29
   2   5 -12 1092.83  416.92
  10  -5 -10   26.13  123.86
   0 -11   1 4511.65  366.14
   2   5 -12 1553.74  300.83
  -2  -5  12 1131.51  266.89
  10  -5 -10   18.79  107.79
 -10   5  10  971.90  437.44
 -10   5  10  894.24  195.45
   0 -11   1 4763.61  377.83
 -10   5  10 1412.37  244.67
  10 -10  -5  857.12  378.72
 -10  10   5  816.27  239.02
  -2  -5  12  -63.39  451.94
 -10  10   5 1131.45  256.48
  -2  -5  12 1466.30  357.57
   0  11  -1 4233.51  450.20
  -6  10  -6   85.49  387.94
   6 -10   6 1040.23  206.82
  -6  10  -6  758.35  211.78
   6 -10   6  838.85  274.46
   3  -7  -9 3625.03  432.25
   3  -7  -9 3364.59  366.41
  -3   7   9 3294.22  325.39
  -3   7   9 3299.83  154.80
  -3   7   9 3150.83  237.18
  -3   7   9 3326.80  178.49
   1  -6  1110007.40  551.54
  -3   3 -10  140.06  285.99
  -3   3 -10  133.81  121.25
  -1   6 -11 9577.95  616.12
   3  -3  10   15.30  190.39
  -1   6 -1110069.93  561.11
   1  -6  1110468.07  960.50
   3  -3  10  145.55  160.34
  -3  -5  12  229.91  158.73
   3   5 -12    8.31  109.61
   7 -10   5 6238.92  495.51
  -3  -5  12  -11.20  197.49
   3   5 -12  142.03  149.92
  -7  10  -5 7021.15  717.49
   7 -10   5 6263.71  359.25
  -7  10  -5 6915.49  443.24
  -3  -5  12    9.44  148.49
   8  -1 -12 3460.16  183.93
  -8   1  12 4096.18  155.39
  -8   1  12 4338.41  379.90
  -8   1  12 3909.96  394.53
  -2  12  -2  140.30   70.66
   2 -12   2  291.98  137.47
   2 -12   2  -53.95  101.48
   2 -12   2  163.31  135.19
  -2  12  -2  -42.31   67.39
  -5  -4  12    1.93   74.61
  -5  -4  12   89.43  121.90
   5   4 -12  -11.07   66.71
  -5  -4  12   -1.44  122.33
   8  -2 -12  439.50  106.23
  -8   2  12  381.77  216.34
  -8  -2  11  -10.32  288.33
  -8  -2  11  620.69  152.69
  -8   2  12  509.20  208.05
  -7  -5   9 5612.33  243.04
  -7  -5   9 5846.44  307.92
  -7  -5   9 6133.45  325.60
  -7  -5   9 5788.30  213.29
   2 -12   310669.76  522.49
  -1   1 -11 5379.07  610.82
   1  -1  11 4750.90  259.26
  -1   1 -11 4683.48  165.20
   1  -1  11 4384.99  301.09
  -8  -4   3  596.81  221.24
   8   4  -3    1.45   58.82
   1  -1  11 4891.99  386.35
  -8  -4   3  581.54  120.84
   2 -12   310965.33  313.54
   2 -12   311140.57  507.54
  -2  12  -310394.95  324.76
  -1   1 -11 5203.29  310.96
  -8  -4   3    5.45  203.94
  -5  -3  -5 2264.00  342.31
  -5  -3  -5 2046.60  347.79
   5   3   5 1972.29  317.70
   5   3   5 1864.82  322.97
  -2   1  12  169.42  126.54
   2  -1 -12   -7.72   52.90
  -5  -4  -4 6370.18  445.55
  -5  -4  -4 6515.79  540.64
  -2   1  12   31.37  115.18
   2  -1 -12  -34.51   85.26
  -2   1  12    3.69  108.21
   5   4   4 6299.85  487.85
   5   4   4 6787.77  506.62
  -6  11  -5 3639.29  341.62
  -6  11  -5 3028.27  340.72
   6 -11   5 3323.55  276.58
   6 -11   5 3461.40  314.35
   6 -11   5 3187.56  711.43
   5  -2   8 6472.57  235.02
   7  -3   6  -17.93  243.49
   5  -2   8 6439.57  801.97
  -7   3  -6 2845.03  212.79
  -7   3  -6 2417.52  138.98
  -3   6 -10  240.29  168.48
  -7   3  -6 1837.75  466.30
  -5   2  -8 6861.84  234.28
  -7   3  -6 1907.98  205.11
  -3   6 -10  294.65  207.14
   3  -6  10  380.20  335.88
  -5   2  -8 6864.00  442.42
   7  -3   6 2547.19  209.19
  -5   2  -8 6592.70  425.21
  -5   2  -8 6523.29  263.55
   3  -6  10  352.25  195.22
 -10   7   9  313.74  305.21
  10  -7  -9  398.21  361.49
  10  -7  -9  652.89  343.75
 -10   7   9  272.32  180.94
  -2   0 -10  -17.82  511.36
   2   0  10 3682.78  213.45
   2   0  10 3323.15  189.30
   2   0  10 3561.72  376.20
  -2   0 -10 3068.88  293.95
   2   0  10 3695.67  197.08
  -2  -7  11  129.50  155.12
   0  -1 -1118315.33  458.05
   0   1  1118092.08  730.23
  -2  -7  11   90.57  128.96
   2   7 -11  143.78  139.25
   0   1  1119314.48 1205.20
   0   1  1118588.78  567.08
   2   7 -11  -24.26  129.42
   0  -1 -1119052.10  645.73
   0   1  1119299.12  477.09
  -5   8   9  -67.77   81.53
  -5   8   9  -35.36   61.51
  -5   8   9  179.74  107.53
  -5   8   9   20.61   69.32
   5  -8  -9  145.79  318.02
   5  -8  -9  204.44  150.91
 -10   9   7  313.68  183.42
  10  -9  -7   59.16  149.96
  10  -9  -7  134.73  151.58
 -10   9   7   84.97  353.04
  -9  -2   216247.92  740.74
   9   2  -215053.97  370.79
  -9  -2   216903.32  454.91
 -11   9   4 1619.68  481.38
  -2 -10   6  113.33  153.00
  -7  11  -410223.48  544.70
 -11   9   4 1718.26  322.96
  -7  11  -411139.25  481.42
  11  -9  -4 1475.96  285.26
  11  -9  -4 1936.17  269.58
   5 -11  -5 8423.74  260.89
   5 -11  -5 8789.99  460.73
   2  10  -6    5.22   44.98
   7 -11   4 9360.57  609.69
  -5  11   5 8982.06  310.76
  -5  11   5 8901.54  535.53
   5 -11  -5 8841.12  295.62
   5 -11  -5 8516.44  504.81
   7 -11   4 9895.14  420.20
   7 -11   4 9205.17  380.80
  -2 -10   6  168.87  148.41
  -9  -3   6  657.39  241.73
  -9  -3   6   -5.73  166.98
  -9  -3   6  443.51   76.35
  -9  -3   6  787.03  135.38
 -10   9  -127395.13  869.96
 -10   9  -127067.47  804.99
  10  -9   124870.68  870.92
  10  -9   125731.85  511.51
 -10   9  -128564.75  589.29
 -10   9  -127362.75  757.25
  -9   9  -3 1002.23  202.39
  -9   9  -3  482.93  134.20
  -9   9  -3  480.39  320.23
  -5  -7   9 5165.34  272.44
  -5  -7   9 5556.21  265.86
  -5  -7   9 4395.03  245.45
   9  -9   3  480.14  209.17
   9  -9   3  649.98  117.32
   5 -12   4  177.08  189.74
  -5  12  -4   94.49  131.74
  -9   0  11 1272.87  103.53
 -11   9   3  180.74  172.06
   5 -12   4  294.64  151.78
   5 -12   4  274.63  139.82
 -11   9   3   63.60  146.55
  -9   0  11 1370.56  208.45
  11  -9  -3   36.56  137.77
  11  -9  -3 -122.53  123.20
  -4   2  -9 1640.64  154.03
  -3  10  -8 2593.33  399.27
   3 -10   8 2393.16  646.06
  -4   2  -9 1163.54  124.91
  -4   2  -9 1303.55  129.51
   4  -2   9 1297.60  302.60
   4  -2   9 1831.81  158.72
   3 -10   8 2511.21  505.16
  -3  10  -8 3218.20  327.54
   7 -12   2   59.59   98.38
  -7  12  -2  116.53   86.63
   7 -12   2  301.63   66.48
   7 -12   2  458.17  185.80
  -7  12  -2  251.77  152.68
   7 -12   2   80.26  108.91
   4  -3 -1211484.65  364.44
  -8  10   7 1938.93  257.59
  -4   3  1211715.61  588.40
   8 -10  -7 1879.01  288.07
   8 -10  -7 1789.57  228.32
  -8  10   7 1545.32  566.34
  -4   3  1212165.91  358.26
  -4   3  1212206.66  485.58
  10  -1 -10 2671.14  235.81
 -10   1  10 2796.46  237.87
   4  -3 -1211627.81  514.70
 -10   1  10 2486.68  184.23
 -10   1  10 3059.52  241.09
  -4   3  1212801.08  581.59
   6 -10  -7 9602.35  375.19
  -6  10   710143.42  384.53
   6 -10  -7 9277.88  391.45
  -4   5  11   -8.91   98.50
  -6  10   7 9919.17  967.52
   6 -10  -710318.51  340.44
  -4   5  11   10.25   94.99
   4  -5 -11   13.30   71.61
  -4   5  11 -117.59  143.27
   4  -5 -11  108.10  107.98
   6 -10  -710378.41  567.90
   8 -12  -110143.90  829.16
   8 -12  -1 9443.64  346.47
   8 -12  -1 8896.39  372.22
  -8  12   1 9309.25  424.47
  -8  12   110179.73  851.03
   8 -12  -1 9116.65  245.26
 -11   2   8 5042.75  393.00
 -11   2   8 5194.88  249.61
 -11   2   8 5544.03  341.74
   6 -12  -3 9399.20  701.00
  -6  12   3 8982.76  477.64
   6 -12  -3 8416.94  272.54
   6 -12  -3 9255.32  442.03
  -6  12   3 9391.23  386.16
   6 -12  -3 8996.82  334.38
  -2 -10   2 2163.77  185.22
  -2 -10   2 1954.62  283.61
   2  10  -2 1751.91  195.24
  -2 -10   2 1605.92  289.81
 -11   3   2 8697.26  611.49
 -11   3   2 8462.07  337.62
  -8  -1  -2  804.58  198.58
 -11   3   2 8618.30  541.98
   8   1   2  807.60  178.71
  -8  -1  -2  991.08  257.07
  -8  -1  -2  957.76  253.73
  11  -3  -2 7429.29  216.01
   9  -3   3   16.60  194.71
  -9   3  -3    9.82   91.27
  -3  -9   1 6037.65  592.20
  -3  -9   1 5049.18  403.89
   3   9  -1 5180.25  373.30
  -3  -9   1 5399.91  698.70
 -10   0   2 1107.86  302.52
   3   9  -1 4834.42  345.67
   9  -3   3 -141.93   58.13
  -9   3  -3    7.95  134.75
 -10   0   2 1516.77  227.52
  -9   3  -3  151.39  124.72
  10   0  -2 1366.72  101.88
   0   7 -11 4522.92  410.71
   0  -7  11 3940.79  365.84
   0  -7  11 3784.41  710.65
   0   7 -11 3797.20  433.14
  -5   9   8 2410.19  187.69
   5  -9  -8 2116.55  590.00
   5  -9  -8 2201.89  152.13
  -5   9   8 2266.59  162.88
  -5   9   8 2197.39  144.80
  -5   9   8 2352.50  333.63
  -7  -2  12 4462.48  367.36
  -7  -2  12 3927.33  356.33
  -9  -3   5 3084.65  300.53
  -9  -3   5 2654.22  253.45
   4 -12  -2 5869.16  330.10
  -4  12   2 5475.64  377.13
   4 -12  -2 5983.87  300.35
   4 -12  -2 6345.46  315.69
  -9  -3   5 2540.89  272.70
   4 -12  -2 5890.94  301.28
  -4  12   2 5778.24  229.77
   7 -12  -312197.63  432.46
   7 -12  -312571.17  746.75
  -9   8   9 -107.01  133.08
   7 -12  -312182.76  293.28
  -7  12   312808.66  939.47
  -9   8   9  147.03  147.56
  -7  12   313569.29  518.00
   9  -8  -9   98.77  144.16
  -9   8   9  182.29  140.90
   7 -12  -312125.09  470.18
   9  -8  -9  129.02  158.27
  -9  -3   7  208.70   93.21
  -6  -6   1  288.71  184.87
   8  -4   5 9149.36  284.10
  -9  -3   7  -39.49  111.72
   8  -4   5 8925.25  414.76
   8  -8   5  122.66  141.32
  -6  -6   1  169.83  144.66
  -8   4  -510121.45  448.35
  -8   4  -510483.20  720.87
  -8   8  -5  304.84  137.11
   8  -8   5   78.71  106.43
   6   6  -1    2.88  120.65
  -8   4  -5 9965.05  414.39
  -8   4  -5 9507.67  378.94
  -8   8  -5  193.23   79.74
  -8   8  -5  152.57   71.55
  -8   8  -5   79.79  141.67
   6   6  -1  280.75  155.37
  -2  12  -1  863.27  140.13
   2 -12   1  889.68  223.89
  -2  12  -1  457.91  163.71
   2 -12   1 1436.11  125.70
   2 -12   1 1052.61  224.42
 -10  10   0  182.29  155.89
  10 -10   0  176.68  306.25
 -10  10   0   91.56  136.07
  10 -10   0  103.58  108.23
  11  -8  -113138.65  919.78
 -11   8   115245.29  570.62
  -6   0  -614216.70  907.69
   6   0   613666.40  667.30
 -11   8   114921.16  680.97
  -6   0  -614830.66  585.17
  11  -8  -113720.76  574.93
  -6   0  -614358.64  624.59
 -11   8   114992.27  611.25
  -6  -5  -1 6247.39  545.87
 -10   3  -1 7637.84  518.55
 -10   3  -1 7809.34  267.61
 -10   3  -1 7287.57  472.09
   6   5   1 6392.36  499.65
  10  -3   1 6684.97  250.89
   6   5   1 6644.77  395.09
  -6  -5  -1 6887.86  416.99
  -8   0  12 1226.01  258.42
  -8   0  12 1139.85  246.04
  -9   9   8 1212.93  257.74
   8 -12   0  130.50   72.24
   9  -9  -8 1202.03  231.45
  -9   9   8 1428.42  282.59
   8 -12   0  -32.32  165.19
   8 -12   0  221.18   77.93
  -8  12   0  621.06  149.53
  -8  12   0  272.23  360.43
   9  -9  -8 1254.50  268.43
   8 -12   0  453.46  170.08
  -3   9   7  827.24  150.82
  -8  12   2 4314.75  344.43
  -8  12   2 5398.54  642.11
  -3   9   7  571.05  147.89
   8 -12  -2 4731.48  254.45
   8 -12  -2 5101.17  353.03
   8 -12  -2 4474.30  154.32
   3  -9  -7  717.95  152.63
  -3   9   7  725.83  233.38
  -3   9   7  596.01   71.52
   8 -12  -2 4793.83  290.11
   3  -9  -7  728.81  266.71
  -5  10  -7 8453.09  482.11
   5 -10   7 8643.58  583.46
 -10   6  -2 2913.38  179.52
   0 -11   6 2302.00  301.83
   0 -11   6 2392.18  198.63
   5 -10   7 7703.66  454.38
   0 -11   6 2193.67  327.16
  -5  10  -7 8618.87  577.43
  10  -6   2 2237.12  202.69
 -10   6  -2 2398.16  261.69
 -10   6  -2 2489.49  188.08
  10  -6   2 2458.08  160.33
   0  11  -6 2216.53  181.25
   3 -12  -1   15.51  209.45
   3 -12  -1  242.84  117.31
   3 -12  -1  172.63  100.87
   3 -12  -1   40.30   52.71
  -3  12   1  156.06  145.39
  -3  12   1  389.94   85.81
 -10  -1   4 9708.20  908.64
   2 -11   714468.65  652.88
 -10  -1   4 9409.56  534.37
   2 -11   713617.62  628.24
   2 -11   713924.64  608.46
  -2  11  -714247.28  556.32
   8  -3 -12 9112.43  533.62
   2 -12   4  745.95  381.36
  -8   3  1210959.53  962.10
  -8   3  1210563.26  337.83
   2 -12   4  784.16  212.49
  -2  12  -4 1229.51  280.27
  -8   3  1210635.64  608.45
   1   5 -12  530.05  212.10
   1   9   3  443.06  220.76
   1   6   7 5229.36  442.99
  -1  -9  -3  -37.62  150.00
   1   9   3  522.10  200.44
  -1  -6  -7 4432.60  436.64
   1   6   7 4373.47  423.19
  -1  -5  12  355.63  301.43
  -1  -9  -3  -19.25  231.81
   1   5 -12  397.38  230.70
  -1  -5  12  308.86  206.09
  -1  -6  -7 4618.05  387.96
  11  -4  -916147.49  982.89
 -11   4   917062.25  599.56
  11  -4  -916111.82  606.26
 -11   4   916838.81  608.37
 -11   2   3  -22.43  147.07
 -11   2   3   96.71  162.44
  -6   2  -7 5131.51  294.46
  -6   2  -7 5383.72  276.73
   6  -2   7 5021.88  182.18
  -6   2  -7 4926.40  267.09
 -10   7  -2 6073.85  302.14
  10  -7   2 5143.73  330.81
  -6   2  -7 4850.59  384.00
 -10   7  -2 5864.25  353.99
 -10   7  -2 5048.77  332.03
 -10   7  -2 5660.50  237.74
   6  -2   7 4786.31  405.39
  10  -7   2 4793.31  305.73
  11  -9  -5  308.45  190.28
 -11   9   5  143.75  196.38
 -11   9   5  306.17  174.81
  11  -9  -5  352.79  182.38
  -5   7  10 2393.66  309.84
  -5   7  10 2820.18  210.16
   5  -7 -10 2919.95  162.70
   5  -7 -10 2455.07  326.24
  -5   7  10 3010.70  267.14
   5 -11   6 7202.84  400.56
   5 -11   6 7103.87  544.20
   5 -11   6 7206.50  463.72
  -5  11  -6 7370.60  477.23
  -5  11  -6 8623.78  525.32
 -10  -1   811250.85  416.14
 -10  -1   810939.50  474.20
 -10  -1   811568.51  391.76
 -10  -1   811362.18  333.72
   9 -11   1  383.76   91.82
  -9  11  -1  716.37  213.43
   9 -11   1  488.43  186.09
   9 -11   1  421.37   87.30
  -9  11  -1  162.83  251.02
   9 -11   1  551.65  228.81
  -8  10  -4  841.56  105.05
   8 -10   4  588.72  150.12
  -8  10  -4  696.90  156.02
   8 -10   4  602.23  236.13
  -8  10  -4  288.64  315.73
  -8  10  -4  812.29  222.85
   8   2   1 7072.58  339.52
  -6   4  12 4658.62  604.47
  -6   4  12 4271.98  239.54
  -8   0  -3  604.98  183.58
  -8  -2  -1 8827.13  426.28
  -8   0  -3  711.38  414.07
   6  -4 -12 3997.31  430.29
  -8   0  -3  850.83  226.71
  -6   4  12 4665.64  404.12
  -8  -2  -1 7452.19  958.88
  -8  -2  -1 7827.57  548.83
   8   0   3  800.98  345.44
 -11   1   6 1172.14  287.29
 -11   1   6 1755.90  181.02
 -11   1   6 1231.63  444.63
  -7   6  11 4808.01  346.80
  11  -9  -2 2988.96  298.66
 -11   9   2 2376.75  306.72
 -11   9   2 2584.43  345.37
  11  -9  -2 3153.40  330.49
   7  -6 -11 2300.87  451.04
  -7   6  11 5151.31  563.34
  -7   6  11 4553.98  403.66
   2   9  -9 9003.01  388.87
   9  -5 -11 5007.62  327.08
  -9   5  11 5714.06  442.46
  -9   5  11 5304.63  452.38
  -2  -9   9 8152.21  723.61
  -9   5  11 5320.12  528.20
  -2  -9   9 8418.17  416.08
   9   0   120218.36  833.36
  -9   0  -122508.95  640.51
  -9   0  -121845.19  861.26
  -9   0  -121991.28  903.68
  -4  -5  1211919.18  722.62
  -4  -5  1213242.69  624.00
   4   5 -1212223.25  436.93
  -4  -5  1212882.74  989.93
  -7  -2  -3  -58.29  140.32
  -7  -2  -3  106.94  135.19
  -7  -2  -3  -62.11  203.60
   7   2   3   39.93  126.67
   5   2   616405.47  790.72
  -3   6  10 5136.12  369.97
  -5  -2  -616787.18  696.61
  -5  -2  -616633.75  756.82
  -3   6  10 5342.08  307.87
  11  -4  -1  431.26  159.59
   3  -6 -10 5166.28  388.98
  -3   6  10 5508.22  219.76
 -11   4   1  393.79   83.23
 -11   4   1  278.18  345.10
   5   2   614997.38 1101.91
  -3   6  10 5493.79  260.53
   3  -6 -10 5227.06  476.97
 -11   4   1  -21.28  229.33
  -2   8 -10 1089.48  307.22
   2  -8  10 1207.36  277.45
   2  -8  10 1395.39  316.93
   5   5   3 5202.05  479.83
   5   5   3 5315.14  708.15
  -5  -5  -3 4303.99  408.96
  -5  -5  -3 4917.77  498.37
  -7   4  12 4476.25  375.06
   7  -4 -12 3888.85  257.47
  -7   4  12 4529.37  430.34
  -7   4  12 4609.34  418.21
   1   2  10  128.40   66.78
   1   2  10   53.87  197.18
  -1  -2 -10  -37.75   94.38
   1   2  10  184.48  129.72
  -1  -2 -10  -21.22  126.68
   1   2  10   56.43  177.90
  -3  -9   8 5929.63  381.33
   3   9  -8 6705.57  254.64
  -3  -9   8 6522.66  284.09
 -11   8   7 4484.19  413.98
 -11   8   7 3974.01  382.89
   3 -11   7 2372.79  325.85
   3 -11   7 2463.59  510.71
  -3  11  -7 2294.91  504.51
  -3  11  -7 2135.84  361.17
  -6  -7   517002.81  543.08
   3 -11   7 2031.18  337.64
  11  -8  -7 4770.72  396.26
  11  -8  -7 4201.47  384.84
  -6  -7   518054.70  539.55
  -6  -7   516783.72  721.13
  11  -3  -9   41.00  117.01
 -11   3   9  712.09  177.74
 -11   3   9  711.98  208.08
  11  -5  -9 1742.77  448.36
 -11   3   9  813.58  172.40
  11  -5  -9 1551.23  259.10
 -11   5   9 2031.55  262.77
 -11   5   9 1550.60  258.90
  -6  -7   6 4569.95  268.40
  -3   9  -9 9041.01  528.46
  -6  -7   6 4757.71  328.85
  -6  -7   6 4315.95  270.06
   3  -9   9 9398.80  608.75
   3  -9   9 8784.47  872.11
  -3   9  -9 9642.03  663.33
   2   5   7 1404.75  318.87
   2   5   7 1385.85  280.64
  -2  -5  -7 1612.18  312.70
  -2  -6  -6 3477.64  374.44
  -2  -6  -6 3810.74  432.66
  -2  -5  -7 1586.91  308.71
   2   6   6 3925.11  412.54
   2   6   6 4106.09  419.73
  -8  -4   9 5542.78  283.39
 -11   7   8  325.49  197.83
  -8  -4   9 4545.04  370.90
 -11   7   8  488.45  341.49
  -8  -4   9 5480.19  284.85
  11  -7  -8  565.92  199.11
  11  -7  -8  398.42  200.80
  -8  -4   9 5577.46  266.85
   0  -7  -724897.22  836.94
   0   7   725159.13  871.79
   5 -12  -3  133.70   74.90
   8 -11   3  473.67  143.84
   5 -12  -3  -19.61   88.00
   8 -11   3  546.33  134.61
   0  -7  -724551.57 1001.51
  -5  12   3 -125.52  148.51
   5 -12  -3  258.04  124.80
   8 -11   3  516.85  231.00
   0   7   724790.58 1498.39
  -8  11  -3  194.78  372.77
   8 -11   3  370.82  127.03
   5 -12  -3   43.46  158.02
  -8  11  -3  786.85  149.21
  -5  12   3 -114.86   92.37
  -8  11  -3  341.23  151.63
   1   0 -12  -72.36  128.94
  -1   0  12   52.76  121.50
  -1   0  12  -42.87  118.02
 -11   1   5 7515.44  502.66
   1   0 -12  225.01   61.78
   0  -6  -8  518.19  226.22
   0  -6  -8  476.18  208.05
 -11   1   5 7987.38  902.76
   0   6   8  431.48  202.23
   0   6   8  550.30  373.51
  -1   0  12   87.39  104.50
   1   7   6  290.85  376.01
  -6   6  1113122.02  522.10
  -1  -7  -6  455.68  236.23
   6  -6 -1112464.42  533.28
  -1  -7  -6  291.86  352.02
   1   7   6  533.93  230.51
  -6   6  1113610.25  602.97
  -6   6  1113310.71  513.54
  -5  -8   511299.97  488.60
  -5  -8   510793.25  451.02
  -5  -8   510326.23  451.91
   1   5   8 5509.95  407.65
  -1  -5  -8 5290.32  411.47
  -1  -5  -8 4457.84  419.01
   1   5   8 4740.52  452.95
   1 -11   7 4744.88  793.59
   1 -11   7 5949.74  639.12
   1 -11   7 6021.41  415.61
  -1  11  -7 5852.89  564.36
 -11   1   7 1227.76  250.72
 -11   1   7 1406.89  198.44
  -3   2 -10  892.74  161.58
  -3   2 -10 1088.14  167.01
   3  -2  10  -22.34  221.97
   3  -2  10  934.97  214.51
   3  -2  10  447.21   84.01
 -11   1   7 1290.97  235.43
  -3   2 -10  906.25  425.19
  -3   2 -10  794.10  160.72
  -1 -10   8 4270.47  342.36
   1  10  -8 4116.67  445.25
 -10   5  -2 5177.40  363.80
 -10   5  -2 5281.29  241.60
  10  -5   2 5592.10  376.11
 -10   5  -2 5967.07  369.82
  -1 -10   8 4161.27  509.27
  10  -5   2 4884.37  389.00
 -10   5  -2 5974.41  710.35
  -5  -1  13 8331.78  514.22
   3 -12   5 3487.56  343.66
  -5  -1  13 8565.36  472.13
   3 -12   5 2862.52  307.21
   3 -12   5 3117.07  536.77
  -3  12  -5 3325.18  263.58
   5   1 -13 8091.87  268.27
  -5  -1  13 8077.11  574.21
   4  -8   9 1522.11  550.22
   1  10   1 3252.35  570.13
  -4  -1  13 5301.15  428.68
  -1 -10  -1 4331.17  361.79
  -4   8  -9 1785.32  280.35
  -1 -10  -1 4321.42  374.13
  -1 -10  -1 3460.60  664.43
   1  10   1 3102.49  334.69
   4   1 -13 4970.56  269.63
  -4  -1  13 5465.24  275.34
  -4   8  -9 1635.64  344.57
   4  -8   9 1561.94  294.34
  -4  -1  13 5668.80  489.55
  -5   0  13 2086.82  277.29
   5   0 -13 2197.40  154.78
  -9   7  10 5613.57  392.98
  -5   0  13 1630.72  628.09
  -5   0  13 2390.65  324.41
   9  -7 -10 5398.46  406.44
  -9   7  10 5346.79  420.68
  -9   7  10 5417.15  439.68
   9  -7 -10 5657.77  411.07
   3   7 -11   -4.31   92.26
  -3  -7  11  661.89  198.94
  -3  -7  11  956.64  160.20
   3   7 -11    7.92  104.44
  -3  -7  11   -1.10  194.51
   3 -11  -4  245.89  274.89
   3 -11  -4  214.07  114.05
   3 -11  -4  -26.37  116.41
  -3  11   4  202.58  115.72
  -3  11   4   33.16  167.52
   2 -11  -3 1773.46  243.19
  -5  -8   616625.33  557.45
   2 -11  -3 2219.63  481.86
   2 -11  -3 1564.57  238.61
  -2  11   3 1957.86  233.99
  -2  11   3 1821.65  293.00
  -5  -8   616025.21  551.65
   6  -9   7 3698.93  345.52
  -9  -1   0  114.07  181.46
   7  -9   614307.93  596.17
  -6   9  -7 3644.76  334.42
   9 -11  -5 7547.50  459.45
   7  -9   614582.81  688.40
  -9  11   5 7808.21  467.64
  -7   9  -614127.49  605.35
  -9  11   5 8657.03  889.53
  -6   9  -7 3274.37  665.03
   6  -9   7 3606.56  701.32
  -9  -1   0    3.92  174.44
   9 -11  -5 7321.55  442.88
  -7   9  -614578.55  629.93
  -9  -1   0  131.02  167.84
   0  -3  12 6143.54  413.19
   0  -3  12 6658.36  440.45
  -7  -1  -412592.46  614.39
  -7  -1  -412116.30  632.75
   0  -3  12 5897.28  417.24
   7   1   411393.86  941.60
   0   3 -12 6386.50  459.37
   0   3 -12 6133.75  425.62
  -7  -1  -412020.35  577.02
  -9   1  -2  112.60  117.23
   9   3  -4 2188.75  133.03
  -9   1  -2 -117.05  110.44
  -9  -3   4 2665.49  243.25
  -9  -3   4    6.67  280.73
   9  -1   2  -84.81  101.28
  -9   1  -2    6.56   71.81
  -7  -3  -2 2847.52  652.80
   7   3   2 3600.56  397.35
  -7  -3  -2 2402.15  405.56
  -7  -3  -2 3239.49  305.52
   7   3   2 2891.16  296.98
  -9  -3   8 8092.75  403.24
  -9  -3   8 7641.39  330.56
 -10   6  10 1740.37  259.73
   9  -6   4  631.03  148.12
  10  -6 -10 1677.89  289.30
  10  -6 -10 1732.74  259.13
 -10   6  10 1915.91  310.78
 -10   6  10 1635.19  302.17
  -9   6  -4    4.65   81.14
   9  -6   4  849.88  148.51
  -9   6  -4   19.57   92.19
  -9   6  -4   12.58  152.54
   4 -12   512669.82  530.47
   4 -12   512529.14  581.48
  -4  12  -512458.56  527.91
   4 -12   512229.01  619.66
  -3   7 -1010849.82  685.78
  -4  -8   9 1644.98  215.04
  -3   7 -1011138.09  574.10
   3  -7  1011112.00  632.74
  -4  -8   9 1621.96  180.11
   3  -7  1011106.75  647.91
  10  -8   2 -223.43   79.61
 -10   8  -2  -43.75   58.80
  -8   6  11   41.01  148.26
   8 -12   110093.95  296.40
  -8  12  -110448.03  375.80
 -10   8  -2  172.24   89.95
  -8   6  11  442.92  190.12
 -10   8  -2  -23.35   79.65
 -10   8  -2  -56.35   89.99
  -8  12  -110431.34  536.57
  10  -8   2  -26.82  144.63
   8  -6 -11  469.00  180.81
   8 -12   110397.96  489.97
  -8   6  11  409.97  179.12
   8 -12   110022.62  588.82
   8 -12   1 9072.53  282.27
  -4  -2  13 2523.40  648.09
  -4  -2  13 2395.28  197.40
   4   2 -13 2430.10  206.08
  -4  -2  13 3476.84  349.91
   0 -11   0   61.33  161.24
  -8  12   3 4085.10  367.84
   8 -12  -3 4915.86  327.58
  -8  12   3 4702.62  591.70
   8 -12  -3 4222.98  143.59
   8 -12  -3 4521.29  306.09
   0 -11   0  213.91  124.25
   0 -11   0  337.32  170.11
   8 -12  -3 3912.21  136.61
   0  11   0    7.43   97.52
   2  -4  11 8710.74  521.19
  -6  -5  11 1004.31  183.16
   2  -4  11 8389.70  457.61
  -6  -5  11  816.75  199.37
  -2   4 -11 9583.09  490.38
  -6  -5  11  -89.01  286.57
  -2   4 -11 8405.75  549.46
   5  -4 -12 7597.61  326.54
  -5   4  12 8748.20  717.83
  10 -10  -6  803.19  228.28
   0   4 -12 8932.28  558.33
  -5   4  12 9112.84  516.01
 -10  10   6  930.88  277.23
  10 -10  -6  669.73  223.00
  -5  -8   4  253.05  152.35
  -9   7  -4  -86.13   88.53
  -5   4  12 8927.31  343.49
   0  -4  12 9377.01  483.15
  -9   7  -4   69.44   80.75
   5  -4 -12 7388.68  359.10
   0   4 -12 9337.62  520.25
   0  -4  12 8642.59  518.79
   9  -7   4  147.97   91.81
   9  -7   4  -72.21  107.83
  -5  -8   4  -21.74  281.45
 -10  10   6  997.22  432.12
  -5   4  12 9159.37  432.22
  -9   7  -4   -4.44   74.87
  -9   7  -4   93.61   90.94
  -5  -8   4  455.03  119.62
  -7  -6   6 1489.46  307.74
  -7  -6   6 2582.16  309.95
  -7  -6   6 1990.19  179.92
  -2  10   5 1984.91  334.81
  -3  -8  10 7886.09  387.94
  -3  -8  10 7614.33  687.65
  -3  -8  10 7750.70  378.76
  -6  -7   4 1106.59  202.23
   2 -10  -5 2104.78  243.18
  -6  -7   4 1854.35  336.68
  -6  -7   4 1463.61  354.94
  -2  10   5 2505.76  243.38
   2 -10  -5 2091.39  343.78
  -9  10   7   78.00  147.29
   9 -10  -7    8.31  111.55
   9 -10  -7   18.82  129.58
  -9  10   7  105.58  173.80
  -2 -10   7  681.51  124.68
   5 -10  -7 2088.36  154.32
   5 -10  -7 1789.01  589.24
  -5  10   7 1891.04  145.66
  -5  10   7 1947.81  333.63
   5 -10  -7 2278.16  248.42
  -5  10   7 2008.83  247.89
  -2 -10   7  894.64  212.55
   2  10  -7  878.25  117.82
  -5  10   7 1885.58  286.27
  -2 -10   7  971.85  371.71
   5 -10  -7 1897.13  159.04
   2 -12   0 2517.63  272.52
   2 -12   0 1863.75  275.73
   2 -12   0 2474.71  186.38
  -2  12   0 1427.10  207.34
  -6  -7   7   -0.33   77.69
  -6  -7   7   -9.95   76.44
   1 -10  -4 1928.17  330.69
   1 -10  -4 1852.31  262.77
  -1  10   4 1666.05  304.27
  -1  10   4 1537.80  243.79
  -9  -2  10  200.98   94.23
  -4   0  13 1770.21  268.40
  -9  -2  10  256.22   66.90
  -7  -6   5 4078.57  475.51
   4   0 -13 1802.37  174.33
  -4   0  13 1667.43  177.69
  -7  -6   5 3972.55  244.59
  -9  -2  10  537.66  122.97
  -7  -6   5 4039.61  244.83
  -9  -2  10  196.77   97.89
  -4   0  13 1753.34  323.83
  -6   0  13 7247.44  910.75
  -7  -4  11   22.82   55.73
  -7  -4  11   30.16   84.39
  -7  -4  11   71.86  103.46
  -7  -4  11   22.44   90.36
  -6   0  13 7938.69  558.82
  -2   5 -11   14.99  141.25
  -2   5 -11  142.06  164.48
   2  -5  11  180.69  170.63
   2  -5  11  282.84  177.11
  11  -6   0 1924.11  193.40
  -3  -5  -6 4933.00  460.60
 -11   6   0 1728.20  315.23
   3   5   6 5500.55  477.30
  -3  -5  -6 6555.92  858.99
 -11   6   0 2166.80  186.59
 -11   6   0 1165.41  510.26
   3   5   6 3954.43  843.38
   0  -2  12  -26.37  119.15
   0  -2  12   40.86  107.65
   0   2 -12 1943.15  283.22
   0   2 -12 2336.81  285.34
   1  -7  -8  235.95  155.50
  -1   7   8  -74.62  239.52
 -11   7   013073.93  463.70
 -11   7   013097.88  668.31
  -7  11   6 5418.27  320.91
   7 -11  -6 5749.18  295.34
 -11   7   012517.42  929.41
   7 -11  -6 5290.46  452.88
  -5  -2  13  105.21  192.73
  -1 -11   4 2166.67  550.46
  11  -7   011521.22  460.77
  -1 -11   4 2350.60  309.65
  -1   7   8   -2.85  114.82
  -7  11   6 5131.98  468.45
   6 -12   4 2301.12  367.07
  -5  -2  13  540.38  206.59
   5   2 -13  -16.00  112.60
   6 -12   4 2392.63  239.17
   6 -12   4 2733.48  261.84
  -5  -2  13  202.74   95.32
  -6  12  -4 1898.16  283.51
  -8  -1  12  546.53  173.47
  -8  -1  12   13.13  175.71
 -11   9   6  508.96  400.60
 -11   9   6  359.42  203.12
  11  -9  -6  359.52  200.06
  11  -9  -6  455.90  356.03
  -2 -10   113295.65  632.40
  -2 -10   112931.40  777.37
  10 -11  -2 2960.14  254.69
  -2 -10   113480.98  617.69
 -10  11   2 2532.83  315.16
 -10  11   2 2822.81  351.64
   1  -7  11  426.49  212.41
  10 -11  -2 2454.52  356.51
   2  10  -112109.62  512.15
   1  -7  11  176.40  198.29
  -1   7 -11  391.00  232.07
  -1   7 -11  264.19  371.31
  -2   3 -11 1711.71  238.55
   2  -3  11    8.98  296.19
  -2   3 -11 1437.31  500.44
   2  -3  11 1473.42  389.36
  -2  12  -5   -2.16   80.18
  -8  -4   2 4817.60  439.06
   2 -12   5 -312.39  246.21
   2 -12   5  214.60  229.75
  -8  -4   2 4643.02  275.77
   8   4  -2 3965.84  229.39
   2 -12   5   64.17  102.41
  10 -11  -3 4391.78  327.60
   9  -5   4 2512.35  181.56
   9  -5   4 2487.27  217.98
  10 -11  -3 4336.63  408.66
 -10  11   3 4560.70  414.64
 -10  11   3 4929.07  406.02
  -9   5  -4   -1.24   87.65
  -9   5  -4   15.86  100.69
   0   8   6  895.44  418.09
   0  -8  -6    0.94  245.19
   2   4   810843.57 1096.86
 -11   1   4  -66.87  600.15
  -2  -4  -8 9676.30  551.48
   0  -8  -6  583.04  185.69
 -11   1   4 3274.79  372.18
   2   4   8 9931.81  545.36
  -2  -4  -811353.02 1005.60
   0   8   6  841.37  470.06
  -5   1  1310588.20  648.87
  -5   1  1310888.87  329.17
  -2  -7  -5    6.70  153.59
   2   7   5   12.55  171.72
  -2  -7  -5  -17.67  127.32
   5  -1 -13 9610.52  290.04
  -5   1  1310893.65  584.02
   2   7   5  154.87  173.88
  -3  -8  -2 1990.00  271.58
   3   8   2 1944.92  305.55
  -3  -8  -2  -14.80  309.02
   3   8   2 2037.90  343.50
   4   1   815126.02  560.12
  -4  -7  -2 1508.99  348.84
  -4  -7  -2 1613.95  300.26
   4   7   2 1560.61  549.50
   4   1   813621.41  750.84
  -4  -1  -813766.98  536.63
  -4  -1  -813729.15  656.72
   4   7   2 1448.49  279.45
  -1   0 -1110286.57  296.86
  -4  -9   5  152.13  147.80
  -7  12  -3  417.25   94.33
  -7  -6   7 2717.42  188.86
  -7  -6   7 2856.37  275.24
   1   0  1110628.64  578.07
   1   0  1110548.43  639.30
   7 -12   3  512.74  246.96
   1   0  1110654.56  583.28
   1   0  1111503.35  486.33
  -7  12  -3  463.79  186.74
  -7  -6   7 2663.09  311.70
   7 -12   3  412.86  122.32
   7 -12   3  514.95  229.87
  -4  -9   5  198.75  255.98
  -7  -6   7 2398.01  132.14
 -11   6   9 2096.15  293.55
  -3  -2  13 2531.77  226.17
  -3  -2  13 2291.83  361.90
 -11   2   9 6700.46  353.64
 -11   2   9 7125.87  320.80
   3   2 -13 2834.95  256.15
  -3  -2  13 2255.61  330.48
  11  -6  -9 2275.80  299.21
 -11   6   9 2335.58  296.47
 -10   0  10   32.54   98.72
 -10   0  10 -156.47   76.26
  11  -6  -9 1916.90  289.92
 -11   2   9 7423.94  713.55
  -8   4  12 3431.96  411.15
  -8   4  12 3351.32  226.21
  -1 -11   3  -74.79  315.49
  -1 -11   3  329.81  122.98
  -8   4  12 4016.97  377.08
   8  -4 -12 3113.50  243.37
   1  11  -3  242.58  159.34
  -1 -11   3  101.23  174.41
  -5  -6  11 2173.87  186.40
   0  -5  -9 5263.52  711.43
   0  -5  -9 5065.32  688.63
   0   5   9 4727.18  432.87
  -5  -6  11 1667.79  237.31
   0   5   9 5877.86  393.71
  -9  -1  11   22.83  128.34
  -9  -1  11 -202.33  112.78
  -6   1  13 1736.98  347.17
  -3  -1  -9 6289.29  335.14
   3   1   9 5851.42  312.06
  -6   1  13 1759.50  301.79
  -3  -1  -9 5753.91  459.54
   3   1   9 6723.28  527.49
  -7  -5   116020.47  586.08
   7   5  -113957.45  496.18
  -7  -5   115263.61  776.26
  -5  -8   7 5898.05  325.82
   6   1 -13  -21.73   86.07
  -6  -1  13  160.41  186.96
  -5  -8   7 6185.24  335.27
  -6  -1  13   93.78  179.23
   4   8   0 8651.24  471.57
   4 -11  -514922.05  476.97
 -11   9   1 1515.00  264.21
  -4  11   515170.72 1153.83
 -11   9   1 1657.89  497.09
  -4  -8   010172.62  540.59
   4 -11  -515410.03  471.88
   4 -11  -515586.01  327.60
   4 -11  -514802.89  702.43
  -4  11   515394.26  448.81
  -4  -8   0 9902.92  575.62
  11  -9  -1 1566.39  281.84
  11  -9  -1 1693.78  234.53
  -4  11   514636.58  365.56
   4   8   0 7712.58  483.94
  -2   4  11 9543.08  446.94
  -2   4  11 8741.26  299.94
   2  -4 -11 8564.49  392.82
  -2   4  11 9545.53  406.41
  -1  11   2 1558.91  454.66
   1 -11  -2 1357.92  244.15
   1 -11  -2 1351.23  246.42
   1 -11  -2 1368.79  244.30
  -2   4  11 9636.27  360.18
   2  -4 -11 8832.95  404.03
 -11   1   8 6038.60  416.77
 -10  -1   3  216.56  209.89
  10   1  -3  359.13   68.86
  -5   9  -8 4552.92  396.35
  -5   9  -8 4610.54  456.60
   5  -9   8 5117.30  470.50
  -8   3  -5 8534.99  219.19
 -11   1   8 6633.06  244.43
 -12   6   5 4555.84  496.69
   8  -3   5 8094.35  428.47
  12  -6  -5 3688.51  290.09
 -11   1   8 6710.08  360.64
 -12   6   5 4281.84  485.76
   8  -3   5 7825.51  217.14
 -10  -1   3   51.43  210.61
  -8   3  -5 7996.32  386.67
 -10  -1   3  439.92   98.83
  -8   3  -5 8541.72  416.18
 -12   6   5 4126.76  426.86
   5  -9   8 4566.56  410.36
  -8   3  -5 8633.15  410.40
  12  -6  -5 4933.01  404.04
   2   6 -12 4647.63  448.20
   8  -9   5 2921.44  246.40
  -8   9  -5 3249.76  305.28
   2   6 -12 4417.66  373.73
   8  -9   5 2657.82  350.61
  -8   9  -5 3353.42  162.18
  -8   9  -5 3018.89  233.82
  -8   9  -5 3557.78  320.79
  -2  -6  12 3818.83  411.22
  -2  -6  12 4064.75  329.42
  10  -3 -11    9.64  150.87
  -7   2  -6   50.38  190.98
  -8   1  -413998.60  616.12
  -3  -1  13  -73.02  258.41
   8   3   0   -0.03   74.00
  -8  -3   0  276.65  241.09
  -8   1  -412476.07  580.47
  -8   1  -413211.95  838.47
 -10   3  11  114.45  185.40
  -8  -3   0  448.05  150.36
   3   1 -13  199.90  120.88
  -3  -1  13  164.00  224.77
  -7   2  -6   15.93  112.80
   7  -2   6   19.29  125.67
  -3  -1  13    9.43   94.29
   8  -1   412527.87  566.41
  -7   2  -6  127.98  123.31
 -10   3  11  237.33  168.65
  -1   3  11 3333.73  189.94
   1  -3 -11 3365.75  277.57
  -1   3  11 3757.42  227.92
  -1   3  11 3340.60  335.45
  -1   3  11 3479.52  244.25
   1  -3 -11 2968.29  236.45
  -4  10  -8  376.74  206.09
  -4  10  -8  567.03  260.65
   4 -10   8  310.58  188.04
   4 -10   8  330.73  233.45
   3   4   7  914.79  289.44
  -3  -4  -7  986.56  261.36
   3   4   7  850.24  244.31
  -3  -4  -7  612.17  264.33
  -8  11   6 3590.36  311.55
   8 -11  -6 3160.89  274.84
   8 -11  -6 3191.36  342.34
 -12   5   5  204.17  184.46
 -12   5   5  210.15  203.95
 -12   5   5  -41.11  180.07
  -8  11   6 3470.07  400.03
  12  -5  -5  287.76  124.59
  -3  -6  -5 1327.77  341.83
  -3  -6  -5 1293.45  283.15
   3   6   5  988.78  285.34
   3   6   5 1195.26  307.41
  -4  -9   4 3454.48  333.04
  -1   8   7 2724.78  383.50
  -4  -9   4 4264.02  338.56
  -1   8   7 3001.32  319.91
  -1 -11   5  193.78  171.41
   1  -8  -7 2668.89  276.25
   4   9  -4 3435.80  212.52
  -4  -9   4 3494.26  336.46
  -1 -11   5  145.02  165.93
  -4   8   9   44.45   58.19
  -4  11  -7  373.01  228.46
   4  -8  -9  140.18  101.69
   4  -8  -9   10.68  169.86
  -4   8   9  -59.92  116.96
  -4  11  -7  326.72  194.27
   4 -11   7  402.97  224.62
   4 -11   7  503.32  186.70
  -4   8   9  -51.55  130.89
  -4   8   9   22.68  126.65
   4 -11   7  587.90  246.08
   1 -12   3  366.11  187.37
   5  -6 -11  805.71  218.80
   5  -6 -11  -16.79   64.22
  -5   6  11    0.31  105.38
  -5   6  11   28.88  106.56
   1 -12   3  299.98  188.50
  -5  -7   0  -35.13  133.07
  -5  -7   0  158.26  158.76
  -3  10   6 2082.73  332.21
  -6  -6  10  135.73   91.11
  -3  10   6 2027.38  211.63
   3 -10  -6 2237.81  227.54
   5   7   0  175.80  231.51
  -6  -6  10  288.55  187.74
   5   7   0   11.90  156.67
  -6  -6  10  336.63   92.57
  -6  -6  10  119.19   90.74
 -10  -1   9 4814.15  377.28
 -10  -1   9 4867.87  408.89
   3 -10  -6 1992.58  364.89
 -10  -1   9 4692.85  196.77
 -10  -1   9 4335.65  482.53
  -7  12   4 5920.58  351.15
   7 -12  -4 5882.41  630.29
  -9   8  -410876.39  604.12
  -6  -4  12   94.00  149.11
  -9   8  -410367.57  332.92
   9  -8   4 9704.21  489.58
  -6  -4  12    7.18  260.04
   7 -12  -4 5449.53  302.49
  -7  12   4 6511.56  457.31
   9  -8   411058.30  588.92
  -9   8  -410667.27  465.07
  -6  -4  12  250.20  144.00
   7 -12  -4 5597.69  308.08
  -9   8  -411283.23  439.36
   7 -12  -4 6164.89  314.53
   6 -11  -6   47.79  135.95
  -6  11   6  193.24  173.16
  -6  11   6   86.29  101.53
   6 -11  -6   25.44   54.96
   6 -11  -6   -9.50   69.19
   1  -6  -9 3484.66  362.08
  -1   6   9 3341.25  348.75
  12  -5  -6  549.32  154.91
 -12   5   6  519.78  251.95
   1  -6  -9 3098.90  320.33
  12  -5  -6  695.14  232.49
 -12   5   6  833.49  262.96
  -1   6   9 3629.86  344.30
   4  -1   9 1649.49  168.54
  -4  -9   6 1825.68  272.57
  -4   1  -9 1693.34  293.37
  -4   1  -9 1713.58  161.73
  -4   1  -9 2094.64  150.19
   4  -1   9 1343.18  129.86
  -4   1  -9 1797.60  305.64
  -4  -9   6 2730.18  259.28
   0   9 -10 4497.07  392.81
   0   9 -10 4079.27  444.26
   2  -2 -12    4.42  167.30
  11  -5   011152.79  541.78
  -4  -3  13 5480.59  288.98
 -11   5   011196.89  323.81
   0  -5  12 3285.22  595.40
   3  -3 -12  291.75  208.10
 -11   5   011188.45  573.07
   0  -5  12 3849.74  387.92
  -4  -3  13 5979.07  489.97
   0   5 -12 3790.97  414.92
   0   5 -12 4315.18  427.34
  -4  -3  13 6394.94  468.23
   0  -9  10 3957.53  348.60
   0  -9  10 3858.21  726.44
  -2   2  12   79.51  103.26
 -11   5   012039.20  668.05
   2  -2 -12 1318.85  123.35
   3  -3 -12  469.75  119.11
  -3   3  12   23.01  115.75
   4   3 -13 5857.99  297.95
  -2   2  12   24.40  218.69
  -3   3  12  657.19  205.80
  -3   3  12  -10.52  165.85
  -3   3  12  181.95  243.90
  -5   1  -8 5646.89  405.33
  -7  -6   4  168.67  129.54
  -5   1  -8 5040.30  278.50
  -5   1  -8 5286.04  283.94
 -12   6   6 8661.02  562.32
 -12   6   6 7783.30  602.51
 -12   6   6 8652.39  410.11
   5  -1   8 5529.14  454.15
  -7  -6   4   10.27  103.38
  12  -6  -6 7699.83  510.28
  12  -6  -6 8052.34  409.34
  -7  -6   4  177.97  183.23
   5  -1   8 4944.44  178.13
  10 -10   1  378.51   76.69
 -10   4  -2   -0.10  155.69
 -10   2  11 1993.94  273.88
  10 -10   1   36.03  205.58
  10 -10   1  202.97  122.35
  -7  -5  10  550.54  134.06
 -10   2  11 1251.67  258.27
  -7  -5  10  170.18  157.52
 -10  10  -1  192.23  304.27
  10 -10   1  282.78  128.41
 -10   4  -2  151.14   66.16
  10  -4   2  175.11   95.22
  10  -4   2  231.40  128.58
  -7  -5  10  485.60  105.85
 -10   4  -2  200.19  146.71
 -10  10  -1  478.43  135.86
 -10   4  -2  -23.10  292.63
 -10  10  -1   -0.86  117.05
  -7  -5  10  639.87   94.53
  10  -2 -11 1583.78  189.52
 -10   1   0   48.94  294.10
  10 -11  -1 1337.50  305.17
 -12   6   4 1465.90  336.71
  12  -6  -4  952.58  177.59
 -10   1   0 1070.69  129.80
 -12   6   4  565.85  526.70
 -10  11   1 1238.14  411.02
  10 -11  -1 1305.33  194.87
 -10  11   1 1225.78  285.47
  10  -1   0  985.59  122.11
 -10   1   0 1087.94  266.47
   1   8   510456.15  582.18
  -1  -8  -510441.00  674.26
  -1  -8  -511195.79  584.49
   1   8   510168.78  626.19
   9 -10   310904.03  373.95
  -9  10  -3 9913.10  340.97
  -9  10  -310998.65  397.87
  -9  10  -310099.94  300.75
  -9  10  -3 9729.84  858.53
   9 -10   3 9960.58 1021.42
   5 -12   5 5564.26  623.42
   5 -12   5 6329.04  488.58
  -5  12  -5 5538.49  405.67
   5 -12   5 5866.53  403.39
  -6  -3  -4  432.90  229.41
   6   3   4  577.15  225.06
  -6  -3  -4  585.04  232.16
   6   3   4  408.59  240.50
  -6  -3  -4  488.98  249.90
   6 -12  -4 6668.09  376.30
   1   4   9 8055.19  551.06
   6 -12  -4 6364.58  273.77
  -6  12   4 6527.74  316.85
   6 -12  -4 6231.28  403.17
   1   4   9 7088.89  434.49
  -1  -4  -9 7612.85  495.80
  -1  -4  -9 7015.71  445.47
   6 -12  -4 6221.27  236.35
  -6  12   4 6694.31  456.89
   3   3 -13  524.06  169.08
  -3  -3  13  626.50  238.68
  -3  -3  13  762.91  266.56
  -3  -3  13  438.88  258.71
  -5  -8   3 9999.77  486.81
  -5  -8   310190.41  441.30
  -5  -8   310251.75  821.47
   5   8  -3 9261.19  410.13
   0 -10  -3  172.18  148.60
  -1  12  -2  331.97  104.28
   1 -12   2  364.60  181.80
 -11   8   0   18.99  283.31
   1 -12   2  304.56  183.34
   1 -12   2  299.71  138.43
 -11   8   0  431.75  156.39
   0  10   3  204.66  160.36
  11  -8   0   16.52  194.20
 -11   8   0  532.44  342.74
   0  10   3  192.41  180.17
   0 -10  -3  -21.00  166.94
 -10   4  11 2664.76  232.57
  -1  -6  12    3.08  168.08
  -1  -6  12  134.74  143.86
   1   6 -12    1.50  262.21
  -6   6  -8  -12.46  129.75
   1   6 -12  -53.62  159.80
   6  -6   8   19.71  262.57
  10  -4 -11 2264.26  238.22
 -10   4  11 2591.70  341.50
  -6   6  -8   19.17   91.28
   6  -6   8  512.78  301.96
 -10  11   4 2825.15  357.80
  10 -11  -4 2569.17  365.13
   0 -11   7 1024.01  234.24
 -11   2   2 1655.15  292.18
  10 -11  -4 3379.56  308.67
   0  11  -7  -10.77   82.52
   1 -12   4  -15.03   57.26
   0 -11   7  764.87  181.54
   1 -12   4  177.49  129.43
 -11   2   2  -14.68  258.95
   1 -12   4   54.00  133.74
  -1  12  -4    6.49   58.51
   0 -11   7  899.83  256.74
 -10  11   4 2505.27  627.62
  -3  -6  1212771.66  508.53
  -3  -6  1214543.04  668.20
  -4   9   814583.98  701.37
  -1  10  -9 1772.76  248.25
  -4   9   814419.86  423.38
   1 -10   9 1799.83  327.80
  -3  -6  1213055.31 1059.79
  -4   9   813651.41  323.94
   1 -10   9 1644.63  287.62
   3   6 -1213393.61 1099.34
   3   6 -1214642.90  882.09
   4  -9  -813646.02  705.64
  -1  10  -9   -0.17  312.13
   4  -9  -812552.77  413.21
  -4   9   813456.85  375.38
   3 -12  -2 9168.05  708.66
  -3  12   2 8690.29  454.80
   3 -12  -2 9054.72  424.88
   3 -12  -2 9184.48  719.69
  -9  -2   1 3828.55  247.25
  -6   5  -8 2817.20  138.50
   9   2  -1 3110.46  340.51
  -9  -2   1 3311.58  719.36
   6  -5   8 2662.51  286.64
  -6   5  -8 2492.73  135.30
 -11   3   1 8103.26  550.76
   6  -5   8  -11.79  362.57
  -6   5  -8 2690.01  227.65
 -11   3   1 8655.99  625.43
  -2   6 -11  454.28  373.75
  -7  -3  12 2707.75  297.19
 -12   7   5 -200.74  158.01
  12  -7  -5   96.99  230.74
  -7  -3  12 3052.93  293.83
  -3  -9   014844.86  689.21
  -2   6 -11  505.61  428.43
  12  -7  -5   53.32  273.61
   3   9   014071.60  620.22
  -3  -9   015681.32  670.62
   3   9   013610.65  618.55
   2  -6  11  721.56  420.88
   2  -6  11  523.11  388.83
 -12   7   5    4.34  118.18
 -12   7   5  186.98  320.81
  -3  -9   015145.88  704.52
   9  -2 -12   22.11   75.83
  -7   0  -5   84.90  226.90
  -9   2  12  -24.79   62.13
   7   0   5  -12.16  134.30
  -7   0  -5   97.57  134.65
  -9   2  12  -37.39  247.32
  -7   0  -5  -18.64  130.40
  -4  12   3  457.98  203.10
   9  -2   3 7769.81  382.38
   4 -12  -3  282.14  117.20
  -4  12   3  612.80  102.00
 -12   5   4 1993.28  426.92
   4 -12  -3  523.65  128.56
  -5  -1  -7  561.27  371.65
  -9   2  -3 7551.15  550.15
   5   1   7   -8.59  107.55
   5   1   7   -6.23  260.20
  -9   2  -3 8163.69  476.91
 -12   5   4 1995.10  347.64
  -5  -1  -7  -29.79  174.82
   4 -12  -3  344.64  279.03
   4 -12  -3   -4.18  128.65
  12  -5  -4 2395.04  198.93
  -9   2  -3 8596.31  510.40
  -5  -1  -7  941.16  183.07
 -12   5   4 2733.22  201.57
   2   9   2 4708.33  400.72
  -2  -9  -2    5.62  723.12
   2   9   2 4362.49  428.90
  -2  -9  -2 5032.41  400.10
  -5  -5  12  156.19  177.73
  -5  -5  12  498.44  113.51
  -5  -5  12   27.54  173.90
   7   4   1   -1.83  392.16
  -6  -7   3 1849.90  454.98
   7   4   1 1990.52  305.63
  -1   9 -10  303.96  176.43
  -1   9 -10   -0.95  210.20
   1  -9  10   93.99  180.91
  -7  -4  -1 1913.49  582.99
  -6  -7   3 2189.65  250.62
  -7  -4  -1 1966.35  254.55
   1  -9  10   54.36  154.75
  -6  -7   3 2135.93  435.42
  -7  -4  -1 1879.88  381.25
  -8  -3  11  217.83  119.72
 -10   8   911731.35  628.10
   4  -1 -13   -2.82   64.89
  10  -8  -911264.44  598.59
 -10   8   912215.37  615.24
  11 -10  -3 5831.06  401.42
  -4   1  13  325.82  176.43
  10  -8  -911263.33  586.34
  -4   1  13   78.40  187.88
  -4   1  13  114.09  152.26
 -11  10   3 6748.03  513.80
 -11  10   3 6246.06  464.38
  11 -10  -3 5794.99  463.08
  -5  -6  -2  114.53  150.54
   5   6   2  150.13  136.84
  -5  -6  -2 -203.62  323.48
   5   6   2 -135.61  163.45
   9 -11   2 2380.67  166.31
   9 -11   2 1667.69  632.01
  -9  11  -2 2037.60  193.56
   9 -11   2 2165.31  162.15
  -9  11  -2 2413.30  167.97
   9 -11   2 1689.04  154.45
  -9  11  -2 2207.64  190.21
  -1 -11   2 2016.25  157.52
 -12   7   4 2428.04  596.19
  -1 -11   2 1785.74  302.87
   1  11  -2 1449.73  185.04
  -1 -11   2 1497.53  299.30
  12  -7  -4 1745.20  514.89
 -12   7   4 1796.24  711.97
  12  -7  -4 1655.09  420.27
  -3   5  11 5470.29  252.31
  -9  -3   3   -5.03  370.57
   9   3  -3  502.97   99.35
  -3   5  11 5299.51  289.85
   3  -5 -11 5804.55  462.48
  -9  -3   3  455.93  191.22
  -3   5  11 5320.15  336.54
   3  -5 -11 5721.26  353.74
  -3   5  11 5535.23  312.88
  -4   7  1011309.37  362.73
 -10   9   8 -120.46  134.42
  -4   7  1011323.55  616.10
  10  -9  -8  -37.50  128.80
 -10   9   8   94.18  127.35
  -4   7  1010690.69  535.85
  -4   7  1011108.35  558.94
   4  -7 -1010604.37  949.26
   4  -7 -1010509.47  370.20
  10  -9  -8   42.19  118.19
   9 -12  -2   30.64  118.99
   9 -12  -2  330.95  165.47
  -9  12   2  459.47  180.44
  -9  12   2  269.63  375.58
  10   0  -1 9738.78  445.37
 -10   0   110140.35  335.03
 -10   0   110462.79 1033.42
 -10   0   110567.24 1108.38
  -9  12   1 1989.13  523.97
   9 -12  -1 2288.92  337.37
  -9  12   1 1903.91  257.09
   9 -12  -1 2177.21  207.23
   5  -5   9 1038.58  205.66
  -5   5  -9 1119.37  174.35
 -10   9  -2 2691.71  208.39
  10  -9   2 2334.59  150.79
  10  -9   2 2075.24  305.77
  -1  -9  10 1764.90  275.18
  -1  -9  10 2017.72  298.43
 -10   9  -2 2747.40  178.55
   5  -5   9   18.40  164.11
   1   9 -10    0.00  134.06
 -10   9  -2 2141.27  290.15
 -10   9  -2 2155.39  424.32
   1   9 -10  -17.75  114.95
  -5   5  -9   13.66  253.57
   6   2   5  845.91  453.09
 -12   4   6 4107.65  460.95
   6   2   5  825.49  271.49
  -6  -2  -5 1048.31  265.33
  -6  -2  -5  778.09  264.88
  12  -4  -6 4959.23  273.32
  -6  -2  -5  990.64  430.26
 -11  10   4 1891.38  342.34
  11 -10  -4 1812.17  322.31
 -11  10   4 2110.20  323.73
  11 -10  -4 1873.58  278.89
 -12   4   6 5156.09  255.39
 -10   2  -1 7408.93  507.29
  10  -2   1 7355.69  271.28
 -10   2  -1 7620.98  568.22
 -10   2  -1 8339.32  462.28
  -7   6  -7    3.14   84.53
   0  -1  12   19.56  109.98
  -7   6  -7   30.97  210.52
   7  -6   7  650.53  168.46
   7  -6   7   42.06  145.23
   0   1 -12   22.79  117.02
   0  -1  12   -3.30  167.10
   0  -1  12   10.45  118.43
   0 -10   9 5493.85  415.16
   0 -10   9 5207.80  448.57
   0  10  -9 6219.96  401.94
   0 -10   9 4965.39  413.09
  -2   2 -1111933.26  588.35
   2  -2  1111305.43  464.36
  -2   2 -1112674.72  503.42
   2  -2  1112198.14  618.69
   8 -12   2 9082.60  319.72
  -8  12  -2 9770.56  548.09
   8 -12   2 9483.03  336.33
  -2  -1 -10   19.43   81.78
   8 -12   210322.49 1062.47
   2  -2  1112157.05  432.42
  -8  12  -2 9402.47  519.91
   2   1  10    4.25  147.44
   2   1  10  -26.64   55.30
   8 -12   2 9234.88  253.60
  -2  -1 -10   24.75  123.66
   2   1  10  -18.82   62.32
   2   1  10   20.50  270.42
  -6  -4  -3 7690.08  601.72
  -6  -4  -3 6951.00  472.85
  -9   6  11  356.74  300.40
   9  -6 -11  545.68  189.42
  -9   6  11  517.08  215.14
  -6  -4  -3 7567.15  560.58
   6   4   3 7138.50  552.60
   6   4   3 6736.55  464.46
  -9   6  11  370.40  395.67
   3   0 -13  -21.18   87.54
  -3   0  13  -20.08  122.80
  -3   0  13  407.53  157.92
  12  -4  -512626.49  388.68
 -12   4   514177.81  404.18
  -3   0  13  345.37  320.94
   9  -3 -12 1329.42  286.44
  -8  12   4  486.07  218.26
  -8  12   4  593.27  324.07
   8 -12  -4  670.09  172.39
   8 -12  -4   34.59  160.75
  -5   6  -910536.90  475.99
  -5   6  -911709.31 1062.14
   5  -6   910293.04  554.47
   5  -6   910679.42  514.69
  -7   9   9 3395.54  268.27
  -6   2  1310944.60  680.39
  -6   2  1310474.57  967.58
  -6   2  1310656.38  282.33
  -7   9   9 3014.12  293.54
   6  -2 -13 9824.68  288.58
   7  -9  -9 2881.79  370.43
   7  -9  -9 2857.28  251.74
  -7   9   9 3064.17  384.68
   0  -2 -11  -67.80  142.40
   0  -2 -11    3.37  107.75
   0   2  11  -50.42  144.02
   0   2  11  116.01   84.38
   0   2  11 -177.11   81.61
;
_shelx_hkl_checksum              58290
_shelx_res_file
;
    shelxl.res created by SHELXL-2014/7
TITL 10060910
CELL  0.71075 8.62824 9.23087 9.46007 93.532 112.974 115.951
ZERR  2 0.00017 0.00018 0.00019 0.001 0.001 0.001
LATT 1
SFAC C H BR N O
UNIT 20 22 4 2 10
SHEL 99999.000000 0.000000
L.S. 15
FMAP 2
PLAN -22
WPDB -2
HTAB
BOND $H
CONF
LIST 4
TEMP -93.0
ACTA
SIZE 0.400 0.340 0.180
LIST 4
DFIX 0.8400 0.020 O2 H2
DFIX 0.8400 0.020 O4 H4
WGHT    0.021600    0.348900
FVAR       4.72794   0.49922
BR1   3    0.758736    0.697091    0.161600    11.00000    0.01905    0.02063 =
         0.01805    0.00043    0.00783    0.00654
BR2   3   -0.016292    0.168340    0.122980    11.00000    0.02061    0.01771 =
         0.02936    0.01079    0.00791    0.00800
O1    5    1.182254    0.983400    0.332065    11.00000    0.01918    0.02342 =
         0.02274    0.00572    0.01308    0.00934
O2    5    0.621073    0.767493    0.410430    11.00000    0.01276    0.02014 =
         0.02148    0.00195    0.00761    0.00354
H2    2    0.549740    0.702416    0.321355    21.00000   -1.50000
O3    5   -0.346375    0.229228   -0.086546    11.00000    0.01606    0.01943 =
         0.03742    0.01009    0.00798    0.00492
O4    5    0.337260    0.505649    0.192024    11.00000    0.01506    0.01662 =
         0.02301    0.00455    0.00386    0.00612
H4    2    0.425666    0.603591    0.231466   -21.00000   -1.50000
O5    5    0.823246    0.263493    0.422506    11.00000    0.01919    0.03137 =
         0.02946    0.00448    0.00937    0.01515
N1    4    0.487190    0.294642    0.328965    11.00000    0.01710    0.02453 =
         0.02900    0.01407    0.01227    0.01287
C1    1    1.092089    0.986687    0.404642    11.00000    0.01476    0.01473 =
         0.01798    0.00687    0.00793    0.00758
C2    1    0.890445    0.867705    0.353385    11.00000    0.01412    0.01444 =
         0.01588    0.00268    0.00618    0.00566
C3    1    0.797750    0.871897    0.440995    11.00000    0.01329    0.01554 =
         0.01797    0.00614    0.00639    0.00761
C4    1   -0.185318    0.350101   -0.045563    11.00000    0.01806    0.01546 =
         0.01972    0.00335    0.00924    0.00649
C5    1   -0.004497    0.358488    0.056071    11.00000    0.01755    0.01410 =
         0.01921    0.00531    0.00782    0.00730
C6    1    0.172754    0.496674    0.102447    11.00000    0.01883    0.01644 =
         0.01662    0.00299    0.00859    0.00707
C7    1    0.680886    0.427141    0.458545    11.00000    0.02305    0.02081 =
         0.02590    0.00658    0.01288    0.01109
AFIX  23
H7A   2    0.663898    0.483985    0.538920    11.00000   -1.20000
H7B   2    0.749177    0.512160    0.413281    11.00000   -1.20000
AFIX   0
C8    1    0.799692    0.347415    0.536833    11.00000    0.02192    0.03078 =
         0.02182    0.00613    0.00801    0.01500
AFIX  23
H8A   2    0.929074    0.434986    0.622567    11.00000   -1.20000
H8B   2    0.733712    0.266205    0.586112    11.00000   -1.20000
AFIX   0
C9    1    0.638113    0.131043    0.303567    11.00000    0.02499    0.02174 =
         0.03173    0.00358    0.00955    0.01290
AFIX  23
H9A   2    0.574183    0.051654    0.355170    11.00000   -1.20000
H9B   2    0.656171    0.068982    0.227859    11.00000   -1.20000
AFIX   0
C10   1    0.509410    0.198039    0.213028    11.00000    0.02181    0.02433 =
         0.02201    0.00254    0.00509    0.01079
AFIX  23
H10A  2    0.568336    0.271919    0.155360    11.00000   -1.20000
H10B  2    0.380265    0.103955    0.133484    11.00000   -1.20000
AFIX   0
H1A   2    0.424395    0.343545    0.277158    11.00000    0.02530
H1B   2    0.422066    0.222543    0.367050    11.00000    0.02589
HKLF 4
REM  10060910
REM R1 =  0.0185 for    3188 Fo > 4sig(Fo)  and  0.0221 for all    3487 data
REM    178 parameters refined using      2 restraints
END
WGHT      0.0216      0.3489
REM Instructions for potential hydrogen bonds
HTAB O2 Br1
EQIV $1 -x, -y+1, -z
HTAB O2 O3_$1
HTAB O2 O4
HTAB O4 Br1
HTAB O4 O2
HTAB O4 O3_$1
EQIV $2 -x+1, -y+1, -z+1
HTAB C7 O4_$2
HTAB C7 Br1
EQIV $3 x+1, y, z
HTAB C9 Br2_$3
EQIV $4 -x, -y, -z
HTAB C10 Br2_$4
HTAB N1 Br2
HTAB N1 O4
EQIV $5 x-1, y-1, z
HTAB N1 O1_$5
HTAB N1 O2_$2
REM Highest difference peak  0.585,  deepest hole -0.447,  1-sigma level  0.076
Q1    1  -0.0589  0.1943  0.1601  11.00000  0.05    0.58
Q2    1   0.8300  0.6869  0.2105  11.00000  0.05    0.48
Q3    1   0.9931  0.9181  0.3833  11.00000  0.05    0.48
Q4    1   1.1417  1.0598  0.4831  11.00000  0.05    0.44
Q5    1   0.7456  0.3838  0.4967  11.00000  0.05    0.42
Q6    1   0.0780  0.4269  0.0764  11.00000  0.05    0.40
Q7    1   0.8607  0.8529  0.4131  11.00000  0.05    0.37
Q8    1   0.7218  0.7231  0.1990  11.00000  0.05    0.37
Q9    1   0.5681  0.1578  0.2486  11.00000  0.05    0.36
Q10   1  -0.0947  0.3500 -0.0037  11.00000  0.05    0.35
Q11   1  -0.1905  0.4236 -0.0742  11.00000  0.05    0.35
Q12   1   0.7937  0.3019  0.4665  11.00000  0.05    0.31
Q13   1   0.6883  0.6218  0.1213  11.00000  0.05    0.31
Q14   1   0.7339  0.1990  0.3603  11.00000  0.05    0.30
Q15   1   0.5995  0.8186  0.3942  11.00000  0.05    0.28
Q16   1   0.5055  0.2348  0.2796  11.00000  0.05    0.28
Q17   1   0.8544  0.7975  0.2751  11.00000  0.05    0.27
Q18   1  -0.0924  0.0690  0.0772  11.00000  0.05    0.27
Q19   1   0.8045  0.7752  0.1445  11.00000  0.05    0.27
Q20   1   0.7068  0.8057  0.4248  11.00000  0.05    0.26
Q21   1   1.1223  0.9300  0.2571  11.00000  0.05    0.26
Q22   1   0.9001  0.7755  0.4765  11.00000  0.05    0.25
;
_shelx_res_checksum              70459
loop_
_space_group_symop_operation_xyz
'x, y, z'
'-x, -y, -z'
loop_
_atom_site_type_symbol
_atom_site_label
_atom_site_fract_x
_atom_site_fract_y
_atom_site_fract_z
_atom_site_U_iso_or_equiv
_atom_site_adp_type
_atom_site_calc_flag
_atom_site_occupancy
Br Br1 0.75874(2) 0.69709(2) 0.16160(2) 0.02126(5) Uani d 1
Br Br2 -0.01629(2) 0.16834(2) 0.12298(2) 0.02440(5) Uani d 1
O O1 1.18225(16) 0.98340(14) 0.33207(13) 0.0212(2) Uani d 1
O O2 0.62107(15) 0.76749(14) 0.41043(13) 0.0205(2) Uani d 1
H H2 0.550(6) 0.702(5) 0.321(3) 0.031 Uiso d 0.50(3)
O O3 -0.34638(16) 0.22923(14) -0.08655(16) 0.0275(2) Uani d 1
O O4 0.33726(16) 0.50565(14) 0.19202(13) 0.0209(2) Uani d 1
H H4 0.426(5) 0.604(3) 0.231(5) 0.031 Uiso d 0.50(3)
O O5 0.82325(17) 0.26349(16) 0.42251(15) 0.0266(2) Uani d 1
N N1 0.48719(19) 0.29464(18) 0.32897(17) 0.0216(3) Uani d 1
C C1 1.0921(2) 0.98669(17) 0.40464(17) 0.0155(2) Uani d 1
C C2 0.8904(2) 0.86771(17) 0.35338(17) 0.0158(2) Uani d 1
C C3 0.7977(2) 0.87190(17) 0.44099(17) 0.0157(2) Uani d 1
C C4 -0.1853(2) 0.35010(18) -0.04556(18) 0.0185(3) Uani d 1
C C5 -0.0045(2) 0.35849(17) 0.05607(17) 0.0175(3) Uani d 1
C C6 0.1728(2) 0.49667(18) 0.10245(17) 0.0180(3) Uani d 1
C C7 0.6809(2) 0.42714(19) 0.4585(2) 0.0227(3) Uani d 1
H H7A 0.6639 0.4840 0.5389 0.027 Uiso calc 1
H H7B 0.7492 0.5122 0.4133 0.027 Uiso calc 1
C C8 0.7997(2) 0.3474(2) 0.53683(19) 0.0250(3) Uani d 1
H H8A 0.9291 0.4350 0.6226 0.030 Uiso calc 1
H H8B 0.7337 0.2662 0.5861 0.030 Uiso calc 1
C C9 0.6381(2) 0.1310(2) 0.3036(2) 0.0272(3) Uani d 1
H H9A 0.5742 0.0517 0.3552 0.033 Uiso calc 1
H H9B 0.6562 0.0690 0.2279 0.033 Uiso calc 1
C C10 0.5094(2) 0.1980(2) 0.21303(19) 0.0252(3) Uani d 1
H H10A 0.5683 0.2719 0.1554 0.030 Uiso calc 1
H H10B 0.3803 0.1040 0.1335 0.030 Uiso calc 1
H H1A 0.424(3) 0.344(3) 0.277(2) 0.025(5) Uiso d 1
H H1B 0.422(3) 0.223(3) 0.367(3) 0.026(5) Uiso d 1
loop_
_atom_site_aniso_label
_atom_site_aniso_U_11
_atom_site_aniso_U_22
_atom_site_aniso_U_33
_atom_site_aniso_U_12
_atom_site_aniso_U_13
_atom_site_aniso_U_23
Br1 0.01905(8) 0.02063(8) 0.01805(7) 0.00654(6) 0.00783(6) 0.00043(5)
Br2 0.02061(8) 0.01771(7) 0.02936(9) 0.00800(6) 0.00791(6) 0.01079(6)
O1 0.0192(5) 0.0234(5) 0.0227(5) 0.0093(4) 0.0131(4) 0.0057(4)
O2 0.0128(5) 0.0201(5) 0.0215(5) 0.0035(4) 0.0076(4) 0.0019(4)
O3 0.0161(5) 0.0194(5) 0.0374(7) 0.0049(4) 0.0080(5) 0.0101(5)
O4 0.0151(5) 0.0166(5) 0.0230(5) 0.0061(4) 0.0039(4) 0.0046(4)
O5 0.0192(5) 0.0314(6) 0.0295(6) 0.0151(5) 0.0094(5) 0.0045(5)
N1 0.0171(6) 0.0245(6) 0.0290(7) 0.0129(5) 0.0123(5) 0.0141(6)
C1 0.0148(6) 0.0147(6) 0.0180(6) 0.0076(5) 0.0079(5) 0.0069(5)
C2 0.0141(6) 0.0144(6) 0.0159(6) 0.0057(5) 0.0062(5) 0.0027(5)
C3 0.0133(6) 0.0155(6) 0.0180(6) 0.0076(5) 0.0064(5) 0.0061(5)
C4 0.0181(7) 0.0155(6) 0.0197(6) 0.0065(5) 0.0092(5) 0.0034(5)
C5 0.0175(6) 0.0141(6) 0.0192(6) 0.0073(5) 0.0078(5) 0.0053(5)
C6 0.0188(7) 0.0164(6) 0.0166(6) 0.0071(5) 0.0086(5) 0.0030(5)
C7 0.0231(7) 0.0208(7) 0.0259(7) 0.0111(6) 0.0129(6) 0.0066(6)
C8 0.0219(7) 0.0308(8) 0.0218(7) 0.0150(7) 0.0080(6) 0.0061(6)
C9 0.0250(8) 0.0217(7) 0.0317(8) 0.0129(7) 0.0095(7) 0.0036(6)
C10 0.0218(7) 0.0243(7) 0.0220(7) 0.0108(6) 0.0051(6) 0.0025(6)
loop_
_atom_type_symbol
_atom_type_description
_atom_type_scat_dispersion_real
_atom_type_scat_dispersion_imag
_atom_type_scat_source
C C 0.0033 0.0016 'International Tables Vol C Tables 4.2.6.8 and 6.1.1.4'
H H 0.0000 0.0000 'International Tables Vol C Tables 4.2.6.8 and 6.1.1.4'
Br Br -0.2901 2.4595 'International Tables Vol C Tables 4.2.6.8 and 6.1.1.4'
N N 0.0061 0.0033 'International Tables Vol C Tables 4.2.6.8 and 6.1.1.4'
O O 0.0106 0.0060 'International Tables Vol C Tables 4.2.6.8 and 6.1.1.4'
loop_
_geom_angle_atom_site_label_1
_geom_angle_atom_site_label_2
_geom_angle_atom_site_label_3
_geom_angle_site_symmetry_3
_geom_angle
C3 O2 H2 . 117(3)
C6 O4 H4 . 111(3)
C8 O5 C9 . 109.83(12)
C7 N1 C10 . 110.85(12)
C7 N1 H1A . 108.4(14)
C10 N1 H1A . 108.2(14)
C7 N1 H1B . 111.2(14)
C10 N1 H1B . 106.4(14)
H1A N1 H1B . 112(2)
O1 C1 C2 . 124.51(13)
O1 C1 C3 2_776 117.41(12)
C2 C1 C3 2_776 118.08(12)
C3 C2 C1 . 122.63(13)
C3 C2 Br1 . 120.43(11)
C1 C2 Br1 . 116.90(10)
O2 C3 C2 . 127.81(13)
O2 C3 C1 2_776 112.98(12)
C2 C3 C1 2_776 119.21(12)
O3 C4 C5 . 124.27(14)
O3 C4 C6 2_565 118.48(14)
C5 C4 C6 2_565 117.24(12)
C6 C5 C4 . 122.82(13)
C6 C5 Br2 . 119.20(11)
C4 C5 Br2 . 117.98(10)
O4 C6 C5 . 123.69(14)
O4 C6 C4 2_565 116.35(13)
C5 C6 C4 2_565 119.94(13)
N1 C7 C8 . 109.14(13)
N1 C7 H7A . 109.9
C8 C7 H7A . 109.9
N1 C7 H7B . 109.9
C8 C7 H7B . 109.9
H7A C7 H7B . 108.3
O5 C8 C7 . 110.51(13)
O5 C8 H8A . 109.5
C7 C8 H8A . 109.5
O5 C8 H8B . 109.5
C7 C8 H8B . 109.5
H8A C8 H8B . 108.1
O5 C9 C10 . 111.18(13)
O5 C9 H9A . 109.4
C10 C9 H9A . 109.4
O5 C9 H9B . 109.4
C10 C9 H9B . 109.4
H9A C9 H9B . 108.0
N1 C10 C9 . 108.84(13)
N1 C10 H10A . 109.9
C9 C10 H10A . 109.9
N1 C10 H10B . 109.9
C9 C10 H10B . 109.9
H10A C10 H10B . 108.3
loop_
_geom_bond_atom_site_label_1
_geom_bond_atom_site_label_2
_geom_bond_site_symmetry_2
_geom_bond_distance
Br1 C2 . 1.8803(14)
Br2 C5 . 1.8769(14)
O1 C1 . 1.2299(17)
O2 C3 . 1.2931(17)
O2 H2 . 0.82(3)
O3 C4 . 1.2229(18)
O4 C6 . 1.2997(18)
O4 H4 . 0.82(3)
O5 C8 . 1.420(2)
O5 C9 . 1.425(2)
N1 C7 . 1.490(2)
N1 C10 . 1.493(2)
N1 H1A . 0.89(3)
N1 H1B . 0.86(3)
C1 C2 . 1.4394(19)
C1 C3 2_776 1.5283(19)
C2 C3 . 1.367(2)
C4 C5 . 1.442(2)
C4 C6 2_565 1.519(2)
C5 C6 . 1.363(2)
C7 C8 . 1.509(2)
C7 H7A . 0.9900
C7 H7B . 0.9900
C8 H8A . 0.9900
C8 H8B . 0.9900
C9 C10 . 1.508(2)
C9 H9A . 0.9900
C9 H9B . 0.9900
C10 H10A . 0.9900
C10 H10B . 0.9900
loop_
_geom_hbond_atom_site_label_D
_geom_hbond_atom_site_label_H
_geom_hbond_atom_site_label_A
_geom_hbond_site_symmetry_A
_geom_hbond_distance_DH
_geom_hbond_distance_HA
_geom_hbond_distance_DA
_geom_hbond_angle_DHA
_geom_hbond_publ_flag
N1 H1A O4 . 0.89(3) 2.02(3) 2.890(2) 167(2) y
N1 H1B O1 1_445 0.86(3) 2.16(3) 2.938(2) 150(2) y
N1 H1B O2 2_666 0.86(3) 2.28(3) 2.964(2) 136(2) y
O2 H2 O4 . 0.82(3) 1.79(4) 2.5224(16) 148(5) y
O2 H2 O3 2_565 0.82(3) 2.55(4) 3.0678(18) 122(4) y
O4 H4 O2 . 0.82(3) 1.80(4) 2.5224(16) 147(4) y
C7 H7A O4 2_666 0.99 2.55 3.402(2) 145 y
C10 H10B Br2 2_555 0.99 2.91 3.8946(17) 174 y
loop_
_geom_torsion_atom_site_label_1
_geom_torsion_atom_site_label_2
_geom_torsion_atom_site_label_3
_geom_torsion_atom_site_label_4
_geom_torsion_site_symmetry_1
_geom_torsion_site_symmetry_4
_geom_torsion
O1 C1 C2 C3 . . 177.30(14)
C3 C1 C2 C3 2_776 . -3.3(2)
O1 C1 C2 Br1 . . -0.20(19)
C3 C1 C2 Br1 2_776 . 179.24(9)
C1 C2 C3 O2 . . -176.48(14)
Br1 C2 C3 O2 . . 0.9(2)
C1 C2 C3 C1 . 2_776 3.3(2)
Br1 C2 C3 C1 . 2_776 -179.29(9)
O3 C4 C5 C6 . . -178.51(15)
C6 C4 C5 C6 2_565 . 0.5(2)
O3 C4 C5 Br2 . . 2.7(2)
C6 C4 C5 Br2 2_565 . -178.27(10)
C4 C5 C6 O4 . . -178.95(14)
Br2 C5 C6 O4 . . -0.2(2)
C4 C5 C6 C4 . 2_565 -0.5(2)
Br2 C5 C6 C4 . 2_565 178.25(10)
C10 N1 C7 C8 . . -55.03(17)
C9 O5 C8 C7 . . -62.46(17)
N1 C7 C8 O5 . . 58.77(17)
C8 O5 C9 C10 . . 62.31(18)
C7 N1 C10 C9 . . 54.35(17)
O5 C9 C10 N1 . . -57.76(19)

_cod_database_fobs_code 2241105
