#------------------------------------------------------------------------------
#$Date: 2016-10-07 05:02:09 +0300 (Fri, 07 Oct 2016) $
#$Revision: 187004 $
#$URL: file:///home/coder/svn-repositories/cod/cif/2/24/18/2241872.cif $
#------------------------------------------------------------------------------
#
# This file is available in the Crystallography Open Database (COD),
# http://www.crystallography.net/. The original data for this entry
# were provided by IUCr Journals, http://journals.iucr.org/.
#
# The file may be used within the scientific community so long as
# proper attribution is given to the journal article from which the
# data were obtained.
#
data_2241872
loop_
_publ_author_name
'Caruso, Alessio'
'Blair, Benjamin'
'Tanski, Joseph M.'
_publ_section_title
;
 Crystal structures of 6-chloroindan-1-one and 6-bromoindan-1-one exhibit
 different intermolecular packing interactions
;
_journal_coeditor_code           SJ5508
_journal_issue                   11
_journal_name_full               'Acta Crystallographica Section E'
_journal_page_first              1536
_journal_page_last               1540
_journal_paper_doi               10.1107/S2056989016015371
_journal_volume                  72
_journal_year                    2016
_chemical_formula_iupac          'C9 H7 Br O'
_chemical_formula_moiety         'C9 H7 Br O'
_chemical_formula_sum            'C9 H7 Br O'
_chemical_formula_weight         211.06
_chemical_name_common            6-Bromoindanone
_chemical_name_systematic        6-Bromoindan-1-one
_space_group_crystal_system      monoclinic
_space_group_IT_number           14
_space_group_name_Hall           '-P 2ybc'
_space_group_name_H-M_alt        'P 1 21/c 1'
_symmetry_space_group_name_Hall  '-P 2ybc'
_symmetry_space_group_name_H-M   'P 1 21/c 1'
_atom_sites_solution_hydrogens   geom
_cell_angle_alpha                90
_cell_angle_beta                 102.964(5)
_cell_angle_gamma                90
_cell_formula_units_Z            4
_cell_length_a                   6.489(2)
_cell_length_b                   17.101(6)
_cell_length_c                   7.224(3)
_cell_measurement_reflns_used    9955
_cell_measurement_temperature    125.(2)
_cell_measurement_theta_max      30.5492
_cell_measurement_theta_min      2.3820
_cell_volume                     781.2(5)
_computing_cell_refinement
;
SAINT (Bruker, 2013)
;
_computing_data_collection
;
APEX2 (Bruker, 2013)
;
_computing_data_reduction
;
SAINT (Bruker, 2013)
;
_computing_molecular_graphics
;
SHELXTL2014 (Sheldrick, 2008)
;
_computing_publication_material
;
SHELXTL2014 (Sheldrick, 2008), <i>OLEX2</i> (Dolomanov <i>et al.</i>,
2009)
and Mercury (Macrae <i>et al.</i>,  2008)
;
_computing_structure_refinement
;
<i>SHELXL2014/6</i> (Sheldrick, 2015)
;
_computing_structure_solution
;
SHELXS (Sheldrick, 2008)
;
_diffrn_ambient_temperature      125(2)
_diffrn_detector_area_resol_mean 8.3333
_diffrn_measured_fraction_theta_full 0.995
_diffrn_measured_fraction_theta_max 0.995
_diffrn_measurement_device_type  'Bruker APEXII CCD'
_diffrn_measurement_method       '\f and \w scans'
_diffrn_radiation_monochromator  graphite
_diffrn_radiation_source         'fine-focus sealed tube'
_diffrn_radiation_type           MoK\a
_diffrn_radiation_wavelength     0.71073
_diffrn_reflns_av_R_equivalents  0.0455
_diffrn_reflns_limit_h_max       9
_diffrn_reflns_limit_h_min       -9
_diffrn_reflns_limit_k_max       24
_diffrn_reflns_limit_k_min       0
_diffrn_reflns_limit_l_max       10
_diffrn_reflns_limit_l_min       0
_diffrn_reflns_number            4453
_diffrn_reflns_theta_full        30.57
_diffrn_reflns_theta_max         30.57
_diffrn_reflns_theta_min         2.38
_exptl_absorpt_coefficient_mu    5.192
_exptl_absorpt_correction_T_max  0.78
_exptl_absorpt_correction_T_min  0.55
_exptl_absorpt_correction_type   multi-scan
_exptl_absorpt_process_details
;
(<i>TWINABS</i>; Bruker 2013)
;
_exptl_crystal_colour            colourless
_exptl_crystal_density_diffrn    1.794
_exptl_crystal_density_method    'not measured'
_exptl_crystal_description       block
_exptl_crystal_F_000             416
_exptl_crystal_size_max          0.400
_exptl_crystal_size_mid          0.210
_exptl_crystal_size_min          0.050
_refine_diff_density_max         1.150
_refine_diff_density_min         -1.152
_refine_ls_extinction_method     none
_refine_ls_goodness_of_fit_ref   1.030
_refine_ls_hydrogen_treatment    constr
_refine_ls_matrix_type           full
_refine_ls_number_parameters     101
_refine_ls_number_reflns         4453
_refine_ls_number_restraints     0
_refine_ls_restrained_S_all      1.030
_refine_ls_R_factor_all          0.0416
_refine_ls_R_factor_gt           0.0300
_refine_ls_shift/su_max          0.001
_refine_ls_shift/su_mean         0.000
_refine_ls_structure_factor_coef Fsqd
_refine_ls_weighting_details
'w=1/[\s^2^(Fo^2^)+(0.1149P)^2^] where P=(Fo^2^+2Fc^2^)/3'
_refine_ls_weighting_scheme      calc
_refine_ls_wR_factor_gt          0.1144
_refine_ls_wR_factor_ref         0.1515
_reflns_number_gt                3600
_reflns_number_total             4453
_reflns_threshold_expression     'I > 2\s(I)'
_cod_data_source_file            sj5508sup1.cif
_cod_data_source_block           II
_cod_database_code               2241872
_shelx_hkl_file
;
   1   0   0 41.9759 0.76635  -2
   1   0   0 41.9759 0.76635   1
   2   0   0 221.995 3.71992  -2
   2   0   0 221.995 3.71992   1
   3   0   0 1821.31 32.4824  -2
   3   0   0 1821.31 32.4824   1
   4   0   0 376.044 6.37370  -2
   4   0   0 376.044 6.37370   1
   5   0   0 181.860 3.39233  -2
   5   0   0 181.860 3.39233   1
   6   0   0 1049.55 20.0475  -2
   6   0   0 1049.55 20.0475   1
   7   0   0 336.360 8.32854  -2
   7   0   0 336.360 8.32854   1
   8   0   0 14.4032 2.96787  -2
   8   0   0 14.4032 2.96787   1
   9   0   0 237.635 14.4692  -2
   9   0   0 237.635 14.4692   1
   1   1   0 1802.48 22.6827  -2
   1   1   0 1802.48 22.6827   1
   2   1   0 1044.50 11.9506  -2
   2   1   0 1044.50 11.9506   1
   3   1   0 286.561 3.67088  -2
   3   1   0 286.561 3.67088   1
   4   1   0 4.03976 0.40998  -2
   4   1   0 4.03976 0.40998   1
   5   1   0 100.060 1.50185  -2
   5   1   0 100.060 1.50185   1
   6   1   0 11.8759 0.87738  -2
   6   1   0 11.8759 0.87738   1
   7   1   0 59.6694 1.90572  -2
   7   1   0 59.6694 1.90572   1
   8   1   0 53.7502 2.70808  -2
   8   1   0 53.7502 2.70808   1
   9   1   0 1.48066 5.10944  -2
   9   1   0 1.48066 5.10944   1
   0   2   0 316.278 5.74146  -2
   0   2   0 316.278 5.74146   1
   1   2   0 1908.36 24.2759  -2
   1   2   0 1908.36 24.2759   1
   2   2   0 290.969 3.56555  -2
   2   2   0 290.969 3.56555   1
   3   2   0 1105.37 12.6676  -2
   3   2   0 1105.37 12.6676   1
   4   2   0 1044.92 12.5603  -2
   4   2   0 1044.92 12.5603   1
   5   2   0 53.2026 1.10543  -2
   5   2   0 53.2026 1.10543   1
   6   2   0 299.085 4.78785  -2
   6   2   0 299.085 4.78785   1
   7   2   0 194.646 3.52052  -2
   7   2   0 194.646 3.52052   1
   8   2   0 0.95689 2.16362  -2
   8   2   0 0.95689 2.16362   1
   0   3   0 0.41224 0.20735  -2
   0   3   0 0.41224 0.20735   1
   1   3   0 1874.55 25.2646  -2
   1   3   0 1874.55 25.2646   1
   1   3   0 1865.06 69.5074   1
   2   3   0 795.552 10.0826  -2
   2   3   0 795.552 10.0826   1
   3   3   0 171.876 2.23466  -2
   3   3   0 171.876 2.23466   1
   4   3   0 257.251 3.30295  -2
   4   3   0 257.251 3.30295   1
   5   3   0 692.153 9.15753  -2
   5   3   0 692.153 9.15753   1
   6   3   0 1.68959 0.87231  -2
   6   3   0 1.68959 0.87231   1
   7   3   0 19.0620 1.47334  -2
   7   3   0 19.0620 1.47334   1
   7   3   0 -2.0505 1.64509   2
   7   3   0 -2.1284 1.79481   1
   8   3   0 63.3823 2.96363  -2
   8   3   0 63.3823 2.96363   1
   0   4   0 8.42615 0.41736  -2
   0   4   0 8.42615 0.41736   1
   1   4   0 268.034 3.32132  -2
   1   4   0 268.034 3.32132   1
   2   4   0 642.106 8.17639  -2
   2   4   0 642.106 8.17639   1
   3   4   0 1068.33 13.5450  -2
   3   4   0 1068.33 13.5450   1
   4   4   0 436.557 5.20632  -2
   4   4   0 436.557 5.20632   1
   5   4   0 11.3962 0.66718  -2
   5   4   0 11.3962 0.66718   1
   5   4   0 -0.8554 1.06497   2
   5   4   0 0.74188 1.29559   1
   6   4   0 86.1459 2.16210  -2
   6   4   0 86.1459 2.16210   1
   6   4   0 -0.0909 1.25776   1
   6   4   0 -1.4728 1.49074   2
   7   4   0 20.1631 1.79418  -2
   7   4   0 20.1631 1.79418   1
   8   4   0 2.05674 2.07235  -2
   8   4   0 2.05674 2.07235   1
   0   5   0 1.15413 0.28495  -2
   0   5   0 1.15413 0.28495   1
   1   5   0 2142.96 27.0820  -2
   1   5   0 2142.96 27.0820   1
   2   5   0 1368.80 17.2953  -2
   2   5   0 1368.80 17.2953   1
   2   5   0 1383.27 51.4683   1
   3   5   0 332.412 4.19457  -2
   3   5   0 332.412 4.19457   1
   4   5   0 783.845 10.0803  -2
   4   5   0 783.845 10.0803   1
   5   5   0 774.070 11.7656  -2
   5   5   0 774.070 11.7656   1
   6   5   0 32.0839 3.10042   1
   6   5   0 157.659 3.20240  -2
   6   5   0 157.659 3.20240   1
   6   5   0 -2.0257 1.36384   2
   7   5   0 65.0440 2.40071  -2
   7   5   0 65.0440 2.40071   1
   7   5   0 0.81922 2.00170   2
   7   5   0 1.31345 1.63192   1
   8   5   0 180.458 4.46389  -2
   8   5   0 180.458 4.46389   1
   0   6   0 1.89264 0.33279  -2
   0   6   0 1.89264 0.33279   1
   1   6   0 39.9078 0.71063  -2
   1   6   0 39.9078 0.71063   1
   2   6   0 2.43863 0.33681  -2
   2   6   0 2.43863 0.33681   1
   2   6   0 0.95457 0.42738   1
   2   6   0 -0.1583 0.32086   2
   3   6   0 112.301 1.68412  -2
   3   6   0 112.301 1.68412   1
   4   6   0 25.9118 0.68967  -2
   4   6   0 25.9118 0.68967   1
   5   6   0 0.18064 0.80119  -2
   5   6   0 0.18064 0.80119   1
   5   6   0 -0.6053 1.30579   1
   5   6   0 -1.4873 1.37285   2
   6   6   0 6.52612 1.16015  -2
   6   6   0 6.52612 1.16015   1
   6   6   0 -0.3036 1.31460   1
   6   6   0 1.55362 1.60200   2
   7   6   0 1.27401 1.48171  -2
   7   6   0 1.27401 1.48171   1
   8   6   0 16.8554 2.15787  -2
   8   6   0 16.8554 2.15787   1
   0   7   0 0.48625 0.36340  -2
   0   7   0 0.48625 0.36340   1
   1   7   0 1981.83 25.1455  -2
   1   7   0 1981.83 25.1455   1
   2   7   0 1967.46 26.0550  -2
   2   7   0 1967.46 26.0550   1
   2   7   0 233.169 9.87298   1
   2   7   0 0.33665 0.67822   2
   3   7   0 98.4709 1.67737  -2
   3   7   0 98.4709 1.67737   1
   3   7   0 -0.0801 0.36811   2
   3   7   0 60.1085 2.47367   1
   4   7   0 839.308 11.5067  -2
   4   7   0 839.308 11.5067   1
   5   7   0 820.516 12.5014  -2
   5   7   0 820.516 12.5014   1
   6   7   0 92.6699 2.04662  -2
   6   7   0 92.6699 2.04662   1
   7   7   0 101.340 3.05572  -2
   7   7   0 101.340 3.05572   1
   8   7   0 154.232 4.07162  -2
   8   7   0 154.232 4.07162   1
   0   8   0 15.8873 0.67724  -2
   0   8   0 15.8873 0.67724   1
   1   8   0 123.461 1.84406  -2
   1   8   0 123.461 1.84406   1
   2   8   0 251.935 3.46253  -2
   2   8   0 251.935 3.46253   1
   2   8   0 0.45098 0.67840   2
   3   8   0 515.840 6.77222  -2
   3   8   0 515.840 6.77222   1
   3   8   0 65.0387 2.66090   1
   4   8   0 497.131 7.02367  -2
   4   8   0 497.131 7.02367   1
   5   8   0 0.11816 0.84456  -2
   5   8   0 0.11816 0.84456   1
   6   8   0 50.6155 1.55911  -2
   6   8   0 50.6155 1.55911   1
   7   8   0 0.89876 1.56734  -2
   7   8   0 0.89876 1.56734   1
   8   8   0 1.35689 2.22540  -2
   8   8   0 1.35689 2.22540   1
   0   9   0 1.69891 0.46598  -2
   0   9   0 1.69891 0.46598   1
   1   9   0 1033.62 13.1640  -2
   1   9   0 1033.62 13.1640   1
   2   9   0 1283.37 17.1645  -2
   2   9   0 1283.37 17.1645   1
   2   9   0 0.28485 0.42570   2
   2   9   0 221.036 9.46852   1
   3   9   0 11.3383 0.80466  -2
   3   9   0 11.3383 0.80466   1
   4   9   0 163.186 2.41241  -2
   4   9   0 163.186 2.41241   1
   5   9   0 385.541 6.28257  -2
   5   9   0 385.541 6.28257   1
   6   9   0 33.6556 1.42601  -2
   6   9   0 33.6556 1.42601   1
   7   9   0 69.4409 2.83020  -2
   7   9   0 69.4409 2.83020   1
   8   9   0 104.800 3.67077  -2
   8   9   0 104.800 3.67077   1
   0  10   0 1656.29 30.2412  -2
   0  10   0 1656.29 30.2412   1
   1  10   0 383.834 4.86776  -2
   1  10   0 383.834 4.86776   1
   2  10   0 184.262 2.71941  -2
   2  10   0 184.262 2.71941   1
   2  10   0 0.00858 0.79764   2
   2  10   0 5.87503 1.08865   1
   3  10   0 1065.27 13.6593  -2
   3  10   0 1065.27 13.6593   1
   4  10   0 212.187 3.15803  -2
   4  10   0 212.187 3.15803   1
   5  10   0 0.21327 0.92945  -2
   5  10   0 0.21327 0.92945   1
   6  10   0 231.601 4.24165  -2
   6  10   0 231.601 4.24165   1
   7  10   0 162.301 4.44066  -2
   7  10   0 162.301 4.44066   1
   8  10   0 5.95903 2.21136  -2
   8  10   0 5.95903 2.21136   1
   0  11   0 1.84245 0.76066  -2
   0  11   0 1.84245 0.76066   1
   1  11   0 111.299 1.63963  -2
   1  11   0 111.299 1.63963   1
   2  11   0 422.245 5.63542  -2
   2  11   0 422.245 5.63542   1
   2  11   0 69.1306 3.62565   1
   3  11   0 1.47350 0.61461  -2
   3  11   0 1.47350 0.61461   1
   4  11   0 66.9566 1.45598  -2
   4  11   0 66.9566 1.45598   1
   5  11   0 42.1379 1.54566  -2
   5  11   0 42.1379 1.54566   1
   6  11   0 20.9384 1.39067  -2
   6  11   0 20.9384 1.39067   1
   7  11   0 59.5338 2.82371  -2
   7  11   0 59.5338 2.82371   1
   8  11   0 29.4328 2.82491  -2
   8  11   0 29.4328 2.82491   1
   0  12   0 4449.59 80.5550  -2
   0  12   0 4449.59 80.5550   1
   1  12   0 595.611 7.45774  -2
   1  12   0 595.611 7.45774   1
   2  12   0 95.2260 1.73436  -2
   2  12   0 95.2260 1.73436   1
   2  12   0 38.1868 2.55649   1
   2  12   0 -0.3196 0.89049   2
   3  12   0 1181.71 15.1841  -2
   3  12   0 1181.71 15.1841   1
   4  12   0 195.623 3.41411  -2
   4  12   0 195.623 3.41411   1
   5  12   0 42.0697 1.53280  -2
   5  12   0 42.0697 1.53280   1
   6  12   0 524.700 8.53403  -2
   6  12   0 524.700 8.53403   1
   7  12   0 294.070 6.88823  -2
   7  12   0 294.070 6.88823   1
   0  13   0 5.78675 0.93394  -2
   0  13   0 5.78675 0.93394   1
   1  13   0 139.817 2.03207  -2
   1  13   0 139.817 2.03207   1
   2  13   0 225.187 3.54136  -2
   2  13   0 225.187 3.54136   1
   3  13   0 60.6422 1.43886  -2
   3  13   0 60.6422 1.43886   1
   4  13   0 0.78082 1.00078  -2
   4  13   0 0.78082 1.00078   1
   5  13   0 22.6970 1.30901  -2
   5  13   0 22.6970 1.30901   1
   6  13   0 24.2726 1.55549  -2
   6  13   0 24.2726 1.55549   1
   7  13   0 35.6562 2.54121  -2
   7  13   0 35.6562 2.54121   1
   0  14   0 94.6290 2.49252  -2
   0  14   0 94.6290 2.49252   1
   1  14   0 817.241 10.1162  -2
   1  14   0 817.241 10.1162   1
   2  14   0 116.562 2.08559  -2
   2  14   0 116.562 2.08559   1
   3  14   0 552.775 7.87621  -2
   3  14   0 552.775 7.87621   1
   4  14   0 376.636 5.83505  -2
   4  14   0 376.636 5.83505   1
   5  14   0 23.7799 1.45305  -2
   5  14   0 23.7799 1.45305   1
   6  14   0 115.345 2.66054  -2
   6  14   0 115.345 2.66054   1
   7  14   0 136.142 4.22084  -2
   7  14   0 136.142 4.22084   1
   0  15   0 1.73507 1.23867  -2
   0  15   0 1.73507 1.23867   1
   1  15   0 105.933 1.84173  -2
   1  15   0 105.933 1.84173   1
   2  15   0 351.271 5.27779  -2
   2  15   0 351.271 5.27779   1
   3  15   0 81.4798 1.77106  -2
   3  15   0 81.4798 1.77106   1
   4  15   0 113.954 2.43196  -2
   4  15   0 113.954 2.43196   1
   5  15   0 134.861 2.82520  -2
   5  15   0 134.861 2.82520   1
   6  15   0 12.1607 1.56427  -2
   6  15   0 12.1607 1.56427   1
   7  15   0 7.59900 2.15938  -2
   7  15   0 7.59900 2.15938   1
   0  16   0 618.963 11.6770  -2
   0  16   0 618.963 11.6770   1
   1  16   0 8.58645 0.92329  -2
   1  16   0 8.58645 0.92329   1
   2  16   0 143.408 2.65573  -2
   2  16   0 143.408 2.65573   1
   3  16   0 400.691 6.01235  -2
   3  16   0 400.691 6.01235   1
   4  16   0 126.489 2.66137  -2
   4  16   0 126.489 2.66137   1
   5  16   0 1.97278 1.35988  -2
   5  16   0 1.97278 1.35988   1
   6  16   0 95.0877 2.56325  -2
   6  16   0 95.0877 2.56325   1
   0  17   0 2.58713 1.31677  -2
   0  17   0 2.58713 1.31677   1
   1  17   0 512.532 8.04692  -2
   1  17   0 512.532 8.04692   1
   2  17   0 621.394 8.87788  -2
   2  17   0 621.394 8.87788   1
   3  17   0 25.9063 1.35662  -2
   3  17   0 25.9063 1.35662   1
   4  17   0 234.683 4.39112  -2
   4  17   0 234.683 4.39112   1
   5  17   0 191.499 3.68771  -2
   5  17   0 191.499 3.68771   1
   6  17   0 106.592 2.74169  -2
   6  17   0 106.592 2.74169   1
   0  18   0 90.4886 2.76503  -2
   0  18   0 90.4886 2.76503   1
   1  18   0 1.16950 1.11097  -2
   1  18   0 1.16950 1.11097   1
   2  18   0 6.13021 1.13451  -2
   2  18   0 6.13021 1.13451   1
   3  18   0 21.4986 1.36706  -2
   3  18   0 21.4986 1.36706   1
   4  18   0 7.69757 1.43914  -2
   4  18   0 7.69757 1.43914   1
   5  18   0 23.2992 2.01607  -2
   5  18   0 23.2992 2.01607   1
   6  18   0 10.3306 2.18507  -2
   6  18   0 10.3306 2.18507   1
   0  19   0 1.43295 2.28642  -2
   0  19   0 1.43295 2.28642   1
   1  19   0 693.783 11.7442  -2
   1  19   0 693.783 11.7442   1
   2  19   0 576.531 10.0020  -2
   2  19   0 576.531 10.0020   1
   3  19   0 19.7997 1.73317  -2
   3  19   0 19.7997 1.73317   1
   4  19   0 282.711 6.56199  -2
   4  19   0 282.711 6.56199   1
   5  19   0 405.095 8.78348  -2
   5  19   0 405.095 8.78348   1
   0  20   0 30.7237 2.79012  -2
   0  20   0 30.7237 2.79012   1
   1  20   0 49.2962 2.20024  -2
   1  20   0 49.2962 2.20024   1
   2  20   0 41.3469 2.09159  -2
   2  20   0 41.3469 2.09159   1
   3  20   0 206.228 4.54676  -2
   3  20   0 206.228 4.54676   1
   4  20   0 57.4907 2.84896  -2
   4  20   0 57.4907 2.84896   1
   5  20   0 1.53272 2.14014  -2
   5  20   0 1.53272 2.14014   1
   0  21   0 6.07386 2.72870  -2
   0  21   0 6.07386 2.72870   1
   1  21   0 332.008 7.01562  -2
   1  21   0 332.008 7.01562   1
   2  21   0 199.459 4.41967  -2
   2  21   0 199.459 4.41967   1
   3  21   0 3.32386 2.02747  -2
   3  21   0 3.32386 2.02747   1
   4  21   0 37.8326 2.87466  -2
   4  21   0 37.8326 2.87466   1
   0  22   0 603.891 16.4062  -2
   0  22   0 603.891 16.4062   1
   1  22   0 29.9880 2.32991  -2
   1  22   0 29.9880 2.32991   1
   2  22   0 46.4991 2.40607  -2
   2  22   0 46.4991 2.40607   1
   3  22   0 168.192 4.76151  -2
   3  22   0 168.192 4.76151   1
   0  23   0 8.72444 3.02475  -2
   0  23   0 8.72444 3.02475   1
   1  23   0 22.5698 2.27659  -2
   1  23   0 22.5698 2.27659   1
   2  23   0 66.4627 2.98055  -2
   2  23   0 66.4627 2.98055   1
   3  23   0 22.3501 3.17967  -2
   3  23   0 22.3501 3.17967   1
   0  24   0 507.416 14.3498  -2
   0  24   0 507.416 14.3498   1
   1  24   0 142.303 4.09057  -2
   1  24   0 142.303 4.09057   1
  -9   0   1 -1.7150 2.16544   1
  -9   0   1 0.23949 2.15900   2
  -8   0   1 -0.8285 1.54030   1
  -8   0   1 3.07944 1.88640   2
  -7   0   1 0.45846 1.24039   2
  -7   0   1 -0.1161 1.22383   1
  -6   0   1 0.16739 0.79590   1
  -6   0   1 -0.1532 0.58692   2
  -5   0   1 -0.2814 0.47324   2
  -5   0   1 0.60701 0.61977   1
  -4   0   1 1.10545 0.38419   1
  -4   0   1 0.06023 0.35365   2
  -3   0   1 0.69155 0.27789   1
  -3   0   1 0.04587 0.26119   2
  -2   0   1 0.30707 0.17063   1
  -2   0   1 0.08609 0.17057   2
  -1   0   1 -0.1879 0.15404   2
  -1   0   1 0.33176 0.11160   1
   0   0   1 0.21353 0.08104   2
   0   0   1 1.97184 0.12407   1
   1   0   1 0.50273 0.15657   1
   1   0   1 0.15853 0.12555   2
   2   0   1 0.06155 0.21710   1
   2   0   1 -0.0929 0.17230   2
   3   0   1 -0.0992 0.23756   2
   3   0   1 0.72215 0.30601   1
   4   0   1 0.31424 0.40296   1
   4   0   1 -0.1166 0.32870   2
   5   0   1 0.23801 0.51171   1
   5   0   1 -0.3066 0.64362   2
   6   0   1 -0.2163 0.85333   2
   6   0   1 -0.5594 1.00758   1
   7   0   1 0.39524 1.17182   2
   7   0   1 -0.5095 1.76228   1
   8   0   1 -0.7587 1.96135   1
   8   0   1 -0.0103 1.85341   2
  -9   1   1 54.1581 3.12933   1
  -9   1   1 3.81634 1.66799   2
  -8   1   1 189.904 3.98406   1
  -8   1   1 16.1576 1.83440   2
  -7   1   1 1.54644 0.97987   2
  -7   1   1 19.2215 1.33289   1
  -6   1   1 565.977 7.90327   1
  -6   1   1 48.7668 1.14044   2
  -5   1   1 699.565 9.24880   1
  -5   1   1 60.8872 1.15279   2
  -4   1   1 393.414 4.69153   1
  -4   1   1 32.7676 0.78581   2
  -3   1   1 45.8999 0.87683   2
  -3   1   1 530.579 6.17165   1
  -2   1   1 3227.99 44.2802   1
  -2   1   1 292.883 3.95385   2
  -1   1   1 68.6746 0.90991   2
  -1   1   1 778.383 9.37664   1
   0   1   1 349.384 4.21854   1
   0   1   1 28.6238 0.41094   2
   1   1   1 306.548 4.23370   2
   1   1   1 3348.79 40.5353   1
   2   1   1 1835.15 21.0170   1
   2   1   1 166.362 2.38933   2
   3   1   1 137.633 1.78080   1
   3   1   1 12.2107 0.36336   2
   4   1   1 699.309 8.17251   1
   4   1   1 63.8125 1.19813   2
   5   1   1 685.316 8.43380   1
   5   1   1 61.7871 1.40520   2
   6   1   1 1.97234 0.67234   2
   6   1   1 15.3632 1.10950   1
   7   1   1 13.3530 1.27767   2
   7   1   1 182.058 4.15561   1
   8   1   1 192.423 5.17922   1
   8   1   1 12.5240 1.76135   2
  -9   2   1 8.06019 1.71977   2
  -9   2   1 63.3843 3.24998   1
  -8   2   1 9.42652 1.22619   1
  -8   2   1 0.36534 1.31189   2
  -7   2   1 7.95640 1.17785   2
  -7   2   1 84.6713 2.05281   1
  -6   2   1 0.78560 0.47539   2
  -6   2   1 13.2718 0.92315   1
  -5   2   1 11.3271 0.62547   2
  -5   2   1 128.032 1.96473   1
  -4   2   1 410.602 4.88789   1
  -4   2   1 35.7957 0.81421   2
  -3   2   1 928.933 11.9876   1
  -3   2   1 77.0132 1.20653   2
  -2   2   1 11.5808 0.32696   2
  -2   2   1 134.072 2.00817   1
  -1   2   1 18.4285 0.34103   2
  -1   2   1 216.564 2.85015   1
   0   2   1 70.1852 0.91666   1
   0   2   1 5.73511 0.18697   2
   1   2   1 4.71205 0.20595   1
   1   2   1 0.34946 0.10306   2
   2   2   1 820.918 9.30152   1
   2   2   1 71.8466 1.17293   2
   3   2   1 74.1701 1.07793   2
   3   2   1 844.312 9.74177   1
   4   2   1 10.9345 0.43003   2
   4   2   1 130.932 1.78726   1
   5   2   1 26.7889 0.76546   1
   5   2   1 2.07813 0.51462   2
   6   2   1 13.1349 0.96508   2
   6   2   1 154.046 3.13236   1
   7   2   1 17.9395 1.50370   1
   7   2   1 1.55963 0.88416   2
   8   2   1 38.3218 2.71475   1
   8   2   1 2.40237 1.40188   2
  -9   3   1 36.0200 2.75648   1
  -9   3   1 3.21455 1.61888   2
  -8   3   1 104.446 2.76321   1
  -8   3   1 6.93188 1.30474   2
  -7   3   1 4.44166 0.87199   1
  -7   3   1 -0.1420 0.94607   2
  -6   3   1 3.85153 0.53273   2
  -6   3   1 55.9888 1.61587   1
  -5   3   1 489.554 6.60809   1
  -5   3   1 38.0172 0.97942   2
  -4   3   1 14.8269 0.58262   2
  -4   3   1 172.058 2.40651   1
  -3   3   1 29.8264 0.61049   2
  -3   3   1 375.898 5.01034   1
  -2   3   1 1814.54 22.9163   1
  -2   3   1 163.018 2.20225   2
  -1   3   1 58.5331 0.87419   2
  -1   3   1 656.362 7.84852   1
   0   3   1 115.420 1.47922   1
   0   3   1 10.3780 0.25123   2
   1   3   1 149.766 1.99547   2
   1   3   1 1662.75 19.0734   1
   2   3   1 88.0650 1.27087   2
   2   3   1 1004.91 12.1126   1
   3   3   1 5.87047 0.36918   2
   3   3   1 64.7751 1.04509   1
   4   3   1 55.3563 1.07729   2
   4   3   1 613.258 7.60535   1
   5   3   1 244.726 3.32926   1
   5   3   1 19.2864 0.91900   2
   6   3   1 0.19921 0.66302   2
   6   3   1 0.28216 0.73486   1
   7   3   1 12.2291 1.07653   2
   7   3   1 130.023 3.35535   1
   8   3   1 28.8572 2.37678   1
   8   3   1 1.51804 1.48039   2
  -9   4   1 -0.0724 1.50649   2
  -9   4   1 8.92576 1.97039   1
  -8   4   1 0.79587 1.20696   2
  -8   4   1 16.0107 1.58063   1
  -7   4   1 20.5820 1.57335   2
  -7   4   1 249.312 4.56285   1
  -6   4   1 176.382 3.14261   1
  -6   4   1 16.2216 0.94419   2
  -5   4   1 53.7065 1.25396   1
  -5   4   1 3.90816 0.40538   2
  -4   4   1 46.2079 1.01020   2
  -4   4   1 530.006 6.71890   1
  -3   4   1 1412.37 16.8535   1
  -3   4   1 125.033 1.80902   2
  -2   4   1 0.10672 0.16506   2
  -2   4   1 3.36968 0.25216   1
  -1   4   1 1895.41 22.6823   1
  -1   4   1 166.735 2.40237   2
   0   4   1 146.218 2.26090   2
   0   4   1 1610.25 20.7432   1
   1   4   1 12.8757 0.29304   2
   1   4   1 161.856 1.97899   1
   2   4   1 72.5979 1.10419   2
   2   4   1 808.145 9.79408   1
   3   4   1 1477.92 17.8066   1
   3   4   1 129.951 2.00584   2
   4   4   1 3.52524 0.37763   2
   4   4   1 48.7252 0.96313   1
   5   4   1 46.9345 1.03993   1
   5   4   1 3.43826 0.52954   2
   6   4   1 25.4234 1.25823   2
   6   4   1 309.850 5.35148   1
   7   4   1 9.81869 1.02774   2
   7   4   1 106.221 3.04700   1
   8   4   1 0.18322 1.44377   2
   8   4   1 11.1074 1.85016   1
  -8   5   1 1.74128 1.22919   2
  -8   5   1 16.8523 1.45049   1
  -7   5   1 2.12649 1.02678   2
  -7   5   1 23.9916 1.58077   1
  -6   5   1 16.6512 1.22140   1
  -6   5   1 1.01577 0.56894   2
  -5   5   1 492.778 7.15737   1
  -5   5   1 43.4534 1.09372   2
  -4   5   1 0.49029 0.26630   2
  -4   5   1 0.77612 0.23701   1
  -3   5   1 2.52947 0.27589   2
  -3   5   1 34.0776 0.76838   1
  -2   5   1 855.500 10.3493   1
  -2   5   1 72.9170 1.12921   2
  -1   5   1 23.0992 0.53785   2
  -1   5   1 262.229 3.13120   1
   0   5   1 161.085 1.98667   1
   0   5   1 13.6049 0.37794   2
   1   5   1 24.0719 0.46578   2
   1   5   1 263.588 3.29976   1
   2   5   1 213.049 2.75476   1
   2   5   1 18.3750 0.51955   2
   3   5   1 2.52119 0.23267   2
   3   5   1 34.7505 0.73536   1
   4   5   1 609.925 7.59268   1
   4   5   1 54.6992 1.08212   2
   5   5   1 0.64712 0.46451   2
   5   5   1 7.60485 0.59104   1
   6   5   1 4.01402 0.78168   1
   6   5   1 0.15708 0.70855   2
   7   5   1 3.24223 0.89014   2
   7   5   1 50.3611 2.19364   1
   8   5   1 -1.4531 1.48431   2
   8   5   1 5.16741 1.46795   1
  -8   6   1 1.07318 1.04078   1
  -8   6   1 0.96890 1.23387   2
  -7   6   1 44.1620 2.09069   2
  -7   6   1 512.728 8.65917   1
  -6   6   1 39.0225 1.29194   2
  -6   6   1 462.151 7.72050   1
  -5   6   1 9.96013 0.61317   2
  -5   6   1 122.388 2.28111   1
  -4   6   1 126.974 1.94336   2
  -4   6   1 1442.34 19.4518   1
  -3   6   1 1664.06 20.9868   1
  -3   6   1 150.841 2.17191   2
  -2   6   1 40.9282 0.76354   2
  -2   6   1 459.468 6.02615   1
  -1   6   1 3121.38 35.8739   1
  -1   6   1 267.980 3.81187   2
   0   6   1 385.702 5.06592   2
   0   6   1 4110.07 47.1626   1
   1   6   1 211.702 2.83915   2
   1   6   1 2284.03 27.3422   1
   2   6   1 1574.19 18.7720   1
   2   6   1 140.450 2.13376   2
   3   6   1 1331.41 16.1018   1
   3   6   1 116.470 1.86204   2
   4   6   1 236.433 2.97398   1
   4   6   1 19.8189 0.86980   2
   5   6   1 946.479 14.3404   1
   5   6   1 82.5347 1.83784   2
   6   6   1 57.5922 1.96382   2
   6   6   1 636.362 10.9439   1
   7   6   1 4.16210 0.94601   2
   7   6   1 65.8893 2.54734   1
   8   6   1 4.16442 1.48413   1
   8   6   1 -0.4451 1.44943   2
  -8   7   1 10.5522 1.43164   1
  -8   7   1 0.11296 1.29151   2
  -7   7   1 0.72634 1.08273   2
  -7   7   1 18.6240 1.46610   1
  -6   7   1 2.01943 0.61459   2
  -6   7   1 39.0931 1.64811   1
  -5   7   1 31.4275 1.11603   2
  -5   7   1 373.062 6.05532   1
  -4   7   1 -0.1726 0.30877   2
  -4   7   1 1.75122 0.37424   1
  -3   7   1 0.42879 0.26528   2
  -3   7   1 6.89763 0.46369   1
  -2   7   1 115.633 1.83959   2
  -2   7   1 1336.01 16.9710   1
  -1   7   1 33.9918 0.64678   1
  -1   7   1 2.98125 0.29309   2
   0   7   1 3.29338 0.26296   1
   0   7   1 0.15365 0.19165   2
   1   7   1 108.657 1.55923   1
   1   7   1 9.06809 0.35670   2
   2   7   1 528.107 6.50229   1
   2   7   1 46.9523 0.88982   2
   3   7   1 0.81992 0.29551   1
   3   7   1 0.15792 0.28879   2
   4   7   1 600.677 7.51881   1
   4   7   1 52.4045 1.31802   2
   5   7   1 12.5812 0.83141   1
   5   7   1 1.11268 0.52162   2
   6   7   1 4.01019 0.80341   1
   6   7   1 0.77317 0.72451   2
   7   7   1 105.897 3.12953   1
   7   7   1 7.34975 1.04502   2
   8   7   1 0.49775 1.33578   2
   8   7   1 15.5443 1.86865   1
  -8   8   1 118.442 3.50926   1
  -8   8   1 11.6868 1.59431   2
  -7   8   1 125.734 3.02676   1
  -7   8   1 9.07808 1.25354   2
  -6   8   1 247.715 4.56052   1
  -6   8   1 21.5125 1.13590   2
  -5   8   1 15.4046 0.76124   2
  -5   8   1 200.945 3.61394   1
  -4   8   1 35.2432 0.87002   2
  -4   8   1 388.781 5.60028   1
  -3   8   1 449.754 5.96330   1
  -3   8   1 38.6838 0.91671   2
  -2   8   1 13.3938 0.52500   2
  -2   8   1 152.382 2.00541   1
  -1   8   1 1132.38 13.6827   1
  -1   8   1 103.713 1.72021   2
   0   8   1 2302.80 27.7708   1
   0   8   1 204.950 2.87039   2
   1   8   1 118.959 1.83047   1
   1   8   1 12.7403 0.43599   2
   2   8   1 174.308 2.37732   1
   2   8   1 15.3203 0.55387   2
   3   8   1 83.6556 1.50970   2
   3   8   1 940.770 12.0713   1
   4   8   1 75.7822 1.45954   1
   4   8   1 5.48896 0.61624   2
   5   8   1 1.43858 0.56500   2
   5   8   1 12.3033 0.81420   1
   6   8   1 243.230 4.50755   1
   6   8   1 23.2271 1.44964   2
   7   8   1 174.348 4.64838   1
   7   8   1 9.93758 1.15570   2
   8   8   1 6.63211 1.74605   1
   8   8   1 -0.3848 1.35405   2
  -8   9   1 7.39971 1.52771   2
  -8   9   1 94.1919 3.28488   1
  -7   9   1 -0.9299 0.97683   1
  -7   9   1 -0.3309 1.14653   2
  -6   9   1 155.771 3.15476   1
  -6   9   1 11.1126 0.97543   2
  -5   9   1 7.98667 0.66197   2
  -5   9   1 77.0163 1.94511   1
  -4   9   1 7.44313 0.57865   2
  -4   9   1 80.2444 1.52085   1
  -3   9   1 282.748 3.93582   1
  -3   9   1 24.7880 0.79953   2
  -2   9   1 469.532 5.61230   1
  -2   9   1 40.5742 0.96301   2
  -1   9   1 56.4400 1.13383   2
  -1   9   1 631.312 7.42789   1
   0   9   1 15.7735 0.54792   2
   0   9   1 180.854 2.35302   1
   1   9   1 686.049 8.89060   1
   1   9   1 62.6544 1.07609   2
   2   9   1 34.8979 0.80554   2
   2   9   1 406.066 5.44546   1
   3   9   1 68.2077 1.25194   1
   3   9   1 5.50230 0.47145   2
   4   9   1 2.87343 0.61913   2
   4   9   1 50.2170 1.18573   1
   5   9   1 27.1959 1.21017   2
   5   9   1 318.615 5.37599   1
   6   9   1 2.86312 0.93061   1
   6   9   1 -0.7989 0.76314   2
   7   9   1 36.7078 2.45268   1
   7   9   1 2.66519 1.00258   2
   8   9   1 7.70901 1.71673   2
   8   9   1 78.0472 3.41835   1
  -8  10   1 4.49016 1.43550   1
  -8  10   1 0.65091 1.41254   2
  -7  10   1 2.02963 1.03642   2
  -7  10   1 34.5356 1.87223   1
  -6  10   1 52.3814 1.72293   1
  -6  10   1 3.38035 0.75026   2
  -5  10   1 -0.1673 0.59856   2
  -5  10   1 6.50258 0.77375   1
  -4  10   1 696.568 10.7467   1
  -4  10   1 63.5048 1.39567   2
  -3  10   1 26.3340 0.83440   2
  -3  10   1 311.923 4.61606   1
  -2  10   1 98.2601 1.46910   1
  -2  10   1 7.62472 0.48713   2
  -1  10   1 192.802 2.64325   1
  -1  10   1 16.5943 0.50981   2
   0  10   1 19.1259 0.57489   2
   0  10   1 239.798 3.44217   1
   1  10   1 3.03867 0.40551   1
   1  10   1 0.11663 0.27265   2
   2  10   1 30.7372 0.80295   2
   2  10   1 371.067 5.05486   1
   3  10   1 52.3028 1.18674   2
   3  10   1 609.123 8.04744   1
   4  10   1 17.3027 0.96529   2
   4  10   1 198.510 3.03204   1
   5  10   1 2.74650 0.65797   2
   5  10   1 35.5776 1.33977   1
   6  10   1 98.1616 2.80394   1
   6  10   1 5.54351 0.94890   2
   7  10   1 0.82597 0.97647   2
   7  10   1 1.35371 1.54142   1
  -8  11   1 5.77014 1.55822   2
  -8  11   1 74.6192 3.41655   1
  -7  11   1 2.25654 0.97336   2
  -7  11   1 10.2582 1.30556   1
  -6  11   1 21.3863 1.27505   2
  -6  11   1 266.558 4.84172   1
  -5  11   1 607.312 9.60657   1
  -5  11   1 51.9030 1.53373   2
  -4  11   1 78.9949 1.78297   1
  -4  11   1 7.46722 0.64217   2
  -3  11   1 320.252 4.48448   1
  -3  11   1 27.0992 0.88362   2
  -2  11   1 88.2183 1.69236   2
  -2  11   1 1047.89 12.1979   1
  -1  11   1 45.4554 0.95336   2
  -1  11   1 508.127 6.40693   1
   0  11   1 17.7900 0.59481   2
   0  11   1 221.793 2.89182   1
   1  11   1 1373.80 17.5061   1
   1  11   1 118.769 1.87982   2
   2  11   1 485.637 6.52760   1
   2  11   1 42.0321 1.01606   2
   3  11   1 -0.1841 0.39790   2
   3  11   1 5.44718 0.59081   1
   4  11   1 595.695 8.49876   1
   4  11   1 45.6066 1.38222   2
   5  11   1 35.9918 1.39714   2
   5  11   1 418.859 6.41212   1
   6  11   1 -0.7708 0.84292   2
   6  11   1 1.02772 0.99372   1
   7  11   1 2.25132 1.10323   2
   7  11   1 47.1088 2.79417   1
  -8  12   1 6.61091 1.66716   1
  -8  12   1 -1.8187 1.58651   2
  -7  12   1 -1.3632 1.03775   2
  -7  12   1 1.56121 1.14698   1
  -6  12   1 8.74496 0.98905   1
  -6  12   1 0.62039 0.77876   2
  -5  12   1 9.72756 0.86891   1
  -5  12   1 0.53674 0.66112   2
  -4  12   1 2.98951 0.66345   1
  -4  12   1 -0.0327 0.50369   2
  -3  12   1 4.35696 0.54409   2
  -3  12   1 42.5187 1.16023   1
  -2  12   1 0.68942 0.38439   2
  -2  12   1 7.69508 0.56414   1
  -1  12   1 28.0583 0.79028   1
  -1  12   1 2.13266 0.39935   2
   0  12   1 4.02068 0.38732   2
   0  12   1 49.8669 1.04839   1
   1  12   1 1.16797 0.43499   1
   1  12   1 0.24561 0.33861   2
   2  12   1 33.3472 1.04512   1
   2  12   1 2.75371 0.44124   2
   3  12   1 20.0770 0.95317   1
   3  12   1 1.20366 0.48070   2
   4  12   1 -0.0861 0.62524   1
   4  12   1 0.23837 0.55129   2
   5  12   1 27.1355 1.39630   1
   5  12   1 2.53010 0.68149   2
   6  12   1 0.13895 0.91801   2
   6  12   1 1.12804 1.05313   1
   7  12   1 0.81420 1.09418   2
   7  12   1 1.20076 1.59660   1
  -7  13   1 0.98043 1.11785   2
  -7  13   1 14.0083 1.41453   1
  -6  13   1 142.570 3.17613   1
  -6  13   1 10.1791 1.11126   2
  -5  13   1 58.9645 1.73978   2
  -5  13   1 656.738 9.65740   1
  -4  13   1 13.8304 0.87069   2
  -4  13   1 187.961 3.31289   1
  -3  13   1 18.4737 0.85910   2
  -3  13   1 240.049 3.59940   1
  -2  13   1 1221.04 14.9543   1
  -2  13   1 100.311 1.87722   2
  -1  13   1 670.992 8.00867   1
  -1  13   1 54.3863 1.20200   2
   0  13   1 183.929 2.67144   1
   0  13   1 16.5843 0.89164   2
   1  13   1 161.038 2.62692   2
   1  13   1 1757.04 22.3385   1
   2  13   1 517.358 7.01744   1
   2  13   1 46.1273 1.16226   2
   3  13   1 0.61820 0.48798   2
   3  13   1 13.4396 0.85976   1
   4  13   1 683.363 9.16671   1
   4  13   1 60.9505 1.68465   2
   5  13   1 29.4664 1.40094   2
   5  13   1 347.524 5.57111   1
   6  13   1 -0.0867 1.06902   1
   6  13   1 1.69341 1.02535   2
   7  13   1 107.307 3.83007   1
   7  13   1 7.38597 1.28554   2
  -7  14   1 1.74108 1.16541   2
  -7  14   1 14.1101 1.51453   1
  -6  14   1 0.27661 0.96592   2
  -6  14   1 14.4818 1.23525   1
  -5  14   1 1.91342 0.75679   2
  -5  14   1 30.1118 1.52098   1
  -4  14   1 230.005 3.93183   1
  -4  14   1 18.7386 0.98062   2
  -3  14   1 10.5470 0.74768   2
  -3  14   1 111.332 2.07027   1
  -2  14   1 9.79815 0.68867   2
  -2  14   1 111.032 1.90957   1
  -1  14   1 126.320 2.04075   1
  -1  14   1 10.8426 0.67028   2
   0  14   1 18.4719 0.96871   2
   0  14   1 210.544 3.19159   1
   1  14   1 28.6984 0.98713   1
   1  14   1 2.33443 0.48643   2
   2  14   1 11.8892 0.70811   2
   2  14   1 123.487 2.21937   1
   3  14   1 22.5572 1.00442   2
   3  14   1 280.843 4.18657   1
   4  14   1 60.9153 1.60973   1
   4  14   1 4.74769 0.79819   2
   5  14   1 0.11273 0.75720   2
   5  14   1 0.70727 0.89513   1
   6  14   1 35.2058 1.98739   1
   6  14   1 3.70194 0.95251   2
   7  14   1 5.79374 1.71865   1
   7  14   1 -0.4916 1.17511   2
  -7  15   1 6.67242 1.59815   1
  -7  15   1 0.48237 1.13312   2
  -6  15   1 9.91227 1.24200   1
  -6  15   1 1.40475 1.01992   2
  -5  15   1 392.234 6.23175   1
  -5  15   1 34.5372 1.52429   2
  -4  15   1 5.08109 0.73180   2
  -4  15   1 57.0970 1.74715   1
  -3  15   1 150.047 2.58993   1
  -3  15   1 12.3320 0.82858   2
  -2  15   1 57.6446 1.37867   2
  -2  15   1 690.274 9.72226   1
  -1  15   1 13.2164 0.89191   2
  -1  15   1 158.209 2.45220   1
   0  15   1 54.5999 1.26880   1
   0  15   1 4.22202 0.52686   2
   1  15   1 461.514 6.35600   1
   1  15   1 40.6014 1.27003   2
   2  15   1 421.331 5.91168   1
   2  15   1 37.5144 1.22458   2
   3  15   1 12.5993 0.96017   1
   3  15   1 1.12534 0.61689   2
   4  15   1 411.512 5.97258   1
   4  15   1 37.0357 1.49793   2
   5  15   1 7.48774 0.99979   2
   5  15   1 96.6743 2.41903   1
   6  15   1 0.10302 1.07346   2
   6  15   1 -0.6396 1.29039   1
  -6  16   1 7.28435 1.17678   2
  -6  16   1 106.471 2.94385   1
  -5  16   1 0.05169 1.12044   1
  -5  16   1 -0.7151 0.78529   2
  -4  16   1 38.2171 1.36471   2
  -4  16   1 439.967 7.48864   1
  -3  16   1 297.264 4.71956   1
  -3  16   1 25.2138 1.16012   2
  -2  16   1 0.05067 0.55305   2
  -2  16   1 0.59109 0.71609   1
  -1  16   1 33.8436 1.21267   2
  -1  16   1 404.176 6.48268   1
   0  16   1 42.8413 1.30234   2
   0  16   1 507.318 6.93645   1
   1  16   1 50.6860 1.29136   1
   1  16   1 5.10537 0.67449   2
   2  16   1 200.445 3.24723   1
   2  16   1 15.0318 0.95302   2
   3  16   1 500.217 6.99424   1
   3  16   1 44.6313 1.66822   2
   4  16   1 6.24080 1.05417   2
   4  16   1 101.771 2.44691   1
   5  16   1 158.354 3.27545   1
   5  16   1 11.3606 1.32634   2
   6  16   1 3.79310 1.20750   2
   6  16   1 65.9908 2.81196   1
  -6  17   1 2.59892 1.35886   2
  -6  17   1 37.3347 2.38439   1
  -5  17   1 27.1887 1.96524   1
  -5  17   1 2.59965 1.09031   2
  -4  17   1 1.27926 0.89892   2
  -4  17   1 13.8149 1.47278   1
  -3  17   1 11.3946 1.11127   1
  -3  17   1 0.37148 0.82839   2
  -2  17   1 15.0157 1.19110   2
  -2  17   1 164.933 3.28480   1
  -1  17   1 5.46447 0.75089   2
  -1  17   1 81.9408 2.10255   1
   0  17   1 1.64875 0.81538   2
   0  17   1 38.9374 1.39114   1
   1  17   1 88.1746 2.20873   1
   1  17   1 6.84566 0.89376   2
   2  17   1 85.0906 2.05088   1
   2  17   1 7.43604 0.96190   2
   3  17   1 22.7837 1.39325   1
   3  17   1 2.82807 1.01159   2
   4  17   1 23.0145 1.69690   1
   4  17   1 1.75880 1.03646   2
   5  17   1 42.0283 2.10813   1
   5  17   1 3.14912 1.20874   2
   6  17   1 1.28168 1.25236   2
   6  17   1 1.61248 1.69127   1
  -6  18   1 13.0134 1.64539   2
  -6  18   1 170.285 4.35574   1
  -5  18   1 0.27501 1.10240   2
  -5  18   1 0.49875 1.40998   1
  -4  18   1 296.042 5.95481   1
  -4  18   1 22.6114 1.56240   2
  -3  18   1 472.914 7.68532   1
  -3  18   1 36.7751 1.56045   2
  -2  18   1 21.1449 1.42595   1
  -2  18   1 2.36337 0.82725   2
  -1  18   1 50.4312 1.92202   2
  -1  18   1 582.487 9.11755   1
   0  18   1 87.0383 2.61775   2
   0  18   1 1054.42 15.7324   1
   1  18   1 134.620 2.89598   1
   1  18   1 12.6351 1.24121   2
   2  18   1 28.0717 1.47947   2
   2  18   1 325.389 5.58588   1
   3  18   1 341.740 5.53009   1
   3  18   1 30.2917 2.00549   2
   4  18   1 89.3743 2.65875   1
   4  18   1 6.00432 1.23801   2
   5  18   1 170.557 3.88953   1
   5  18   1 11.9363 1.46904   2
  -5  19   1 8.27444 1.39358   2
  -5  19   1 104.836 3.30738   1
  -4  19   1 1.59830 1.14239   2
  -4  19   1 9.35021 1.46492   1
  -3  19   1 1.19926 0.90007   2
  -3  19   1 2.20846 1.24843   1
  -2  19   1 3.87239 0.94304   2
  -2  19   1 51.4905 1.87394   1
  -1  19   1 2.45749 0.90275   2
  -1  19   1 25.2439 1.54633   1
   0  19   1 18.8162 1.53587   1
   0  19   1 1.52988 0.89580   2
   1  19   1 1.83000 0.92073   2
   1  19   1 10.4905 1.18012   1
   2  19   1 2.59342 0.95772   2
   2  19   1 32.1122 1.69935   1
   3  19   1 6.27903 1.21392   1
   3  19   1 1.14952 1.07016   2
   4  19   1 6.99079 1.34308   2
   4  19   1 87.6405 2.98130   1
   5  19   1 1.23049 1.42232   1
   5  19   1 0.23613 1.24894   2
  -5  20   1 5.11518 1.32485   2
  -5  20   1 70.3596 2.94478   1
  -4  20   1 8.94637 1.31377   2
  -4  20   1 86.5541 2.96255   1
  -3  20   1 18.7900 1.41645   2
  -3  20   1 205.040 4.65035   1
  -2  20   1 1.03382 0.96933   2
  -2  20   1 11.3926 1.22804   1
  -1  20   1 316.307 5.48672   1
  -1  20   1 27.1282 1.62786   2
   0  20   1 392.187 7.11143   1
   0  20   1 30.6717 1.97868   2
   1  20   1 0.65812 1.01634   2
   1  20   1 2.98558 1.01633   1
   2  20   1 95.4854 2.54335   1
   2  20   1 9.07911 1.16356   2
   3  20   1 26.5012 1.85453   2
   3  20   1 304.917 5.50377   1
   4  20   1 -0.7311 1.24239   2
   4  20   1 5.76356 1.47299   1
  -4  21   1 11.9532 1.65022   1
  -4  21   1 3.34678 1.54896   2
  -3  21   1 7.74629 1.30052   2
  -3  21   1 78.4454 2.85578   1
  -2  21   1 54.6265 2.15951   1
  -2  21   1 5.41960 1.10693   2
  -1  21   1 11.3493 1.30382   2
  -1  21   1 124.211 2.94336   1
   0  21   1 3.37631 1.08135   2
   0  21   1 46.0356 2.15673   1
   1  21   1 7.59786 1.13482   2
   1  21   1 115.054 3.07784   1
   2  21   1 4.68371 1.09060   2
   2  21   1 59.2533 2.19296   1
   3  21   1 0.33997 1.20028   2
   3  21   1 13.1843 1.61564   1
   4  21   1 1.26742 1.38352   2
   4  21   1 6.52272 1.77520   1
  -4  22   1 225.388 5.86485   1
  -4  22   1 16.6395 1.97021   2
  -3  22   1 201.208 5.30783   1
  -3  22   1 18.2714 1.70980   2
  -2  22   1 5.12979 1.37331   1
  -2  22   1 0.27492 1.37668   2
  -1  22   1 10.9827 1.50902   2
  -1  22   1 108.041 3.44512   1
   0  22   1 55.1062 2.67377   1
   0  22   1 5.21124 1.40444   2
   1  22   1 5.52181 1.36245   2
   1  22   1 43.5058 2.59664   1
   2  22   1 19.7682 1.72388   2
   2  22   1 221.712 4.83565   1
   3  22   1 217.421 5.55260   1
   3  22   1 14.2452 1.87966   2
  -3  23   1 4.32792 1.46610   2
  -3  23   1 55.2300 3.11767   1
  -2  23   1 39.9459 2.54454   2
  -2  23   1 415.759 7.78565   1
  -1  23   1 38.0751 2.49981   1
  -1  23   1 2.87742 1.48037   2
   0  23   1 2.68148 1.49196   2
   0  23   1 10.9105 1.67035   1
   1  23   1 348.853 7.48707   1
   1  23   1 31.0594 2.33754   2
   2  23   1 11.7850 1.75624   2
   2  23   1 159.295 4.38685   1
  -1  24   1 6.61299 1.65320   1
  -1  24   1 0.93946 1.50098   2
   0  24   1 31.2424 2.50488   1
   0  24   1 3.23305 1.55361   2
   1  24   1 0.75113 1.58251   2
   1  24   1 2.61296 1.68151   1
  -9   0   2 14.7843 2.95439   1
  -9   0   2 0.10823 4.60708   2
   8   0   2 33.7437 6.41341  -2
  -9   0   2 33.7437 6.41341   1
  -8   0   2 9.66937 2.28991   2
  -8   0   2 96.8728 3.79885   1
  -7   0   2 684.832 15.7274   1
  -7   0   2 60.2035 2.61928   2
  -6   0   2 342.478 7.12315   1
  -6   0   2 31.4540 1.47746   2
  -5   0   2 185.772 4.09819   1
  -5   0   2 13.7884 0.81887   2
  -4   0   2 52.3456 1.54237   2
  -4   0   2 593.609 9.82047   1
  -3   0   2 1436.06 23.2173   1
  -3   0   2 116.476 2.73084   2
  -2   0   2 67.1555 1.30476   1
  -2   0   2 5.96697 0.45264   2
  -1   0   2 9999.99 170.792   1
  -1   0   2 1199.43 19.3436   2
   0   0   2 4030.35 65.1079   1
   0   0   2 354.974 5.81322   2
   1   0   2 35.1967 0.93483   1
   1   0   2 2.36596 0.24426   2
   2   0   2 264.000 4.84289   2
   2   0   2 2663.38 55.9885   1
   3   0   2 28.3782 0.78653   2
   3   0   2 316.588 5.41002   1
   4   0   2 4.34513 0.53037   1
   4   0   2 1.05176 0.60196   2
   5   0   2 831.048 15.4880   1
   5   0   2 76.3748 2.26014   2
   6   0   2 673.982 15.5032   1
   6   0   2 72.1969 3.04983   2
   7   0   2 57.3002 3.76447   1
   7   0   2 4.70414 1.40726   2
   8   0   2 8.62827 2.42239   2
   8   0   2 162.324 11.0120   1
  -9   0   2 133.180 9.09521  -2
   8   0   2 133.180 9.09521   1
  -9   1   2 3.20881 1.69597   2
   8   1   2 66.4268 5.15520  -2
  -9   1   2 66.4268 5.15520   1
  -9   1   2 61.9197 3.16406   1
  -8   1   2 27.0432 1.77155   1
  -8   1   2 0.94601 1.11417   2
  -7   1   2 4.32952 0.95878   1
  -7   1   2 0.58003 0.80425   2
  -6   1   2 33.6029 1.14980   1
  -6   1   2 2.59713 0.56914   2
  -5   1   2 10.6054 0.68004   1
  -5   1   2 0.28819 0.33741   2
  -4   1   2 9.01017 0.44885   2
  -4   1   2 116.037 1.72117   1
  -3   1   2 26.3512 0.56450   2
  -3   1   2 320.318 4.10572   1
  -2   1   2 134.355 1.74914   1
  -2   1   2 11.3432 0.31092   2
  -1   1   2 3839.42 42.5097   1
  -1   1   2 353.162 4.09947   2
   0   1   2 3698.18 42.3343   1
   0   1   2 319.467 3.71140   2
   1   1   2 214.087 2.71181   1
   1   1   2 18.1296 0.41012   2
   2   1   2 -0.2516 0.18689   2
   2   1   2 0.44381 0.17016   1
   3   1   2 80.0969 1.25697   1
   3   1   2 7.39361 0.41398   2
   4   1   2 107.801 1.66496   1
   4   1   2 9.57096 0.67050   2
   5   1   2 4.29853 0.61304   2
   5   1   2 49.3096 1.22092   1
   6   1   2 1.53929 0.80071   2
   6   1   2 28.8990 1.23245   1
   7   1   2 21.2528 1.68208   1
   7   1   2 2.33310 0.94251   2
   8   1   2 40.1052 2.78149   1
   8   1   2 5.25497 1.63018   2
  -9   2   2 -0.4010 1.50256   2
   8   2   2 -3.3734 4.08740  -2
  -9   2   2 -3.3734 4.08740   1
  -9   2   2 -0.4256 1.62346   1
  -8   2   2 98.1743 3.07992   1
  -8   2   2 9.58753 1.36968   2
   7   2   2 98.7487 7.22953  -2
  -8   2   2 98.7487 7.22953   1
  -7   2   2 130.936 2.68409   1
  -7   2   2 11.5147 1.10246   2
  -6   2   2 12.8324 0.85908   2
  -6   2   2 164.574 2.97213   1
  -5   2   2 224.801 3.66684   1
  -5   2   2 18.8198 0.72926   2
  -4   2   2 1502.44 19.3242   1
  -4   2   2 125.887 2.25780   2
  -3   2   2 13.9883 0.43394   2
  -3   2   2 172.579 2.47925   1
  -2   2   2 21.7363 0.41403   2
  -2   2   2 250.696 3.39377   1
  -1   2   2 994.138 11.3587   1
  -1   2   2 86.3666 1.16920   2
   0   2   2 126.332 1.61881   2
   0   2   2 1471.68 17.7657   1
   1   2   2 11.5251 0.34294   2
   1   2   2 127.549 1.60077   1
   2   2   2 444.599 5.21735   1
   2   2   2 39.0836 0.82632   2
   3   2   2 127.565 2.00266   2
   3   2   2 1433.24 17.2980   1
   4   2   2 0.71500 0.43456   2
   4   2   2 16.0110 0.64553   1
   5   2   2 38.8311 1.28692   2
   5   2   2 377.260 5.25094   1
   6   2   2 15.3420 1.10114   2
   6   2   2 162.155 2.96905   1
   7   2   2 13.3944 1.41531   1
   7   2   2 0.87646 1.07226   2
   8   2   2 -0.3059 1.45967   2
   8   2   2 2.87149 1.59289   1
  -9   3   2 3.40907 1.65237   2
  -9   3   2 25.5438 2.09836   1
  -8   3   2 5.49612 1.42545   2
  -8   3   2 63.4121 2.25385   1
  -7   3   2 -0.9392 0.78478   2
  -7   3   2 -0.0059 0.79260   1
  -6   3   2 163.222 2.97672   1
  -6   3   2 13.6080 0.86546   2
  -5   3   2 384.033 5.09005   1
  -5   3   2 32.3374 0.85458   2
  -4   3   2 0.82336 0.28239   2
  -4   3   2 14.1864 0.57718   1
  -3   3   2 654.544 8.62411   1
  -3   3   2 53.4076 0.90034   2
  -2   3   2 106.475 1.38416   2
  -2   3   2 1245.44 15.1938   1
  -1   3   2 16.7121 0.34636   2
  -1   3   2 195.545 2.24282   1
   0   3   2 60.5918 0.85417   2
   0   3   2 705.448 8.09942   1
   1   3   2 70.5513 1.02179   2
   1   3   2 810.692 9.31113   1
   2   3   2 187.295 2.33128   1
   2   3   2 16.8331 0.51485   2
   3   3   2 4.80207 0.38721   2
   3   3   2 54.0721 0.97132   1
   4   3   2 70.7457 1.29903   2
   4   3   2 779.876 9.63033   1
   5   3   2 4.38150 0.65884   2
   5   3   2 62.8229 1.36890   1
   6   3   2 0.18005 0.70199   2
   6   3   2 3.74526 0.86006   1
   7   3   2 9.71885 1.12193   2
   7   3   2 123.187 3.75924   1
  -8   3   2 122.215 8.22147  -2
   7   3   2 122.215 8.22147   1
   8   3   2 0.70909 1.27876   2
   8   3   2 12.9970 2.00104   1
  -9   4   2 -0.6350 1.56954   2
  -9   4   2 5.95431 1.40863   1
  -8   4   2 6.27323 1.24371   1
  -8   4   2 1.14006 1.34626   2
   7   4   2 12.0074 5.37914  -2
  -8   4   2 12.0074 5.37914   1
  -7   4   2 138.504 2.83838   1
  -7   4   2 11.9327 1.05218   2
  -6   4   2 5.83189 0.80243   1
  -6   4   2 -0.0836 0.51669   2
  -5   4   2 8.30899 0.58496   2
  -5   4   2 89.2316 1.75099   1
  -4   4   2 769.794 9.61622   1
  -4   4   2 66.3306 1.38223   2
  -3   4   2 39.3022 0.74921   2
  -3   4   2 475.455 6.37060   1
  -2   4   2 31.1623 0.56018   1
  -2   4   2 2.83225 0.23620   2
  -1   4   2 8.89573 0.26070   2
  -1   4   2 108.428 1.45323   1
   0   4   2 10.6217 0.37827   2
   0   4   2 124.702 1.50242   1
   1   4   2 166.648 2.07507   1
   1   4   2 15.0716 0.35710   2
   2   4   2 654.711 7.61266   1
   2   4   2 58.2788 0.91276   2
   3   4   2 69.6253 1.32117   2
   3   4   2 805.537 9.87012   1
   4   4   2 5.67659 0.47698   1
   4   4   2 0.31879 0.40425   2
   5   4   2 4.36504 0.60633   1
   5   4   2 -0.4154 0.61435   2
   6   4   2 87.4566 2.19843   1
   6   4   2 8.99679 0.94303   2
   7   4   2 -1.3684 1.07522   2
   7   4   2 1.10401 1.45636   1
  -8   4   2 4.98707 5.79072  -2
   7   4   2 4.98707 5.79072   1
   8   4   2 2.23164 1.18106   2
   8   4   2 39.5862 2.74905   1
  -9   5   2 152.105 4.20503   1
  -9   5   2 12.4957 1.97309   2
  -8   5   2 4.21091 1.44609   2
  -8   5   2 44.8608 2.25709   1
  -7   5   2 1.20983 0.87034   2
  -7   5   2 16.9357 1.19874   1
  -6   5   2 37.8256 1.28238   2
  -6   5   2 466.765 7.64114   1
  -5   5   2 872.159 11.6048   1
  -5   5   2 73.6121 1.61869   2
  -4   5   2 13.1102 0.54139   1
  -4   5   2 0.83845 0.30070   2
  -3   5   2 724.048 8.48089   1
  -3   5   2 62.0075 1.02255   2
  -2   5   2 1831.17 22.0207   1
  -2   5   2 159.489 2.01634   2
  -1   5   2 34.1589 0.57817   1
  -1   5   2 2.83363 0.18771   2
   0   5   2 69.7293 1.24426   2
   0   5   2 805.660 9.26886   1
   1   5   2 2421.69 27.7139   1
   1   5   2 221.035 2.95222   2
   2   5   2 371.497 4.43855   1
   2   5   2 31.5667 0.63632   2
   3   5   2 148.519 1.99045   1
   3   5   2 13.2168 0.51649   2
   4   5   2 77.4675 1.55750   2
   4   5   2 876.222 10.7976   1
   5   5   2 22.8702 1.12265   2
   5   5   2 276.250 4.02994   1
   6   5   2 34.7202 1.56196   1
   6   5   2 2.81922 0.82237   2
   7   5   2 5.79774 1.07000   2
   7   5   2 95.0766 3.32153   1
  -8   5   2 107.760 8.30113  -2
   7   5   2 107.760 8.30113   1
   8   5   2 10.2549 1.39661   2
   8   5   2 138.481 4.91527   1
  -9   5   2 179.664 11.1575  -2
   8   5   2 179.664 11.1575   1
  -9   6   2 -3.1528 2.68793   1
  -8   6   2 1.06114 1.07702   1
  -8   6   2 -1.0660 1.34309   2
  -7   6   2 0.87619 0.86450   2
  -7   6   2 2.58886 0.89709   1
  -6   6   2 -0.3272 0.64229   2
  -6   6   2 1.27018 0.72319   1
  -5   6   2 0.42781 0.39266   2
  -5   6   2 4.21204 0.60734   1
  -4   6   2 1.44719 0.45132   1
  -4   6   2 0.16398 0.31389   2
  -3   6   2 5.11135 0.34890   2
  -3   6   2 63.1774 1.14028   1
  -2   6   2 1.25650 0.22156   2
  -2   6   2 12.6209 0.41694   1
  -1   6   2 0.91414 0.19092   2
  -1   6   2 10.7717 0.34439   1
   0   6   2 0.73823 0.15863   2
   0   6   2 8.29147 0.36473   1
   1   6   2 21.3946 0.47744   1
   1   6   2 2.04367 0.20952   2
   2   6   2 118.202 1.61353   1
   2   6   2 9.92517 0.45143   2
   3   6   2 0.55810 0.37079   2
   3   6   2 4.27360 0.37100   1
   4   6   2 -0.0510 0.38547   1
   4   6   2 0.44267 0.46131   2
   5   6   2 0.07724 0.63267   2
   5   6   2 6.61525 0.74015   1
   6   6   2 5.72497 0.99116   1
   6   6   2 0.46560 0.77666   2
   7   6   2 4.00865 1.45790   1
   7   6   2 1.21265 0.95007   2
  -8   6   2 16.4867 6.82002  -2
   7   6   2 16.4867 6.82002   1
   8   6   2 3.02546 1.72942   1
   8   6   2 0.11131 1.16926   2
  -8   7   2 9.51158 1.64441   2
  -8   7   2 92.4307 2.70394   1
  -7   7   2 2.51852 0.91994   1
  -7   7   2 1.24733 0.89226   2
  -6   7   2 40.6429 1.55349   2
  -6   7   2 482.316 8.08181   1
  -5   7   2 747.356 11.4608   1
  -5   7   2 64.8174 1.39069   2
  -4   7   2 2.46148 0.37941   2
  -4   7   2 31.7077 0.98046   1
  -3   7   2 969.997 12.5057   1
  -3   7   2 83.5962 1.31387   2
  -2   7   2 175.764 2.50271   2
  -2   7   2 2056.27 23.4800   1
  -1   7   2 1.36247 0.22742   2
  -1   7   2 18.9799 0.47662   1
   0   7   2 655.863 7.99487   1
   0   7   2 58.1100 1.02367   2
   1   7   2 2497.63 29.8174   1
   1   7   2 230.510 3.11759   2
   2   7   2 524.980 6.21537   1
   2   7   2 45.3483 0.89832   2
   3   7   2 33.7782 1.01004   2
   3   7   2 367.657 4.49436   1
   4   7   2 862.099 9.54205   1
   4   7   2 75.4699 1.71041   2
   5   7   2 246.471 3.95002   1
   5   7   2 22.2754 1.27766   2
   6   7   2 47.9650 1.80176   1
   6   7   2 2.91937 0.83934   2
   7   7   2 15.4848 1.54393   2
   7   7   2 190.848 5.51952   1
  -8   7   2 190.634 13.0449  -2
   7   7   2 190.634 13.0449   1
   8   7   2 52.6303 2.96992   1
   8   7   2 1.86057 1.24653   2
  -8   8   2 -0.1144 1.29891   2
  -8   8   2 4.78248 1.17746   1
  -7   8   2 2.99446 0.97255   2
  -7   8   2 33.5563 1.80374   1
  -6   8   2 -0.3103 0.75481   2
  -6   8   2 3.46548 0.86571   1
  -5   8   2 83.4714 1.97533   1
  -5   8   2 6.71304 0.55717   2
  -4   8   2 55.6106 1.07529   2
  -4   8   2 628.058 9.67309   1
  -3   8   2 136.653 2.11967   1
  -3   8   2 11.7377 0.49364   2
  -2   8   2 6.60839 0.35687   1
  -2   8   2 0.44176 0.26436   2
  -1   8   2 83.2743 1.23300   1
  -1   8   2 7.26697 0.39510   2
   0   8   2 10.3417 0.39383   2
   0   8   2 117.105 1.70575   1
   1   8   2 11.2076 0.41703   2
   1   8   2 128.854 1.86671   1
   2   8   2 229.557 3.06413   1
   2   8   2 20.0139 0.62967   2
   3   8   2 60.7554 1.42912   2
   3   8   2 722.208 8.51271   1
   4   8   2 12.1980 0.64396   1
   4   8   2 0.95207 0.51339   2
   5   8   2 0.58883 0.69451   2
   5   8   2 26.7642 1.19118   1
   6   8   2 1.13427 0.83170   2
   6   8   2 19.0421 1.54713   1
   7   8   2 0.54776 1.51675   1
   7   8   2 0.38393 0.92902   2
  -8   9   2 128.321 4.03025   1
  -8   9   2 12.6764 1.67697   2
   7   9   2 147.167 9.39297  -2
  -8   9   2 147.167 9.39297   1
  -7   9   2 3.17204 1.00561   1
  -7   9   2 0.90567 0.97343   2
  -6   9   2 212.305 4.45618   1
  -6   9   2 17.4019 1.28638   2
  -5   9   2 101.260 2.12806   1
  -5   9   2 9.84059 0.72578   2
  -4   9   2 8.80891 0.56050   2
  -4   9   2 89.2290 1.96462   1
  -3   9   2 56.9197 1.15613   2
  -3   9   2 631.435 7.88210   1
  -2   9   2 1013.98 11.7638   1
  -2   9   2 85.0113 1.43344   2
  -1   9   2 21.0832 0.61446   2
  -1   9   2 265.074 3.47128   1
   0   9   2 661.684 8.67651   1
   0   9   2 60.3050 1.00996   2
   1   9   2 924.711 11.8671   1
   1   9   2 84.7939 1.35784   2
   2   9   2 13.3159 0.59234   2
   2   9   2 155.590 2.11963   1
   3   9   2 275.550 3.36370   1
   3   9   2 24.8991 0.95112   2
   4   9   2 297.453 4.24022   1
   4   9   2 25.8003 1.08528   2
   5   9   2 11.8436 0.98587   2
   5   9   2 131.711 3.09000   1
   6   9   2 4.32303 1.17473   1
   6   9   2 -0.3583 0.86137   2
   7   9   2 13.2706 1.68056   2
   7   9   2 198.185 5.20843   1
  -8  10   2 52.7881 2.39966   1
  -8  10   2 6.44261 1.63908   2
  -7  10   2 144.712 3.63032   1
  -7  10   2 13.6321 1.32384   2
  -6  10   2 4.18465 0.91297   2
  -6  10   2 47.3398 1.98785   1
  -5  10   2 107.182 2.37062   1
  -5  10   2 10.3725 0.77766   2
  -4  10   2 47.4700 1.19085   2
  -4  10   2 529.398 7.73405   1
  -3  10   2 404.001 5.53019   1
  -3  10   2 32.4252 0.89392   2
  -2  10   2 5.59119 0.44624   2
  -2  10   2 62.6795 1.08945   1
  -1  10   2 1204.02 13.9262   1
  -1  10   2 100.245 1.63287   2
   0  10   2 790.021 9.68822   1
   0  10   2 68.2958 1.14837   2
   1  10   2 1.57011 0.30015   2
   1  10   2 19.5180 0.70974   1
   2  10   2 910.378 11.1442   1
   2  10   2 78.2620 1.41056   2
   3  10   2 351.716 4.60713   1
   3  10   2 30.6962 1.07656   2
   4  10   2 37.1964 1.13369   1
   4  10   2 2.66489 0.59440   2
   5  10   2 222.235 4.51234   1
   5  10   2 20.6407 1.22027   2
   6  10   2 170.228 3.91336   1
   6  10   2 12.8470 1.29610   2
  -8  10   2 4.84585 9.53939  -2
   7  10   2 4.84585 9.53939   1
   7  10   2 9.30420 1.92761   1
   7  10   2 0.04316 1.06633   2
  -8  11   2 4.48012 1.57028   2
  -8  11   2 36.1695 2.29987   1
   7  11   2 44.2432 6.70782  -2
  -8  11   2 44.2432 6.70782   1
  -7  11   2 0.55456 1.06579   1
  -7  11   2 -0.3944 1.00119   2
  -6  11   2 20.4741 1.40384   1
  -6  11   2 0.88541 0.87396   2
  -5  11   2 60.6577 1.79881   1
  -5  11   2 5.47914 0.66617   2
  -4  11   2 7.46106 0.71583   1
  -4  11   2 0.50238 0.48564   2
  -3  11   2 184.390 2.82361   1
  -3  11   2 15.4706 0.72232   2
  -2  11   2 168.989 2.31453   1
  -2  11   2 14.9431 0.65806   2
  -1  11   2 113.092 1.67724   1
  -1  11   2 9.14777 0.52735   2
   0  11   2 10.8634 0.57780   2
   0  11   2 130.153 2.10181   1
   1  11   2 217.300 3.19439   1
   1  11   2 19.5411 0.70241   2
   2  11   2 21.4052 0.79058   1
   2  11   2 1.95740 0.42233   2
   3  11   2 3.80228 0.57082   2
   3  11   2 48.6786 1.25496   1
   4  11   2 6.79299 0.75486   2
   4  11   2 91.4758 1.81485   1
   5  11   2 31.8636 1.74201   1
   5  11   2 1.32836 0.72942   2
   6  11   2 14.1431 1.44918   1
   6  11   2 1.15471 0.93920   2
   7  11   2 27.9878 2.68255   1
   7  11   2 1.56800 1.27390   2
  -8  11   2 26.9182 10.1128  -2
   7  11   2 26.9182 10.1128   1
  -8  12   2 4.17754 1.53603   2
  -8  12   2 49.6778 3.42345   1
   7  12   2 46.3359 7.04851  -2
  -8  12   2 46.3359 7.04851   1
  -7  12   2 44.3184 2.02900   2
  -7  12   2 503.285 9.44364   1
  -6  12   2 90.5398 2.26266   1
  -6  12   2 9.56019 1.10703   2
  -5  12   2 75.9160 1.93142   1
  -5  12   2 6.64118 0.71813   2
  -4  12   2 39.5396 1.14915   2
  -4  12   2 472.535 7.59428   1
  -3  12   2 701.037 8.81253   1
  -3  12   2 60.5337 1.32032   2
  -2  12   2 295.896 3.99769   1
  -2  12   2 24.7115 0.82618   2
  -1  12   2 203.167 3.23253   2
  -1  12   2 2421.34 28.9518   1
   0  12   2 1210.92 15.5208   1
   0  12   2 104.063 2.01336   2
   1  12   2 52.9724 1.25982   1
   1  12   2 4.60303 0.44199   2
   2  12   2 1349.82 17.3054   1
   2  12   2 120.938 2.09973   2
   3  12   2 342.690 4.87775   1
   3  12   2 29.1283 1.16922   2
   4  12   2 0.67362 0.60639   2
   4  12   2 0.73785 0.66196   1
   5  12   2 28.0618 1.41072   2
   5  12   2 288.885 5.68418   1
   6  12   2 48.6380 2.10838   2
   6  12   2 545.796 9.87794   1
  -8  12   2 11.7542 10.0358  -2
   7  12   2 11.7542 10.0358   1
   7  12   2 -0.5731 1.60231   2
   7  12   2 18.6160 2.29126   1
  -7  13   2 -0.3932 1.05990   2
  -7  13   2 -1.5337 1.28471   1
  -6  13   2 0.55140 0.97368   2
  -6  13   2 17.3793 1.39197   1
  -5  13   2 -0.0603 0.76630   1
  -5  13   2 -0.3952 0.62915   2
  -4  13   2 46.4786 1.52696   1
  -4  13   2 4.04166 0.62606   2
  -3  13   2 103.338 1.81794   1
  -3  13   2 9.07995 0.65321   2
  -2  13   2 34.0496 1.10573   1
  -2  13   2 2.15006 0.43897   2
  -1  13   2 30.2631 1.06285   2
  -1  13   2 360.114 4.76072   1
   0  13   2 341.575 4.55550   1
   0  13   2 29.2199 0.99547   2
   1  13   2 3.99719 0.51393   2
   1  13   2 55.8074 1.33395   1
   2  13   2 0.33547 0.45093   2
   2  13   2 5.62358 0.62051   1
   3  13   2 28.5709 1.15410   1
   3  13   2 1.93857 0.59281   2
   4  13   2 15.9118 1.01096   1
   4  13   2 1.10739 0.65688   2
   5  13   2 43.2279 2.06740   1
   5  13   2 3.12661 0.90905   2
   6  13   2 0.64103 1.24297   2
   6  13   2 7.60428 1.47854   1
   7  13   2 0.29379 1.41487   2
   7  13   2 16.5357 2.29633   1
  -7  14   2 6.67665 1.57379   2
  -7  14   2 82.3595 2.98460   1
  -6  14   2 53.3756 2.10842   1
  -6  14   2 4.70268 1.48403   2
  -5  14   2 85.5167 2.41595   1
  -5  14   2 6.68956 0.79948   2
  -4  14   2 64.6605 1.55643   2
  -4  14   2 742.502 11.7224   1
  -3  14   2 114.100 2.31387   1
  -3  14   2 10.0663 0.85013   2
  -2  14   2 17.6362 1.04686   2
  -2  14   2 220.603 3.65181   1
  -1  14   2 26.9153 1.07848   2
  -1  14   2 308.002 4.47720   1
   0  14   2 40.1146 1.31063   2
   0  14   2 477.795 7.01663   1
   1  14   2 0.35850 0.56019   2
   1  14   2 9.22197 0.76289   1
   2  14   2 23.3973 1.08729   2
   2  14   2 256.253 4.16603   1
   3  14   2 665.000 8.97710   1
   3  14   2 59.4833 1.92547   2
   4  14   2 -0.1901 0.73659   1
   4  14   2 -0.2135 0.79371   2
   5  14   2 13.3564 1.28587   2
   5  14   2 131.487 4.00467   1
   6  14   2 105.523 3.84811   1
   6  14   2 6.57799 1.40162   2
  -7  15   2 11.2244 1.70629   1
  -7  15   2 -1.3268 1.40640   2
  -6  15   2 5.59726 1.44270   2
  -6  15   2 53.3997 2.19437   1
  -5  15   2 8.64789 1.02808   2
  -5  15   2 114.644 2.87437   1
  -4  15   2 0.87352 0.75977   2
  -4  15   2 13.8200 1.41186   1
  -3  15   2 18.4031 1.10232   2
  -3  15   2 231.055 3.86861   1
  -2  15   2 33.0443 1.30561   2
  -2  15   2 405.773 6.14162   1
  -1  15   2 65.0049 1.81572   1
  -1  15   2 4.91338 0.62187   2
   0  15   2 0.66473 0.54033   2
   0  15   2 7.89072 0.76300   1
   1  15   2 390.416 5.57730   1
   1  15   2 33.4969 1.26571   2
   2  15   2 100.645 2.24726   1
   2  15   2 9.36840 0.82713   2
   3  15   2 37.2876 1.54499   1
   3  15   2 2.99324 0.99040   2
   4  15   2 180.591 3.39959   1
   4  15   2 14.8489 1.36216   2
   5  15   2 23.8639 2.13173   1
   5  15   2 1.85626 1.09613   2
   6  15   2 -0.3841 1.35069   2
   6  15   2 6.23067 1.84143   1
  -7  16   2 75.8560 4.66475   1
  -6  16   2 4.35749 1.43944   1
  -6  16   2 1.69651 1.34446   2
  -5  16   2 34.2430 2.11288   1
  -5  16   2 2.59376 0.98083   2
  -4  16   2 270.320 5.48016   1
  -4  16   2 21.1390 1.26891   2
  -3  16   2 195.886 3.72164   1
  -3  16   2 17.1767 1.14044   2
  -2  16   2 0.43555 0.59768   2
  -2  16   2 7.32856 0.96198   1
  -1  16   2 30.2205 1.26235   2
  -1  16   2 360.312 5.98107   1
   0  16   2 121.036 2.25901   1
   0  16   2 10.9829 0.94299   2
   1  16   2 4.35994 0.73280   2
   1  16   2 52.0026 1.49187   1
   2  16   2 30.5284 1.46645   2
   2  16   2 354.123 5.56432   1
   3  16   2 218.455 3.87534   1
   3  16   2 15.4465 1.29541   2
   4  16   2 4.56031 1.03271   1
   4  16   2 -0.8718 1.01218   2
   5  16   2 28.7011 2.37199   1
   5  16   2 3.27412 1.22840   2
   6  16   2 42.3148 2.98367   1
   6  16   2 2.87426 1.39755   2
  -6  17   2 17.6912 2.04815   2
  -6  17   2 223.258 5.60039   1
  -5  17   2 199.090 4.58550   1
  -5  17   2 16.4191 1.42705   2
  -4  17   2 1.03765 0.86018   2
  -4  17   2 6.02284 1.30037   1
  -3  17   2 26.9867 1.36675   2
  -3  17   2 309.436 6.06557   1
  -2  17   2 515.925 8.20705   1
  -2  17   2 42.8240 1.61643   2
  -1  17   2 37.4225 1.55536   1
  -1  17   2 2.63543 0.68585   2
   0  17   2 24.7375 1.62213   2
   0  17   2 268.416 4.38030   1
   1  17   2 60.5836 1.98178   2
   1  17   2 708.987 10.2527   1
   2  17   2 7.50720 0.97837   2
   2  17   2 130.240 2.70537   1
   3  17   2 111.058 2.56875   1
   3  17   2 9.13854 1.19231   2
   4  17   2 199.918 4.16371   1
   4  17   2 14.7725 1.53502   2
   5  17   2 155.599 4.58706   1
   5  17   2 13.8428 1.56512   2
  -6  18   2 47.9833 2.71609   1
  -6  18   2 5.57453 1.67408   2
  -5  18   2 0.66285 1.09064   2
  -5  18   2 2.65534 1.41220   1
  -4  18   2 1.02713 0.91436   2
  -4  18   2 14.3495 1.57506   1
  -3  18   2 0.99705 0.86621   2
  -3  18   2 8.21273 1.35458   1
  -2  18   2 0.62737 0.76573   2
  -2  18   2 10.2715 1.13833   1
  -1  18   2 3.17605 0.77249   2
  -1  18   2 47.7036 1.80666   1
   0  18   2 2.37287 0.92995   2
   0  18   2 22.7984 1.49663   1
   1  18   2 -0.4283 0.81649   2
   1  18   2 7.45675 0.97606   1
   2  18   2 1.55835 0.93001   2
   2  18   2 16.0108 1.21424   1
   3  18   2 0.11740 1.04979   2
   3  18   2 6.70613 1.13721   1
   4  18   2 -0.6307 1.16135   2
   4  18   2 1.64080 1.24441   1
   5  18   2 4.22245 1.33851   2
   5  18   2 58.5903 3.13277   1
  -5  19   2 328.904 6.70924   1
  -5  19   2 29.2676 2.09944   2
  -4  19   2 1.44940 0.98697   2
  -4  19   2 18.8667 1.71704   1
  -3  19   2 25.8666 1.49788   2
  -3  19   2 290.340 5.91534   1
  -2  19   2 53.8098 1.87879   2
  -2  19   2 614.220 10.5001   1
  -1  19   2 79.1464 2.29621   1
  -1  19   2 6.77736 1.07030   2
   0  19   2 30.0829 1.78945   2
   0  19   2 369.331 6.22256   1
   1  19   2 54.3553 2.13300   2
   1  19   2 677.205 10.5744   1
   2  19   2 155.012 3.37451   1
   2  19   2 12.6398 1.37793   2
   3  19   2 123.569 2.84919   1
   3  19   2 10.1324 1.39796   2
   4  19   2 38.5301 2.31407   2
   4  19   2 434.568 8.37630   1
   5  19   2 3.32712 2.46719   2
  -5  20   2 11.7772 1.73426   1
  -5  20   2 1.23487 1.45314   2
  -4  20   2 152.471 3.96877   1
  -4  20   2 11.9298 1.25931   2
  -3  20   2 60.6611 2.52742   1
  -3  20   2 6.72342 1.29371   2
  -2  20   2 0.43891 0.94353   2
  -2  20   2 7.20864 1.31892   1
  -1  20   2 43.6459 1.89197   1
  -1  20   2 5.11164 1.13705   2
   0  20   2 41.2867 2.11038   1
   0  20   2 4.82610 1.09647   2
   1  20   2 4.71846 1.18314   1
   1  20   2 -0.0361 1.12956   2
   2  20   2 9.64573 1.33414   2
   2  20   2 116.812 2.92748   1
   3  20   2 138.752 3.32483   1
   3  20   2 10.6294 1.47634   2
   4  20   2 -0.9228 1.26192   2
   4  20   2 6.18416 1.77833   1
  -4  21   2 0.68515 1.11479   2
  -4  21   2 1.66456 1.39351   1
  -3  21   2 8.44995 1.21006   2
  -3  21   2 106.803 3.29968   1
  -2  21   2 17.8777 1.69748   2
  -2  21   2 194.954 4.37111   1
  -1  21   2 12.1825 1.27299   2
  -1  21   2 129.504 3.07368   1
   0  21   2 272.769 5.45612   1
   0  21   2 27.8685 2.09153   2
   1  21   2 18.0489 1.57838   2
   1  21   2 184.802 4.62580   1
   2  21   2 20.0390 1.58984   1
   2  21   2 1.68433 1.23186   2
   3  21   2 23.8359 1.70598   1
   3  21   2 2.50472 1.32670   2
  -3  22   2 8.84947 1.27857   2
  -3  22   2 80.4449 2.95775   1
  -2  22   2 2.03913 1.34841   1
  -2  22   2 -0.2212 1.13898   2
  -1  22   2 31.0385 2.24412   2
  -1  22   2 356.798 6.79088   1
   0  22   2 164.761 3.93549   1
   0  22   2 15.9995 1.74252   2
   1  22   2 0.56920 1.29255   2
   1  22   2 13.3706 1.50282   1
   2  22   2 186.417 4.04421   1
   2  22   2 15.1885 1.98820   2
   3  22   2 4.14939 1.37127   2
   3  22   2 56.8598 2.42447   1
   1  23   2 77.1985 8.12544  -2
  -2  23   2 77.1985 8.12544   1
  -2  23   2 54.1871 2.99411   1
  -2  23   2 5.71705 1.27409   2
  -1  23   2 1.83986 1.52851   1
  -1  23   2 0.99113 1.22726   2
   0  23   2 6.32238 5.79863  -2
  -1  23   2 6.32238 5.79863   1
   0  23   2 1.71483 1.39399   2
   0  23   2 3.62064 1.37326   1
   1  23   2 54.6822 2.46496   1
   1  23   2 5.37987 1.47193   2
   2  23   2 3.12541 1.53835   2
   2  23   2 15.9615 1.72053   1
  -9   0   3 -1.3946 2.23168   2
  -9   0   3 -2.0322 1.92667   1
  -8   0   3 -0.1909 1.82464   1
  -8   0   3 -0.9304 1.33158   2
   7   0   3 8.14262 8.10514  -2
  -8   0   3 8.14262 8.10514   1
  -7   0   3 1.04167 0.91174   2
   6   0   3 -0.4439 6.50903  -2
  -7   0   3 -0.4439 6.50903   1
  -7   0   3 0.54218 1.48671   1
  -6   0   3 0.22270 0.90056   1
  -6   0   3 -0.2468 0.77930   2
  -5   0   3 0.52058 0.65463   2
  -5   0   3 -0.2436 0.74833   1
  -4   0   3 -0.1202 0.50877   2
  -4   0   3 0.36096 0.27661   1
  -3   0   3 0.12947 0.42950   2
  -3   0   3 -0.1296 0.29095   1
  -2   0   3 0.17563 0.32582   2
  -2   0   3 0.23440 0.27941   1
  -1   0   3 -0.0897 0.21668   2
  -1   0   3 0.83826 0.24153   1
   0   0   3 -0.0651 0.23559   1
   0   0   3 -0.0247 0.22240   2
   1   0   3 0.01649 0.38651   1
   1   0   3 -0.2068 0.24574   2
   2   0   3 0.26038 0.45386   1
   2   0   3 0.08124 0.27368   2
   3   0   3 0.10047 0.52062   2
   3   0   3 0.09877 0.58134   1
   4   0   3 0.11904 0.65156   1
   4   0   3 0.04080 0.68281   2
   5   0   3 0.71378 0.79621   1
   5   0   3 0.74703 0.85431   2
   6   0   3 -0.0127 1.26137   2
   6   0   3 -1.3909 0.94868   1
   7   0   3 0.71471 1.51792   2
   7   0   3 0.86769 2.01706   1
   8   0   3 -2.0253 2.42189   1
   8   0   3 1.02379 1.77243   2
  -9   1   3 7.96410 1.78041   2
  -9   1   3 141.032 3.54610   1
  -8   1   3 5.57722 1.26674   2
   7   1   3 48.7956 8.80017  -2
  -8   1   3 48.7956 8.80017   1
  -8   1   3 44.0387 2.17848   1
  -7   1   3 13.5219 0.91494   2
  -7   1   3 166.997 3.73125   1
   6   1   3 174.327 11.0296  -2
  -7   1   3 174.327 11.0296   1
  -6   1   3 613.509 9.18557   1
  -6   1   3 48.2177 1.52329   2
  -5   1   3 29.5966 1.13079   2
  -5   1   3 387.272 5.55059   1
  -4   1   3 39.2848 0.85193   1
  -4   1   3 3.11853 0.43228   2
  -3   1   3 1452.90 17.4385   1
  -3   1   3 126.494 2.31997   2
  -2   1   3 98.3402 1.39340   2
  -2   1   3 1154.67 13.2155   1
  -1   1   3 8.90525 0.30112   2
  -1   1   3 93.4850 1.24787   1
   0   1   3 141.699 1.76857   2
   0   1   3 1694.31 19.4011   1
   1   1   3 181.084 2.67961   2
   1   1   3 2072.97 26.3918   1
   2   1   3 1.91110 0.22928   2
   2   1   3 31.0984 0.77020   1
   3   1   3 52.7553 1.04901   2
   3   1   3 581.485 7.71464   1
   4   1   3 516.640 6.98037   1
   4   1   3 47.3743 1.27500   2
   5   1   3 12.3291 0.92103   2
   5   1   3 140.859 2.39932   1
   6   1   3 119.871 2.27011   1
   6   1   3 10.8822 1.14964   2
   7   1   3 22.8411 1.76068   2
   7   1   3 248.921 5.44438   1
   8   1   3 2.02650 1.29059   2
   8   1   3 8.48414 1.98220   1
  -9   2   3 -1.4332 1.31895   1
  -9   2   3 0.11719 1.35664   2
  -8   2   3 30.6066 2.00637   1
  -8   2   3 1.77455 1.46279   2
   7   2   3 26.3682 8.88990  -2
  -8   2   3 26.3682 8.88990   1
  -7   2   3 8.40359 0.82434   2
  -7   2   3 116.079 2.73822   1
  -6   2   3 6.55385 0.67955   2
  -6   2   3 82.0621 1.93104   1
  -5   2   3 151.891 2.65701   1
  -5   2   3 12.3555 0.71469   2
  -4   2   3 478.729 6.11946   1
  -4   2   3 40.1395 1.03634   2
  -3   2   3 193.371 2.54476   1
  -3   2   3 14.5859 0.43943   2
  -2   2   3 86.1553 1.18854   1
  -2   2   3 7.71412 0.33276   2
  -1   2   3 22.1043 0.48194   2
  -1   2   3 250.126 3.01237   1
   0   2   3 0.43376 0.17953   2
   0   2   3 4.01440 0.24939   1
   1   2   3 352.154 4.18362   1
   1   2   3 30.5937 0.59069   2
   2   2   3 55.6603 1.12030   2
   2   2   3 647.125 7.96722   1
   3   2   3 15.3121 0.60545   2
   3   2   3 176.594 2.64642   1
   4   2   3 2.60306 0.53173   2
   4   2   3 41.1364 1.09572   1
   5   2   3 5.89515 0.79445   2
   5   2   3 77.2925 1.62425   1
   6   2   3 3.03025 0.94515   2
   6   2   3 27.3863 1.39718   1
  -8   2   3 1.14623 5.06807  -2
   7   2   3 1.14623 5.06807   1
   7   2   3 0.71105 1.12434   2
   7   2   3 0.67767 1.50027   1
  -9   3   3 3.92353 1.67800   2
  -9   3   3 29.9587 2.05175   1
  -8   3   3 2.88354 1.25278   2
  -8   3   3 35.3236 1.93540   1
  -7   3   3 7.61025 1.00096   1
  -7   3   3 0.76367 0.67814   2
  -6   3   3 255.025 4.27601   1
  -6   3   3 20.5137 1.07527   2
  -5   3   3 168.533 2.76178   1
  -5   3   3 11.9804 0.71300   2
  -4   3   3 3.58156 0.31064   2
  -4   3   3 47.5184 0.97461   1
  -3   3   3 981.824 11.8845   1
  -3   3   3 81.1741 1.26038   2
  -2   3   3 81.2288 1.14368   2
  -2   3   3 937.257 10.7792   1
  -1   3   3 13.0077 0.37298   1
  -1   3   3 1.02054 0.17721   2
   0   3   3 968.914 11.7181   1
   0   3   3 84.9867 1.20494   2
   1   3   3 68.9130 1.06383   2
   1   3   3 800.927 9.25285   1
   2   3   3 10.6790 0.37608   1
   2   3   3 0.63259 0.20100   2
   3   3   3 43.3327 1.04666   2
   3   3   3 487.335 6.14868   1
   4   3   3 40.2092 1.26316   2
   4   3   3 458.855 6.27278   1
   5   3   3 8.01842 0.71483   1
   5   3   3 0.12390 0.63418   2
   6   3   3 44.2959 1.56117   1
   6   3   3 3.50942 0.90888   2
   7   3   3 58.3613 2.51528   1
   7   3   3 5.36297 1.11030   2
  -9   4   3 -1.4617 1.18650   1
  -9   4   3 -0.9786 1.37852   2
  -8   4   3 140.472 3.36102   1
  -8   4   3 9.97601 1.34752   2
  -7   4   3 14.3245 1.18547   2
  -7   4   3 197.321 3.66475   1
  -6   4   3 9.86627 0.93004   1
  -6   4   3 0.52276 0.56865   2
  -5   4   3 14.9337 0.84031   2
  -5   4   3 171.353 3.01073   1
  -4   4   3 952.751 11.8448   1
  -4   4   3 80.0522 1.41396   2
  -3   4   3 9.52706 0.38509   2
  -3   4   3 110.704 1.60675   1
  -2   4   3 603.774 7.03515   1
  -2   4   3 51.6980 0.81711   2
  -1   4   3 109.260 1.43062   2
  -1   4   3 1236.26 14.1473   1
   0   4   3 41.2050 0.73546   2
   0   4   3 472.554 5.53912   1
   1   4   3 20.1148 0.46057   2
   1   4   3 222.535 2.75268   1
   2   4   3 137.996 1.98122   2
   2   4   3 1542.75 17.6664   1
   3   4   3 12.8035 0.64695   2
   3   4   3 135.769 1.87922   1
   4   4   3 1.89409 0.52733   1
   4   4   3 0.24830 0.52988   2
   5   4   3 24.7386 1.22882   2
   5   4   3 270.137 4.00980   1
   6   4   3 182.979 3.65570   1
   6   4   3 14.1046 1.19189   2
   7   4   3 1.85147 1.32812   1
   7   4   3 0.32165 0.96137   2
  -9   5   3 3.07191 1.38403   1
  -9   5   3 0.04151 1.43258   2
  -8   5   3 4.20150 1.41837   2
  -8   5   3 39.1503 2.02364   1
  -7   5   3 6.53924 1.01373   1
  -7   5   3 1.22910 0.83390   2
  -6   5   3 43.4499 1.48445   1
  -6   5   3 3.37199 0.62497   2
  -5   5   3 9.25531 0.67199   2
  -5   5   3 120.837 2.11574   1
  -4   5   3 2.17473 0.32691   2
  -4   5   3 30.4796 0.90113   1
  -3   5   3 36.8116 0.71456   2
  -3   5   3 438.660 5.50321   1
  -2   5   3 167.674 2.13944   1
  -2   5   3 14.4554 0.43118   2
  -1   5   3 1.59156 0.25894   2
  -1   5   3 20.1377 0.54960   1
   0   5   3 72.4164 1.00235   1
   0   5   3 6.73302 0.41719   2
   1   5   3 32.0267 0.63201   2
   1   5   3 359.767 4.31505   1
   2   5   3 0.00708 0.22863   2
   2   5   3 0.72972 0.27914   1
   3   5   3 95.1920 1.36415   1
   3   5   3 9.10353 0.60751   2
   4   5   3 266.691 3.88541   1
   4   5   3 25.4016 1.08589   2
   5   5   3 0.08661 0.67234   2
   5   5   3 2.71668 0.66162   1
   6   5   3 51.1282 1.89372   1
   6   5   3 4.84898 0.93485   2
   7   5   3 0.28390 0.93441   2
   7   5   3 4.09067 1.42776   1
   7   6   3 157.888 11.3363  -2
  -8   6   3 157.888 11.3363   1
  -8   6   3 155.432 3.90510   1
  -8   6   3 12.4068 1.55112   2
  -7   6   3 18.5751 1.46714   2
  -7   6   3 207.396 4.18452   1
  -6   6   3 39.5090 1.31135   2
  -6   6   3 470.994 7.30438   1
  -5   6   3 67.3687 1.55310   2
  -5   6   3 824.356 11.0424   1
  -4   6   3 80.7402 1.36351   2
  -4   6   3 915.376 12.1205   1
  -3   6   3 194.267 2.62136   1
  -3   6   3 16.2476 0.52101   2
  -2   6   3 1723.14 19.7093   1
  -2   6   3 148.286 1.93143   2
  -1   6   3 3002.33 36.3129   1
  -1   6   3 275.774 4.01498   2
   0   6   3 134.512 2.25909   2
   0   6   3 1458.00 17.6685   1
   1   6   3 11.1743 0.40204   2
   1   6   3 120.127 1.64011   1
   2   6   3 1298.77 14.9509   1
   2   6   3 115.535 1.77028   2
   3   6   3 1028.86 11.9593   1
   3   6   3 91.8673 1.71426   2
   4   6   3 686.430 9.65968   1
   4   6   3 63.6254 1.66056   2
   5   6   3 44.2328 1.54060   2
   5   6   3 481.344 6.72835   1
   6   6   3 338.042 6.41557   1
   6   6   3 31.7582 1.68210   2
   7   6   3 2.67192 1.12134   2
   7   6   3 19.5583 2.00385   1
  -8   7   3 77.6265 2.59696   1
  -8   7   3 5.00761 1.32548   2
  -7   7   3 -0.0518 0.92391   2
  -7   7   3 0.11844 0.95171   1
  -6   7   3 -0.1442 0.68768   2
  -6   7   3 3.95924 0.88351   1
  -5   7   3 10.2875 0.67177   2
  -5   7   3 115.544 2.26284   1
  -4   7   3 0.25061 0.33835   2
  -4   7   3 1.09244 0.48498   1
  -3   7   3 65.2987 1.07320   2
  -3   7   3 748.031 8.76046   1
  -2   7   3 14.8479 0.48325   1
  -2   7   3 1.43111 0.23034   2
  -1   7   3 3.65864 0.34891   1
  -1   7   3 0.39946 0.26681   2
   0   7   3 28.0125 0.77183   1
   0   7   3 1.58016 0.29663   2
   1   7   3 69.1842 1.13857   2
   1   7   3 776.130 8.65404   1
   2   7   3 1.99820 0.34587   1
   2   7   3 0.20131 0.26768   2
   3   7   3 13.1405 0.81118   2
   3   7   3 142.269 2.01618   1
   4   7   3 12.8402 0.93819   2
   4   7   3 144.110 2.51793   1
   5   7   3 1.09776 0.78875   1
   5   7   3 -0.3232 0.73575   2
   6   7   3 72.7642 2.39976   1
   6   7   3 3.08758 0.93102   2
   7   7   3 0.18784 1.48238   1
   7   7   3 -0.1227 1.01380   2
  -8   8   3 133.729 3.39261   1
  -8   8   3 11.1590 1.33428   2
  -7   8   3 20.7121 1.52801   2
  -7   8   3 242.796 4.38536   1
  -6   8   3 6.92387 0.84811   2
  -6   8   3 85.4660 2.31677   1
  -5   8   3 12.2494 0.82166   2
  -5   8   3 126.459 2.42949   1
  -4   8   3 703.057 10.0052   1
  -4   8   3 60.1078 1.16219   2
  -3   8   3 1.56171 0.31494   2
  -3   8   3 12.3486 0.54404   1
  -2   8   3 103.465 1.49331   1
  -2   8   3 9.60917 0.47005   2
  -1   8   3 166.318 2.81936   2
  -1   8   3 1858.12 22.4830   1
   0   8   3 106.237 1.75882   1
   0   8   3 8.91649 0.50689   2
   1   8   3 258.626 3.41642   1
   1   8   3 23.6236 0.59483   2
   2   8   3 71.2950 1.34365   2
   2   8   3 810.338 9.92863   1
   3   8   3 52.9531 1.11229   1
   3   8   3 4.27459 0.54263   2
   4   8   3 3.85120 0.64170   2
   4   8   3 54.0610 1.29534   1
   5   8   3 371.097 6.07602   1
   5   8   3 32.1293 1.53922   2
   6   8   3 90.4680 2.73197   1
   6   8   3 6.62435 0.98670   2
   7   8   3 1.18267 1.06489   2
   7   8   3 22.8053 2.10985   1
  -8   9   3 0.35667 1.13827   2
  -8   9   3 2.95676 1.28182   1
  -7   9   3 3.09730 1.00666   2
  -7   9   3 24.7288 1.62658   1
  -6   9   3 16.7746 1.11359   2
  -6   9   3 186.076 3.49446   1
  -5   9   3 1.09179 0.55728   2
  -5   9   3 12.9449 0.90566   1
  -4   9   3 43.4086 1.13636   1
  -4   9   3 3.86729 0.46565   2
  -3   9   3 28.6446 0.80251   2
  -3   9   3 335.324 4.65428   1
  -2   9   3 52.2118 1.04435   2
  -2   9   3 621.954 7.36119   1
  -1   9   3 2.97916 0.38891   1
  -1   9   3 0.49610 0.39269   2
   0   9   3 771.889 10.0907   1
   0   9   3 66.6034 1.32191   2
   1   9   3 17.8250 0.54318   2
   1   9   3 205.564 2.83338   1
   2   9   3 3.34027 0.46134   1
   2   9   3 0.61695 0.36644   2
   3   9   3 150.085 2.26956   1
   3   9   3 14.0644 0.87331   2
   4   9   3 18.2542 1.06458   2
   4   9   3 198.490 3.56394   1
   5   9   3 29.6568 1.47462   1
   5   9   3 2.07415 0.78413   2
   6   9   3 2.38215 1.15881   1
   6   9   3 -0.4104 0.89600   2
   7   9   3 7.06942 1.45353   2
   7   9   3 92.5310 3.45120   1
  -8  10   3 0.23646 1.12475   2
  -8  10   3 7.98223 1.52055   1
  -7  10   3 58.3715 2.28267   1
  -7  10   3 5.29571 1.09012   2
  -6  10   3 7.72441 1.04118   1
  -6  10   3 1.10084 0.78074   2
  -5  10   3 26.2054 1.18723   2
  -5  10   3 319.744 4.77579   1
  -4  10   3 299.338 4.22107   1
  -4  10   3 25.7900 0.88008   2
  -3  10   3 10.9004 0.62209   2
  -3  10   3 125.309 2.00174   1
  -2  10   3 6.79646 0.46457   2
  -2  10   3 74.6828 1.36042   1
  -1  10   3 24.4334 0.87445   2
  -1  10   3 290.200 4.11369   1
   0  10   3 38.3567 1.03172   1
   0  10   3 3.69178 0.42578   2
   1  10   3 285.308 3.80388   1
   1  10   3 25.8451 0.77804   2
   2  10   3 23.3035 0.81546   2
   2  10   3 268.514 3.65294   1
   3  10   3 39.7520 1.24118   2
   3  10   3 443.851 5.73248   1
   4  10   3 1.13354 0.60983   2
   4  10   3 12.3440 0.95368   1
   5  10   3 104.784 2.58209   1
   5  10   3 6.15747 1.01421   2
   6  10   3 4.49423 1.29911   1
   6  10   3 0.34216 1.17011   2
   7  10   3 0.37723 1.60763   1
   7  10   3 -0.2323 1.30627   2
  -8  11   3 5.57250 1.40809   1
  -8  11   3 -0.3344 1.52216   2
  -7  11   3 4.19755 1.21245   2
  -7  11   3 70.0994 2.54679   1
  -6  11   3 401.496 8.64998   1
  -6  11   3 32.0595 1.29028   2
  -5  11   3 281.849 5.47314   1
  -5  11   3 22.9243 1.13658   2
  -4  11   3 12.3284 0.73372   2
  -4  11   3 139.956 2.70151   1
  -3  11   3 548.667 7.48238   1
  -3  11   3 47.7975 1.29166   2
  -2  11   3 53.3946 1.41367   2
  -2  11   3 621.067 7.89293   1
  -1  11   3 1.49467 0.47513   2
  -1  11   3 28.0075 0.97020   1
   0  11   3 87.1275 1.67808   2
   0  11   3 992.628 12.9329   1
   1  11   3 59.7647 1.42062   2
   1  11   3 679.895 9.05180   1
   2  11   3 5.23206 0.61367   2
   2  11   3 61.4607 1.34236   1
   3  11   3 266.002 3.69218   1
   3  11   3 24.5987 1.36784   2
   4  11   3 454.588 7.26672   1
   4  11   3 42.0050 1.69751   2
   5  11   3 2.40072 1.03030   2
   5  11   3 49.9358 2.08487   1
   6  11   3 64.3014 2.89865   1
   6  11   3 4.26718 1.20793   2
   7  11   3 129.290 4.58736   1
   7  11   3 8.13891 1.70476   2
  -8  12   3 0.61568 1.65037   1
  -8  12   3 0.50344 1.49220   2
  -7  12   3 -0.7927 1.37744   2
  -7  12   3 0.84535 1.20570   1
  -6  12   3 2.75971 1.07938   2
  -6  12   3 20.4148 1.70391   1
  -5  12   3 -0.4328 0.88366   2
  -5  12   3 0.45998 0.85703   1
  -4  12   3 1.73184 0.60681   2
  -4  12   3 15.3897 1.00325   1
  -3  12   3 2.04885 0.53305   2
  -3  12   3 23.4465 1.00028   1
  -2  12   3 6.88790 0.74199   1
  -2  12   3 1.08292 0.47914   2
  -1  12   3 21.5268 0.95700   1
  -1  12   3 1.92074 0.49810   2
   0  12   3 2.40977 0.49747   2
   0  12   3 25.0117 1.01795   1
   1  12   3 0.60101 0.53701   2
   1  12   3 8.06969 0.68678   1
   2  12   3 40.7353 1.26573   1
   2  12   3 3.62181 0.62299   2
   3  12   3 1.91439 0.75553   1
   3  12   3 -0.3305 0.65827   2
   4  12   3 20.2098 1.53796   1
   4  12   3 1.53425 0.80569   2
   5  12   3 0.38567 1.39978   1
   5  12   3 0.41657 1.07639   2
   6  12   3 1.61740 1.59475   1
   6  12   3 -0.2634 1.16099   2
  -7  13   3 1.63287 1.41766   2
  -7  13   3 28.2055 2.02791   1
  -6  13   3 31.7350 2.08599   2
  -6  13   3 378.194 8.35033   1
  -5  13   3 32.4403 1.76037   2
  -5  13   3 343.044 6.00211   1
  -4  13   3 3.98058 0.76114   2
  -4  13   3 41.2701 1.54595   1
  -3  13   3 545.280 7.96378   1
  -3  13   3 47.6992 1.37442   2
  -2  13   3 68.0568 1.55992   2
  -2  13   3 852.828 12.0278   1
  -1  13   3 0.97142 0.64633   1
  -1  13   3 0.39275 0.51321   2
   0  13   3 110.788 2.09442   2
   0  13   3 1256.63 17.3420   1
   1  13   3 790.528 10.5212   1
   1  13   3 71.1874 1.81782   2
   2  13   3 35.8372 1.41270   1
   2  13   3 2.13193 0.75284   2
   3  13   3 423.319 6.43692   1
   3  13   3 35.3215 1.57399   2
   4  13   3 463.821 8.30222   1
   4  13   3 39.6819 1.85895   2
   5  13   3 1.63443 1.06956   2
   5  13   3 20.1084 1.96584   1
   6  13   3 4.73367 1.42579   2
   6  13   3 83.5270 3.37773   1
  -7  14   3 3.41594 1.46826   2
  -7  14   3 27.0208 2.56849   1
  -6  14   3 -0.5130 1.22048   2
  -6  14   3 10.1338 1.42066   1
  -5  14   3 84.2976 2.64644   1
  -5  14   3 7.59824 1.19615   2
  -4  14   3 123.513 2.68596   1
  -4  14   3 11.6153 0.89484   2
  -3  14   3 54.4536 1.59745   1
  -3  14   3 3.68974 0.59896   2
  -2  14   3 0.35921 0.54388   2
  -2  14   3 8.86966 0.87081   1
  -1  14   3 210.068 3.51916   1
  -1  14   3 16.7062 0.95409   2
   0  14   3 20.2343 1.14221   1
   0  14   3 1.52920 0.60043   2
  -1  14   3 17.7745 4.10452  -2
   0  14   3 17.7745 4.10452   1
   1  14   3 14.0153 1.00656   2
   1  14   3 169.664 2.86413   1
   2  14   3 152.842 2.90956   1
   2  14   3 10.7800 1.00533   2
   3  14   3 8.05253 1.04885   2
   3  14   3 111.725 2.42651   1
   4  14   3 6.86543 1.28413   1
   4  14   3 0.62575 0.94227   2
   5  14   3 2.75647 1.23335   2
   5  14   3 42.2275 2.72794   1
   6  14   3 4.06696 1.80065   1
   6  14   3 0.04272 1.33197   2
  -7  15   3 1.83274 1.72069   1
  -7  15   3 -2.2131 1.41237   2
  -6  15   3 12.5902 1.72430   2
  -6  15   3 142.880 3.88645   1
  -5  15   3 10.8360 1.36154   2
  -5  15   3 124.235 3.34472   1
  -4  15   3 2.43610 0.79695   2
  -4  15   3 19.6707 1.36942   1
  -3  15   3 45.6822 1.46947   2
  -3  15   3 560.823 9.16313   1
  -2  15   3 19.1721 1.05615   2
  -2  15   3 232.305 3.93074   1
  -1  15   3 -0.5435 0.55232   2
  -1  15   3 0.06308 0.77751   1
   0  15   3 19.8507 1.23375   2
   0  15   3 228.641 3.60297   1
   1  15   3 40.3815 1.48791   2
   1  15   3 471.563 7.06438   1
   2  15   3 5.37481 0.92176   1
   2  15   3 0.09195 0.81903   2
   3  15   3 16.1488 1.44756   2
   3  15   3 217.247 3.84851   1
   4  15   3 30.5616 1.98912   2
   4  15   3 303.869 5.98511   1
   5  15   3 -0.5512 1.62741   1
   5  15   3 -0.5902 1.28894   2
   6  15   3 36.2030 2.87753   1
   6  15   3 2.95526 1.65124   2
  -6  16   3 3.62198 1.53911   2
  -6  16   3 48.9361 2.54438   1
  -5  16   3 19.6134 1.63630   2
  -5  16   3 218.968 4.84452   1
  -4  16   3 23.1580 1.30091   2
  -4  16   3 288.052 5.80803   1
  -3  16   3 2.43609 0.75154   2
  -3  16   3 25.6323 1.69846   1
  -2  16   3 14.8911 1.03689   2
  -2  16   3 178.909 3.28121   1
  -1  16   3 35.3422 1.32598   2
  -1  16   3 408.759 6.28310   1
   0  16   3 153.272 2.74123   1
   0  16   3 12.3045 1.06916   2
   1  16   3 6.83577 0.83766   2
   1  16   3 69.6907 1.77282   1
   2  16   3 32.9067 1.72107   2
   2  16   3 367.163 5.81028   1
   3  16   3 20.3980 1.67765   2
   3  16   3 256.904 4.43085   1
   4  16   3 4.50195 1.20229   2
   4  16   3 62.9255 2.48360   1
   5  16   3 109.874 3.93148   1
   5  16   3 8.05760 1.72886   2
  -6  17   3 1.63996 1.56808   2
  -6  17   3 30.9836 2.33200   1
  -5  17   3 6.44535 1.54022   1
  -5  17   3 0.96629 1.17527   2
  -4  17   3 0.27984 0.84017   2
  -4  17   3 2.53914 1.32349   1
  -3  17   3 13.5637 1.00408   2
  -3  17   3 143.655 3.61778   1
  -2  17   3 82.0120 2.22008   1
  -2  17   3 7.38276 0.88771   2
  -1  17   3 0.51606 0.73632   2
  -1  17   3 -0.0704 0.85555   1
   0  17   3 47.3158 1.52578   1
   0  17   3 3.54393 0.80265   2
   1  17   3 113.321 2.52536   1
   1  17   3 10.0261 0.94550   2
   2  17   3 1.39289 1.04818   2
   2  17   3 10.9165 1.15301   1
   3  17   3 23.7234 1.70686   1
   3  17   3 2.26762 1.19343   2
   4  17   3 33.3646 2.20088   1
   4  17   3 1.78529 1.26431   2
   5  17   3 17.7681 2.17169   1
   5  17   3 1.02755 1.52628   2
  -6  18   3 40.4286 2.57337   1
  -6  18   3 4.82261 1.68926   2
  -5  18   3 208.603 4.86702   1
  -5  18   3 19.4107 1.68373   2
  -4  18   3 27.9572 1.71105   2
  -4  18   3 300.606 6.18396   1
  -3  18   3 4.02907 0.90883   2
  -3  18   3 40.8952 2.12659   1
  -2  18   3 20.7856 1.25027   2
  -2  18   3 257.722 4.71110   1
  -1  18   3 84.5624 2.38711   2
  -1  18   3 966.786 14.7467   1
   0  18   3 13.5417 1.22417   2
   0  18   3 193.309 3.55180   1
   1  18   3 4.90219 1.01907   2
   1  18   3 52.8916 1.83707   1
   2  18   3 32.4708 2.13274   2
   2  18   3 420.352 6.61672   1
   3  18   3 13.5826 1.55095   2
   3  18   3 182.302 3.89304   1
   4  18   3 68.6346 3.25492   1
   4  18   3 4.17019 1.37035   2
  -5  19   3 0.51648 1.33332   2
  -5  19   3 11.4940 1.77845   1
  -4  19   3 2.85489 1.45742   1
  -4  19   3 0.76222 1.02814   2
  -3  19   3 4.96130 0.98504   2
  -3  19   3 56.0735 2.46769   1
  -2  19   3 1.16936 0.91538   2
  -2  19   3 6.05806 1.13183   1
  -1  19   3 1.10538 0.94099   2
  -1  19   3 2.85212 1.10910   1
   0  19   3 5.24350 1.12196   1
   0  19   3 0.76158 0.93721   2
   1  19   3 52.1455 1.90789   1
   1  19   3 3.74523 1.20112   2
   2  19   3 -0.0491 1.03210   1
   2  19   3 -0.7837 1.15465   2
   3  19   3 3.27594 1.29775   1
   3  19   3 0.80581 1.18304   2
   4  19   3 59.9143 3.09282   1
   4  19   3 4.22053 1.43548   2
  -5  20   3 4.27592 1.62942   2
  -5  20   3 16.2970 1.89463   1
  -4  20   3 20.6783 1.52426   2
  -4  20   3 266.773 5.77774   1
  -3  20   3 1.45873 0.98459   2
  -3  20   3 14.2761 1.71995   1
  -2  20   3 10.1072 1.24303   2
  -2  20   3 110.316 2.86895   1
  -1  20   3 332.007 5.83053   1
  -1  20   3 25.0034 1.68392   2
   0  20   3 5.33045 1.14109   2
   0  20   3 64.6243 2.47778   1
   1  20   3 58.0697 2.33421   1
   1  20   3 4.83193 1.12866   2
   2  20   3 316.030 5.71246   1
   2  20   3 25.5106 1.91298   2
   3  20   3 5.66887 1.38245   1
   3  20   3 1.31444 1.29099   2
  -4  21   3 1.06464 1.29456   2
  -4  21   3 19.6738 1.91519   1
  -3  21   3 3.61179 1.10515   2
  -3  21   3 50.2294 2.55285   1
  -2  21   3 114.286 3.01816   1
  -2  21   3 9.70321 1.28683   2
  -1  21   3 0.71115 1.16520   1
  -1  21   3 0.42587 1.14308   2
   0  21   3 153.873 3.79666   1
   0  21   3 11.7992 1.30988   2
   1  21   3 24.4626 1.95926   1
   1  21   3 2.46984 1.40378   2
   2  21   3 1.11960 1.28779   2
   2  21   3 2.08992 1.31398   1
   3  21   3 12.3688 1.66824   1
   3  21   3 0.09427 1.38601   2
  -3  22   3 7.87386 1.33795   2
  -3  22   3 87.5022 3.57632   1
  -2  22   3 99.5440 3.24050   1
  -2  22   3 9.52532 1.40924   2
  -1  22   3 41.8020 2.32976   1
  -1  22   3 4.65461 1.33049   2
   0  22   3 4.55765 1.18345   2
   0  22   3 74.8815 2.64510   1
   1  22   3 72.4781 2.78566   1
   1  22   3 5.23164 1.49658   2
   2  22   3 162.510 4.09050   1
   2  22   3 13.6356 1.92805   2
  -2  23   3 131.597 3.83390   1
  -2  23   3 10.0235 1.42136   2
  -1  23   3 0.88000 1.33069   2
  -1  23   3 11.7731 1.62089   1
   0  23   3 12.6213 1.55356   2
   0  23   3 124.692 3.52631   1
   1  23   3 299.333 13.6930   1
  -9   0   4 1.59619 2.21230   2
  -9   0   4 31.1511 3.10498   1
  -8   0   4 19.8140 2.29968   2
  -8   0   4 259.211 7.17093   1
  -7   0   4 20.7495 1.62742   2
  -7   0   4 276.023 7.28152   1
  -6   0   4 1.88012 0.87718   2
  -6   0   4 13.2604 1.30305   1
  -5   0   4 19.4567 1.28936   2
  -5   0   4 252.010 5.47501   1
  -4   0   4 1330.00 21.6808   1
  -4   0   4 103.886 2.52775   2
  -3   0   4 2.27887 0.55163   2
  -3   0   4 23.1312 0.91417   1
  -2   0   4 73.4270 1.69572   2
  -2   0   4 835.360 12.5831   1
  -1   0   4 665.609 10.9287   2
  -1   0   4 7056.24 128.452   1
   0   0   4 11.3797 0.58204   1
   0   0   4 0.52402 0.33381   2
   1   0   4 1053.25 19.2185   1
   1   0   4 91.5344 2.01297   2
   2   0   4 67.9925 1.65278   2
   2   0   4 793.847 14.6952   1
   3   0   4 109.092 2.68806   1
   3   0   4 8.15676 0.94625   2
   4   0   4 386.934 7.70862   1
   4   0   4 36.8264 1.80693   2
   5   0   4 789.849 14.9930   1
   5   0   4 76.8795 3.27069   2
   6   0   4 105.815 3.18319   1
   6   0   4 6.52130 1.50324   2
   7   0   4 0.57260 1.55251   2
   7   0   4 13.9522 2.42175   1
  -9   1   4 15.0696 1.62751   1
  -9   1   4 2.58208 1.51816   2
  -8   1   4 28.2769 1.90436   1
  -8   1   4 2.15644 0.97188   2
  -7   1   4 1.07813 0.74406   2
  -7   1   4 12.8332 1.25453   1
  -6   1   4 1.54738 0.62812   2
  -6   1   4 24.5927 1.30287   1
  -5   1   4 0.18875 0.50116   2
  -5   1   4 1.65798 0.62758   1
  -4   1   4 -0.0579 0.41174   2
  -4   1   4 0.19240 0.35020   1
  -3   1   4 144.006 1.85863   1
  -3   1   4 12.3908 0.59872   2
  -2   1   4 1312.81 15.0643   1
  -2   1   4 117.716 1.78922   2
  -1   1   4 31.9889 0.57780   2
  -1   1   4 358.336 4.28718   1
   0   1   4 112.384 1.52026   1
   0   1   4 9.07143 0.39050   2
   1   1   4 19.9711 0.55841   2
   1   1   4 235.992 3.32478   1
   2   1   4 19.3394 0.69786   2
   2   1   4 234.262 3.37313   1
   3   1   4 29.4623 0.95145   1
   3   1   4 2.10219 0.49858   2
   4   1   4 6.99024 0.72584   2
   4   1   4 87.8227 1.77000   1
   5   1   4 0.68451 0.70452   1
   5   1   4 -0.7939 0.78031   2
   6   1   4 1.69174 1.00621   2
   6   1   4 23.9282 1.33597   1
   7   1   4 5.50897 1.22860   2
   7   1   4 62.8164 2.70815   1
  -9   2   4 17.1469 1.72330   1
  -9   2   4 0.83729 1.34185   2
  -8   2   4 7.72657 1.12686   2
  -8   2   4 99.5134 2.78939   1
  -7   2   4 114.547 2.80030   1
  -7   2   4 10.5939 0.92716   2
  -6   2   4 1.63639 0.64870   2
  -6   2   4 10.5363 0.96724   1
  -5   2   4 64.8085 1.54008   2
  -5   2   4 850.309 12.4126   1
  -4   2   4 286.391 3.85973   1
  -4   2   4 21.9651 0.78848   2
  -3   2   4 0.68874 0.29023   1
  -3   2   4 -0.1785 0.32787   2
  -2   2   4 1295.47 14.8726   1
  -2   2   4 114.178 1.62882   2
  -1   2   4 26.9305 0.56479   2
  -1   2   4 319.666 3.85606   1
   0   2   4 69.7262 1.11808   1
   0   2   4 5.08236 0.31866   2
   1   2   4 338.864 4.32684   1
   1   2   4 29.8953 0.68006   2
   2   2   4 885.728 11.5510   1
   2   2   4 76.4856 1.25976   2
   3   2   4 13.6908 0.88522   2
   3   2   4 158.131 2.51431   1
   4   2   4 236.895 3.58328   1
   4   2   4 20.2717 1.13982   2
   5   2   4 162.384 2.77614   1
   5   2   4 13.9800 1.07365   2
   6   2   4 63.3479 1.73121   1
   6   2   4 5.18464 1.05224   2
   7   2   4 1.10021 1.11365   2
   7   2   4 12.7580 1.61948   1
  -9   3   4 2.86433 1.51555   2
  -9   3   4 50.6625 2.46218   1
  -8   3   4 -1.3758 0.96534   2
  -8   3   4 0.38963 1.17660   1
  -7   3   4 10.1739 1.08322   1
  -7   3   4 0.25943 0.71749   2
  -6   3   4 285.793 5.06684   1
  -6   3   4 23.9934 1.17870   2
  -5   3   4 1.60187 0.55012   2
  -5   3   4 18.2795 1.09405   1
  -4   3   4 26.1222 0.90551   2
  -4   3   4 332.057 4.66266   1
  -3   3   4 560.173 6.61550   1
  -3   3   4 46.6116 0.88822   2
  -2   3   4 321.443 3.90601   1
  -2   3   4 27.7320 0.62634   2
  -1   3   4 4.59739 0.30069   2
  -1   3   4 50.8572 0.84721   1
   0   3   4 64.5479 1.03377   2
   0   3   4 748.880 9.17143   1
   1   3   4 192.607 2.45824   1
   1   3   4 16.4365 0.53157   2
   2   3   4 13.2768 0.69606   1
   2   3   4 1.22851 0.28392   2
   3   3   4 32.7581 1.13274   2
   3   3   4 364.804 5.09500   1
   4   3   4 30.4204 1.25801   2
   4   3   4 340.230 4.87409   1
   5   3   4 8.59151 0.81154   1
   5   3   4 0.08797 0.76368   2
   6   3   4 65.1722 1.79376   1
   6   3   4 6.15619 1.07330   2
   7   3   4 11.9548 1.71094   1
   7   3   4 0.01856 1.13114   2
  -9   4   4 1.07363 3.07721   1
  -8   4   4 5.06415 1.14649   2
  -8   4   4 55.3479 2.34965   1
  -7   4   4 21.3825 1.45837   1
  -7   4   4 1.92474 0.76178   2
  -6   4   4 0.69238 0.60802   2
  -6   4   4 20.9398 1.33881   1
  -5   4   4 356.500 5.61081   1
  -5   4   4 27.5221 1.04481   2
  -4   4   4 19.8397 0.78859   2
  -4   4   4 253.197 3.52811   1
  -3   4   4 0.53168 0.22713   2
  -3   4   4 7.07335 0.44290   1
  -2   4   4 17.5365 0.48575   2
  -2   4   4 193.321 2.46943   1
  -1   4   4 6.16559 0.32202   2
  -1   4   4 71.2018 1.08307   1
   0   4   4 14.8686 0.47662   1
   0   4   4 1.17327 0.24043   2
   1   4   4 39.7230 0.73718   2
   1   4   4 451.433 5.38486   1
   2   4   4 551.180 6.85330   1
   2   4   4 48.6679 0.92588   2
   3   4   4 25.1760 0.93280   1
   3   4   4 2.08217 0.46239   2
   4   4   4 2.23667 0.65953   1
   4   4   4 0.06397 0.61661   2
   5   4   4 111.928 2.17615   1
   5   4   4 8.12537 0.94226   2
   6   4   4 0.92566 1.06597   1
   6   4   4 0.11843 0.97049   2
   7   4   4 0.66741 1.11269   2
   7   4   4 4.04141 1.63287   1
  -8   5   4 -1.0016 1.06880   2
  -8   5   4 1.28493 1.03105   1
  -7   5   4 17.6059 1.09388   2
  -7   5   4 237.135 4.28139   1
  -6   5   4 40.6978 1.38493   2
  -6   5   4 509.725 8.39278   1
  -5   5   4 92.9705 2.04189   1
  -5   5   4 7.15545 0.68826   2
  -4   5   4 28.7813 0.83963   2
  -4   5   4 334.274 4.73660   1
  -3   5   4 1051.71 12.1811   1
  -3   5   4 88.1409 1.31270   2
  -2   5   4 159.750 2.11074   1
  -2   5   4 12.5018 0.43994   2
  -1   5   4 240.214 3.19480   1
  -1   5   4 21.5720 0.66682   2
   0   5   4 1659.73 18.9937   1
   0   5   4 148.627 2.34512   2
   1   5   4 460.930 5.50829   1
   1   5   4 38.5136 0.76272   2
   2   5   4 -0.1483 0.33893   2
   2   5   4 3.50262 0.45767   1
   3   5   4 69.6590 1.48953   2
   3   5   4 792.523 10.4726   1
   4   5   4 229.738 3.51553   1
   4   5   4 19.8317 1.08413   2
   5   5   4 0.30833 0.72015   1
   5   5   4 -0.9854 0.77219   2
   6   5   4 6.52688 1.09067   2
   6   5   4 83.3512 2.60541   1
   7   5   4 152.543 4.48708   1
   7   5   4 9.46913 1.29128   2
  -8   6   4 -0.2309 1.08913   2
  -8   6   4 -0.5762 1.19128   1
  -7   6   4 -0.6290 0.81272   2
  -7   6   4 2.21581 0.90833   1
  -6   6   4 0.68459 0.62665   2
  -6   6   4 0.40437 0.81780   1
  -5   6   4 1.46739 0.55832   2
  -5   6   4 9.84147 0.87954   1
  -4   6   4 3.83494 0.49542   2
  -4   6   4 45.2505 1.11162   1
  -3   6   4 0.89526 0.36408   1
  -3   6   4 -0.0496 0.27775   2
  -2   6   4 1.14702 0.23999   2
  -2   6   4 13.3050 0.49374   1
  -1   6   4 2.69424 0.36713   1
  -1   6   4 0.12249 0.31712   2
   0   6   4 8.94969 0.35233   1
   0   6   4 0.73278 0.33466   2
   1   6   4 0.81193 0.27397   2
   1   6   4 7.60703 0.43811   1
   2   6   4 1.19999 0.37379   2
   2   6   4 18.9085 0.70486   1
   3   6   4 0.39630 0.48939   2
   3   6   4 2.35313 0.56494   1
   4   6   4 1.98328 0.68204   1
   4   6   4 0.72668 0.66336   2
   5   6   4 0.17296 0.75816   2
   5   6   4 1.83214 0.78073   1
   6   6   4 0.59878 0.90524   2
   6   6   4 0.71098 1.15863   1
   7   6   4 17.3018 1.99772   1
   7   6   4 0.59181 1.30762   2
  -8   7   4 1.09745 1.11073   2
  -8   7   4 4.89785 1.42451   1
  -7   7   4 15.5424 1.16184   2
  -7   7   4 194.337 4.63530   1
  -6   7   4 454.702 7.76090   1
  -6   7   4 35.3479 1.27884   2
  -5   7   4 188.039 3.26234   1
  -5   7   4 15.6809 0.89872   2
  -4   7   4 19.8545 0.86697   2
  -4   7   4 249.298 3.72721   1
  -3   7   4 1293.57 15.8213   1
  -3   7   4 109.410 1.57764   2
  -2   7   4 187.842 2.63451   1
  -2   7   4 15.9111 0.62774   2
  -1   7   4 218.617 2.99112   1
  -1   7   4 19.3283 0.69467   2
   0   7   4 1457.88 17.7455   1
   0   7   4 133.508 2.19432   2
   1   7   4 819.360 9.58491   1
   1   7   4 72.7585 1.37919   2
   2   7   4 2.46746 0.46370   2
   2   7   4 23.9728 0.82700   1
   3   7   4 703.278 9.90808   1
   3   7   4 63.8328 1.56629   2
   4   7   4 322.001 4.95947   1
   4   7   4 28.9067 1.35824   2
   5   7   4 0.88270 0.88851   1
   5   7   4 0.15767 0.79353   2
   6   7   4 9.89815 1.43749   2
   6   7   4 170.042 3.99540   1
   7   7   4 105.189 3.81546   1
   7   7   4 4.27964 1.54255   2
  -8   8   4 0.49124 1.39759   2
  -8   8   4 8.56501 1.54919   1
  -7   8   4 0.85957 0.88909   2
  -7   8   4 16.7806 1.50636   1
  -6   8   4 0.25739 0.68968   2
  -6   8   4 3.98981 1.08482   1
  -5   8   4 376.241 6.26321   1
  -5   8   4 29.4675 1.11758   2
  -4   8   4 107.829 2.18585   1
  -4   8   4 9.06213 0.67704   2
  -3   8   4 6.40676 0.60321   1
  -3   8   4 1.00296 0.43676   2
  -2   8   4 13.0830 0.75197   2
  -2   8   4 161.433 2.35658   1
  -1   8   4 38.7597 1.00552   1
  -1   8   4 2.25490 0.45356   2
   0   8   4 6.17643 0.55879   1
   0   8   4 -0.1831 0.35113   2
   1   8   4 17.1240 0.68086   2
   1   8   4 201.197 2.84963   1
   2   8   4 379.565 5.22222   1
   2   8   4 32.9548 1.18706   2
   3   8   4 71.5347 1.61766   1
   3   8   4 5.15933 0.73852   2
   4   8   4 0.50861 0.89519   2
   4   8   4 9.33779 0.86296   1
   5   8   4 54.9783 1.87453   1
   5   8   4 1.83845 1.02185   2
   6   8   4 1.48843 1.22945   1
   6   8   4 -0.0205 1.12648   2
  -8   9   4 4.63083 1.44162   1
  -8   9   4 -1.5980 1.46337   2
  -7   9   4 64.6579 2.58888   1
  -7   9   4 4.86919 1.43318   2
  -6   9   4 10.0380 1.17636   2
  -6   9   4 114.654 3.14630   1
  -5   9   4 3.17376 0.78635   2
  -5   9   4 31.8347 1.42737   1
  -4   9   4 8.28364 0.83672   2
  -4   9   4 84.5871 1.95999   1
  -3   9   4 731.707 9.74082   1
  -3   9   4 63.6417 1.42982   2
  -2   9   4 31.8842 1.00006   2
  -2   9   4 410.707 5.35219   1
  -1   9   4 11.6560 0.72468   2
  -1   9   4 131.088 2.28317   1
   0   9   4 44.8905 1.17349   2
   0   9   4 532.446 7.15648   1
   1   9   4 443.588 6.06755   1
   1   9   4 36.4690 0.95988   2
   2   9   4 201.294 3.11381   1
   2   9   4 17.1547 1.02204   2
   3   9   4 175.160 3.30873   1
   3   9   4 15.9912 1.19751   2
   4   9   4 25.2519 1.71173   2
   4   9   4 256.613 4.15563   1
   5   9   4 0.44886 1.06187   2
   5   9   4 1.18638 1.06763   1
   6   9   4 126.994 3.96485   1
   6   9   4 7.27498 1.40095   2
  -8  10   4 8.20895 1.71851   2
  -8  10   4 89.5515 3.03078   1
  -7  10   4 66.5978 2.53898   1
  -7  10   4 6.11880 1.46241   2
  -6  10   4 4.30841 1.13317   2
  -6  10   4 34.7023 2.01450   1
  -5  10   4 183.498 3.61536   1
  -5  10   4 16.5556 1.17081   2
  -4  10   4 417.230 6.45867   1
  -4  10   4 32.8427 1.41483   2
  -3  10   4 1.04820 0.55629   1
  -3  10   4 0.11320 0.50985   2
  -2  10   4 590.449 7.91130   1
  -2  10   4 51.4412 1.39440   2
  -1  10   4 60.2382 1.36981   2
  -1  10   4 693.071 9.81789   1
   0  10   4 1.39527 0.47986   2
   0  10   4 19.1960 0.92669   1
   1  10   4 32.5269 1.03504   2
   1  10   4 376.615 5.28035   1
   2  10   4 49.8994 1.58849   2
   2  10   4 555.169 8.04099   1
   3  10   4 2.95918 0.72229   2
   3  10   4 53.7415 1.54016   1
   4  10   4 5.01169 1.02257   2
   4  10   4 81.0907 2.38840   1
   5  10   4 154.167 3.64037   1
   5  10   4 16.0446 1.68203   2
   6  10   4 71.6072 3.21221   1
   6  10   4 5.46348 1.35388   2
  -8  11   4 18.7972 1.83924   1
  -8  11   4 0.37926 1.53626   2
  -7  11   4 9.88557 1.37541   1
  -7  11   4 1.04029 1.33793   2
  -6  11   4 3.42015 0.96899   2
  -6  11   4 34.8546 2.11152   1
  -5  11   4 0.76650 0.94854   2
  -5  11   4 4.58329 0.93328   1
  -4  11   4 18.5660 1.19807   1
  -4  11   4 2.21547 0.72071   2
  -3  11   4 219.883 3.64351   1
  -3  11   4 18.7258 0.95795   2
  -2  11   4 109.337 2.17024   1
  -1  11   4 25.5609 1.00027   1
  -1  11   4 2.05021 0.53058   2
   0  11   4 67.7453 1.50993   1
   0  11   4 5.60707 0.57896   2
   1  11   4 105.576 1.99439   1
   1  11   4 9.28699 0.78843   2
   2  11   4 3.29293 0.73561   2
   2  11   4 27.5722 1.24752   1
   3  11   4 7.98156 0.86115   2
   3  11   4 102.764 2.40504   1
   4  11   4 1.65091 1.02893   2
   4  11   4 20.8568 1.59750   1
   5  11   4 4.90100 1.30852   1
   5  11   4 0.76515 1.17906   2
   6  11   4 28.7151 2.28852   1
   6  11   4 1.06859 1.33708   2
  -7  12   4 115.574 3.47142   1
  -7  12   4 9.86955 1.68600   2
  -6  12   4 9.58094 1.32937   1
  -6  12   4 0.68039 1.15688   2
  -5  12   4 178.761 3.45643   1
  -5  12   4 15.3452 1.36565   2
  -4  12   4 64.3526 1.86815   2
  -4  12   4 740.179 12.8252   1
  -3  12   4 26.8046 1.47355   1
  -3  12   4 1.58988 0.60675   2
  -2  12   4 679.909 9.72948   1
  -2  12   4 57.8271 1.46507   2
  -1  12   4 1710.96 21.9961   1
  -1  12   4 148.534 2.81954   2
   0  12   4 89.1730 1.81373   1
   0  12   4 7.91094 0.95182   2
   1  12   4 501.914 6.93751   1
   1  12   4 47.1266 1.48424   2
   2  12   4 64.0410 2.08232   2
   2  12   4 609.884 8.87904   1
   3  12   4 27.3516 1.68724   1
   3  12   4 2.23103 0.77498   2
   4  12   4 135.211 3.32011   1
   4  12   4 9.09214 1.23405   2
   5  12   4 45.4080 2.52069   2
   5  12   4 488.719 10.2530   1
   6  12   4 3.09743 1.37448   2
   6  12   4 83.4536 3.61222   1
  -7  13   4 -0.3952 1.43262   2
  -7  13   4 13.0962 1.83985   1
  -6  13   4 0.98979 1.16067   2
  -6  13   4 1.50201 1.38686   1
  -5  13   4 -0.8896 0.94862   2
  -5  13   4 0.44640 1.07495   1
  -4  13   4 4.00668 1.05714   1
  -4  13   4 0.50875 0.69522   2
  -3  13   4 5.90934 0.69113   2
  -3  13   4 73.4439 2.12765   1
  -2  13   4 252.761 4.13996   1
  -2  13   4 19.6184 1.04868   2
  -1  13   4 84.6956 1.80513   1
  -1  13   4 6.95993 0.69547   2
   0  13   4 12.8125 0.90573   1
   0  13   4 1.58687 0.70003   2
   1  13   4 11.0996 0.93819   2
   1  13   4 126.119 2.34889   1
   2  13   4 100.990 2.26815   1
   2  13   4 7.99938 0.99588   2
   3  13   4 0.23732 0.81210   2
   3  13   4 3.22620 1.18589   1
   4  13   4 2.35330 1.12672   2
   4  13   4 36.4712 2.03037   1
   5  13   4 -0.5394 1.18666   2
   5  13   4 7.34719 1.81576   1
   6  13   4 0.38850 3.93862   2
  -7  14   4 49.2451 2.85999   1
  -7  14   4 2.93547 1.64270   2
  -6  14   4 0.00780 1.20888   2
  -6  14   4 7.11214 1.60432   1
  -5  14   4 38.4781 2.01513   2
  -5  14   4 469.281 8.61879   1
  -4  14   4 11.9485 1.06610   2
  -4  14   4 141.473 3.22912   1
  -3  14   4 -0.6995 0.63262   2
  -3  14   4 1.25598 1.01106   1
  -2  14   4 713.440 10.2859   1
  -2  14   4 59.5101 1.59858   2
  -1  14   4 5.06260 0.68838   2
  -1  14   4 67.8593 1.83292   1
   0  14   4 6.69868 0.79075   2
   0  14   4 87.0664 1.91903   1
   1  14   4 165.064 2.88053   1
   1  14   4 14.2669 1.01354   2
   2  14   4 43.7530 1.91853   2
   2  14   4 495.841 7.47263   1
   3  14   4 36.2416 1.90264   1
   3  14   4 1.79832 0.90526   2
   4  14   4 5.94189 1.17551   2
   4  14   4 98.1698 2.97467   1
   5  14   4 4.53533 1.44284   2
   5  14   4 70.7821 3.30366   1
  -7  15   4 14.8696 2.41501   1
  -7  15   4 1.22020 1.74770   2
  -6  15   4 77.3725 3.49102   1
  -6  15   4 4.70856 1.38114   2
  -5  15   4 0.40523 1.11413   2
  -5  15   4 2.14964 1.22105   1
  -4  15   4 146.463 3.37273   1
  -4  15   4 11.3806 1.13434   2
  -3  15   4 30.4010 1.34433   2
  -3  15   4 362.658 6.37658   1
  -2  15   4 0.38458 0.64643   2
  -2  15   4 7.80931 0.94767   1
  -1  15   4 0.30999 0.66641   2
  -1  15   4 2.75331 0.84470   1
   0  15   4 15.2666 1.17947   2
   0  15   4 179.850 3.07041   1
   1  15   4 6.33695 0.82041   2
   1  15   4 81.4796 1.94465   1
   2  15   4 1.39271 0.93251   2
   2  15   4 0.12284 1.01245   1
   3  15   4 165.288 3.92166   1
   3  15   4 9.28748 1.22013   2
   4  15   4 55.1458 2.43477   1
   4  15   4 4.26594 1.20880   2
   5  15   4 4.38062 1.88452   1
   5  15   4 -1.1639 1.50397   2
  -6  16   4 7.54640 1.99823   1
  -6  16   4 1.29635 1.47475   2
  -5  16   4 108.548 3.03643   1
  -5  16   4 9.62667 1.38327   2
  -4  16   4 169.354 3.79449   1
  -4  16   4 15.3613 1.41604   2
  -3  16   4 10.0748 1.27232   1
  -3  16   4 0.06063 0.69302   2
  -2  16   4 59.4114 1.89524   1
  -2  16   4 4.05716 0.76128   2
  -1  16   4 27.2264 1.55020   2
  -1  16   4 328.881 5.30758   1
   0  16   4 0.95404 0.75061   2
   0  16   4 3.44327 0.82353   1
   1  16   4 18.2992 1.45806   2
   1  16   4 199.973 3.40531   1
   2  16   4 208.274 4.12804   1
   2  16   4 16.9586 1.53270   2
   3  16   4 17.9429 1.67844   1
   3  16   4 0.89520 1.03816   2
   4  16   4 0.92074 1.18512   2
   4  16   4 2.77342 1.47537   1
   5  16   4 6.18540 1.69875   2
   5  16   4 92.5712 3.87260   1
  -6  17   4 9.83311 1.76034   2
  -6  17   4 124.690 4.33395   1
  -5  17   4 41.5351 2.44793   1
  -5  17   4 5.31043 1.27132   2
  -4  17   4 102.528 3.21187   1
  -4  17   4 9.10467 1.27304   2
  -3  17   4 385.469 6.81607   1
  -3  17   4 30.3749 1.46945   2
  -2  17   4 8.19185 0.92438   2
  -2  17   4 103.445 2.65807   1
  -1  17   4 8.86302 1.00090   2
  -1  17   4 98.1891 2.39240   1
   0  17   4 36.3039 1.62181   2
   0  17   4 478.063 7.30411   1
   1  17   4 233.073 3.84143   1
   1  17   4 20.4407 1.52885   2
   2  17   4 10.9276 1.28676   1
   2  17   4 -0.0179 1.00710   2
   3  17   4 237.743 5.14472   1
   3  17   4 19.4789 1.81845   2
   4  17   4 6.25513 1.48074   2
   4  17   4 82.0932 3.05352   1
  -5  18   4 0.31817 1.29669   2
  -5  18   4 4.75432 1.59968   1
  -4  18   4 0.62523 1.20829   2
  -4  18   4 13.5537 1.67218   1
  -3  18   4 7.25518 1.51067   1
  -3  18   4 1.47822 0.93139   2
  -2  18   4 1.35485 0.84429   2
  -2  18   4 2.52486 1.00251   1
  -1  18   4 53.6684 1.96818   1
  -1  18   4 2.69305 0.85391   2
   0  18   4 2.13605 1.03661   1
   0  18   4 0.35598 0.85571   2
   1  18   4 3.29562 1.06847   1
   1  18   4 0.20742 1.02848   2
   2  18   4 -1.1358 1.23243   2
   2  18   4 7.04363 1.26928   1
   3  18   4 0.36704 1.30354   2
   3  18   4 17.3185 1.74185   1
   4  18   4 3.70444 1.40512   2
   4  18   4 44.5136 2.63181   1
  -5  19   4 91.8076 3.35372   1
  -5  19   4 9.34863 1.54221   2
  -4  19   4 6.59664 1.41301   2
  -4  19   4 86.6657 3.16855   1
  -3  19   4 362.573 7.19535   1
  -3  19   4 29.5402 1.56707   2
  -2  19   4 184.753 3.88017   1
  -2  19   4 15.5858 1.27278   2
  -1  19   4 7.56579 1.01324   2
  -1  19   4 95.9952 2.50583   1
   0  19   4 535.368 8.18155   1
   0  19   4 46.2828 2.34105   2
   1  19   4 20.1653 2.28668   2
   1  19   4 254.596 4.84084   1
   2  19   4 13.1146 1.49421   1
   2  19   4 2.24731 1.30740   2
   3  19   4 258.554 5.58265   1
   3  19   4 19.0533 1.87471   2
  -4  20   4 5.15596 1.40739   2
  -4  20   4 63.2103 2.86211   1
  -3  20   4 0.35841 1.11417   2
  -3  20   4 4.19042 1.48786   1
  -2  20   4 60.2610 2.63003   1
  -2  20   4 5.86621 1.12784   2
  -1  20   4 1.31991 1.07312   2
  -1  20   4 19.3196 1.54934   1
   0  20   4 0.08650 1.03022   2
   0  20   4 5.73500 1.45028   1
   1  20   4 45.6665 2.16070   1
   1  20   4 3.84696 1.32504   2
   2  20   4 8.44554 1.51054   2
   2  20   4 135.298 3.37297   1
   3  20   4 17.1981 1.91671   1
   3  20   4 0.39564 1.38608   2
  -3  21   4 124.995 3.76721   1
  -3  21   4 8.89313 1.47814   2
  -2  21   4 170.285 4.32701   1
  -2  21   4 14.8358 1.47362   2
  -1  21   4 3.66175 1.19091   2
  -1  21   4 54.4536 2.29109   1
   0  21   4 17.5569 1.70614   2
   0  21   4 196.318 4.47173   1
   1  21   4 50.8831 2.55568   1
   1  21   4 2.97297 1.49566   2
   2  21   4 4.18901 1.47687   2
   2  21   4 22.1906 2.17631   1
  -2  22   4 80.6476 3.05844   1
  -2  22   4 7.96860 1.33533   2
  -1  22   4 301.596 6.04615   1
  -1  22   4 23.7720 1.81871   2
   0  22   4 4.23177 1.50812   1
   0  22   4 0.06760 1.43162   2
   1  22   4 108.230 5.46547   1
   1  22   4 10.4142 3.38399   2
   6   0   5 0.44804 2.56180  -2
  -8   0   5 0.44804 2.56180   1
   5   0   5 1.88997 2.29289  -2
  -7   0   5 1.88997 2.29289   1
   4   0   5 -1.4774 1.75338  -2
  -6   0   5 -1.4774 1.75338   1
   3   0   5 0.25195 1.27876  -2
  -5   0   5 0.25195 1.27876   1
   2   0   5 1.26787 1.13038  -2
  -4   0   5 1.26787 1.13038   1
   1   0   5 -1.0294 0.66982  -2
  -3   0   5 -1.0294 0.66982   1
   0   0   5 0.35189 0.58378  -2
  -2   0   5 0.35189 0.58378   1
  -1   0   5 0.12326 0.51729  -2
  -1   0   5 0.12326 0.51729   1
  -2   0   5 0.38913 0.75934  -2
   0   0   5 0.38913 0.75934   1
  -3   0   5 -0.5263 0.80619  -2
   1   0   5 -0.5263 0.80619   1
  -4   0   5 1.47858 1.04183  -2
   2   0   5 1.47858 1.04183   1
  -5   0   5 0.60386 1.27369  -2
   3   0   5 0.60386 1.27369   1
  -6   0   5 -0.9206 1.43998  -2
   4   0   5 -0.9206 1.43998   1
  -7   0   5 0.00764 1.73108  -2
   5   0   5 0.00764 1.73108   1
  -8   0   5 1.36904 2.06103  -2
   6   0   5 1.36904 2.06103   1
   6   1   5 25.9532 2.12396  -2
  -8   1   5 25.9532 2.12396   1
   5   1   5 403.657 7.06430  -2
  -7   1   5 403.657 7.06430   1
   4   1   5 246.992 4.28413  -2
  -6   1   5 246.992 4.28413   1
   3   1   5 44.7592 1.39552  -2
  -5   1   5 44.7592 1.39552   1
   2   1   5 465.708 7.46927  -2
  -4   1   5 465.708 7.46927   1
   1   1   5 852.841 9.96162  -2
  -3   1   5 852.841 9.96162   1
   0   1   5 129.771 1.79630  -2
  -2   1   5 129.771 1.79630   1
  -1   1   5 737.482 9.19435  -2
  -1   1   5 737.482 9.19435   1
  -2   1   5 1259.02 15.4729  -2
   0   1   5 1259.02 15.4729   1
  -3   1   5 265.413 4.01346  -2
   1   1   5 265.413 4.01346   1
  -4   1   5 253.191 3.70857  -2
   2   1   5 253.191 3.70857   1
  -5   1   5 381.197 5.39452  -2
   3   1   5 381.197 5.39452   1
  -6   1   5 228.817 3.62354  -2
   4   1   5 228.817 3.62354   1
  -7   1   5 72.8603 1.96654  -2
   5   1   5 72.8603 1.96654   1
  -8   1   5 176.255 3.25413  -2
   6   1   5 176.255 3.25413   1
   6   2   5 81.8882 2.71828  -2
  -8   2   5 81.8882 2.71828   1
   5   2   5 10.6653 1.69487  -2
  -7   2   5 10.6653 1.69487   1
   4   2   5 51.9337 1.71744  -2
  -6   2   5 51.9337 1.71744   1
   3   2   5 197.748 3.24537  -2
  -5   2   5 197.748 3.24537   1
   2   2   5 131.345 2.17197  -2
  -4   2   5 131.345 2.17197   1
   1   2   5 47.5130 0.99055  -2
  -3   2   5 47.5130 0.99055   1
   0   2   5 248.503 3.13073  -2
  -2   2   5 248.503 3.13073   1
  -1   2   5 19.8379 0.59640  -2
  -1   2   5 19.8379 0.59640   1
  -2   2   5 49.2615 1.01872  -2
   0   2   5 49.2615 1.01872   1
  -3   2   5 342.048 4.74372  -2
   1   2   5 342.048 4.74372   1
  -4   2   5 192.333 2.95812  -2
   2   2   5 192.333 2.95812   1
  -5   2   5 25.2992 1.14906  -2
   3   2   5 25.2992 1.14906   1
  -6   2   5 7.80639 1.11938  -2
   4   2   5 7.80639 1.11938   1
  -7   2   5 64.9142 1.82220  -2
   5   2   5 64.9142 1.82220   1
  -8   2   5 12.9310 1.56139  -2
   6   2   5 12.9310 1.56139   1
   6   3   5 9.98068 1.87772  -2
  -8   3   5 9.98068 1.87772   1
   5   3   5 53.9477 2.10300  -2
  -7   3   5 53.9477 2.10300   1
   4   3   5 136.386 2.82057  -2
  -6   3   5 136.386 2.82057   1
   3   3   5 39.7220 1.43000  -2
  -5   3   5 39.7220 1.43000   1
   2   3   5 371.322 5.21824  -2
  -4   3   5 371.322 5.21824   1
   1   3   5 539.934 7.09129  -2
  -3   3   5 539.934 7.09129   1
   0   3   5 111.814 1.61092  -2
  -2   3   5 111.814 1.61092   1
  -1   3   5 207.813 2.79929  -2
  -1   3   5 207.813 2.79929   1
  -2   3   5 500.757 6.28886  -2
   0   3   5 500.757 6.28886   1
  -3   3   5 176.949 2.90703  -2
   1   3   5 176.949 2.90703   1
  -4   3   5 280.743 4.06335  -2
   2   3   5 280.743 4.06335   1
  -5   3   5 398.345 5.59817  -2
   3   3   5 398.345 5.59817   1
  -6   3   5 57.6800 1.59560  -2
   4   3   5 57.6800 1.59560   1
  -7   3   5 10.9718 1.31002  -2
   5   3   5 10.9718 1.31002   1
  -8   3   5 85.4976 2.49344  -2
   6   3   5 85.4976 2.49344   1
   6   4   5 106.070 3.51373  -2
  -8   4   5 106.070 3.51373   1
   5   4   5 24.4420 1.98078  -2
  -7   4   5 24.4420 1.98078   1
   4   4   5 98.8891 2.35005  -2
  -6   4   5 98.8891 2.35005   1
   3   4   5 348.341 5.88339  -2
  -5   4   5 348.341 5.88339   1
   2   4   5 206.895 3.14465  -2
  -4   4   5 206.895 3.14465   1
   1   4   5 136.469 2.11422  -2
  -3   4   5 136.469 2.11422   1
   0   4   5 705.439 9.20737  -2
  -2   4   5 705.439 9.20737   1
  -1   4   5 522.881 6.55115  -2
  -1   4   5 522.881 6.55115   1
  -2   4   5 100.829 1.47784  -2
   0   4   5 100.829 1.47784   1
  -3   4   5 635.169 8.43065  -2
   1   4   5 635.169 8.43065   1
  -4   4   5 392.112 5.91236  -2
   2   4   5 392.112 5.91236   1
  -5   4   5 30.7041 1.16020  -2
   3   4   5 30.7041 1.16020   1
  -6   4   5 148.689 2.62160  -2
   4   4   5 148.689 2.62160   1
  -7   4   5 139.126 2.87646  -2
   5   4   5 139.126 2.87646   1
  -8   4   5 19.5146 2.01658  -2
   6   4   5 19.5146 2.01658   1
   6   5   5 2.43047 2.15875  -2
  -8   5   5 2.43047 2.15875   1
   5   5   5 12.4194 1.85246  -2
  -7   5   5 12.4194 1.85246   1
   4   5   5 228.341 4.52836  -2
  -6   5   5 228.341 4.52836   1
   3   5   5 59.2337 2.04527  -2
  -5   5   5 59.2337 2.04527   1
   2   5   5 83.7001 1.79428  -2
  -4   5   5 83.7001 1.79428   1
   1   5   5 157.558 2.32277  -2
  -3   5   5 157.558 2.32277   1
   0   5   5 72.2641 1.37304  -2
  -2   5   5 72.2641 1.37304   1
  -1   5   5 28.2033 0.87786  -2
  -1   5   5 28.2033 0.87786   1
  -2   5   5 148.097 2.17129  -2
   0   5   5 148.097 2.17129   1
  -3   5   5 18.8997 0.89507  -2
   1   5   5 18.8997 0.89507   1
  -4   5   5 7.74941 0.82608  -2
   2   5   5 7.74941 0.82608   1
  -5   5   5 448.690 6.57928  -2
   3   5   5 448.690 6.57928   1
  -6   5   5 21.2857 1.28912  -2
   4   5   5 21.2857 1.28912   1
  -7   5   5 12.3225 1.36468  -2
   5   5   5 12.3225 1.36468   1
  -8   5   5 16.2803 2.43068  -2
   6   5   5 16.2803 2.43068   1
   6   6   5 163.279 4.96723  -2
  -8   6   5 163.279 4.96723   1
   5   6   5 215.125 4.58889  -2
  -7   6   5 215.125 4.58889   1
   4   6   5 113.846 2.95353  -2
  -6   6   5 113.846 2.95353   1
   3   6   5 584.167 10.4516  -2
  -5   6   5 584.167 10.4516   1
   2   6   5 583.096 8.57761  -2
  -4   6   5 583.096 8.57761   1
   1   6   5 514.442 6.95932  -2
  -3   6   5 514.442 6.95932   1
   0   6   5 1219.45 15.6952  -2
  -2   6   5 1219.45 15.6952   1
  -1   6   5 930.901 13.0575  -2
  -1   6   5 930.901 13.0575   1
  -2   6   5 163.678 2.37351  -2
   0   6   5 163.678 2.37351   1
  -3   6   5 978.646 13.7381  -2
   1   6   5 978.646 13.7381   1
  -4   6   5 846.019 12.8172  -2
   2   6   5 846.019 12.8172   1
  -5   6   5 65.4570 2.14060  -2
   3   6   5 65.4570 2.14060   1
  -6   6   5 542.819 8.63065  -2
   4   6   5 542.819 8.63065   1
  -7   6   5 446.279 7.37607  -2
   5   6   5 446.279 7.37607   1
  -8   6   5 15.9728 2.46228  -2
   6   6   5 15.9728 2.46228   1
   6   7   5 3.42068 2.77003  -2
  -8   7   5 3.42068 2.77003   1
   5   7   5 48.9645 2.68461  -2
  -7   7   5 48.9645 2.68461   1
   4   7   5 206.512 4.77067  -2
  -6   7   5 206.512 4.77067   1
   3   7   5 48.8006 2.24048  -2
  -5   7   5 48.8006 2.24048   1
   2   7   5 64.7278 1.76186  -2
  -4   7   5 64.7278 1.76186   1
   1   7   5 191.461 2.76554  -2
  -3   7   5 191.461 2.76554   1
   0   7   5 16.2194 0.78074  -2
  -2   7   5 16.2194 0.78074   1
  -1   7   5 16.8300 0.76096  -2
  -1   7   5 16.8300 0.76096   1
  -2   7   5 161.944 2.54993  -2
   0   7   5 161.944 2.54993   1
  -3   7   5 46.0079 1.43431  -2
   1   7   5 46.0079 1.43431   1
  -4   7   5 5.46543 1.09344  -2
   2   7   5 5.46543 1.09344   1
  -5   7   5 471.159 8.45758  -2
   3   7   5 471.159 8.45758   1
  -6   7   5 27.5706 1.64112  -2
   4   7   5 27.5706 1.64112   1
  -7   7   5 4.86098 1.93167  -2
   5   7   5 4.86098 1.93167   1
  -8   7   5 38.1277 2.72187  -2
   6   7   5 38.1277 2.72187   1
   6   8   5 93.9310 3.51573  -2
  -8   8   5 93.9310 3.51573   1
   5   8   5 8.49950 2.20498  -2
  -7   8   5 8.49950 2.20498   1
   4   8   5 142.236 3.87711  -2
  -6   8   5 142.236 3.87711   1
   3   8   5 397.296 9.97242  -2
  -5   8   5 397.296 9.97242   1
   2   8   5 36.5467 1.38151  -2
  -4   8   5 36.5467 1.38151   1
   1   8   5 31.8653 1.07732  -2
  -3   8   5 31.8653 1.07732   1
   0   8   5 844.140 11.0618  -2
  -2   8   5 844.140 11.0618   1
  -1   8   5 565.800 8.10185  -2
  -1   8   5 565.800 8.10185   1
  -2   8   5 318.930 4.79326  -2
   0   8   5 318.930 4.79326   1
  -3   8   5 301.739 5.02604  -2
   1   8   5 301.739 5.02604   1
  -4   8   5 161.278 3.11969  -2
   2   8   5 161.278 3.11969   1
  -5   8   5 57.1291 1.81858  -2
   3   8   5 57.1291 1.81858   1
  -6   8   5 170.897 3.48344  -2
   4   8   5 170.897 3.48344   1
  -7   8   5 69.5293 2.58229  -2
   5   8   5 69.5293 2.58229   1
  -8   8   5 63.1438 3.16969  -2
   6   8   5 63.1438 3.16969   1
   6   9   5 8.12535 2.46042  -2
  -8   9   5 8.12535 2.46042   1
   5   9   5 151.949 4.28355  -2
  -7   9   5 151.949 4.28355   1
   4   9   5 11.2608 1.93466  -2
  -6   9   5 11.2608 1.93466   1
   3   9   5 6.40064 1.59005  -2
  -5   9   5 6.40064 1.59005   1
   2   9   5 277.624 4.57313  -2
  -4   9   5 277.624 4.57313   1
   1   9   5 244.472 4.05014  -2
  -3   9   5 244.472 4.05014   1
   0   9   5 96.5017 1.80602  -2
  -2   9   5 96.5017 1.80602   1
  -1   9   5 295.270 4.52737  -2
  -1   9   5 295.270 4.52737   1
  -2   9   5 202.050 3.12727  -2
   0   9   5 202.050 3.12727   1
  -3   9   5 79.8327 2.16690  -2
   1   9   5 79.8327 2.16690   1
  -4   9   5 228.893 4.11783  -2
   2   9   5 228.893 4.11783   1
  -5   9   5 57.6893 1.90688  -2
   3   9   5 57.6893 1.90688   1
  -6   9   5 104.053 2.94480  -2
   4   9   5 104.053 2.94480   1
  -7   9   5 13.2881 2.05881  -2
   5   9   5 13.2881 2.05881   1
  -8   9   5 46.9760 3.00793  -2
   6   9   5 46.9760 3.00793   1
  -8  10   5 30.0066 5.41780   1
   5  10   5 16.5278 2.30565  -2
  -7  10   5 16.5278 2.30565   1
   4  10   5 37.9986 2.25913  -2
  -6  10   5 37.9986 2.25913   1
   3  10   5 282.954 4.78868  -2
  -5  10   5 282.954 4.78868   1
   2  10   5 92.6351 2.19069  -2
  -4  10   5 92.6351 2.19069   1
  -4  10   5 -0.2568 2.00003   2
   1  10   5 27.5598 1.44696  -2
  -3  10   5 27.5598 1.44696   1
  -3  10   5 1.53682 1.86751   2
   0  10   5 208.605 3.22651  -2
  -2  10   5 208.605 3.22651   1
  -1  10   5 76.6555 1.72159  -2
  -1  10   5 76.6555 1.72159   1
  -2  10   5 54.0627 1.39182  -2
   0  10   5 54.0627 1.39182   1
  -3  10   5 170.431 3.56563  -2
   1  10   5 170.431 3.56563   1
   1  10   5 190.149 8.94316   1
  -4  10   5 282.387 5.36593  -2
   2  10   5 282.387 5.36593   1
   2  10   5 290.993 12.5580   1
  -5  10   5 29.7451 1.59683  -2
   3  10   5 29.7451 1.59683   1
   3  10   5 27.2264 3.35926   1
  -6  10   5 58.0010 2.75145  -2
   4  10   5 58.0010 2.75145   1
  -7  10   5 42.6432 2.40153  -2
   5  10   5 42.6432 2.40153   1
   5  11   5 215.658 5.18339  -2
  -7  11   5 215.658 5.18339   1
   4  11   5 259.304 5.59627  -2
  -6  11   5 259.304 5.59627   1
   3  11   5 41.4596 1.90284  -2
  -5  11   5 41.4596 1.90284   1
  -5  11   5 3.12190 2.26670   2
   2  11   5 282.573 5.08092  -2
  -4  11   5 282.573 5.08092   1
  -4  11   5 1.18289 2.10752   2
   1  11   5 396.006 6.65305  -2
  -3  11   5 396.006 6.65305   1
  -3  11   5 -0.8298 2.10205   2
   0  11   5 84.1898 1.92478  -2
  -2  11   5 84.1898 1.92478   1
  -1  11   5 495.420 7.82548  -2
  -1  11   5 495.420 7.82548   1
  -2  11   5 661.507 8.89948  -2
   0  11   5 661.507 8.89948   1
  -3  11   5 90.4732 2.44965  -2
   1  11   5 90.4732 2.44965   1
   1  11   5 96.8124 5.79160   1
  -4  11   5 54.5984 2.04108  -2
   2  11   5 54.5984 2.04108   1
   2  11   5 50.7449 4.14680   1
  -5  11   5 362.040 6.70316  -2
   3  11   5 362.040 6.70316   1
   3  11   5 329.651 14.0527   1
  -6  11   5 142.838 4.10339  -2
   4  11   5 142.838 4.10339   1
  -7  11   5 71.6182 2.84856  -2
   5  11   5 71.6182 2.84856   1
   5  12   5 11.6607 2.45929  -2
  -7  12   5 11.6607 2.45929   1
   4  12   5 4.58303 2.22454  -2
  -6  12   5 4.58303 2.22454   1
   3  12   5 1.78484 1.60772  -2
  -5  12   5 1.78484 1.60772   1
  -5  12   5 -0.8408 2.06626   2
   2  12   5 19.6269 1.55799  -2
  -4  12   5 19.6269 1.55799   1
  -4  12   5 0.82528 2.22425   2
   1  12   5 3.90966 1.31239  -2
  -3  12   5 3.90966 1.31239   1
  -3  12   5 -0.0659 1.93424   2
   0  12   5 2.91264 1.06475  -2
  -2  12   5 2.91264 1.06475   1
  -1  12   5 41.7693 1.40638  -2
  -1  12   5 41.7693 1.40638   1
  -2  12   5 -0.1021 0.85343  -2
   0  12   5 -0.1021 0.85343   1
  -3  12   5 20.3058 1.35628  -2
   1  12   5 20.3058 1.35628   1
   1  12   5 18.5666 3.05206   1
  -4  12   5 10.8713 1.61029  -2
   2  12   5 10.8713 1.61029   1
   2  12   5 13.7085 2.90834   1
  -5  12   5 5.49734 1.63650  -2
   3  12   5 5.49734 1.63650   1
  -6  12   5 8.70168 1.89909  -2
   4  12   5 8.70168 1.89909   1
  -7  12   5 2.43610 2.38931  -2
   5  12   5 2.43610 2.38931   1
   5  13   5 144.362 4.68064  -2
  -7  13   5 144.362 4.68064   1
   4  13   5 264.186 6.53445  -2
  -6  13   5 264.186 6.53445   1
   3  13   5 40.5116 2.05320  -2
  -5  13   5 40.5116 2.05320   1
   2  13   5 218.062 4.32135  -2
  -4  13   5 218.062 4.32135   1
  -4  13   5 -1.1861 1.80559   2
   1  13   5 514.498 8.47724  -2
  -3  13   5 514.498 8.47724   1
   0  13   5 151.685 2.88857  -2
  -2  13   5 151.685 2.88857   1
  -1  13   5 466.486 6.98049  -2
  -1  13   5 466.486 6.98049   1
  -2  13   5 845.800 11.2830  -2
   0  13   5 845.800 11.2830   1
  -3  13   5 138.592 2.74210  -2
   1  13   5 138.592 2.74210   1
  -4  13   5 133.167 3.30837  -2
   2  13   5 133.167 3.30837   1
   2  13   5 128.041 6.94077   1
  -5  13   5 393.962 7.34544  -2
   3  13   5 393.962 7.34544   1
  -6  13   5 105.031 3.17784  -2
   4  13   5 105.031 3.17784   1
  -7  13   5 54.5624 3.18801  -2
   5  13   5 54.5624 3.18801   1
   4  14   5 15.4099 2.52008  -2
  -6  14   5 15.4099 2.52008   1
  -5  14   5 78.6963 7.03908   1
   3  14   5 94.6447 2.82933  -2
  -5  14   5 94.6447 2.82933   1
   2  14   5 24.6459 1.77297  -2
  -4  14   5 24.6459 1.77297   1
  -4  14   5 0.52275 1.91771   2
   1  14   5 13.4474 1.61091  -2
  -3  14   5 13.4474 1.61091   1
   0  14   5 116.585 2.69678  -2
  -2  14   5 116.585 2.69678   1
  -1  14   5 103.090 2.33241  -2
  -1  14   5 103.090 2.33241   1
  -2  14   5 84.2615 1.94194  -2
   0  14   5 84.2615 1.94194   1
  -3  14   5 71.3139 1.98209  -2
   1  14   5 71.3139 1.98209   1
  -4  14   5 111.274 3.07415  -2
   2  14   5 111.274 3.07415   1
   2  14   5 104.378 6.32389   1
   3  14   5 -0.7245 3.72558   2
  -5  14   5 14.8343 1.87002  -2
   3  14   5 14.8343 1.87002   1
  -6  14   5 10.9732 2.10321  -2
   4  14   5 10.9732 2.10321   1
   4  15   5 128.652 4.12856  -2
  -6  15   5 128.652 4.12856   1
   3  15   5 33.4105 2.17787  -2
  -5  15   5 33.4105 2.17787   1
  -5  15   5 20.7044 4.52438   1
   2  15   5 210.637 4.34284  -2
  -4  15   5 210.637 4.34284   1
   1  15   5 248.157 4.80773  -2
  -3  15   5 248.157 4.80773   1
   0  15   5 34.7713 1.71199  -2
  -2  15   5 34.7713 1.71199   1
  -1  15   5 87.5258 2.21764  -2
  -1  15   5 87.5258 2.21764   1
  -2  15   5 235.145 3.80353  -2
   0  15   5 235.145 3.80353   1
  -3  15   5 86.3745 2.64068  -2
   1  15   5 86.3745 2.64068   1
  -4  15   5 89.5336 2.85129  -2
   2  15   5 89.5336 2.85129   1
  -5  15   5 315.623 6.27142  -2
   3  15   5 315.623 6.27142   1
   3  15   5 1.14208 3.14301   2
  -6  15   5 23.3985 2.33248  -2
   4  15   5 23.3985 2.33248   1
   4  16   5 44.8526 3.18600  -2
  -6  16   5 44.8526 3.18600   1
   3  16   5 201.645 4.78431  -2
  -5  16   5 201.645 4.78431   1
  -5  16   5 170.895 10.5910   1
   2  16   5 75.1727 2.57988  -2
  -4  16   5 75.1727 2.57988   1
   1  16   5 70.0283 2.43761  -2
  -3  16   5 70.0283 2.43761   1
   0  16   5 207.588 4.05802  -2
  -2  16   5 207.588 4.05802   1
  -1  16   5 200.271 3.70581  -2
  -1  16   5 200.271 3.70581   1
  -2  16   5 28.1509 1.61878  -2
   0  16   5 28.1509 1.61878   1
  -3  16   5 185.939 4.18892  -2
   1  16   5 185.939 4.18892   1
  -4  16   5 257.547 5.34916  -2
   2  16   5 257.547 5.34916   1
  -5  16   5 20.6495 2.18962  -2
   3  16   5 20.6495 2.18962   1
   3  16   5 -0.9706 3.32575   2
  -6  16   5 144.296 3.99749  -2
   4  16   5 144.296 3.99749   1
  -5  17   5 0.81533 3.41518   1
   3  17   5 3.67561 2.22048  -2
  -5  17   5 3.67561 2.22048   1
   2  17   5 47.7712 2.36367  -2
  -4  17   5 47.7712 2.36367   1
   1  17   5 80.2558 2.68494  -2
  -3  17   5 80.2558 2.68494   1
   0  17   5 23.1419 1.75079  -2
  -2  17   5 23.1419 1.75079   1
  -1  17   5 40.6747 1.78093  -2
  -1  17   5 40.6747 1.78093   1
  -2  17   5 48.9260 1.89422  -2
   0  17   5 48.9260 1.89422   1
  -3  17   5 10.4040 1.78796  -2
   1  17   5 10.4040 1.78796   1
  -4  17   5 31.1796 2.28519  -2
   2  17   5 31.1796 2.28519   1
  -5  17   5 26.1833 2.25508  -2
   3  17   5 26.1833 2.25508   1
   3  17   5 -1.0368 3.22720   2
   3  18   5 160.340 4.37226  -2
  -5  18   5 160.340 4.37226   1
   2  18   5 150.456 4.06427  -2
  -4  18   5 150.456 4.06427   1
   1  18   5 110.933 3.15289  -2
  -3  18   5 110.933 3.15289   1
   0  18   5 445.532 8.53731  -2
  -2  18   5 445.532 8.53731   1
  -1  18   5 258.247 4.84200  -2
  -1  18   5 258.247 4.84200   1
  -2  18   5 49.0854 1.94510  -2
   0  18   5 49.0854 1.94510   1
  -3  18   5 331.249 7.15029  -2
   1  18   5 331.249 7.15029   1
  -4  18   5 152.523 3.95211  -2
   2  18   5 152.523 3.95211   1
  -5  18   5 13.7375 2.16405  -2
   3  18   5 13.7375 2.16405   1
   2  19   5 9.15195 2.34618  -2
  -4  19   5 9.15195 2.34618   1
   1  19   5 9.96341 2.62246  -2
  -3  19   5 9.96341 2.62246   1
   0  19   5 21.9088 2.31426  -2
  -2  19   5 21.9088 2.31426   1
  -1  19   5 5.66328 1.45529  -2
  -1  19   5 5.66328 1.45529   1
  -2  19   5 15.9959 1.66023  -2
   0  19   5 15.9959 1.66023   1
  -3  19   5 2.38274 1.83570  -2
   1  19   5 2.38274 1.83570   1
  -4  19   5 4.06788 2.05143  -2
   2  19   5 4.06788 2.05143   1
   1  20   5 20.5419 2.87328  -2
  -3  20   5 20.5419 2.87328   1
   0  20   5 254.145 5.65150  -2
  -2  20   5 254.145 5.65150   1
  -1  20   5 111.019 3.02724  -2
  -1  20   5 111.019 3.02724   1
  -2  20   5 55.9145 2.53228  -2
   0  20   5 55.9145 2.53228   1
  -3  20   5 122.602 3.88670  -2
   1  20   5 122.602 3.88670   1
   0  21   5 15.8012 2.84731  -2
  -2  21   5 15.8012 2.84731   1
  -1  21   5 94.7737 3.09558  -2
  -1  21   5 94.7737 3.09558   1
  -2  21   5 23.7598 2.37474  -2
   0  21   5 23.7598 2.37474   1
  -8   0   6 182.849 5.94357   1
  -8   0   6 12.1986 1.60631   2
  -7   0   6 7.15389 1.78191   1
  -7   0   6 0.41502 1.15535   2
  -6   0   6 14.0934 1.51296   2
  -6   0   6 154.079 4.72706   1
  -5   0   6 385.010 8.12048   1
  -5   0   6 31.8554 1.69724   2
  -4   0   6 5.48806 0.89044   2
  -4   0   6 66.4570 2.05318   1
  -3   0   6 2.48464 0.73267   2
  -3   0   6 30.7391 1.25199   1
  -2   0   6 295.793 7.03158   2
  -2   0   6 3270.51 59.2591   1
  -1   0   6 10.0431 0.75473   2
  -1   0   6 130.934 2.65464   1
   0   0   6 117.322 2.81750   1
   0   0   6 11.5410 0.92944   2
   1   0   6 96.7436 2.88215   2
   1   0   6 1139.14 20.9941   1
   2   0   6 5.34343 0.92592   2
   2   0   6 97.7438 2.66551   1
   3   0   6 2.61062 1.01809   2
   3   0   6 35.1854 1.80889   1
   4   0   6 46.8129 2.71320   2
   4   0   6 496.340 9.93228   1
   5   0   6 166.276 4.29691   1
   5   0   6 13.1465 1.96914   2
   6   0   6 4.76742 1.57827   1
   6   0   6 2.14704 1.78780   2
  -8   1   6 -0.3866 1.42335   1
  -8   1   6 0.08021 0.95860   2
  -7   1   6 0.02990 0.85122   2
  -7   1   6 11.7898 1.42877   1
  -6   1   6 -0.5930 0.71604   2
  -6   1   6 1.14348 0.98601   1
  -5   1   6 1.99083 0.65789   2
  -5   1   6 29.2228 1.30387   1
  -4   1   6 120.668 2.26580   1
  -4   1   6 10.3840 0.72197   2
  -3   1   6 9.58634 0.65363   2
  -3   1   6 104.120 1.65396   1
  -2   1   6 12.1964 0.68538   2
  -2   1   6 142.703 2.15357   1
  -1   1   6 259.416 3.31908   1
  -1   1   6 21.8491 0.69357   2
   0   1   6 8.59893 0.53232   2
   0   1   6 110.978 1.92481   1
   1   1   6 48.2489 1.22807   1
   1   1   6 3.66963 0.46713   2
   2   1   6 21.3132 1.02774   1
   2   1   6 1.81832 0.60579   2
   3   1   6 5.12615 0.83770   2
   3   1   6 67.5572 1.65266   1
   4   1   6 2.28043 0.89147   2
   4   1   6 24.2895 1.33766   1
   5   1   6 21.7470 1.37699   1
   5   1   6 2.52672 1.24583   2
   6   1   6 22.0568 1.52458   1
   6   1   6 1.36046 1.40862   2
  -8   2   6 2.41577 1.04107   2
  -8   2   6 32.4787 2.39476   1
  -7   2   6 7.88887 1.44011   1
  -7   2   6 1.03232 0.85024   2
  -6   2   6 239.171 4.72740   1
  -6   2   6 15.9906 1.00277   2
  -5   2   6 364.430 5.93267   1
  -5   2   6 27.7996 1.11958   2
  -4   2   6 10.8901 0.74049   1
  -4   2   6 0.45814 0.53143   2
  -3   2   6 464.815 5.38738   1
  -3   2   6 38.6066 1.09759   2
  -2   2   6 222.193 3.07531   1
  -2   2   6 19.2485 0.75908   2
  -1   2   6 16.9841 0.63587   2
  -1   2   6 200.027 2.65607   1
   0   2   6 197.379 2.99319   1
   0   2   6 17.2672 0.76612   2
   1   2   6 27.9081 0.84245   2
   1   2   6 319.977 4.57023   1
   2   2   6 21.7400 1.26815   2
   2   2   6 252.362 3.80620   1
   3   2   6 2.72129 0.90102   2
   3   2   6 38.6955 1.31425   1
   4   2   6 192.630 3.25773   1
   4   2   6 15.3235 1.58641   2
   5   2   6 5.43994 1.33843   2
   5   2   6 59.2910 1.88506   1
   6   2   6 -0.2241 1.34631   2
   6   2   6 8.92569 1.28045   1
  -8   3   6 0.07065 1.15110   2
  -8   3   6 1.49352 1.53042   1
  -7   3   6 6.11314 1.04912   2
  -7   3   6 89.0233 3.04703   1
  -6   3   6 4.06496 0.93311   2
  -6   3   6 59.7271 2.19514   1
  -5   3   6 82.9231 2.28267   1
  -5   3   6 7.52136 0.85057   2
  -4   3   6 254.648 4.14027   1
  -4   3   6 21.6945 1.07314   2
  -3   3   6 24.4128 0.98906   2
  -3   3   6 279.903 3.82397   1
  -2   3   6 0.37140 0.45525   1
  -2   3   6 -0.1130 0.45071   2
  -1   3   6 26.7178 0.80461   2
  -1   3   6 321.349 4.22645   1
   0   3   6 10.9134 0.64922   2
   0   3   6 144.361 2.54971   1
   1   3   6 0.80048 0.64218   1
   1   3   6 -0.4407 0.46980   2
   2   3   6 7.46880 0.79270   2
   2   3   6 110.278 2.26457   1
   3   3   6 410.967 6.32724   1
   3   3   6 37.6463 1.87730   2
   4   3   6 -0.3991 1.02896   2
   4   3   6 0.53751 0.93360   1
   5   3   6 12.2957 1.26676   1
   5   3   6 1.67334 1.25869   2
   6   3   6 40.3239 2.23490   1
   6   3   6 5.23137 1.61239   2
  -8   4   6 3.58641 1.15505   2
  -8   4   6 58.6760 2.78627   1
  -7   4   6 0.55799 1.01703   2
  -7   4   6 4.31692 1.51066   1
  -6   4   6 6.33411 1.01596   2
  -6   4   6 88.6227 2.56815   1
  -5   4   6 150.651 3.26572   1
  -5   4   6 13.7682 1.12217   2
  -4   4   6 28.7975 1.11842   1
  -4   4   6 1.59539 0.67295   2
  -3   4   6 10.2295 0.78104   2
  -3   4   6 120.116 1.96069   1
  -2   4   6 88.0063 1.46473   1
  -2   4   6 8.29998 0.61851   2
  -1   4   6 2.92695 0.49149   2
  -1   4   6 37.6234 0.98475   1
   0   4   6 122.904 2.11469   1
   0   4   6 11.1479 0.65885   2
   1   4   6 17.9080 1.08776   2
   1   4   6 206.132 3.44407   1
   2   4   6 119.910 2.41604   1
   2   4   6 10.2784 1.01384   2
   3   4   6 12.7295 1.08300   1
   3   4   6 0.82373 0.90724   2
   4   4   6 26.3598 1.61541   1
   4   4   6 1.93616 1.07044   2
   5   4   6 1.25778 1.18057   2
   5   4   6 8.09771 1.21917   1
  -8   5   6 4.16117 1.30486   2
  -8   5   6 54.8418 2.71718   1
  -7   5   6 19.4446 1.44184   2
  -7   5   6 242.350 5.00947   1
  -6   5   6 12.7656 1.16417   2
  -6   5   6 182.302 3.95411   1
  -5   5   6 9.29429 1.00236   2
  -5   5   6 104.605 2.66264   1
  -4   5   6 412.102 6.33606   1
  -4   5   6 34.0341 1.67671   2
  -3   5   6 21.9554 1.00149   2
  -3   5   6 260.635 3.44280   1
  -2   5   6 40.7693 1.05943   1
  -2   5   6 3.36943 0.52368   2
  -1   5   6 629.267 7.96933   1
  -1   5   6 56.0648 1.31830   2
   0   5   6 47.3479 1.22014   2
   0   5   6 552.261 8.04369   1
   1   5   6 23.7316 1.16116   1
   1   5   6 1.15814 0.56195   2
   2   5   6 330.418 5.54584   1
   2   5   6 30.8462 1.44870   2
   3   5   6 16.1118 1.37701   2
   3   5   6 189.386 3.66835   1
   4   5   6 32.8740 1.67487   1
   4   5   6 1.61428 1.06926   2
   5   5   6 83.1165 2.46495   1
   5   5   6 7.68218 1.42266   2
  -8   6   6 1.25684 1.18081   2
  -8   6   6 1.01552 1.57821   1
  -7   6   6 0.27850 1.19220   1
  -7   6   6 1.63052 1.06997   2
  -6   6   6 7.55307 1.20793   1
  -6   6   6 0.86225 0.89781   2
  -5   6   6 -0.2340 0.81943   2
  -5   6   6 4.63873 0.92772   1
  -4   6   6 1.48809 0.76517   2
  -4   6   6 12.3389 0.91073   1
  -3   6   6 -0.0517 0.65231   2
  -3   6   6 5.72016 0.62857   1
  -2   6   6 0.01088 0.46319   2
  -2   6   6 2.85489 0.54779   1
  -1   6   6 0.32785 0.46849   2
  -1   6   6 0.21685 0.49845   1
   0   6   6 6.09747 0.79346   1
   0   6   6 0.89273 0.49554   2
   1   6   6 1.85615 0.63475   2
   1   6   6 34.5213 1.40951   1
   2   6   6 0.24803 0.76044   2
   2   6   6 1.84729 0.84702   1
   3   6   6 -0.5309 0.91101   1
   3   6   6 0.03516 0.91663   2
   4   6   6 0.59716 1.03603   2
   4   6   6 2.33311 1.05146   1
   5   6   6 1.11949 1.11859   2
   5   6   6 3.77601 1.19825   1
  -8   7   6 2.54577 1.39444   2
  -8   7   6 30.9757 2.85126   1
  -7   7   6 224.614 5.36161   1
  -7   7   6 15.8549 1.35912   2
  -6   7   6 13.4016 1.23172   2
  -6   7   6 168.765 3.83987   1
  -5   7   6 23.8678 1.55850   1
  -5   7   6 2.26518 0.92778   2
  -4   7   6 40.5588 1.47067   2
  -4   7   6 496.539 7.56771   1
  -3   7   6 28.2615 1.28825   2
  -3   7   6 356.506 5.21571   1
  -2   7   6 4.23856 0.65897   2
  -2   7   6 48.0728 1.32577   1
  -1   7   6 530.544 7.20148   1
  -1   7   6 48.8159 1.30918   2
   0   7   6 60.7103 1.54465   2
   0   7   6 686.651 10.5912   1
   1   7   6 2.04219 0.69205   2
   1   7   6 23.8884 1.27882   1
   2   7   6 339.140 5.74019   1
   2   7   6 30.8033 1.39375   2
   3   7   6 24.8380 1.91289   2
   3   7   6 281.137 5.02538   1
   4   7   6 18.7072 1.45891   1
   4   7   6 1.15411 1.21138   2
   5   7   6 92.6849 2.96515   1
   5   7   6 6.01800 1.36077   2
  -7   8   6 -0.5564 1.21209   2
  -7   8   6 1.39016 1.40703   1
  -6   8   6 6.81724 1.10524   2
  -6   8   6 79.0324 2.65264   1
  -5   8   6 129.349 3.16014   1
  -5   8   6 9.87174 1.06209   2
  -4   8   6 6.41439 0.91014   1
  -4   8   6 0.98753 0.81202   2
  -3   8   6 85.3784 2.01059   1
  -3   8   6 6.60010 0.88696   2
  -2   8   6 3.17398 0.65388   2
  -2   8   6 39.8686 1.25800   1
  -1   8   6 38.4537 1.19038   1
  -1   8   6 2.74224 0.63423   2
   0   8   6 88.4985 2.13648   1
   0   8   6 7.33299 0.69343   2
   1   8   6 93.7087 2.10188   1
   1   8   6 7.38164 0.83553   2
   2   8   6 13.4738 1.09017   2
   2   8   6 153.769 3.16310   1
   3   8   6 9.56031 1.16958   1
   3   8   6 0.06634 1.02697   2
   4   8   6 37.4868 1.89375   1
   4   8   6 1.54999 1.27923   2
   5   8   6 0.22501 1.34070   2
   5   8   6 2.54977 1.39089   1
  -7   9   6 80.6764 2.84650   1
  -7   9   6 4.47660 1.37094   2
  -6   9   6 5.86703 1.34633   1
  -6   9   6 -0.4741 1.01463   2
  -5   9   6 -0.2935 0.81278   2
  -5   9   6 1.35727 1.13734   1
  -4   9   6 331.232 5.79703   1
  -4   9   6 27.5538 1.42370   2
  -3   9   6 291.786 5.14914   1
  -3   9   6 25.1114 1.38473   2
  -2   9   6 1.01874 0.67885   1
  -2   9   6 0.15053 0.61856   2
  -1   9   6 25.3443 1.11512   2
  -1   9   6 291.898 4.30213   1
   0   9   6 275.612 4.79510   1
   0   9   6 24.3166 1.10999   2
   1   9   6 1.14965 0.80673   2
   1   9   6 8.49735 1.00945   1
   2   9   6 144.442 3.09647   1
   2   9   6 12.6588 1.13737   2
   3   9   6 203.169 3.97327   1
   3   9   6 17.0971 1.64908   2
   4   9   6 -0.6481 1.27361   2
   4   9   6 10.9587 1.32289   1
   5   9   6 0.87478 1.40206   2
   5   9   6 17.6229 1.69949   1
  -7  10   6 2.46044 1.56837   1
  -7  10   6 0.16194 1.26306   2
  -6  10   6 4.80561 1.12960   2
  -6  10   6 68.4126 3.09873   1
  -5  10   6 16.5099 1.29234   2
  -5  10   6 188.928 4.47382   1
  -4  10   6 31.3504 1.69037   1
  -4  10   6 3.99167 1.02598   2
  -3  10   6 14.0169 1.18422   2
  -3  10   6 151.572 3.20895   1
  -2  10   6 443.035 6.22361   1
  -2  10   6 40.0115 1.43247   2
  -1  10   6 5.52792 0.72834   2
  -1  10   6 75.4879 1.72906   1
   0  10   6 5.37145 0.75927   2
   0  10   6 77.7120 2.12659   1
   1  10   6 456.643 7.46864   1
   1  10   6 39.5256 1.91639   2
   2  10   6 3.80900 0.95829   2
   2  10   6 49.3260 1.82267   1
   3  10   6 3.28941 0.95986   1
   3  10   6 1.00579 1.16303   2
   4  10   6 143.354 3.71418   1
   4  10   6 6.36694 1.51750   2
   5  10   6 77.4569 2.86953   1
   5  10   6 6.32295 1.56628   2
  -7  11   6 1.62826 1.31465   2
  -7  11   6 11.3507 1.88605   1
  -6  11   6 7.94398 1.64850   1
  -6  11   6 0.81809 1.21270   2
  -5  11   6 0.09770 1.42555   1
  -5  11   6 0.60738 1.00891   2
  -4  11   6 134.017 3.12491   1
  -4  11   6 11.6620 1.21302   2
  -3  11   6 4.43366 0.95329   2
  -3  11   6 45.6431 1.88056   1
  -2  11   6 0.00727 0.68345   2
  -2  11   6 6.29547 0.88476   1
  -1  11   6 43.1227 1.39332   1
  -1  11   6 2.91257 0.69489   2
   0  11   6 5.81632 0.81586   2
   0  11   6 76.0515 2.14460   1
   1  11   6 2.26667 0.97499   1
   1  11   6 0.35635 0.89542   2
   2  11   6 59.3945 2.08584   1
   2  11   6 5.04602 1.09957   2
   3  11   6 1.83300 1.28375   2
   3  11   6 26.2892 1.56277   1
   4  11   6 16.9448 1.70242   1
   4  11   6 -0.0745 1.33181   2
  -7  12   6 1.93026 1.68688   1
  -7  12   6 -0.3266 1.35072   2
  -6  12   6 92.9354 3.36725   1
  -6  12   6 7.79051 1.42461   2
  -5  12   6 22.3255 1.67140   2
  -5  12   6 257.874 5.80614   1
  -4  12   6 62.7279 2.22638   1
  -4  12   6 3.39478 1.00846   2
  -3  12   6 14.6077 1.26882   2
  -3  12   6 161.347 3.44472   1
  -2  12   6 97.3268 2.28159   2
  -2  12   6 1089.89 15.2939   1
  -1  12   6 8.95117 0.98768   2
  -1  12   6 96.6306 2.05836   1
   0  12   6 38.0724 1.70316   1
   0  12   6 2.81472 1.02817   2
   1  12   6 63.7845 2.43094   2
   1  12   6 704.212 11.0939   1
   2  12   6 5.66190 1.09844   2
   2  12   6 65.0098 2.25446   1
   3  12   6 0.53666 1.32081   2
   3  12   6 34.5562 2.15829   1
   4  12   6 210.842 4.80777   1
   4  12   6 10.3140 1.80759   2
  -6  13   6 6.92362 1.70936   1
  -6  13   6 0.48259 1.16654   2
  -5  13   6 33.3726 2.31985   1
  -5  13   6 3.07923 1.11997   2
  -4  13   6 66.0947 2.36993   1
  -4  13   6 3.53261 1.03412   2
  -3  13   6 31.5421 1.88420   1
  -3  13   6 1.99715 0.92741   2
  -2  13   6 3.92471 0.82180   2
  -2  13   6 43.6304 1.64977   1
  -1  13   6 59.5980 1.77572   1
  -1  13   6 4.19039 0.85750   2
   0  13   6 3.40294 1.04360   2
   0  13   6 62.0811 2.06776   1
   1  13   6 21.5521 1.52906   1
   1  13   6 1.73729 1.00738   2
   2  13   6 -0.6602 1.05057   2
   2  13   6 8.82376 1.29012   1
   3  13   6 17.9902 1.77200   1
   3  13   6 -0.4227 1.32856   2
   4  13   6 1.70295 1.49779   2
   4  13   6 28.3427 2.25613   1
  -6  14   6 10.0232 1.51609   2
  -6  14   6 138.041 4.66448   1
  -5  14   6 211.620 4.51434   1
  -5  14   6 17.1052 1.58594   2
  -4  14   6 0.23544 1.01135   2
  -4  14   6 8.16476 1.43262   1
  -3  14   6 37.2065 1.90999   2
  -3  14   6 424.818 7.37453   1
  -2  14   6 2.50341 0.84175   2
  -2  14   6 34.9644 1.62933   1
  -1  14   6 10.7612 1.07755   2
  -1  14   6 138.931 2.90177   1
   0  14   6 8.11727 1.14487   2
   0  14   6 96.0433 2.57563   1
   1  14   6 157.573 3.47367   1
   1  14   6 13.8191 1.34644   2
   2  14   6 11.3092 1.37402   2
   2  14   6 143.659 3.37292   1
   3  14   6 0.56724 1.41152   2
   3  14   6 44.9938 2.38889   1
   4  14   6 2.56661 1.92512   2
   4  14   6 56.1515 6.47007   1
  -6  15   6 1.81863 1.60430   2
  -6  15   6 16.0331 2.32122   1
  -5  15   6 65.2504 2.62151   1
  -5  15   6 5.66066 1.35327   2
  -4  15   6 10.2248 1.22889   2
  -4  15   6 145.581 3.62390   1
  -3  15   6 4.78270 1.04589   2
  -3  15   6 60.7260 2.40129   1
  -2  15   6 3.29065 0.98765   2
  -2  15   6 46.5069 2.15468   1
  -1  15   6 1.37844 0.90992   2
  -1  15   6 17.7120 1.32506   1
   0  15   6 6.57212 1.16619   2
   0  15   6 66.8668 2.25803   1
   1  15   6 1.17783 1.06646   2
   1  15   6 10.7807 1.34140   1
   2  15   6 92.4096 3.09064   1
   2  15   6 5.98831 1.27167   2
   3  15   6 3.82814 1.57391   2
   3  15   6 79.4276 3.02880   1
  -5  16   6 8.69190 1.47732   2
  -5  16   6 90.9052 3.00288   1
  -4  16   6 16.2319 1.65511   1
  -4  16   6 1.95442 1.28945   2
  -3  16   6 2.62958 1.50834   1
  -3  16   6 1.20322 1.01277   2
  -2  16   6 18.8669 1.52066   2
  -2  16   6 242.303 4.85333   1
  -1  16   6 1.37992 0.91694   2
  -1  16   6 11.7607 1.28637   1
   0  16   6 65.1465 2.58734   1
   0  16   6 4.58096 1.19054   2
   1  16   6 10.7697 1.33691   2
   1  16   6 144.128 3.46277   1
   2  16   6 2.95761 1.30713   2
   2  16   6 39.1173 2.46824   1
   3  16   6 1.06762 1.41685   2
   3  16   6 1.21280 1.58985   1
  -5  17   6 13.3812 2.06096   1
  -5  17   6 1.18728 1.48427   2
  -4  17   6 194.576 4.39991   1
  -4  17   6 15.5593 1.54419   2
  -3  17   6 104.099 3.07268   1
  -3  17   6 7.03626 1.27696   2
  -2  17   6 0.33597 0.98608   2
  -2  17   6 14.9821 1.56774   1
  -1  17   6 231.060 4.33542   1
  -1  17   6 20.2970 1.49253   2
   0  17   6 17.8855 1.67666   2
   0  17   6 247.964 5.30542   1
   1  17   6 -0.1873 1.12888   2
   1  17   6 4.62573 1.33197   1
   2  17   6 151.274 4.02347   1
   2  17   6 12.4262 1.46000   2
  -4  18   6 4.57102 1.51452   1
  -4  18   6 0.97160 1.33541   2
  -3  18   6 0.94673 1.37871   1
  -3  18   6 0.67083 1.19481   2
  -2  18   6 29.2136 2.10983   1
  -2  18   6 1.64657 1.07816   2
  -1  18   6 1.45089 0.96865   2
  -1  18   6 4.53482 1.36311   1
   0  18   6 -0.7104 1.17929   2
   0  18   6 2.57226 1.45527   1
   1  18   6 6.04291 1.78325   1
   1  18   6 1.21056 1.40330   2
  -3  19   6 184.060 4.31575   1
  -3  19   6 14.4302 1.78509   2
  -2  19   6 -0.4968 1.22648   2
  -2  19   6 3.29111 1.46267   1
  -1  19   6 283.115 5.48475   1
  -1  19   6 27.8167 2.41888   2
   0  19   6 232.322 5.23795   1
   0  19   6 17.1615 2.05567   2
   1  19   6 7.03965 4.39414   1
  -8   0   7 0.58760 2.11198   2
  -8   0   7 -2.4434 3.33010   1
  -7   0   7 1.61065 1.84641   2
  -7   0   7 -1.9048 2.35190   1
  -6   0   7 0.73963 1.61223   2
  -6   0   7 1.45055 2.09313   1
  -5   0   7 -0.8755 1.30873   2
  -5   0   7 1.27741 1.45653   1
  -4   0   7 0.93401 1.01399   2
  -4   0   7 1.10264 1.21334   1
  -3   0   7 -1.1133 0.79832   1
  -3   0   7 -0.6437 1.06054   2
  -2   0   7 0.02859 0.80739   1
  -2   0   7 -0.3966 0.90389   2
  -1   0   7 -0.5585 0.70772   2
  -1   0   7 0.47450 1.06203   1
   0   0   7 -0.7507 1.05618   1
   0   0   7 0.44126 0.75567   2
   1   0   7 0.42018 1.06817   2
   1   0   7 0.01660 1.06018   1
   2   0   7 0.40761 1.22265   2
   2   0   7 -0.4599 1.26093   1
   3   0   7 -0.6643 1.51965   1
   3   0   7 -1.2731 1.90314   2
   4   0   7 -0.4137 1.52642   1
   4   0   7 -2.2524 2.06040   2
   5   0   7 -0.9011 2.11382   1
   5   0   7 -0.1004 2.37175   2
  -8   1   7 8.98779 1.73080   2
  -8   1   7 153.650 6.80644   1
  -7   1   7 11.4906 1.27356   2
  -7   1   7 141.049 4.46925   1
  -6   1   7 3.06697 0.95104   2
  -6   1   7 35.5221 2.39907   1
  -5   1   7 103.028 2.49000   1
  -5   1   7 8.30341 0.91599   2
  -4   1   7 35.6478 1.56871   2
  -4   1   7 416.507 6.23934   1
  -3   1   7 96.8208 1.75573   1
  -3   1   7 8.54129 0.81028   2
  -2   1   7 21.1641 1.04527   2
  -2   1   7 209.535 2.89182   1
  -1   1   7 49.6268 1.32329   2
  -1   1   7 588.399 8.56118   1
   0   1   7 282.283 4.49288   1
   0   1   7 24.9460 1.46680   2
   1   1   7 2.21437 0.68104   2
   1   1   7 27.4189 1.27980   1
   2   1   7 23.9553 1.78250   2
   2   1   7 248.229 4.17499   1
   3   1   7 7.20740 1.40844   2
   3   1   7 122.589 2.66596   1
   4   1   7 0.35881 1.54138   2
   4   1   7 0.46465 1.08413   1
   5   1   7 5.69356 1.89524   2
   5   1   7 89.0017 3.10524   1
  -8   1   7 104.268 11.7560  -2
   5   1   7 104.268 11.7560   1
  -8   2   7 19.6883 4.42500   1
  -7   2   7 2.52465 1.10135   2
  -7   2   7 30.2356 2.54174   1
  -6   2   7 3.39761 1.01009   2
  -6   2   7 45.1390 2.20254   1
  -5   2   7 68.3569 2.19426   1
  -5   2   7 5.33036 0.91715   2
  -4   2   7 0.40665 0.76648   1
  -4   2   7 -0.0366 0.71968   2
  -3   2   7 152.913 2.41258   1
  -3   2   7 12.4772 0.88098   2
  -2   2   7 52.4750 1.25917   1
  -2   2   7 3.98796 0.67176   2
  -1   2   7 -0.0421 0.46941   2
  -1   2   7 0.53126 0.66720   1
   0   2   7 12.7886 0.80415   2
   0   2   7 130.757 2.50805   1
   1   2   7 99.6384 2.15314   1
   1   2   7 6.08459 0.76259   2
   2   2   7 5.37978 0.94053   1
   2   2   7 0.23977 0.80882   2
   3   2   7 1.29609 0.99555   1
   3   2   7 0.80110 0.96841   2
   4   2   7 3.73683 1.36132   2
   4   2   7 57.3551 2.06740   1
   5   2   7 5.92418 1.34409   1
   5   2   7 -0.7460 1.79168   2
  -7   3   7 3.80709 1.14864   2
  -7   3   7 71.4785 2.90710   1
  -6   3   7 7.48397 1.38158   1
  -6   3   7 1.18158 1.00616   2
  -5   3   7 77.3438 2.38960   1
  -5   3   7 6.06123 0.99509   2
  -4   3   7 274.420 5.07519   1
  -4   3   7 23.1543 1.32303   2
  -3   3   7 71.4113 1.49816   1
  -3   3   7 6.62140 0.76524   2
  -2   3   7 1.24218 0.61705   2
  -2   3   7 12.9955 0.80406   1
  -1   3   7 294.962 4.65831   1
  -1   3   7 24.8322 0.96174   2
   0   3   7 9.89325 0.70179   2
   0   3   7 127.464 2.46667   1
   1   3   7 3.11022 0.68960   2
   1   3   7 36.1249 1.43165   1
   2   3   7 17.9879 1.46122   2
   2   3   7 229.039 4.22613   1
   3   3   7 101.702 2.52891   1
   3   3   7 6.42795 1.19000   2
   4   3   7 1.24358 1.04312   1
   4   3   7 -1.1902 1.20490   2
   5   3   7 0.89514 1.47006   2
   5   3   7 48.3638 2.18643   1
  -7   4   7 2.07513 1.18306   2
  -7   4   7 45.5021 2.55637   1
  -6   4   7 83.5367 2.72301   1
  -6   4   7 6.03100 1.11781   2
  -5   4   7 156.319 3.26482   1
  -5   4   7 11.3266 1.08156   2
  -4   4   7 2.24530 0.86218   1
  -4   4   7 0.90392 0.81395   2
  -3   4   7 301.613 4.18553   1
  -3   4   7 27.1355 1.27686   2
  -2   4   7 274.740 3.60106   1
  -2   4   7 23.5663 1.10583   2
  -1   4   7 0.54234 0.51354   2
  -1   4   7 4.85354 0.73924   1
   0   4   7 170.748 3.06985   1
   0   4   7 15.0281 0.86366   2
   1   4   7 431.251 7.03444   1
   1   4   7 39.1955 1.53915   2
   2   4   7 0.79986 0.92116   1
   2   4   7 0.13687 0.86686   2
   3   4   7 3.07145 1.10408   2
   3   4   7 33.9402 1.82618   1
   4   4   7 93.7310 2.65521   1
   4   4   7 6.07339 1.39550   2
   5   4   7 4.58702 1.58524   2
   5   4   7 32.8028 2.01952   1
  -7   5   7 60.4530 2.68643   1
  -7   5   7 4.10161 1.28887   2
  -6   5   7 -0.5369 0.97707   2
  -6   5   7 3.98607 1.30760   1
  -5   5   7 0.22251 0.91569   2
  -5   5   7 12.6588 1.24956   1
  -4   5   7 10.1098 1.03460   2
  -4   5   7 124.603 2.44149   1
  -3   5   7 27.0680 1.18841   1
  -3   5   7 2.29244 0.83876   2
  -2   5   7 2.21357 0.60869   1
  -2   5   7 0.24184 0.57446   2
  -1   5   7 26.2433 1.23329   1
  -1   5   7 2.01448 0.58231   2
   0   5   7 2.03276 0.56829   2
   0   5   7 36.3264 1.48808   1
   1   5   7 0.23443 0.68727   2
   1   5   7 0.17577 0.91822   1
   2   5   7 11.3150 1.12502   2
   2   5   7 132.107 2.91269   1
   3   5   7 3.53007 1.11931   2
   3   5   7 35.6198 1.75994   1
   4   5   7 2.15643 1.32268   1
   4   5   7 -0.0684 1.20209   2
  -7   5   7 6.59331 6.88807  -2
   4   5   7 6.59331 6.88807   1
  -7   6   7 41.3474 2.22680   1
  -7   6   7 4.20771 1.24655   2
  -6   6   7 371.277 6.88631   1
  -6   6   7 31.2774 1.96977   2
  -5   6   7 290.118 5.55187   1
  -5   6   7 25.4898 1.54954   2
  -4   6   7 8.68933 0.98044   1
  -4   6   7 0.63715 0.85994   2
  -3   6   7 419.919 6.08846   1
  -3   6   7 38.3365 1.38785   2
  -2   6   7 43.1079 1.60888   2
  -2   6   7 479.309 6.34899   1
  -1   6   7 109.579 2.43929   1
  -1   6   7 9.14336 0.81518   2
   0   6   7 31.6234 1.31065   2
   0   6   7 325.713 5.05370   1
   1   6   7 407.834 6.75395   1
   1   6   7 38.1652 1.81706   2
   2   6   7 13.9512 1.56351   2
   2   6   7 176.863 3.56236   1
   3   6   7 413.215 6.99758   1
   3   6   7 42.5964 2.51282   2
   4   6   7 214.823 4.34605   1
   4   6   7 12.1287 1.52654   2
  -7   7   7 4.89790 1.24588   2
  -7   7   7 34.0944 2.55231   1
  -6   7   7 0.98681 1.35052   1
  -6   7   7 0.92235 1.02622   2
  -5   7   7 0.77996 0.97484   2
  -5   7   7 3.87139 1.25488   1
  -4   7   7 18.3971 1.28875   2
  -4   7   7 223.113 4.25121   1
  -3   7   7 0.76809 0.82388   1
  -3   7   7 0.91256 0.78444   2
  -2   7   7 2.48323 0.71563   1
  -2   7   7 0.54186 0.78671   2
  -1   7   7 -0.2380 0.82232   1
  -1   7   7 0.04509 0.64975   2
   0   7   7 8.66984 0.86660   2
   0   7   7 114.556 2.61319   1
   1   7   7 0.45741 0.95303   1
   1   7   7 1.02041 0.81029   2
   2   7   7 15.2785 1.38655   2
   2   7   7 206.702 4.06242   1
   3   7   7 1.07005 1.16826   2
   3   7   7 6.10170 1.27666   1
   4   7   7 -0.5500 1.27619   2
   4   7   7 4.21807 1.25933   1
  -7   8   7 110.104 4.09663   1
  -7   8   7 8.94473 1.28078   2
  -6   8   7 85.8737 2.94989   1
  -6   8   7 6.04956 1.20721   2
  -5   8   7 6.69658 1.12322   2
  -5   8   7 92.2607 3.06303   1
  -4   8   7 1.08743 0.85086   2
  -4   8   7 2.84052 1.01892   1
  -3   8   7 186.552 3.70664   1
  -3   8   7 15.9551 1.34558   2
  -2   8   7 452.141 6.35569   1
  -2   8   7 36.8818 1.64235   2
  -1   8   7 3.27296 0.72274   2
  -1   8   7 29.0411 1.54842   1
   0   8   7 145.245 3.09491   1
   0   8   7 12.4739 1.20076   2
   1   8   7 226.633 3.64866   1
   1   8   7 22.5434 1.71240   2
   2   8   7 3.77567 1.15673   1
   2   8   7 0.62930 1.11300   2
   3   8   7 1.36874 1.20133   2
   3   8   7 4.19829 1.22594   1
   4   8   7 100.091 2.85069   1
   4   8   7 4.98989 1.53153   2
  -7   9   7 19.7351 2.20070   1
  -7   9   7 0.76572 1.35078   2
  -6   9   7 -1.3743 1.55369   1
  -6   9   7 0.77943 1.15215   2
  -5   9   7 85.0723 3.05455   1
  -5   9   7 6.40256 1.13935   2
  -4   9   7 94.8038 2.55495   1
  -4   9   7 6.65059 1.11803   2
  -3   9   7 83.8594 2.31230   1
  -3   9   7 7.00426 1.04546   2
  -2   9   7 3.80934 0.92860   2
  -2   9   7 31.7618 1.29322   1
  -1   9   7 192.154 3.73781   1
  -1   9   7 14.3132 1.03868   2
   0   9   7 3.21901 1.05288   2
   0   9   7 40.8985 1.81094   1
   1   9   7 4.83908 1.03098   2
   1   9   7 64.0177 2.10251   1
   2   9   7 40.9868 1.79707   1
   2   9   7 4.61897 1.28082   2
   3   9   7 87.1172 2.98176   1
   3   9   7 4.53290 1.48095   2
  -6   9   7 80.6393 7.28605  -2
   3   9   7 80.6393 7.28605   1
   4   9   7 -0.6228 1.34894   1
   4   9   7 -0.5919 1.43886   2
  -6  10   7 133.870 4.04590   1
  -6  10   7 11.4158 1.35489   2
  -5  10   7 48.2547 2.63366   1
  -5  10   7 3.28353 1.14893   2
  -4  10   7 0.88263 1.09208   1
  -4  10   7 0.73016 0.95153   2
  -3  10   7 7.88770 1.07613   2
  -3  10   7 99.1152 2.62329   1
  -2  10   7 73.5421 1.94947   1
  -2  10   7 6.33755 1.04153   2
  -1  10   7 0.95416 1.00403   1
  -1  10   7 -0.3582 0.73766   2
   0  10   7 10.4481 1.27012   2
   0  10   7 128.661 2.96549   1
   1  10   7 55.9449 2.03538   1
   1  10   7 4.35809 1.08458   2
   2  10   7 59.5867 2.00846   1
   2  10   7 4.55913 1.32620   2
   3  10   7 2.75481 1.44774   2
   3  10   7 24.1379 1.64158   1
   4  10   7 64.7663 2.80388   1
   4  10   7 4.21002 1.60578   2
  -6  11   7 2.16419 1.21427   2
  -6  11   7 26.3234 2.32064   1
  -5  11   7 9.07265 1.16129   2
  -5  11   7 129.042 3.87129   1
  -4  11   7 17.0201 1.47636   2
  -4  11   7 193.946 4.08161   1
  -3  11   7 71.0027 2.53495   1
  -3  11   7 4.92471 1.04155   2
  -2  11   7 15.1423 1.28327   2
  -2  11   7 143.328 2.88719   1
  -1  11   7 33.8659 1.67047   2
  -1  11   7 371.795 6.34413   1
   0  11   7 5.30643 1.17731   2
   0  11   7 78.3601 2.35737   1
   1  11   7 1.99248 1.17082   1
   1  11   7 0.21708 1.04332   2
   2  11   7 162.982 3.64202   1
   2  11   7 10.5218 1.52978   2
   3  11   7 5.17256 1.55943   2
   3  11   7 109.437 3.00828   1
  -6  12   7 0.76140 1.49877   2
  -6  12   7 -1.6173 1.67550   1
  -5  12   7 5.58387 1.72593   1
  -5  12   7 0.58409 1.13619   2
  -4  12   7 -0.4240 1.09770   2
  -4  12   7 4.43401 1.27801   1
  -3  12   7 -0.1557 1.21989   1
  -3  12   7 -0.4054 0.98021   2
  -2  12   7 14.7451 1.23077   1
  -2  12   7 1.14002 0.93550   2
  -1  12   7 0.34954 0.86883   2
  -1  12   7 3.94361 1.12190   1
   0  12   7 -0.0840 1.00477   2
   0  12   7 1.54793 1.10738   1
   1  12   7 3.06673 1.12833   2
   1  12   7 20.8222 1.59597   1
   2  12   7 0.76312 1.34350   2
   2  12   7 -0.3796 1.26231   1
   3  12   7 7.74697 1.86901   1
   3  12   7 -0.4370 1.46569   2
  -6  13   7 26.1976 4.91370   1
  -5  13   7 5.79250 1.29252   2
  -5  13   7 59.3876 3.01719   1
  -4  13   7 15.5514 1.48037   2
  -4  13   7 200.362 4.28478   1
  -3  13   7 109.765 2.99822   1
  -3  13   7 8.15447 1.19050   2
  -2  13   7 4.50478 1.16260   2
  -2  13   7 50.9398 2.41678   1
  -1  13   7 48.3656 1.97568   2
  -1  13   7 561.511 9.95726   1
   0  13   7 9.38263 1.26960   2
   0  13   7 135.236 3.23734   1
   1  13   7 2.11509 1.16928   2
   1  13   7 8.91174 1.44013   1
   2  13   7 216.905 4.48984   1
   2  13   7 13.2276 1.70700   2
   3  13   7 7.15562 1.66757   2
   3  13   7 105.035 3.44648   1
  -5  14   7 10.3742 1.94190   1
  -5  14   7 0.32663 1.25021   2
  -4  14   7 0.16659 1.12928   2
  -4  14   7 6.12391 1.45132   1
  -3  14   7 1.70132 1.04172   2
  -3  14   7 26.3126 1.89034   1
  -2  14   7 6.01521 1.24301   2
  -2  14   7 83.8056 2.93046   1
  -1  14   7 1.77334 1.31950   1
  -1  14   7 -0.3300 1.13412   2
   0  14   7 59.8469 2.35313   1
   0  14   7 4.77000 1.19338   2
   1  14   7 47.1987 2.23998   1
   1  14   7 3.04887 1.21844   2
   2  14   7 7.92563 1.48967   1
   2  14   7 2.62742 1.39059   2
  -5  15   7 4.11994 1.44258   2
  -5  15   7 44.7417 2.94077   1
  -4  15   7 195.228 4.40000   1
  -4  15   7 16.3802 1.58993   2
  -3  15   7 1.05843 1.12607   2
  -3  15   7 21.6803 1.92978   1
  -2  15   7 2.40152 1.18762   2
  -2  15   7 16.9573 1.77654   1
  -1  15   7 99.1180 3.12822   1
  -1  15   7 5.28682 1.30602   2
   0  15   7 91.0798 3.05714   1
   0  15   7 6.33795 1.41574   2
   1  15   7 2.35455 1.27762   2
   1  15   7 12.2130 1.55545   1
   2  15   7 155.220 4.18325   1
   2  15   7 10.7835 1.74672   2
  -4  16   7 1.84192 1.21624   2
  -4  16   7 5.88059 1.52167   1
  -3  16   7 99.2360 3.40116   1
   0  16   7 86.6925 9.63579  -2
  -3  16   7 86.6925 9.63579   1
  -3  16   7 7.26106 1.33806   2
  -2  16   7 10.4847 1.54714   2
  -2  16   7 117.499 3.61217   1
  -1  16   7 0.31149 1.25743   2
  -1  16   7 6.26472 1.46575   1
   0  16   7 67.5565 2.71189   1
   0  16   7 5.08655 1.37233   2
   1  16   7 140.116 3.54079   1
   1  16   7 8.81207 1.67692   2
  -3  17   7 31.9077 2.74227   1
   0  17   7 21.2390 9.04894  -2
  -3  17   7 21.2390 9.04894   1
  -3  17   7 2.79520 1.34781   2
  -2  17   7 12.9326 1.78107   1
  -2  17   7 0.52548 1.26099   2
  -1  17   7 16.0997 1.83664   1
  -1  17   7 1.41967 1.33827   2
   0  17   7 22.9448 1.99168   1
   0  17   7 1.75291 1.53141   2
  -7   0   8 42.0365 4.46941   1
  -7   0   8 3.92228 2.37170   2
  -6   0   8 8.97742 1.88445   2
  -6   0   8 83.6920 4.67935   1
  -5   0   8 172.388 5.44270   1
  -5   0   8 12.9885 1.80474   2
  -4   0   8 10.9111 1.74569   1
  -4   0   8 0.18986 1.41351   2
  -3   0   8 41.5337 3.10062   2
  -3   0   8 458.625 9.17297   1
  -2   0   8 521.857 11.9553   1
  -2   0   8 41.2949 2.76594   2
  -1   0   8 16.6901 1.74676   1
  -1   0   8 1.56911 1.06066   2
   0   0   8 593.932 13.5475   1
   0   0   8 55.4338 2.93538   2
   1   0   8 10.9651 1.82487   2
   1   0   8 99.4808 3.61571   1
   2   0   8 7.45547 1.74941   1
   2   0   8 -0.2021 1.56844   2
   3   0   8 8.84454 2.58652   2
   3   0   8 188.828 5.93300   1
   4   0   8 9.97422 2.84748   2
   4   0   8 203.514 7.12111   1
  -7   1   8 -0.4022 1.41681   2
  -7   1   8 0.71203 1.88313   1
  -6   1   8 4.96766 1.59395   1
  -6   1   8 1.99697 1.32432   2
  -5   1   8 13.3837 1.43540   1
  -5   1   8 0.93578 1.08536   2
  -4   1   8 -0.3592 0.96612   2
  -4   1   8 6.04033 1.11181   1
  -3   1   8 272.343 4.15388   1
  -3   1   8 23.0254 1.80871   2
  -2   1   8 10.8454 1.00817   2
  -2   1   8 148.930 2.86588   1
  -1   1   8 1.66330 0.84057   2
  -1   1   8 20.2042 1.37231   1
   0   1   8 3.79192 0.80267   2
   0   1   8 9.74072 1.14661   1
   1   1   8 40.9868 1.82022   1
   1   1   8 2.55032 0.89398   2
   2   1   8 16.7773 1.44812   1
   2   1   8 2.60308 1.25886   2
   3   1   8 35.7055 2.24383   1
   3   1   8 1.60701 1.55328   2
   4   1   8 -0.0547 2.19891   2
   4   1   8 2.55100 1.68536   1
  -7   2   8 25.7978 2.62052   1
  -7   2   8 3.08332 1.43376   2
  -6   2   8 19.3220 1.73046   2
  -6   2   8 236.961 6.06315   1
  -5   2   8 13.9184 1.57970   1
  -5   2   8 1.60739 1.20176   2
  -4   2   8 51.4762 1.95181   1
  -4   2   8 5.03976 1.06617   2
  -3   2   8 18.4590 1.42809   2
  -3   2   8 237.489 4.07819   1
  -2   2   8 82.0091 2.15053   1
  -2   2   8 6.10131 0.92718   2
  -1   2   8 1.90898 0.86666   2
  -1   2   8 30.7693 1.53504   1
   0   2   8 7.72503 0.90720   2
   0   2   8 114.670 2.71875   1
   1   2   8 168.288 3.58453   1
   1   2   8 10.8431 1.24007   2
   2   2   8 1.68126 1.25453   1
   2   2   8 -1.5606 1.18908   2
   3   2   8 8.86963 1.75355   2
   3   2   8 145.973 3.69907   1
   4   2   8 27.3840 2.12126   1
   4   2   8 2.87944 2.19955   2
  -7   3   8 1.90303 1.47112   2
  -7   3   8 44.8563 3.11605   1
  -6   3   8 -0.3530 1.26775   2
  -6   3   8 4.30772 1.56595   1
  -5   3   8 103.186 2.89709   1
  -5   3   8 8.00535 1.34210   2
  -4   3   8 124.358 2.99568   1
  -4   3   8 10.9844 1.34464   2
  -3   3   8 0.33613 0.89844   2
  -3   3   8 7.00770 0.94660   1
  -2   3   8 73.3819 2.06253   1
  -2   3   8 5.16955 0.91575   2
  -1   3   8 127.024 2.79494   1
  -1   3   8 8.71664 1.00171   2
   0   3   8 0.23218 0.75660   2
   0   3   8 7.09460 1.14951   1
   1   3   8 27.4150 1.84295   1
   1   3   8 2.25230 0.98555   2
   2   3   8 9.27065 1.47556   2
   2   3   8 155.820 3.71745   1
   3   3   8 3.11068 1.64684   2
   3   3   8 30.6850 2.17067   1
  -7   4   8 17.4618 2.11767   1
  -7   4   8 1.07694 1.46899   2
  -6   4   8 70.3947 2.89984   1
  -6   4   8 5.22843 1.18235   2
  -5   4   8 22.1608 1.83278   1
  -5   4   8 1.88163 1.01614   2
  -4   4   8 1.92380 0.99002   2
  -4   4   8 24.1410 1.59962   1
  -3   4   8 80.8738 1.94445   1
  -3   4   8 6.10006 0.96195   2
  -2   4   8 1.23440 0.85028   2
  -2   4   8 25.7523 1.40493   1
  -1   4   8 1.44843 0.77148   2
  -1   4   8 7.23412 1.01210   1
   0   4   8 4.19859 0.75091   2
   0   4   8 82.3281 2.27401   1
   1   4   8 6.87642 1.06796   2
   1   4   8 107.918 2.64180   1
   2   4   8 2.33620 1.23251   2
   2   4   8 20.3754 1.52587   1
   3   4   8 1.78053 1.18831   1
   3   4   8 0.99655 1.38230   2
  -7   5   8 115.823 5.65590   1
  -7   5   8 9.21608 2.39137   2
  -6   5   8 3.86682 1.47013   1
  -6   5   8 -0.2669 1.10528   2
  -5   5   8 164.192 3.76288   1
  -5   5   8 14.5405 1.35766   2
  -4   5   8 14.9874 1.26002   2
  -4   5   8 175.084 4.22964   1
  -3   5   8 -0.3046 0.85233   2
  -3   5   8 0.53654 0.90227   1
  -2   5   8 160.017 3.25496   1
  -2   5   8 14.1490 1.25897   2
  -1   5   8 416.706 6.89124   1
  -1   5   8 35.5046 1.76123   2
   0   5   8 0.68059 0.73016   2
   0   5   8 20.4506 1.47645   1
   1   5   8 48.1161 1.96422   1
   1   5   8 2.56951 1.15554   2
   2   5   8 186.501 3.84339   1
   2   5   8 14.7942 1.44838   2
   3   5   8 25.2431 1.74416   1
   3   5   8 1.68536 1.30221   2
  -6   6   8 1.87925 1.57705   1
  -6   6   8 0.18325 1.09202   2
   3   6   8 4.20831 7.51100  -2
  -6   6   8 4.20831 7.51100   1
  -5   6   8 12.6918 1.63117   1
  -5   6   8 -0.1406 0.98198   2
  -4   6   8 -1.3357 0.89025   2
  -4   6   8 0.45108 1.37693   1
  -3   6   8 3.38997 1.00688   1
  -3   6   8 0.10899 0.91567   2
  -2   6   8 -0.0647 0.86219   1
  -2   6   8 -0.5890 0.86386   2
  -1   6   8 6.41934 1.07755   1
  -1   6   8 1.40692 0.87203   2
   0   6   8 0.55093 0.91837   2
   0   6   8 7.56704 1.05084   1
   1   6   8 0.82611 1.09493   1
   1   6   8 0.45355 1.18905   2
   2   6   8 0.58655 1.21329   2
   2   6   8 0.66103 1.15862   1
   3   6   8 0.01173 1.43121   2
   3   6   8 1.99870 1.25981   1
  -6   7   8 4.45002 1.91603   1
  -6   7   8 -0.3568 1.11595   2
  -5   7   8 11.9848 1.29943   2
  -5   7   8 141.672 4.41478   1
   2   7   8 173.220 11.0671  -2
  -5   7   8 173.220 11.0671   1
  -4   7   8 252.855 6.25876   1
   1   7   8 286.662 14.1895  -2
  -4   7   8 286.662 14.1895   1
  -4   7   8 23.7504 1.71451   2
  -3   7   8 -0.2226 0.95129   2
  -3   7   8 1.73796 1.08441   1
  -2   7   8 14.9967 1.28206   2
  -2   7   8 148.484 3.18840   1
  -1   7   8 368.167 5.72585   1
  -1   7   8 30.9721 1.62909   2
   0   7   8 4.43839 1.02949   2
   0   7   8 68.4976 2.23437   1
   1   7   8 77.5762 2.38495   1
   1   7   8 5.91774 1.34384   2
   2   7   8 201.806 4.18134   1
   2   7   8 16.1137 1.82299   2
   3   7   8 2.46469 1.66211   2
   3   7   8 35.2842 2.08408   1
  -6   8   8 7.25274 1.28166   2
  -6   8   8 91.0092 3.96389   1
   3   8   8 99.0486 10.6089  -2
  -6   8   8 99.0486 10.6089   1
  -5   8   8 0.46990 1.01208   2
  -5   8   8 5.04360 1.72400   1
   2   8   8 -0.8659 7.94705  -2
  -5   8   8 -0.8659 7.94705   1
  -4   8   8 0.46170 1.01728   2
   1   8   8 20.9760 7.56479  -2
  -4   8   8 20.9760 7.56479   1
  -4   8   8 12.7232 1.88620   1
  -3   8   8 3.88334 0.99335   2
  -3   8   8 50.4309 2.15790   1
  -2   8   8 1.23012 0.98535   2
  -2   8   8 19.6098 1.38599   1
  -1   8   8 0.87179 0.92697   2
  -1   8   8 8.54680 1.22389   1
   0   8   8 2.25601 1.10476   2
   0   8   8 32.4641 1.68051   1
   1   8   8 90.0106 2.64546   1
   1   8   8 6.52070 1.43810   2
   2   8   8 -0.5552 1.38580   2
   2   8   8 0.51667 1.21134   1
   3   8   8 13.8744 1.56796   1
   3   8   8 1.43321 1.60972   2
  -6   9   8 2.17263 1.80878   1
  -6   9   8 -0.9403 1.16836   2
   3   9   8 -0.0898 8.35346  -2
  -6   9   8 -0.0898 8.35346   1
  -5   9   8 3.45556 1.19140   2
  -5   9   8 65.5274 2.90890   1
  -4   9   8 144.818 3.50027   1
  -4   9   8 10.2570 1.22725   2
  -3   9   8 1.98334 1.07608   2
  -3   9   8 29.9118 1.95769   1
  -2   9   8 111.057 2.77353   1
  -2   9   8 8.44070 1.10449   2
  -1   9   8 104.344 2.73498   1
  -1   9   8 6.22367 1.36713   2
   0   9   8 1.16423 1.13940   2
   0   9   8 32.0767 1.85264   1
   1   9   8 109.265 2.93056   1
   1   9   8 8.34825 1.43990   2
   2   9   8 69.0308 2.50326   1
   2   9   8 2.32126 1.41546   2
   3   9   8 32.6905 2.15703   1
   3   9   8 2.29797 2.08984   2
  -5  10   8 2.44377 1.22303   2
  -5  10   8 36.5296 2.62571   1
  -4  10   8 1.10344 1.01265   2
  -4  10   8 16.5068 1.51319   1
  -3  10   8 16.2768 1.40251   2
  -3  10   8 190.655 4.42394   1
  -2  10   8 5.44608 1.08195   2
  -2  10   8 83.5871 3.18999   1
  -1  10   8 -0.0152 1.30419   2
  -1  10   8 8.04610 1.28075   1
   0  10   8 13.5036 1.39901   2
   0  10   8 175.567 3.80031   1
   1  10   8 64.8814 2.21765   1
   1  10   8 2.87214 1.32612   2
   2  10   8 -0.0970 1.40101   2
   2  10   8 2.49222 1.30964   1
  -5  11   8 0.80977 1.24073   2
  -5  11   8 23.7804 2.15702   1
  -4  11   8 2.16163 1.16117   2
  -4  11   8 34.7026 2.08610   1
  -3  11   8 2.00284 1.12214   2
  -3  11   8 23.6610 1.93992   1
  -2  11   8 23.9241 2.25975   1
  -2  11   8 1.07272 1.04903   2
  -1  11   8 20.1029 1.53979   1
  -1  11   8 1.02456 1.36819   2
   0  11   8 9.14820 1.40133   1
   0  11   8 0.63099 1.22857   2
   1  11   8 26.0938 1.65443   1
   1  11   8 2.19729 1.39895   2
   2  11   8 2.83559 1.47718   2
   2  11   8 33.7849 2.21448   1
  -5  12   8 9.19721 1.41073   2
  -5  12   8 142.114 4.26976   1
  -4  12   8 2.46008 1.24221   2
  -4  12   8 38.5123 2.45968   1
  -3  12   8 26.8132 1.88282   2
  -3  12   8 264.645 5.87886   1
  -2  12   8 181.840 4.95651   1
  -2  12   8 10.0067 1.36798   2
  -1  12   8 0.38290 1.29450   1
  -1  12   8 0.00334 1.29179   2
   0  12   8 36.3483 2.68028   2
   0  12   8 346.123 6.26039   1
   1  12   8 6.16548 1.49338   2
   1  12   8 103.494 3.00797   1
  -4  13   8 2.99209 1.54893   1
  -4  13   8 0.22793 1.15357   2
  -3  13   8 7.74221 1.28813   2
  -3  13   8 110.063 4.04403   1
  -2  13   8 64.6085 3.31386   1
  -2  13   8 2.81656 1.24377   2
  -1  13   8 2.22358 1.41732   1
  -1  13   8 1.13798 1.47228   2
   0  13   8 10.6933 1.51309   1
   0  13   8 2.60556 1.34724   2
   1  13   8 26.8283 1.91523   1
   1  13   8 1.74896 1.49458   2
  -4  14   8 7.32628 2.18253   2
  -4  14   8 62.0909 3.24852   1
  -3  14   8 7.91028 1.47139   2
  -3  14   8 127.244 4.31640   1
  -2  14   8 20.7659 2.21683   1
  -2  14   8 0.23002 1.21984   2
  -1  14   8 1.35542 1.52869   2
  -1  14   8 11.0180 1.66227   1
   0  14   8 4.26733 1.40931   2
   0  14   8 53.0641 2.70323   1
  -2  15   8 3.58844 1.93141   1
  -2  15   8 0.59251 1.51200   2
  -1  15   8 3.65675 1.59019   2
  -1  15   8 49.2689 2.70400   1
  -6   0   9 -2.7158 2.35049   1
  -6   0   9 2.92074 2.50970   2
  -5   0   9 -1.3473 1.90935   1
  -5   0   9 -2.6429 1.96228   2
  -4   0   9 -0.1579 1.50056   2
  -4   0   9 0.88813 2.14640   1
  -3   0   9 1.23345 1.91608   1
  -3   0   9 -0.4165 1.48305   2
  -2   0   9 0.08408 1.30887   1
  -2   0   9 -0.6647 1.39987   2
  -1   0   9 -0.4430 1.53760   1
  -1   0   9 -0.2318 1.39378   2
   0   0   9 1.35601 1.84962   2
   0   0   9 -0.2613 1.58203   1
   1   0   9 -1.6393 1.51245   2
   1   0   9 -0.5093 1.68298   1
   2   0   9 -1.0759 2.16515   2
   2   0   9 -2.5415 2.08148   1
  -6   1   9 1.41450 1.60085   2
  -6   1   9 8.96000 1.95035   1
  -5   1   9 133.497 3.76855   1
  -5   1   9 9.27504 1.52062   2
  -4   1   9 111.712 3.86006   1
  -4   1   9 9.00722 1.43001   2
  -3   1   9 3.53469 1.06828   2
  -3   1   9 35.2975 2.43490   1
  -2   1   9 15.7277 1.29829   2
  -2   1   9 196.453 3.94216   1
  -1   1   9 9.70754 1.32518   2
  -1   1   9 187.450 3.83223   1
   0   1   9 0.73786 1.18492   1
   0   1   9 -0.7619 1.24170   2
   1   1   9 111.837 3.24653   1
   1   1   9 4.97957 1.21678   2
   2   1   9 3.91547 1.63885   2
   2   1   9 59.8716 2.65343   1
  -6   2   9 30.2879 2.76306   1
  -6   2   9 3.12286 1.46889   2
  -5   2   9 3.46348 1.49184   1
  -5   2   9 -0.3760 1.29650   2
  -4   2   9 1.15665 1.30930   2
  -4   2   9 31.4631 2.46447   1
  -3   2   9 74.5815 2.65417   1
  -3   2   9 5.05426 1.27963   2
  -2   2   9 1.15338 1.09290   1
  -2   2   9 -0.2398 1.02919   2
  -1   2   9 23.7890 1.87115   1
  -1   2   9 0.83174 1.10565   2
   0   2   9 49.3102 2.30572   1
   0   2   9 2.72561 1.37529   2
   1   2   9 0.77276 1.19520   2
   1   2   9 8.78285 1.55692   1
   2   2   9 0.10335 1.45461   1
   2   2   9 -0.0915 1.54582   2
  -6   3   9 10.1497 2.49435   1
  -6   3   9 -0.7189 1.38746   2
  -5   3   9 92.4083 2.96841   1
  -5   3   9 5.51824 1.46616   2
  -4   3   9 42.5997 2.74299   1
  -4   3   9 2.99110 1.30652   2
  -3   3   9 1.15328 1.21456   2
  -3   3   9 0.02554 1.19514   1
  -2   3   9 5.40407 1.21986   2
  -2   3   9 89.8101 2.72629   1
  -1   3   9 2.52715 1.07693   2
  -1   3   9 66.2931 2.28615   1
   0   3   9 2.58409 1.33413   1
   0   3   9 1.32375 1.19306   2
   1   3   9 6.18772 1.33037   2
   1   3   9 108.687 3.21776   1
   2   3   9 4.23390 1.50921   2
   2   3   9 77.9594 2.93915   1
  -5   4   9 0.02227 1.33290   2
  -5   4   9 3.41364 1.37636   1
  -4   4   9 76.1173 4.84808   1
  -4   4   9 6.02282 1.42638   2
  -3   4   9 114.838 3.56473   1
  -3   4   9 6.60631 1.21889   2
  -2   4   9 1.74854 1.07132   2
  -2   4   9 30.2119 1.94889   1
  -1   4   9 41.2888 2.15980   1
  -1   4   9 2.39927 1.28309   2
   0   4   9 10.4937 2.23489   2
   0   4   9 205.832 4.57862   1
   1   4   9 12.9856 1.64613   1
   1   4   9 0.30190 1.56794   2
   2   4   9 -1.6787 1.32565   2
   2   4   9 9.52422 1.59700   1
  -5   5   9 2.84155 1.40349   2
  -5   5   9 38.4694 3.37120   1
  -4   5   9 -0.2269 1.24299   2
  -4   5   9 16.1296 3.15508   1
  -3   5   9 3.35384 1.30297   1
  -3   5   9 -0.8831 1.16217   2
  -2   5   9 5.46849 1.27169   1
  -2   5   9 0.67777 1.11733   2
  -1   5   9 40.6740 2.20884   1
  -1   5   9 2.05771 1.39712   2
   0   5   9 -0.0456 1.19819   1
   0   5   9 -3.2275 1.89347   2
   1   5   9 3.13671 1.45164   1
   1   5   9 0.52655 1.69630   2
   2   5   9 2.19017 1.81426   2
   2   5   9 93.4418 3.14685   1
  -5   6   9 2.75200 1.44551   2
  -5   6   9 49.2158 3.04332   1
  -4   6   9 152.628 7.00361   1
  -4   6   9 9.83574 1.36295   2
  -3   6   9 11.7394 1.47239   2
  -3   6   9 189.753 5.81546   1
  -2   6   9 3.61170 1.23225   2
  -2   6   9 57.3780 2.34474   1
  -1   6   9 19.6797 1.74892   1
  -1   6   9 0.41307 1.35527   2
   0   6   9 226.557 4.93109   1
   0   6   9 12.4825 2.69369   2
   1   6   9 203.795 4.71792   1
   1   6   9 21.2695 2.98765   2
   2   6   9 89.8937 4.50120   1
   2   6   9 4.93746 2.56074   2
  -5   7   9 3.43411 1.38989   2
  -5   7   9 47.6084 3.08440   1
  -4   7   9 -0.0780 1.11865   2
  -4   7   9 10.5860 3.34921   1
  -3   7   9 -0.5743 1.05291   2
  -3   7   9 1.40500 1.60345   1
  -2   7   9 -0.0382 1.04109   2
  -2   7   9 9.82121 1.56646   1
  -1   7   9 58.7986 2.29272   1
  -1   7   9 2.50942 1.38476   2
   0   7   9 2.93597 1.26913   1
   0   7   9 -1.3114 2.03010   2
   1   7   9 11.1557 1.42362   1
   1   7   9 0.79668 1.75804   2
  -5   8   9 -0.0055 1.18274   2
  -5   8   9 5.21025 1.76065   1
  -4   8   9 15.0308 2.64203   1
  -4   8   9 0.54428 1.19909   2
  -3   8   9 201.464 4.53658   1
  -3   8   9 15.4814 1.51058   2
  -2   8   9 14.1684 1.71369   1
  -2   8   9 0.64644 1.08084   2
  -1   8   9 5.75468 1.34165   2
  -1   8   9 97.7803 2.80988   1
   0   8   9 116.135 3.10969   1
   0   8   9 6.48535 1.94559   2
   1   8   9 0.28765 1.76127   2
   1   8   9 2.13088 1.36333   1
  -4   9   9 34.5504 3.36395   1
  -4   9   9 1.76213 1.19486   2
  -3   9   9 1.04035 1.15177   2
  -3   9   9 -0.2434 1.53314   1
  -2   9   9 8.17462 1.18311   2
  -2   9   9 109.208 3.82797   1
  -1   9   9 0.97629 1.47723   2
  -1   9   9 18.5296 1.60003   1
   0   9   9 -0.5081 1.76800   2
   0   9   9 0.35155 1.37339   1
   1   9   9 6.54553 2.05293   2
   1   9   9 65.1725 2.53927   1
  -4  10   9 0.81143 1.24087   2
  -4  10   9 23.1571 3.02480   1
  -3  10   9 3.01618 1.09794   2
  -3  10   9 55.9581 3.10985   1
  -2  10   9 6.91131 1.81353   1
  -2  10   9 -1.2810 1.42545   2
  -1  10   9 2.58958 1.57801   2
  -1  10   9 35.2857 1.87937   1
   0  10   9 16.4450 1.71431   1
   0  10   9 2.24612 1.60613   2
  -3  11   9 24.8611 2.43057   1
  -3  11   9 2.30974 1.21605   2
  -2  11   9 146.905 4.57511   1
  -2  11   9 9.53578 1.68084   2
  -1  11   9 5.71332 1.69002   2
  -1  11   9 97.6195 3.20887   1
   0   0  10 29.4381 4.33507  -2
  -4   0  10 29.4381 4.33507   1
  -1   0  10 451.642 20.9466  -2
  -3   0  10 451.642 20.9466   1
  -3   0  10 480.819 21.0959   1
  -2   0  10 4.33729 3.08359  -2
  -2   0  10 4.33729 3.08359   1
  -2   0  10 0.55911 3.58233   1
  -2   0  10 -0.1302 3.62742   2
  -3   0  10 150.578 5.90902  -2
  -1   0  10 150.578 5.90902   1
  -1   0  10 10.7903 3.90690   2
  -4   0  10 137.338 6.09378  -2
   0   0  10 137.338 6.09378   1
   0   1  10 40.3445 2.98603  -2
  -4   1  10 40.3445 2.98603   1
  -1   1  10 5.10957 3.27003  -2
  -3   1  10 5.10957 3.27003   1
  -3   1  10 2.18438 2.38710   1
  -2   1  10 20.6323 3.15020   1
  -2   1  10 18.4443 2.47095  -2
  -2   1  10 18.4443 2.47095   1
  -2   1  10 0.90265 2.60755   2
  -3   1  10 28.3672 2.23039  -2
  -1   1  10 28.3672 2.23039   1
  -1   1  10 -1.1349 2.22328   2
  -4   1  10 33.4624 3.29424  -2
   0   1  10 33.4624 3.29424   1
   0   2  10 63.0235 6.55468  -2
  -4   2  10 63.0235 6.55468   1
  -3   2  10 -1.4852 3.15039   2
  -1   2  10 24.1593 4.36455  -2
  -3   2  10 24.1593 4.36455   1
  -3   2  10 25.1274 4.19024   1
  -2   2  10 -0.3709 2.07348   2
  -2   2  10 0.08263 2.49582  -2
  -2   2  10 0.08263 2.49582   1
  -2   2  10 -0.0551 3.07159   1
  -3   2  10 60.1956 2.60714  -2
  -1   2  10 60.1956 2.60714   1
  -1   2  10 1.48230 3.32573   2
  -1   2  10 54.0934 6.28093   1
  -4   2  10 69.8258 3.39464  -2
   0   2  10 69.8258 3.39464   1
  -3   3  10 14.5550 4.53801   1
  -1   3  10 6.36572 5.10253  -2
  -3   3  10 6.36572 5.10253   1
  -3   3  10 0.84440 3.77233   2
  -2   3  10 67.4151 3.44870  -2
  -2   3  10 67.4151 3.44870   1
  -2   3  10 -0.8132 3.16950   2
  -2   3  10 80.4716 7.20138   1
  -1   3  10 0.59670 3.43731   2
  -1   3  10 7.51949 3.71355   1
  -3   3  10 6.93820 2.29006  -2
  -1   3  10 6.93820 2.29006   1
  -3   4  10 -1.5319 3.29423   2
  -1   4  10 20.7554 4.58133  -2
  -3   4  10 20.7554 4.58133   1
  -2   4  10 3.24680 3.63607   1
  -2   4  10 -1.2510 2.54973  -2
  -2   4  10 -1.2510 2.54973   1
  -2   4  10 1.59613 3.72882   2
  -3   4  10 33.1407 2.57410  -2
  -1   4  10 33.1407 2.57410   1
  -1   4  10 29.0584 5.75164   1
  -3   5  10 5.00545 4.06960   2
  -1   5  10 34.5667 5.34222  -2
  -3   5  10 34.5667 5.34222   1
  -2   5  10 164.301 5.29888  -2
  -2   5  10 164.301 5.29888   1
  -2   5  10 184.268 11.0304   1
  -2   5  10 1.65062 3.32935   2
  -1   5  10 29.0546 5.47233   1
  -3   5  10 27.5570 2.43143  -2
  -1   5  10 27.5570 2.43143   1
  -2   6  10 -1.3787 3.30671  -2
  -2   6  10 -1.3787 3.30671   1
   0   0   0    0.00    0.00   0
;
_shelx_hkl_checksum              59656
_shelx_res_file
;
TITL AC1823C_0t in P2(1)/c
CELL 0.71073   6.48940  17.10090   7.22410  90.0000 102.9644  90.0000
ZERR    4.00   0.00240   0.00610   0.00260   0.0000   0.0049   0.0000
LATT  1
SYMM -X, 0.5+Y, 0.5-Z
SFAC C H O BR
UNIT 36 28 4 4
TEMP -148
SIZE 0.40 0.21 0.05
REM colourless block
L.S. 16
BOND
BOND $H
CONF
LIST 4
ACTA
WPDB -1
HTAB
EQIV $1 x, -y+1/2, z-1/2
HTAB C2 Br1_$1
FMAP 2
PLAN 20
REM EXTI    0.005986
WGHT    0.114900
BASF   0.07616
FVAR       0.54305
BR1   4    0.344086    0.459449    0.194852    11.00000    0.02663    0.01065 =
         0.02318   -0.00020    0.00597   -0.00221
O1    3    0.492933    0.125309    0.271720    11.00000    0.01727    0.01580 =
         0.03557   -0.00011    0.00343    0.00275
C1    1    0.308343    0.141353    0.206222    11.00000    0.01757    0.01252 =
         0.01823   -0.00128    0.00544   -0.00278
C2    1    0.126042    0.083523    0.145304    11.00000    0.01920    0.01305 =
         0.02168   -0.00063    0.00521   -0.00262
AFIX  23
H2A   2    0.111675    0.050191    0.253747    11.00000   -1.20000
H2B   2    0.151461    0.049443    0.041905    11.00000   -1.20000
AFIX   0
C3    1   -0.076399    0.133038    0.075489    11.00000    0.01946    0.01678 =
         0.02094   -0.00101    0.00348   -0.00598
AFIX  23
H3A   2   -0.142422    0.121178   -0.058860    11.00000   -1.20000
H3B   2   -0.180607    0.122882    0.153889    11.00000   -1.20000
AFIX   0
C4    1   -0.000184    0.216703    0.097343    11.00000    0.01646    0.01529 =
         0.01440    0.00064    0.00325   -0.00109
C5    1   -0.116214    0.285743    0.053770    11.00000    0.01569    0.01934 =
         0.02201    0.00253    0.00147    0.00060
AFIX  43
H5A   2   -0.264613    0.283842    0.003939    11.00000   -1.20000
AFIX   0
C6    1   -0.011902    0.357337    0.084204    11.00000    0.01936    0.01450 =
         0.01917    0.00260    0.00383    0.00427
AFIX  43
H6A   2   -0.089484    0.404532    0.054431    11.00000   -1.20000
AFIX   0
C7    1    0.206981    0.360185    0.158538    11.00000    0.01842    0.01317 =
         0.01611    0.00020    0.00421   -0.00176
C8    1    0.325726    0.292619    0.203410    11.00000    0.01549    0.01303 =
         0.01767    0.00019    0.00326   -0.00107
AFIX  43
H8A   2    0.473992    0.294735    0.253839    11.00000   -1.20000
AFIX   0
C9    1    0.218427    0.221142    0.171444    11.00000    0.01565    0.01218 =
         0.01512   -0.00011    0.00362   -0.00095
HKLF 5
REM  AC1823C_0t in P2(1)/c
REM R1 =  0.0300 for    3600 Fo > 4sig(Fo)  and  0.0416 for all    4453 data
REM    101 parameters refined using      0 restraints
END
WGHT      0.1149      0.0000
REM Instructions for potential hydrogen bonds
HTAB C2 Br1_$1
REM Highest difference peak  1.150,  deepest hole -1.152,  1-sigma level  0.181
Q1    1   0.0972  0.3527  0.1185  11.00000  0.05    0.79
Q2    1   0.3777 -0.0281  0.0543  11.00000  0.05    0.60
Q3    1   0.3772  0.5240  0.0711  11.00000  0.05    0.57
Q4    1  -0.0294  0.3827  0.0783  11.00000  0.05    0.57
Q5    1   0.5238  0.1502  0.2409  11.00000  0.05    0.56
Q6    1   0.2561  0.1888  0.1747  11.00000  0.05    0.56
Q7    1  -0.0634  0.2614  0.0586  11.00000  0.05    0.56
Q8    1   0.4848  0.1165  0.2246  11.00000  0.05    0.55
Q9    1   0.2841  0.2473  0.1676  11.00000  0.05    0.55
Q10   1   0.1189  0.2231  0.1766  11.00000  0.05    0.54
Q11   1   0.4438  0.5290 -0.0056  11.00000  0.05    0.54
Q12   1   0.1559  0.0227  0.2767  11.00000  0.05    0.53
Q13   1   0.4645  0.0975  0.3002  11.00000  0.05    0.53
Q14   1   0.3925  0.5188  0.3568  11.00000  0.05    0.53
Q15   1  -0.1567  0.4108  0.1050  11.00000  0.05    0.52
Q16   1   0.4054  0.5271  0.4539  11.00000  0.05    0.52
Q17   1   0.0824  0.0321  0.1792  11.00000  0.05    0.51
Q18   1   0.1246  0.0397  0.2043  11.00000  0.05    0.50
Q19   1   0.6473  0.1311  0.3025  11.00000  0.05    0.50
Q20   1   0.2507  0.1306  0.1924  11.00000  0.05    0.50
;
_shelx_res_checksum              76313
loop_
_space_group_symop_operation_xyz
'x, y, z'
'-x, y+1/2, -z+1/2'
'-x, -y, -z'
'x, -y-1/2, z-1/2'
loop_
_atom_site_type_symbol
_atom_site_label
_atom_site_fract_x
_atom_site_fract_y
_atom_site_fract_z
_atom_site_U_iso_or_equiv
_atom_site_adp_type
_atom_site_calc_flag
_atom_site_occupancy
Br Br1 0.34409(5) 0.45945(2) 0.19485(4) 0.02009(16) Uani d 1
O O1 0.4929(3) 0.12531(11) 0.2717(4) 0.0233(5) Uani d 1
C C1 0.3083(4) 0.14135(17) 0.2062(4) 0.0159(5) Uani d 1
C C2 0.1260(4) 0.08352(17) 0.1453(4) 0.0179(5) Uani d 1
H H2A 0.1117 0.0502 0.2537 0.021 Uiso calc 1
H H2B 0.1515 0.0494 0.0419 0.021 Uiso calc 1
C C3 -0.0764(5) 0.13304(17) 0.0755(4) 0.0192(6) Uani d 1
H H3A -0.1424 0.1212 -0.0589 0.023 Uiso calc 1
H H3B -0.1806 0.1229 0.1539 0.023 Uiso calc 1
C C4 -0.0002(4) 0.21670(16) 0.0973(4) 0.0154(5) Uani d 1
C C5 -0.1162(5) 0.28574(17) 0.0538(4) 0.0194(5) Uani d 1
H H5A -0.2646 0.2838 0.0039 0.023 Uiso calc 1
C C6 -0.0119(4) 0.35734(17) 0.0842(4) 0.0178(5) Uani d 1
H H6A -0.0895 0.4045 0.0544 0.021 Uiso calc 1
C C7 0.2070(4) 0.36019(16) 0.1585(4) 0.0158(5) Uani d 1
C C8 0.3257(4) 0.29262(17) 0.2034(4) 0.0155(5) Uani d 1
H H8A 0.474 0.2947 0.2538 0.019 Uiso calc 1
C C9 0.2184(4) 0.22114(15) 0.1714(4) 0.0143(5) Uani d 1
loop_
_atom_site_aniso_label
_atom_site_aniso_U_11
_atom_site_aniso_U_22
_atom_site_aniso_U_33
_atom_site_aniso_U_12
_atom_site_aniso_U_13
_atom_site_aniso_U_23
Br1 0.0266(2) 0.0106(2) 0.0232(2) -0.00221(8) 0.00597(15) -0.00020(8)
O1 0.0173(10) 0.0158(10) 0.0356(13) 0.0027(8) 0.0034(9) -0.0001(9)
C1 0.0176(11) 0.0125(12) 0.0182(13) -0.0028(9) 0.0054(10) -0.0013(9)
C2 0.0192(12) 0.0131(12) 0.0217(13) -0.0026(10) 0.0052(10) -0.0006(10)
C3 0.0195(13) 0.0168(13) 0.0209(13) -0.0060(10) 0.0035(11) -0.0010(10)
C4 0.0165(11) 0.0153(12) 0.0144(11) -0.0011(9) 0.0033(9) 0.0006(9)
C5 0.0157(11) 0.0193(13) 0.0220(13) 0.0006(10) 0.0015(10) 0.0025(10)
C6 0.0194(12) 0.0145(12) 0.0192(13) 0.0043(10) 0.0038(10) 0.0026(10)
C7 0.0184(12) 0.0132(11) 0.0161(12) -0.0018(9) 0.0042(10) 0.0002(9)
C8 0.0155(11) 0.0130(13) 0.0177(13) -0.0011(9) 0.0033(10) 0.0002(9)
C9 0.0156(11) 0.0122(11) 0.0151(11) -0.0010(9) 0.0036(9) -0.0001(9)
loop_
_atom_type_symbol
_atom_type_description
_atom_type_scat_dispersion_real
_atom_type_scat_dispersion_imag
_atom_type_scat_source
C C 0.0033 0.0016 'International Tables Vol C Tables 4.2.6.8 and 6.1.1.4'
H H 0.0000 0.0000 'International Tables Vol C Tables 4.2.6.8 and 6.1.1.4'
O O 0.0106 0.0060 'International Tables Vol C Tables 4.2.6.8 and 6.1.1.4'
Br Br -0.2901 2.4595 'International Tables Vol C Tables 4.2.6.8 and 6.1.1.4'
loop_
_geom_angle_atom_site_label_1
_geom_angle_atom_site_label_2
_geom_angle_atom_site_label_3
_geom_angle
O1 C1 C9 126.1(3)
O1 C1 C2 126.6(3)
C9 C1 C2 107.3(2)
C1 C2 C3 106.6(2)
C1 C2 H2A 110.4
C3 C2 H2A 110.4
C1 C2 H2B 110.4
C3 C2 H2B 110.4
H2A C2 H2B 108.6
C4 C3 C2 104.5(2)
C4 C3 H3A 110.9
C2 C3 H3A 110.9
C4 C3 H3B 110.9
C2 C3 H3B 110.9
H3A C3 H3B 108.9
C5 C4 C9 119.2(2)
C5 C4 C3 129.0(2)
C9 C4 C3 111.8(2)
C6 C5 C4 119.3(3)
C6 C5 H5A 120.4
C4 C5 H5A 120.4
C5 C6 C7 120.4(3)
C5 C6 H6A 119.8
C7 C6 H6A 119.8
C8 C7 C6 121.5(3)
C8 C7 Br1 119.5(2)
C6 C7 Br1 119.0(2)
C7 C8 C9 117.3(2)
C7 C8 H8A 121.3
C9 C8 H8A 121.3
C8 C9 C4 122.3(2)
C8 C9 C1 127.8(2)
C4 C9 C1 109.9(2)
loop_
_geom_bond_atom_site_label_1
_geom_bond_atom_site_label_2
_geom_bond_distance
Br1 C7 1.907(3)
O1 C1 1.216(3)
C1 C9 1.483(4)
C1 C2 1.529(4)
C2 C3 1.549(4)
C2 H2A 0.99
C2 H2B 0.99
C3 C4 1.510(4)
C3 H3A 0.99
C3 H3B 0.99
C4 C5 1.398(4)
C4 C9 1.401(4)
C5 C6 1.392(4)
C5 H5A 0.95
C6 C7 1.402(4)
C6 H6A 0.95
C7 C8 1.386(4)
C8 C9 1.400(4)
C8 H8A 0.95
loop_
_geom_hbond_atom_site_label_D
_geom_hbond_atom_site_label_H
_geom_hbond_atom_site_label_A
_geom_hbond_site_symmetry_A
_geom_hbond_distance_DH
_geom_hbond_distance_HA
_geom_hbond_distance_DA
_geom_hbond_angle_DHA
_geom_hbond_publ_flag
C3 H3B O1 1_455 0.99 2.45 3.408(4) 161.6 y
C5 H5A O1 4_465 0.95 2.55 3.253(4) 130.6 y
C2 H2B Br1 4_565 0.99 3.05 3.898(3) 145.0 y
loop_
_geom_torsion_atom_site_label_1
_geom_torsion_atom_site_label_2
_geom_torsion_atom_site_label_3
_geom_torsion_atom_site_label_4
_geom_torsion
O1 C1 C2 C3 179.0(3)
C9 C1 C2 C3 -0.8(3)
C1 C2 C3 C4 0.7(3)
C2 C3 C4 C5 179.3(3)
C2 C3 C4 C9 -0.4(3)
C9 C4 C5 C6 0.3(4)
C3 C4 C5 C6 -179.4(3)
C4 C5 C6 C7 -0.3(4)
C5 C6 C7 C8 0.1(4)
C5 C6 C7 Br1 179.2(2)
C6 C7 C8 C9 0.0(4)
Br1 C7 C8 C9 -179.01(19)
C7 C8 C9 C4 -0.1(4)
C7 C8 C9 C1 179.6(3)
C5 C4 C9 C8 -0.1(4)
C3 C4 C9 C8 179.6(2)
C5 C4 C9 C1 -179.8(2)
C3 C4 C9 C1 -0.1(3)
O1 C1 C9 C8 1.1(5)
C2 C1 C9 C8 -179.2(3)
O1 C1 C9 C4 -179.2(3)
C2 C1 C9 C4 0.6(3)

_cod_database_fobs_code 2241872
