#------------------------------------------------------------------------------
#$Date: 2019-04-26 05:34:48 +0300 (Fri, 26 Apr 2019) $
#$Revision: 214790 $
#$URL: file:///home/coder/svn-repositories/cod/cif/2/24/29/2242914.cif $
#------------------------------------------------------------------------------
#
# This file is available in the Crystallography Open Database (COD),
# http://www.crystallography.net/. The original data for this entry
# were provided by IUCr Journals, http://journals.iucr.org/.
#
# The file may be used within the scientific community so long as
# proper attribution is given to the journal article from which the
# data were obtained.
#
data_2242914
loop_
_publ_author_name
'Matsulevich, Zhanna V.'
'Lukiyanova, Julia M.'
'Naumov, Vladimir I.'
'Borisova, Galina N.'
'Osmanov, Vladimir K.'
'Borisov, Alexander V.'
'Grishina, Maria M.'
'Khrustalev, Victor N.'
_publ_section_title
;
 Bromination of bis(pyridin-2-yl) diselenide in methylene chloride: the
 reaction mechanism and crystal structures of
 1<i>H</i>-pyridine-2-selenenyl dibromide and its cycloadduct with
 cyclopentene
 (3a<i>SR</i>,9a<i>RS</i>)-2,3,3a,9a-tetrahydro-1<i>H</i>-cyclopenta[4,5][1,3]selenazolo[3,2-<i>a</i>]pyridinium
 bromide
;
_journal_coeditor_code           YK2121
_journal_issue                   5
_journal_name_full               'Acta Crystallographica Section E'
_journal_page_first              675
_journal_page_last               679
_journal_paper_doi               10.1107/S2056989019004997
_journal_volume                  75
_journal_year                    2019
_chemical_formula_iupac          'C10 H12 N Se +, Br -'
_chemical_formula_moiety         'C10 H12 N Se +, Br -'
_chemical_formula_sum            'C10 H12 Br N Se'
_chemical_formula_weight         305.07
_chemical_name_common
;
(3a<i>SR</i>,9a<i>RS</i>)-2,3,3a,9a-Tetrahydro-1<i>H</i>-cyclopenta[4,5]\
[1,3]selenazolo[3,2-<i>a</i>]pyridinium bromide
;
_chemical_name_systematic
;
7-Selena-1\l^5^-azatricyclo[6.4.0.0^2,6^]dodeca-1(12),8,10-trien-1-ylium
bromide
;
_space_group_crystal_system      triclinic
_space_group_IT_number           2
_space_group_name_Hall           '-P 1'
_space_group_name_H-M_alt        'P -1'
_symmetry_space_group_name_Hall  '-P 1'
_symmetry_space_group_name_H-M   'P -1'
_atom_sites_solution_hydrogens   geom
_atom_sites_solution_primary     difmap
_atom_sites_solution_secondary   difmap
_audit_creation_method           SHELXL-2015
_cell_angle_alpha                111.3500(10)
_cell_angle_beta                 93.657(2)
_cell_angle_gamma                93.5430(10)
_cell_formula_units_Z            2
_cell_length_a                   6.3333(5)
_cell_length_b                   9.0515(7)
_cell_length_c                   9.5807(7)
_cell_measurement_reflns_used    4390
_cell_measurement_temperature    120(2)
_cell_measurement_theta_max      32.65
_cell_measurement_theta_min      2.29
_cell_volume                     508.35(7)
_computing_cell_refinement
;
SAINT (Bruker, 2002)
;
_computing_data_collection
;
APEX2 (Bruker, 2005)
;
_computing_data_reduction
;
SAINT (Bruker, 2002)
;
_computing_molecular_graphics
;
SHELXTL (Sheldrick, 2008)
;
_computing_publication_material
;
SHELXTL (Sheldrick, 2008)
;
_computing_structure_refinement
;
SHELXTL (Sheldrick, 2008)
;
_computing_structure_solution
;
SHELXTL (Sheldrick, 2008)
;
_diffrn_ambient_temperature      120(2)
_diffrn_measured_fraction_theta_full 1.000
_diffrn_measured_fraction_theta_max 0.994
_diffrn_measurement_device_type  'Bruker APEXII CCD'
_diffrn_measurement_method       '\f and \w scans'
_diffrn_radiation_type           MoK\a
_diffrn_radiation_wavelength     0.71073
_diffrn_reflns_av_R_equivalents  0.0291
_diffrn_reflns_av_unetI/netI     0.0366
_diffrn_reflns_limit_h_max       9
_diffrn_reflns_limit_h_min       -9
_diffrn_reflns_limit_k_max       13
_diffrn_reflns_limit_k_min       -13
_diffrn_reflns_limit_l_max       14
_diffrn_reflns_limit_l_min       -14
_diffrn_reflns_number            7982
_diffrn_reflns_theta_full        25.242
_diffrn_reflns_theta_max         32.671
_diffrn_reflns_theta_min         2.292
_diffrn_source                   'fine-focus sealed tube'
_exptl_absorpt_coefficient_mu    7.574
_exptl_absorpt_correction_T_max  0.154
_exptl_absorpt_correction_T_min  0.115
_exptl_absorpt_correction_type   multi-scan
_exptl_absorpt_process_details
;
(SADABS; Sheldrick, 2003)
;
_exptl_crystal_colour            colourless
_exptl_crystal_density_diffrn    1.993
_exptl_crystal_description       prism
_exptl_crystal_F_000             296
_exptl_crystal_size_max          0.30
_exptl_crystal_size_mid          0.20
_exptl_crystal_size_min          0.20
_refine_diff_density_max         0.644
_refine_diff_density_min         -1.053
_refine_ls_extinction_method     none
_refine_ls_goodness_of_fit_ref   1.056
_refine_ls_hydrogen_treatment    constr
_refine_ls_matrix_type           full
_refine_ls_number_parameters     118
_refine_ls_number_reflns         3711
_refine_ls_number_restraints     0
_refine_ls_restrained_S_all      1.056
_refine_ls_R_factor_all          0.0376
_refine_ls_R_factor_gt           0.0302
_refine_ls_shift/su_max          0.001
_refine_ls_shift/su_mean         0.000
_refine_ls_structure_factor_coef Fsqd
_refine_ls_weighting_details
'w=1/[\s^2^(Fo^2^)+(0.0431P)^2^+0.1817P] where P=(Fo^2^+2Fc^2^)/3'
_refine_ls_weighting_scheme      calc
_refine_ls_wR_factor_gt          0.0772
_refine_ls_wR_factor_ref         0.0803
_reflns_number_gt                3156
_reflns_number_total             3711
_reflns_threshold_expression     'I > 2\s(I)'
_cod_data_source_file            yk2121sup1.cif
_cod_data_source_block           2
_cod_database_code               2242914
_shelx_space_group_comment
;
The symmetry employed for this shelxl refinement is uniquely defined
by the following loop, which should always be used as a source of
symmetry information in preference to the above space-group names.
They are only intended as comments.
;
_shelx_estimated_absorpt_t_min   0.210
_shelx_estimated_absorpt_t_max   0.313
_shelx_hkl_file
;
  -1   0   0    6.75    0.27
  -1   0   0    6.01    0.27
  -1   0   0    6.07    0.32
  -2   0   0   30.86    1.17
  -2   0   0   28.24    1.21
  -2   0   0   27.93    1.17
   2   0   0   27.72    1.15
  -3   0   0   36.79    1.73
  -3   0   0   43.44    1.69
  -3   0   0   44.83    1.68
   3   0   0   38.54    1.65
  -4   0   0   24.89    1.19
   4   0   0   25.59    1.14
  -5   0   0  193.62    7.64
   5   0   0  200.28    7.36
  -6   0   0   20.51    1.15
   6   0   0   19.42    1.12
  -7   0   0    0.19    0.49
   7   0   0   -0.24    0.49
  -8   0   0   33.29    1.63
   8   0   0   32.07    1.58
  -9   0   0   11.77    1.04
   9   0   0   13.53    0.99
   9  -1   0   22.61    1.33
  -9   1   0   23.20    1.36
   8  -1   0   25.69    1.33
  -8   1   0   27.18    1.44
   7  -1   0   40.57    1.81
  -7   1   0   42.39    1.88
   6  -1   0   54.97    2.26
  -6   1   0   54.63    2.36
   5  -1   0    9.01    0.67
  -5   1   0   10.09    0.48
  -5   1   0    8.12    0.77
  -4   1   0  260.83    9.74
  -4   1   0  223.84    9.33
   3  -1   0  346.89   13.25
  -3   1   0  313.03   12.61
   2  -1   0   13.00    0.56
   2  -1   0   11.80    0.61
   2  -1   0   12.10    0.56
   1  -1   0   21.49    0.96
   1  -1   0   21.46    0.86
   1  -1   0   21.90    0.90
   0  -1   0  200.13    7.58
   0  -1   0  183.26    7.99
   0   1   0  209.66    7.58
   0   1   0  202.88    7.28
  -1  -1   0  163.11    6.80
  -1  -1   0  168.24    6.46
   1   1   0  164.74    6.22
   1   1   0  180.21    6.80
  -2  -1   0  661.89   26.17
  -2  -1   0  658.38   24.78
   2   1   0  658.07   23.91
   2   1   0  633.69   26.15
  -3  -1   0    0.50    0.33
   3   1   0    0.31    0.27
  -4  -1   0   50.59    2.16
   4   1   0   52.56    2.10
  -5  -1   0  109.61    4.37
   5   1   0  109.59    4.20
  -6  -1   0    1.58    0.45
   6   1   0    0.60    0.49
  -7  -1   0   53.02    2.31
   7   1   0   54.42    2.27
  -8  -1   0    0.23    0.51
   8   1   0    0.03    0.49
  -9  -1   0    6.62    0.69
   9   1   0    7.35    0.77
   9  -2   0   -0.42    0.56
  -9   2   0    0.03    0.48
   8  -2   0    0.32    0.52
  -8   2   0    0.48    0.47
   7  -2   0   83.78    3.29
  -7   2   0   81.73    3.42
   6  -2   0   56.63    2.31
  -6   2   0   57.24    2.43
   5  -2   0  122.86    4.73
  -5   2   0  131.67    5.07
  -5   2   0  119.61    4.93
   4  -2   0    8.06    0.47
   4  -2   0    6.56    0.51
  -4   2   0    6.27    0.64
   3  -2   0    5.24    0.39
   3  -2   0    5.60    0.50
   3  -2   0    5.56    0.42
   2  -2   0  588.36   21.06
   2  -2   0  529.35   22.97
   2  -2   0  601.62   21.78
   1  -2   0  296.34   10.26
   1  -2   0  284.08   10.66
   1  -2   0  260.97   11.29
   0  -2   0   24.53    1.12
   0  -2   0   25.61    1.00
  -1  -2   0   57.63    2.32
  -1  -2   0   59.71    2.47
   1   2   0   60.01    2.26
  -2  -2   0  125.98    4.85
  -2  -2   0  127.69    5.07
   2   2   0  121.87    4.68
  -3  -2   0  296.68   11.39
  -3  -2   0  304.11   11.91
   3   2   0  290.76   10.97
  -4  -2   0   69.74    2.89
   4   2   0   71.34    2.81
  -5  -2   0    1.67    0.44
   5   2   0    0.71    0.43
  -6  -2   0   17.22    1.08
   6   2   0   16.47    1.02
  -7  -2   0   83.59    3.46
   7   2   0   84.38    3.38
  -8  -2   0    3.33    0.57
   8   2   0    3.63    0.70
  -9  -2   0    0.80    0.50
   9   2   0    1.14    0.64
   9  -3   0    4.44    0.68
  -9   3   0    4.00    0.65
   8  -3   0   14.12    0.95
  -8   3   0   13.63    1.03
   7  -3   0    3.03    0.56
  -7   3   0    1.98    0.48
   6  -3   0   53.27    2.13
  -6   3   0   48.94    2.19
   5  -3   0  244.49    9.37
   5  -3   0  225.66    8.59
  -5   3   0  225.21    8.96
   4  -3   0    2.74    0.33
   4  -3   0    2.36    0.33
   3  -3   0   86.19    3.73
   3  -3   0   90.60    3.38
   3  -3   0   93.51    3.55
   2  -3   0  319.75   11.10
   2  -3   0  286.03   12.22
   2  -3   0  302.44   11.52
   1  -3   0    8.96    0.58
   1  -3   0    8.24    0.44
  -1   3   0   10.11    0.49
   0  -3   0  511.94   21.14
   0  -3   0  520.70   20.04
   0   3   0  544.54   19.27
  -1  -3   0   89.35    3.52
  -1  -3   0   92.00    3.76
   1   3   0   91.08    3.43
  -2  -3   0    0.22    0.22
  -2  -3   0    0.78    0.27
   2   3   0    0.19    0.30
  -3  -3   0  248.82    9.42
  -3  -3   0  246.75    9.85
   3   3   0  238.80    9.09
  -4  -3   0   45.97    2.00
  -4  -3   0   48.40    1.90
   4   3   0   44.00    1.95
  -5  -3   0   67.70    2.84
   5   3   0   67.32    2.78
  -6  -3   0   18.13    1.11
   6   3   0   20.19    1.15
  -7  -3   0    0.74    0.50
   7   3   0    0.19    0.53
  -8  -3   0   15.15    1.02
   8   3   0   15.43    1.19
  -9  -3   0   33.08    1.61
   9   3   0   28.08    1.63
   9  -4   0   24.27    1.35
  -9   4   0   23.40    1.36
   8  -4   0   36.18    1.68
  -8   4   0   35.76    1.73
   7  -4   0   11.41    0.88
  -7   4   0   11.28    0.90
   6  -4   0    0.24    0.41
  -6   4   0    0.29    0.44
  -6   4   0    0.53    0.32
   5  -4   0   18.90    0.96
   5  -4   0   18.48    0.89
  -5   4   0   16.70    1.03
   4  -4   0  110.23    4.27
   4  -4   0  108.90    4.07
   4  -4   0  105.70    4.48
   3  -4   0  320.08   13.54
   3  -4   0  344.24   12.30
   3  -4   0  340.70   12.78
   2  -4   0    5.06    0.39
   2  -4   0    5.18    0.53
  -2   4   0    5.35    0.39
   1  -4   0    8.10    0.67
   1  -4   0    7.83    0.44
  -1   4   0    8.63    0.54
   0  -4   0   78.15    3.08
   0  -4   0   78.63    3.36
   0   4   0   81.53    3.08
  -1  -4   0    0.93    0.26
  -1  -4   0    1.18    0.33
   1   4   0    1.23    0.30
  -2  -4   0  226.86    8.83
  -2  -4   0  206.61    8.35
   2   4   0  219.66    8.09
  -3  -4   0   11.32    0.65
  -3  -4   0   11.42    0.71
   3   4   0    9.88    0.75
  -4  -4   0   29.56    1.27
  -4  -4   0   29.80    1.40
   4   4   0   28.25    1.39
  -5  -4   0  122.75    4.87
   5   4   0  120.68    4.71
  -6  -4   0    1.48    0.55
   6   4   0    1.28    0.55
  -7  -4   0    4.04    0.64
   7   4   0    3.99    0.73
  -8  -4   0    1.34    0.57
   8   4   0    0.79    0.59
   9  -5   0   -0.39    0.56
  -9   5   0    0.08    0.53
   8  -5   0    1.60    0.56
  -8   5   0    2.20    0.55
   7  -5   0   99.08    3.79
  -7   5   0   95.76    3.94
   6  -5   0   32.96    1.52
   6  -5   0   36.66    1.62
  -6   5   0   34.87    1.65
   5  -5   0    6.19    0.53
   5  -5   0    6.38    0.65
  -5   5   0    6.10    0.58
   4  -5   0   10.87    0.73
   4  -5   0   10.07    0.60
   4  -5   0    9.71    0.77
   3  -5   0   19.54    1.10
   3  -5   0   18.97    0.92
  -3   5   0   21.17    0.94
   2  -5   0  162.91    6.38
   2  -5   0  166.76    6.88
  -2   5   0  170.24    6.21
   1  -5   0  130.18    5.04
   1  -5   0  131.53    5.48
  -1   5   0  131.84    4.96
   0  -5   0    2.23    0.29
   0  -5   0    1.62    0.40
   0   5   0    2.01    0.40
  -1  -5   0  106.60    4.44
  -1  -5   0  105.78    4.13
   1   5   0  106.28    4.07
  -2  -5   0  147.17    5.86
  -2  -5   0  140.01    5.54
   2   5   0  140.78    5.40
  -3  -5   0    1.22    0.34
  -3  -5   0    1.41    0.40
   3   5   0    1.33    0.44
  -4  -5   0   73.68    3.05
  -4  -5   0   74.66    3.05
   4   5   0   72.40    2.98
  -5  -5   0    1.73    0.55
   5   5   0    2.10    0.60
  -6  -5   0   43.00    2.02
   6   5   0   46.55    2.09
  -7  -5   0   51.23    2.30
   7   5   0   50.99    2.34
  -8  -5   0    0.65    0.55
   8   5   0   -0.19    0.58
   8  -6   0    5.95    0.69
  -8   6   0    4.45    0.61
   7  -6   0   14.18    0.96
  -7   6   0   13.67    0.94
   6  -6   0   10.13    0.76
   6  -6   0   10.77    0.84
  -6   6   0    9.16    0.80
   5  -6   0   91.45    3.88
   5  -6   0   90.05    3.49
  -5   6   0   91.84    3.67
   4  -6   0   37.54    1.84
   4  -6   0   37.70    1.65
  -4   6   0   38.92    1.60
   3  -6   0    1.04    0.29
   3  -6   0    0.98    0.46
  -3   6   0    1.53    0.36
   2  -6   0  130.56    5.17
   2  -6   0  136.99    5.67
  -2   6   0  136.46    5.08
   1  -6   0    3.43    0.57
   1  -6   0    4.15    0.39
  -1   6   0    3.43    0.47
   0  -6   0  212.21    9.11
   0  -6   0  228.79    8.50
   0   6   0  225.63    8.31
  -1  -6   0   14.80    0.79
  -1  -6   0   15.10    0.99
   1   6   0   14.46    0.86
  -2  -6   0    0.47    0.39
  -2  -6   0    1.28    0.35
   2   6   0    0.83    0.40
  -3  -6   0  136.24    5.50
  -3  -6   0  134.02    5.24
   3   6   0  129.80    5.10
  -4  -6   0   96.73    4.04
  -4  -6   0  101.50    3.96
   4   6   0   95.26    3.86
  -5  -6   0   12.37    0.99
   5   6   0   10.10    0.95
  -6  -6   0    0.18    0.53
   6   6   0    0.56    0.57
  -7  -6   0    6.21    0.75
   7   6   0    5.73    0.82
  -8  -6   0   21.02    1.29
   8   6   0   20.23    1.40
   8  -7   0   27.74    1.41
   7  -7   0    0.97    0.46
  -7   7   0    0.28    0.46
   6  -7   0    0.42    0.49
  -6   7   0   -0.05    0.42
  -6   7   0    1.40    0.44
   5  -7   0   44.02    2.12
  -5   7   0   44.48    1.92
  -5   7   0   43.69    1.85
   4  -7   0   19.52    1.19
   4  -7   0   18.82    0.98
  -4   7   0   19.64    1.01
   3  -7   0   69.69    2.80
   3  -7   0   71.92    3.19
  -3   7   0   70.47    2.79
   2  -7   0   45.32    1.86
   2  -7   0   46.92    2.26
  -2   7   0   46.41    1.95
   1  -7   0    1.75    0.60
   1  -7   0    1.41    0.29
  -1   7   0    0.92    0.44
   0  -7   0  243.41    8.98
   0  -7   0  226.12    9.65
   0   7   0  234.62    8.80
  -1  -7   0    2.93    0.37
  -1  -7   0    2.34    0.52
   1   7   0    1.11    0.43
  -2  -7   0   27.26    1.34
  -2  -7   0   31.69    1.51
   2   7   0   28.10    1.38
  -3  -7   0    0.44    0.39
  -3  -7   0    0.01    0.42
   3   7   0    0.18    0.44
  -4  -7   0   10.13    0.90
   4   7   0    9.17    0.84
  -5  -7   0  113.58    4.49
   5   7   0  106.95    4.37
  -6  -7   0    9.62    0.88
   6   7   0    9.56    0.91
  -7  -7   0    1.49    0.61
   7   7   0    1.37    0.64
  -7   8   0   18.36    1.08
   6  -8   0   38.96    1.93
  -6   8   0   37.03    1.68
   5  -8   0    1.56    0.64
  -5   8   0    2.28    0.46
   4  -8   0   45.48    2.16
  -4   8   0   39.82    1.81
   3  -8   0   48.90    2.34
  -3   8   0   45.02    1.99
   2  -8   0   22.83    1.49
  -2   8   0   23.23    1.21
   1  -8   0   65.58    3.12
   1  -8   0   70.73    2.71
  -1   8   0   68.76    2.81
   0  -8   0    0.24    0.30
   0  -8   0   -0.02    0.52
   0   8   0   -0.42    0.49
  -1  -8   0   47.25    2.31
  -1  -8   0   51.08    2.05
   1   8   0   49.73    2.15
  -2  -8   0  115.77    4.46
  -2  -8   0  112.93    4.78
   2   8   0  110.91    4.40
  -3  -8   0    1.50    0.48
  -3  -8   0    2.62    0.49
   3   8   0    1.80    0.52
  -4  -8   0    0.11    0.51
   4   8   0   -0.20    0.60
  -5  -8   0   20.39    1.26
   5   8   0   18.35    1.33
  -6  -8   0    9.41    0.88
   6   8   0    9.81    0.94
  -7   9   0    1.17    0.54
   6  -9   0    1.10    0.64
  -6   9   0    0.25    0.46
   5  -9   0   32.61    1.83
  -5   9   0   31.06    1.49
   4  -9   0    4.75    0.79
  -4   9   0    4.66    0.57
   3  -9   0   -0.31    0.62
  -3   9   0   -0.33    0.44
   2  -9   0  135.20    5.76
  -2   9   0  134.76    5.19
   1  -9   0   22.21    1.45
  -1   9   0   19.83    1.20
   0  -9   0   16.01    1.21
   0   9   0   14.89    1.04
  -1  -9   0    1.04    0.58
   1   9   0    0.21    0.51
  -2  -9   0    5.01    0.65
   2   9   0    5.11    0.67
  -3  -9   0  126.78    5.31
   3   9   0  127.19    4.95
   4   9   0   22.64    1.40
   5   9   0   -0.18    0.65
   6   9   0    1.73    0.73
   6 -10   0    5.07    0.81
   5 -10   0   23.11    1.56
  -5  10   0   21.89    1.23
   4 -10   0    1.39    0.75
  -4  10   0    0.59    0.50
   3 -10   0   42.73    2.26
  -3  10   0   42.41    1.91
   2 -10   0    1.12    0.63
  -2  10   0    0.87    0.52
   1 -10   0    8.60    0.89
  -1  10   0    9.58    0.80
   0 -10   0   92.30    4.20
   0  10   0   98.94    3.82
  -1 -10   0    9.07    0.87
   1  10   0    9.92    0.84
  -2 -10   0    6.73    0.73
   2  10   0    6.31    0.75
  -3 -10   0   14.66    1.11
   3  10   0   15.84    1.17
   4  10   0   -0.32    0.65
   5  10   0   35.87    1.89
   5 -11   0    0.38    0.70
   4 -11   0   16.49    1.49
  -4  11   0   16.07    1.11
   3 -11   0   46.68    2.37
  -3  11   0   42.03    1.97
   2 -11   0    3.80    0.76
  -2  11   0    5.12    0.65
   1 -11   0    0.28    0.70
  -1  11   0   -0.11    0.53
   0 -11   0    3.25    0.67
   0  11   0    3.76    0.66
  -1 -11   0   26.79    1.55
   1  11   0   23.70    1.42
  -2 -11   0   60.78    2.83
   2  11   0   63.02    2.66
   3  11   0    1.08    0.68
   4  11   0   -1.11    0.66
   4 -12   0    0.32    0.73
   3 -12   0    0.94    0.72
   2 -12   0   40.87    2.23
  -2  12   0   38.15    1.85
   1 -12   0   11.01    1.06
  -1  12   0   10.93    0.98
   0 -12   0    4.16    0.80
   0  12   0    4.24    0.67
  -1 -12   0   19.95    1.44
   1  12   0   22.02    1.31
  -2 -12   0    1.02    0.65
   2  12   0    1.41    0.65
   0 -13   1    6.10    0.87
   1 -13   1    9.28    1.02
   2 -13   1    0.64    0.70
   3  12  -1    3.30    0.68
   2  12  -1    8.05    0.79
  -2 -12   1    6.06    0.78
   1  12  -1    1.51    0.59
  -1 -12   1    1.58    0.69
   0  12  -1    8.71    0.78
   0 -12   1    8.09    0.96
  -1  12  -1   67.36    2.86
   1 -12   1   71.37    3.31
   2 -12   1    0.09    0.74
   3 -12   1    8.21    1.02
   4 -12   1    2.50    0.86
   4  11  -1    0.44    0.63
   3  11  -1   15.24    1.15
   2  11  -1   36.57    1.72
  -2 -11   1   35.08    1.86
   1  11  -1    6.06    0.70
  -1 -11   1    5.45    0.77
   0  11  -1    4.31    0.64
   0 -11   1    4.82    0.81
  -1  11  -1    0.62    0.50
   1 -11   1    0.00    0.64
  -2  11  -1    9.77    0.89
   2 -11   1   11.68    1.14
  -3  11  -1   69.14    2.86
   3 -11   1   70.06    3.34
   4 -11   1    2.82    0.78
   5 -11   1   -0.18    0.73
   5  10  -1    4.09    0.75
   4  10  -1   20.94    1.29
   3  10  -1    9.59    0.83
  -3 -10   1    7.84    0.75
   2  10  -1    0.63    0.54
  -2 -10   1   -0.36    0.54
   1  10  -1   92.71    3.57
  -1 -10   1   86.43    3.92
   0  10  -1   44.79    1.91
   0 -10   1   38.69    2.07
  -1  10  -1    2.49    0.56
   1 -10   1    2.66    0.75
  -2  10  -1    0.08    0.46
   2 -10   1    0.82    0.70
  -3  10  -1    8.34    0.71
   3 -10   1    8.57    0.99
  -4  10  -1   40.87    1.85
   4 -10   1   41.96    2.22
   5 -10   1   36.95    2.03
   6 -10   1    0.54    0.65
   6   9  -1    1.93    0.65
  -6  -9   1    2.65    0.70
   5   9  -1   14.16    1.19
  -5  -9   1   16.91    1.22
   4   9  -1   47.57    2.12
  -4  -9   1   46.87    2.13
   3   9  -1    0.68    0.57
  -3  -9   1    0.81    0.50
  -3  -9   1    1.45    0.48
   2   9  -1   13.17    0.96
  -2  -9   1   13.60    1.05
  -2  -9   1   12.77    0.86
   1   9  -1    0.51    0.48
  -1  -9   1    0.49    0.38
  -1  -9   1    0.75    0.56
   0   9  -1   -0.35    0.44
   0  -9   1    0.13    0.35
   0  -9   1   -0.33    0.58
  -1   9  -1  173.44    6.60
   1  -9   1  188.02    6.74
   1  -9   1  161.45    7.29
  -2   9  -1   22.15    1.22
   2  -9   1   23.01    1.53
  -3   9  -1   -0.02    0.41
   3  -9   1    0.51    0.68
  -4   9  -1   29.37    1.41
   4  -9   1   29.46    1.75
  -5   9  -1    9.46    0.81
   5  -9   1    9.27    0.90
  -6   9  -1   60.91    2.49
   6  -9   1   59.53    2.81
   7   8  -1   19.39    1.34
  -7  -8   1   17.02    1.31
   6   8  -1    8.19    0.80
  -6  -8   1    7.51    0.86
   5   8  -1   11.03    0.92
  -5  -8   1   11.49    1.02
   4   8  -1    1.19    0.51
  -4  -8   1    2.62    0.59
   3   8  -1   58.28    2.54
  -3  -8   1   63.80    2.70
  -3  -8   1   61.70    2.58
   2   8  -1  185.66    7.08
  -2  -8   1  193.07    7.75
  -2  -8   1  185.78    7.29
   1   8  -1   -0.01    0.40
  -1  -8   1    0.11    0.48
  -1  -8   1   -0.23    0.36
   0   8  -1    9.52    0.77
   0  -8   1    8.47    0.79
   0  -8   1    8.90    0.64
  -1   8  -1   31.98    1.49
   1  -8   1   32.25    1.39
   1  -8   1   31.83    1.75
  -2   8  -1    2.29    0.46
   2  -8   1    1.17    0.33
   2  -8   1    1.02    0.58
  -3   8  -1  178.37    6.64
   3  -8   1  170.22    7.39
   3  -8   1  181.29    6.82
  -4   8  -1    7.48    0.59
   4  -8   1    7.11    0.81
   4  -8   1    7.89    0.68
  -5   8  -1    0.14    0.39
   5  -8   1    0.64    0.42
   5  -8   1    0.53    0.56
  -6   8  -1   46.58    2.03
  -6   8  -1   42.50    1.90
   6  -8   1   46.56    2.15
  -7   8  -1    0.94    0.48
   7   7  -1    1.22    0.69
  -7  -7   1    0.38    0.64
   6   7  -1   47.95    2.22
  -6  -7   1   48.80    2.27
   5   7  -1   44.51    2.09
  -5  -7   1   47.62    2.16
   4   7  -1   22.71    1.31
  -4  -7   1   24.70    1.32
   3   7  -1    0.45    0.49
  -3  -7   1    0.79    0.38
  -3  -7   1    0.39    0.43
   2   7  -1   12.16    0.86
  -2  -7   1   12.92    0.85
  -2  -7   1   13.69    0.91
   1   7  -1  161.05    6.20
  -1  -7   1  170.18    6.84
  -1  -7   1  163.94    6.39
   0   7  -1  185.96    6.94
   0  -7   1  179.81    7.65
   0  -7   1  188.76    7.13
  -1   7  -1    7.42    0.64
   1  -7   1    9.67    0.64
   1  -7   1    9.17    0.86
  -2   7  -1   35.30    1.52
   2  -7   1   33.49    1.79
   2  -7   1   33.65    1.45
  -3   7  -1   98.34    3.72
   3  -7   1   97.57    3.81
   3  -7   1   94.71    4.18
  -4   7  -1   29.53    1.31
   4  -7   1   30.54    1.59
   4  -7   1   28.45    1.36
  -5   7  -1   71.85    2.83
   5  -7   1   74.00    3.18
   5  -7   1   71.16    2.95
  -6   7  -1    0.08    0.46
   6  -7   1    0.24    0.39
  -7   7  -1    7.75    0.71
   7  -7   1    8.24    0.67
  -8   7  -1   38.61    1.84
   8  -7   1   39.96    1.78
   8   6  -1    1.14    0.69
  -8  -6   1    0.50    0.58
   7   6  -1   22.21    1.42
  -7  -6   1   22.46    1.37
   6   6  -1    1.52    0.64
  -6  -6   1    1.60    0.61
   5   6  -1    5.52    0.65
  -5  -6   1    4.79    0.65
   4   6  -1  163.91    6.30
  -4  -6   1  164.22    6.52
  -4  -6   1  169.69    6.75
   3   6  -1   70.77    2.84
  -3  -6   1   71.45    3.01
  -3  -6   1   71.74    2.93
   2   6  -1   10.87    0.72
  -2  -6   1   11.24    0.79
  -2  -6   1   12.06    0.80
   1   6  -1   49.04    2.03
  -1  -6   1   51.06    2.25
  -1  -6   1   49.41    2.06
   0   6  -1    3.31    0.44
   0  -6   1    5.29    0.59
   0  -6   1    2.82    0.37
  -1   6  -1  372.69   13.15
   1  -6   1  357.19   13.58
   1  -6   1  339.01   14.46
  -2   6  -1   32.80    1.39
   2  -6   1   31.25    1.38
   2  -6   1   33.93    1.66
  -3   6  -1    2.81    0.36
   3  -6   1    2.62    0.35
   3  -6   1    2.65    0.48
  -4   6  -1  116.25    4.26
   4  -6   1  112.08    4.72
   4  -6   1  109.61    4.43
   5  -6   1   57.55    2.47
   5  -6   1   54.75    2.35
   5  -6   1   55.08    2.21
  -6   6  -1   31.14    1.42
  -6   6  -1   27.39    1.45
   6  -6   1   27.81    1.32
  -7   6  -1    3.40    0.57
   7  -6   1    3.58    0.57
  -8   6  -1    0.17    0.52
   8  -6   1   -0.69    0.54
   8   5  -1   26.99    1.49
  -8  -5   1   28.53    1.53
   7   5  -1   48.63    2.23
  -7  -5   1   52.13    2.31
   6   5  -1    6.40    0.76
  -6  -5   1    5.44    0.65
   5   5  -1   14.75    1.10
  -5  -5   1   18.53    1.07
   4   5  -1   98.20    3.95
  -4  -5   1   99.51    4.08
  -4  -5   1  105.22    4.14
   3   5  -1   83.94    3.24
  -3  -5   1   82.76    3.43
  -3  -5   1   81.96    3.33
   2   5  -1  368.17   13.18
  -2  -5   1  353.03   14.42
  -2  -5   1  351.41   13.66
   1   5  -1   18.37    0.91
  -1  -5   1   18.77    0.91
  -1  -5   1   19.49    1.02
   0   5  -1    1.07    0.30
   0  -5   1    1.20    0.28
   0  -5   1    0.62    0.39
  -1   5  -1  316.70   11.10
   1  -5   1  293.28   11.48
   1  -5   1  292.69   12.21
  -2   5  -1    6.39    0.46
   2  -5   1    5.10    0.44
   2  -5   1    5.26    0.55
   3  -5   1  213.91    8.28
   3  -5   1  215.26    7.96
   3  -5   1  218.26    8.81
   4  -5   1    6.76    0.55
   4  -5   1    8.63    0.66
   4  -5   1    7.31    0.65
   5  -5   1    4.23    0.52
   5  -5   1    3.57    0.42
   5  -5   1    3.67    0.43
  -6   5  -1   96.22    3.85
  -6   5  -1   91.94    3.78
   6  -5   1   89.10    3.55
  -7   5  -1   17.46    1.12
   7  -5   1   17.06    1.03
  -8   5  -1    5.03    0.64
   8  -5   1    5.56    0.64
  -9   5  -1   -0.02    0.54
   9  -5   1    0.71    0.55
   8   4  -1   -0.07    0.56
  -8  -4   1    0.28    0.53
   7   4  -1    1.53    0.65
  -7  -4   1    1.86    0.58
   6   4  -1  100.89    3.91
  -6  -4   1   95.25    3.99
   5   4  -1  119.12    4.61
  -5  -4   1  119.38    4.77
   4   4  -1   12.50    0.88
   4   4  -1   15.14    0.69
  -4  -4   1   14.02    0.95
   3   4  -1   38.07    1.65
  -3  -4   1   36.95    1.66
  -3  -4   1   38.63    1.62
   2   4  -1  168.43    6.12
  -2  -4   1  161.99    6.33
  -2  -4   1  161.07    6.65
   1   4  -1  350.69   12.38
  -1  -4   1  322.05   12.83
  -1  -4   1  337.71   13.58
   0   4  -1  333.27   11.91
   0  -4   1  319.72   13.09
   0  -4   1  319.45   12.34
  -1   4  -1    1.71    0.26
   1  -4   1    1.51    0.26
   1  -4   1    1.77    0.36
  -2   4  -1   81.89    2.99
   2  -4   1   79.68    3.12
   2  -4   1   77.00    3.34
   3  -4   1  177.42    6.88
   3  -4   1  175.04    7.28
   3  -4   1  183.02    6.59
   4  -4   1    3.24    0.35
   4  -4   1    3.38    0.44
   4  -4   1    2.64    0.36
  -5   4  -1   20.21    1.00
   5  -4   1   20.42    1.12
   5  -4   1   19.76    0.98
  -6   4  -1    4.73    0.62
  -6   4  -1    5.20    0.43
   6  -4   1    4.56    0.51
  -7   4  -1   11.42    0.94
   7  -4   1   10.44    0.88
  -8   4  -1   70.91    3.04
   8  -4   1   72.57    2.91
  -9   4  -1    3.35    0.65
   9  -4   1    2.41    0.61
  -9  -3   1   54.25    2.39
   8   3  -1    4.56    0.71
  -8  -3   1    4.98    0.62
   7   3  -1   18.30    1.20
  -7  -3   1   19.76    1.21
   6   3  -1   14.61    0.98
  -6  -3   1   14.88    1.05
   5   3  -1    0.18    0.43
  -5  -3   1    0.99    0.50
   4   3  -1  172.17    6.60
  -4  -3   1  179.44    6.86
   3   3  -1  122.62    4.87
  -3  -3   1  130.99    5.07
  -3  -3   1  133.70    5.21
   2   3  -1    6.16    0.48
  -2  -3   1    6.62    0.49
  -2  -3   1    6.48    0.39
   1   3  -1  521.65   18.01
  -1  -3   1  474.37   18.67
  -1  -3   1  479.91   19.73
   0   3  -1   88.07    3.29
   0  -3   1   89.74    3.42
   0  -3   1   86.39    3.63
  -1   3  -1  118.39    4.23
   1  -3   1  110.92    4.68
   1  -3   1  113.43    4.40
   2  -3   1  123.79    4.78
   2  -3   1  124.16    5.07
   2  -3   1  123.48    4.57
   3  -3   1    1.58    0.24
   3  -3   1    2.24    0.30
   3  -3   1    2.12    0.34
  -4   3  -1  225.68    8.89
   4  -3   1  219.19    8.50
   4  -3   1  215.43    8.13
  -5   3  -1   70.31    3.02
  -5   3  -1   76.70    3.05
   5  -3   1   73.64    2.87
  -6   3  -1    1.88    0.52
   6  -3   1    1.04    0.45
  -7   3  -1   -0.11    0.51
   7  -3   1    0.30    0.49
  -8   3  -1    7.82    0.73
   8  -3   1    8.99    0.77
  -9   3  -1   10.22    1.00
   9  -3   1   10.59    0.98
   9   2  -1    7.48    0.80
  -9  -2   1    7.40    0.71
   8   2  -1   19.73    1.19
  -8  -2   1   20.49    1.24
   7   2  -1  118.56    4.67
  -7  -2   1  122.71    4.85
   6   2  -1   -0.38    0.46
  -6  -2   1    0.51    0.49
   5   2  -1    4.03    0.51
  -5  -2   1    4.50    0.57
   4   2  -1  171.03    6.31
  -4  -2   1  165.28    6.55
   3   2  -1   71.16    2.77
  -3  -2   1   71.46    2.89
   2   2  -1  345.27   12.74
  -2  -2   1  349.13   13.24
   1   2  -1   59.35    2.18
  -1  -2   1   57.74    2.36
  -1  -2   1   55.80    2.26
   0   2  -1    3.89    0.23
   0  -2   1    3.54    0.28
   0  -2   1    3.72    0.26
   1  -2   1  621.18   26.42
   1  -2   1  665.46   25.01
   1  -2   1  683.58   24.07
   2  -2   1   94.46    3.75
   2  -2   1   95.26    3.58
   2  -2   1   99.70    3.95
  -3   2  -1   68.41    2.77
   3  -2   1   67.00    2.56
   3  -2   1   66.57    2.71
  -4   2  -1    9.41    0.51
   4  -2   1    6.89    0.70
   4  -2   1    8.94    0.58
  -5   2  -1    8.62    0.50
  -5   2  -1    6.29    0.60
   5  -2   1    8.33    0.67
  -6   2  -1  126.67    5.02
   6  -2   1  126.24    4.81
  -7   2  -1   34.73    1.68
   7  -2   1   33.76    1.55
  -8   2  -1    1.87    0.59
   8  -2   1    1.45    0.56
  -9   2  -1    3.16    0.66
   9  -2   1    3.82    0.63
   9   1  -1    4.24    0.71
  -9  -1   1    4.05    0.65
   8   1  -1    2.73    0.55
  -8  -1   1    2.64    0.59
   7   1  -1   15.18    0.99
  -7  -1   1   16.34    1.07
   6   1  -1   85.15    3.34
  -6  -1   1   83.74    3.46
   5   1  -1  134.50    5.07
  -5  -1   1  132.97    5.28
   4   1  -1    0.03    0.32
  -4  -1   1    0.26    0.35
   3   1  -1   89.27    3.37
  -3  -1   1   88.41    3.53
   2   1  -1  356.62   13.22
  -2  -1   1  364.99   13.74
   1   1  -1    1.95    0.15
   1   1  -1    1.22    0.15
  -1  -1   1    1.32    0.18
  -1  -1   1    2.14    0.15
   0   1  -1  115.47    4.54
   0   1  -1  110.35    4.12
   0  -1   1  111.10    4.12
  -1   1  -1   42.18    1.66
   1  -1   1   38.70    1.58
   1  -1   1   39.68    1.50
  -2   1  -1  285.67   10.87
   2  -1   1  262.12   10.32
   2  -1   1  264.00    9.92
  -3   1  -1  383.73   14.44
   3  -1   1  344.95   13.18
   3  -1   1  348.91   13.72
  -4   1  -1   18.14    1.05
  -4   1  -1   21.49    0.89
   4  -1   1   19.81    0.97
  -5   1  -1   23.87    1.02
  -5   1  -1   22.60    1.21
   5  -1   1   22.68    1.14
  -6   1  -1   29.89    1.44
   6  -1   1   30.22    1.38
  -7   1  -1    0.75    0.51
   7  -1   1    0.93    0.51
  -8   1  -1   54.72    2.36
   8  -1   1   51.12    2.26
  -9   1  -1    1.63    0.54
   9  -1   1    1.27    0.59
   9   0  -1   47.51    2.17
  -9   0   1   50.31    2.23
   8   0  -1    8.90    0.80
  -8   0   1    9.29    0.79
   7   0  -1    0.51    0.51
  -7   0   1    0.42    0.50
  -6   0   1   52.10    2.27
   5   0  -1   30.50    1.35
  -5   0   1   29.58    1.44
   4   0  -1  162.64    5.98
  -4   0   1  157.39    6.22
   3   0  -1  197.25    7.77
   3   0  -1  192.59    7.17
  -3   0   1  191.34    7.47
   2   0  -1    5.88    0.34
  -2   0   1    6.19    0.45
   1   0  -1  122.79    4.61
   1   0  -1  124.00    5.07
  -1   0   1  125.27    5.07
  -1   0   1  130.58    4.80
   0   0  -1  287.15   10.47
   0   0  -1  250.66   11.05
   0   0   1  287.24   10.13
  -1   0  -1    1.01    0.14
   1   0   1    0.74    0.14
   1   0   1    0.59    0.11
  -2   0  -1    3.09    0.28
   2   0   1    3.27    0.34
   2   0   1    2.74    0.29
  -3   0  -1   21.58    0.89
  -3   0  -1   19.88    0.99
   3   0   1   18.58    0.90
  -4   0  -1  217.36    8.41
  -4   0  -1  199.31    8.08
   4   0   1  210.71    7.78
  -5   0  -1  143.24    5.73
   5   0   1  149.02    5.53
  -6   0  -1    1.31    0.46
   6   0   1    0.77    0.47
  -7   0  -1    1.35    0.46
   7   0   1    2.45    0.51
  -8   0  -1   41.94    1.95
   8   0   1   40.64    1.87
  -9   0  -1    9.39    0.84
   9   0   1    9.14    0.83
   9  -1  -1    7.05    0.76
  -9   1   1    6.91    0.75
   8  -1  -1    3.46    0.57
  -8   1   1    3.89    0.63
   7  -1  -1   67.98    2.74
  -7   1   1   67.85    2.87
   6  -1  -1    0.02    0.41
  -6   1   1    0.56    0.44
   5  -1  -1   32.69    1.50
  -5   1   1   32.68    1.57
  -5   1   1   38.54    1.47
   4  -1  -1  238.32    8.70
   4  -1  -1  237.77    9.45
  -4   1   1  229.45    9.05
   3  -1  -1   16.13    0.77
   3  -1  -1   15.78    0.75
  -3   1   1   16.61    0.85
   2  -1  -1  193.43    7.77
   2  -1  -1  185.09    7.07
  -2   1   1  198.71    7.37
   1  -1  -1    6.16    0.31
   1  -1  -1    6.36    0.39
  -1   1   1    5.67    0.32
   0  -1  -1    1.49    0.18
   0  -1  -1    0.99    0.07
   0   1   1    0.43    0.16
  -1  -1  -1  715.78   27.42
  -1  -1  -1  687.27   28.99
   1   1   1  753.43   26.45
  -2  -1  -1  377.60   14.20
  -2  -1  -1  364.84   14.97
   2   1   1  376.87   13.68
  -3  -1  -1   59.94    2.34
  -3  -1  -1   54.00    2.32
   3   1   1   56.25    2.25
  -4  -1  -1   32.11    1.58
  -4  -1  -1   39.10    1.47
   4   1   1   32.86    1.52
  -5  -1  -1   16.07    0.92
   5   1   1   15.07    0.92
  -6  -1  -1  110.71    4.32
   6   1   1  104.36    4.16
  -7  -1  -1   21.08    1.15
   7   1   1   19.98    1.22
  -8  -1  -1    0.73    0.48
   8   1   1    0.77    0.59
  -9  -1  -1   12.41    1.04
   9   1   1   13.59    1.09
   9  -2  -1   -0.29    0.55
  -9   2   1    0.20    0.54
   8  -2  -1   10.23    0.85
  -8   2   1    8.99    0.88
   7  -2  -1   38.45    1.69
  -7   2   1   35.07    1.68
   6  -2  -1    8.58    0.72
  -6   2   1    9.21    0.80
   5  -2  -1  123.47    4.71
   5  -2  -1  113.16    4.39
  -5   2   1  109.40    4.57
   4  -2  -1    0.38    0.31
   4  -2  -1   -0.17    0.22
  -4   2   1    0.42    0.35
   3  -2  -1  129.91    4.77
   3  -2  -1  123.88    5.23
  -3   2   1  130.84    4.98
   2  -2  -1  356.43   15.05
   2  -2  -1  379.42   13.67
  -2   2   1  384.59   14.21
   1  -2  -1    0.47    0.26
   1  -2  -1    1.01    0.12
  -1   2   1    1.01    0.17
   0  -2  -1   33.84    1.36
   0  -2  -1   35.38    1.55
   0   2   1   37.83    1.36
   0   2   1   32.89    1.42
  -1  -2  -1   74.94    3.15
  -1  -2  -1   79.33    2.96
   1   2   1   74.20    2.90
  -2  -2  -1   26.62    1.18
  -2  -2  -1   27.74    1.20
   2   2   1   26.01    1.15
  -3  -2  -1  384.97   15.07
  -3  -2  -1  425.49   15.85
   3   2   1  373.08   14.52
  -4  -2  -1   32.36    1.27
  -4  -2  -1   27.55    1.39
   4   2   1   27.80    1.39
  -5  -2  -1    3.73    0.49
   5   2   1    3.11    0.58
  -6  -2  -1   90.94    3.68
   6   2   1   89.97    3.58
  -7  -2  -1    0.42    0.45
   7   2   1    0.35    0.57
  -8  -2  -1   44.45    2.02
   8   2   1   43.67    2.05
  -9  -2  -1    0.92    0.56
   9   2   1    0.30    0.61
   9  -3  -1   31.90    1.59
  -9   3   1   32.19    1.62
   8  -3  -1    7.08    0.72
  -8   3   1    7.13    0.71
   7  -3  -1   -0.13    0.43
  -7   3   1    0.49    0.46
   6  -3  -1   45.95    1.89
  -6   3   1   44.37    1.98
   5  -3  -1  126.21    5.10
   5  -3  -1  123.99    4.70
  -5   3   1  123.60    4.91
   4  -3  -1   19.62    1.00
   4  -3  -1   19.27    0.90
  -4   3   1   19.78    1.00
   3  -3  -1   29.99    1.23
   3  -3  -1   28.83    1.40
  -3   3   1   30.31    1.30
   2  -3  -1    0.65    0.25
   2  -3  -1    0.86    0.20
   2  -3  -1    1.25    0.34
   1  -3  -1  378.92   15.09
   1  -3  -1  385.11   14.17
  -1   3   1  355.84   13.69
   0  -3  -1  496.25   18.15
   0  -3  -1  457.80   19.25
   0   3   1  479.77   17.55
  -1  -3  -1   22.27    0.93
  -1  -3  -1   21.67    1.08
   1   3   1   20.53    1.01
  -2  -3  -1   53.60    2.10
  -2  -3  -1   52.05    2.21
   2   3   1   48.30    2.06
  -3  -3  -1   82.53    3.28
  -3  -3  -1   79.93    3.18
   3   3   1   74.40    3.10
  -4  -3  -1   70.09    2.99
  -4  -3  -1   79.45    3.01
   4   3   1   68.58    2.91
  -5  -3  -1   84.15    3.36
   5   3   1   79.49    3.27
  -6  -3  -1    1.07    0.50
   6   3   1   -0.19    0.56
  -7  -3  -1   17.60    1.13
   7   3   1   17.45    1.24
  -8  -3  -1   48.79    2.17
   8   3   1   46.85    2.16
   9  -4  -1   19.85    1.21
  -9   4   1   17.25    1.14
   8  -4  -1    0.31    0.54
  -8   4   1    0.16    0.49
   7  -4  -1   39.97    1.75
  -7   4   1   39.02    1.80
   6  -4  -1    0.52    0.44
   6  -4  -1    0.93    0.34
  -6   4   1    0.57    0.41
   5  -4  -1   23.88    1.10
   5  -4  -1   23.39    1.17
  -5   4   1   22.02    1.14
   4  -4  -1  186.05    7.88
   4  -4  -1  193.31    7.15
  -4   4   1  199.16    7.45
   3  -4  -1   67.74    2.69
   3  -4  -1   68.03    2.93
   3  -4  -1   66.79    2.59
   2  -4  -1   66.98    2.86
   2  -4  -1   64.89    2.55
  -2   4   1   64.13    2.51
   1  -4  -1  128.99    4.87
   1  -4  -1  130.36    5.33
  -1   4   1  124.22    4.81
   0  -4  -1    0.93    0.19
   0  -4  -1    1.35    0.36
   0   4   1    0.60    0.33
  -1  -4  -1  366.82   15.00
  -1  -4  -1  365.30   14.10
   1   4   1  380.95   13.70
  -2  -4  -1  115.19    4.51
  -2  -4  -1  118.06    4.79
   2   4   1  113.64    4.42
  -3  -4  -1   16.81    0.93
  -3  -4  -1   17.19    0.90
   3   4   1   15.40    0.99
  -4  -4  -1  189.00    7.30
  -4  -4  -1  178.76    7.02
   4   4   1  172.03    6.81
  -5  -4  -1   48.65    2.18
   5   4   1   51.95    2.23
  -6  -4  -1   39.73    1.84
   6   4   1   38.07    1.83
  -7  -4  -1   14.91    1.04
   7   4   1   14.00    1.21
  -8  -4  -1   -0.05    0.50
   8   4   1    0.22    0.67
   9  -5  -1   -0.45    0.58
  -9   5   1   -0.06    0.50
   8  -5  -1    9.31    0.78
  -8   5   1    7.37    0.71
   7  -5  -1   58.85    2.41
  -7   5   1   57.40    2.47
   6  -5  -1    2.10    0.48
   6  -5  -1    2.34    0.47
  -6   5   1    1.99    0.45
   5  -5  -1   12.46    0.89
   5  -5  -1   11.50    0.77
  -5   5   1   11.92    0.81
   4  -5  -1   37.43    1.81
   4  -5  -1   36.47    1.57
  -4   5   1   39.20    1.64
   3  -5  -1   73.41    3.21
   3  -5  -1   73.13    2.89
  -3   5   1   73.01    2.84
   2  -5  -1  336.87   13.70
   2  -5  -1  337.46   12.80
  -2   5   1  336.19   12.42
   1  -5  -1   21.58    0.89
   1  -5  -1   21.49    1.25
  -1   5   1   22.37    1.09
   0  -5  -1    5.23    0.58
   0  -5  -1    5.90    0.38
   0   5   1    3.69    0.50
  -1  -5  -1  116.67    4.93
  -1  -5  -1  117.77    4.56
   1   5   1  119.06    4.52
  -2  -5  -1   16.97    0.95
  -2  -5  -1   16.43    0.86
   2   5   1   14.74    1.00
  -3  -5  -1  131.00    5.18
  -3  -5  -1  137.50    5.44
   3   5   1  127.32    5.06
  -4  -5  -1    1.96    0.33
  -4  -5  -1    2.56    0.50
   4   5   1    1.76    0.58
  -5  -5  -1    0.31    0.51
   5   5   1    0.98    0.62
  -6  -5  -1  102.35    4.22
   6   5   1  105.09    4.13
  -7  -5  -1    7.24    0.73
   7   5   1    6.63    0.80
  -8  -5  -1    6.54    0.71
   8   5   1    6.56    0.80
   8  -6  -1    2.25    0.55
   7  -6  -1    0.21    0.48
  -7   6   1    0.29    0.45
   6  -6  -1   60.42    2.50
   6  -6  -1   66.08    2.79
  -6   6   1   60.91    2.59
   5  -6  -1   67.52    3.08
  -5   6   1   70.32    2.77
  -5   6   1   71.87    2.85
   4  -6  -1   13.59    1.04
  -4   6   1   14.35    0.83
  -4   6   1   14.14    0.84
   3  -6  -1    9.33    0.84
   3  -6  -1    8.47    0.59
  -3   6   1    9.08    0.69
   2  -6  -1   59.85    2.32
   2  -6  -1   58.40    2.68
  -2   6   1   59.42    2.39
   1  -6  -1   97.74    3.72
   1  -6  -1   96.69    4.17
  -1   6   1   96.68    3.79
   0  -6  -1  172.05    7.55
   0  -6  -1  198.14    6.98
   0   6   1  176.61    6.90
  -1  -6  -1    0.46    0.41
  -1  -6  -1   -0.25    0.25
   1   6   1    0.21    0.43
  -2  -6  -1   90.94    3.79
  -2  -6  -1   87.76    3.53
   2   6   1   88.69    3.54
  -3  -6  -1   86.34    3.54
  -3  -6  -1   84.83    3.38
   3   6   1   79.16    3.35
  -4  -6  -1    3.82    0.44
  -4  -6  -1    2.94    0.55
   4   6   1    2.99    0.60
  -5  -6  -1   32.37    1.60
   5   6   1   30.80    1.67
  -6  -6  -1    1.17    0.59
   6   6   1    1.94    0.70
  -7  -6  -1   10.27    0.98
   7   6   1    9.15    0.90
  -8   7   1   -0.52    0.51
  -7   7   1    1.50    0.53
   6  -7  -1    5.90    0.71
  -6   7   1    5.96    0.62
   5  -7  -1    1.95    0.59
  -5   7   1    3.00    0.48
   4  -7  -1  133.66    5.58
  -4   7   1  129.49    5.01
   3  -7  -1   13.29    1.07
  -3   7   1   14.35    0.88
   2  -7  -1   -0.28    0.59
  -2   7   1    0.30    0.41
   1  -7  -1  105.88    4.58
  -1   7   1  107.19    4.15
   0  -7  -1   20.37    1.37
   0  -7  -1   25.71    1.03
   0   7   1   23.51    1.30
  -1  -7  -1  129.81    5.63
  -1  -7  -1  142.07    5.19
   1   7   1  130.52    5.17
  -2  -7  -1   37.52    1.59
  -2  -7  -1   34.57    1.73
   2   7   1   36.57    1.69
  -3  -7  -1    9.45    0.82
  -3  -7  -1    8.83    0.76
   3   7   1    7.26    0.73
  -4  -7  -1   85.75    3.40
   4   7   1   79.18    3.38
  -5  -7  -1   50.89    2.22
   5   7   1   46.66    2.20
  -6  -7  -1    0.09    0.59
   6   7   1    0.92    0.72
  -7  -7  -1    3.85    0.68
   7   7   1    3.55    0.78
  -7   8   1   45.68    2.00
   6  -8  -1    0.37    0.63
  -6   8   1   -0.03    0.47
   5  -8  -1    0.15    0.59
  -5   8   1   -0.18    0.42
   4  -8  -1   31.06    1.72
  -4   8   1   29.04    1.41
   3  -8  -1    6.57    0.77
  -3   8   1    6.85    0.64
   2  -8  -1   78.95    3.54
  -2   8   1   79.46    3.19
   1  -8  -1    1.94    0.59
  -1   8   1    2.51    0.56
   0  -8  -1   10.73    1.07
   0   8   1   11.35    0.98
  -1  -8  -1  117.90    5.09
   1   8   1  122.20    4.68
  -2  -8  -1   19.89    1.22
   2   8   1   19.57    1.26
  -3  -8  -1   36.70    1.79
   3   8   1   39.12    1.85
   4   8   1    2.10    0.71
   5   8   1   -0.62    0.66
   6   8   1   46.32    2.27
  -7   9   1    4.17    0.64
   6  -9  -1   31.19    1.75
  -6   9   1   28.20    1.46
   5  -9  -1   42.91    2.16
  -5   9   1   39.81    1.86
   4  -9  -1   -0.21    0.65
  -4   9   1    0.21    0.47
   3  -9  -1    8.42    0.86
  -3   9   1    8.04    0.73
   2  -9  -1   56.52    2.69
  -2   9   1   54.71    2.37
   1  -9  -1   16.25    1.31
  -1   9   1   16.25    1.10
   0  -9  -1   31.88    1.81
   0   9   1   34.10    1.60
  -1  -9  -1    0.05    0.56
   1   9   1   -0.28    0.56
  -2  -9  -1   14.27    1.05
   2   9   1   12.27    1.10
  -3  -9  -1   80.23    3.40
   3   9   1   76.41    3.22
   4   9   1    3.29    0.70
   5   9   1    3.79    0.83
   6 -10  -1    8.27    0.92
  -6  10   1    7.60    0.74
   5 -10  -1    0.87    0.69
  -5  10   1    0.47    0.51
   4 -10  -1   36.05    1.90
  -4  10   1   33.00    1.65
   3 -10  -1    5.28    0.79
  -3  10   1    6.65    0.70
   2 -10  -1    0.92    0.72
  -2  10   1    0.31    0.52
   1 -10  -1   39.10    2.10
  -1  10   1   38.99    1.85
   0 -10  -1   56.68    2.75
   0  10   1   58.96    2.50
  -1 -10  -1   17.68    1.24
   1  10   1   14.74    1.17
  -2 -10  -1    1.88    0.59
   2  10   1    0.82    0.61
  -3 -10  -1    4.24    0.61
   3  10   1    2.83    0.66
   4  10   1   31.88    1.78
   5 -11  -1    3.82    0.86
  -5  11   1    2.68    0.61
   4 -11  -1   24.28    1.68
  -4  11   1   24.72    1.36
   3 -11  -1    2.35    0.80
  -3  11   1    2.01    0.59
   2 -11  -1   39.97    2.11
  -2  11   1   35.19    1.78
   1 -11  -1    1.82    0.75
  -1  11   1    1.03    0.58
   0 -11  -1    0.24    0.63
   0  11   1    0.00    0.58
  -1 -11  -1   35.51    1.87
   1  11   1   33.54    1.74
  -2 -11  -1   27.52    1.55
   2  11   1   27.60    1.57
   3  11   1    3.95    0.78
   3 -12  -1    5.43    0.90
  -3  12   1    5.89    0.71
   2 -12  -1   49.30    2.52
  -2  12   1   47.41    2.19
   1 -12  -1    1.24    0.74
  -1  12   1    0.41    0.57
   0 -12  -1    8.21    0.95
   0  12   1    8.23    0.82
  -1 -12  -1    2.51    0.70
   1  12   1    1.83    0.66
  -1 -13   2   32.56    1.89
   0 -13   2    7.05    0.92
   1 -13   2   23.93    1.70
   2 -13   2   -0.28    0.78
   3  12  -2   31.03    1.61
   2  12  -2   36.55    1.69
  -2 -12   2   33.04    1.86
   1  12  -2    5.72    0.66
  -1 -12   2    3.49    0.76
   0 -12   2   15.68    1.37
   1 -12   2   34.03    2.01
   2 -12   2    8.00    1.05
   3 -12   2    8.08    1.03
   4 -12   2    1.39    0.73
   4  11  -2    0.55    0.60
   3  11  -2   41.54    1.90
   2  11  -2    1.58    0.53
  -2 -11   2   -0.38    0.56
   1  11  -2   44.24    1.87
  -1 -11   2   39.98    2.12
   0  11  -2    7.02    0.67
   0 -11   2    7.26    0.87
  -1  11  -2    0.28    0.47
   1 -11   2   -0.26    0.70
   2 -11   2   98.75    4.43
   3 -11   2    9.66    1.06
   4 -11   2    3.04    0.74
   5 -11   2    0.78    0.74
  -6  11  -2    5.78    0.89
   5  10  -2   12.05    1.07
  -5 -10   2   12.90    1.15
   4  10  -2   70.26    3.00
  -4 -10   2   75.77    3.08
   3  10  -2    1.04    0.54
  -3 -10   2   -0.09    0.49
  -3 -10   2    0.90    0.51
   2  10  -2   14.93    0.97
  -2 -10   2   14.74    1.09
  -2 -10   2   14.18    0.98
   1  10  -2   86.89    3.40
  -1 -10   2   86.38    3.79
  -1 -10   2   86.45    3.48
   0  10  -2   -0.53    0.41
   0 -10   2    0.10    0.40
   0 -10   2   -0.50    0.67
  -1  10  -2   38.95    1.70
   1 -10   2   37.23    2.11
  -2  10  -2    4.99    0.57
   2 -10   2    3.32    0.82
  -3  10  -2    8.86    0.77
   3 -10   2    7.32    0.92
   4 -10   2   59.38    2.87
   5 -10   2   14.37    1.26
  -6  10  -2   -0.50    0.65
   6   9  -2    0.99    0.60
  -6  -9   2    1.01    0.68
   5   9  -2   20.67    1.30
  -5  -9   2   23.53    1.39
   4   9  -2   49.09    2.16
  -4  -9   2   49.45    2.24
   3   9  -2   48.67    2.03
  -3  -9   2   44.57    2.15
  -3  -9   2   47.10    2.06
   2   9  -2   22.86    1.17
  -2  -9   2   21.52    1.18
  -2  -9   2   23.99    1.31
   1   9  -2    0.91    0.44
  -1  -9   2    1.22    0.60
  -1  -9   2    1.05    0.42
   0   9  -2   68.72    2.62
   0  -9   2   62.79    2.97
   0  -9   2   64.38    2.66
  -1   9  -2  139.15    5.15
   1  -9   2  130.08    5.78
   1  -9   2  136.14    5.28
  -2   9  -2    5.42    0.57
   2  -9   2    3.56    0.81
   2  -9   2    5.18    0.49
  -3   9  -2    4.36    0.53
   3  -9   2    4.36    0.49
   3  -9   2    3.83    0.77
  -4   9  -2   14.53    0.91
   4  -9   2   15.10    0.91
   4  -9   2   14.13    1.23
   5  -9   2   20.98    1.13
   5  -9   2   18.66    1.33
  -6   9  -2   28.94    1.65
   6  -9   2   31.05    1.50
   7   8  -2    1.54    0.65
  -7  -8   2    0.19    0.63
   6   8  -2   54.91    2.48
  -6  -8   2   59.24    2.59
   5   8  -2    3.08    0.65
  -5  -8   2    4.37    0.70
   4   8  -2    4.00    0.62
  -4  -8   2    3.74    0.62
   3   8  -2   87.88    3.49
  -3  -8   2   89.18    3.77
  -3  -8   2   89.58    3.61
   2   8  -2   23.92    1.17
  -2  -8   2   24.25    1.21
  -2  -8   2   23.57    1.29
   1   8  -2   28.74    1.43
  -1  -8   2   39.03    1.51
  -1  -8   2   30.64    1.68
   0   8  -2    1.25    0.39
   0  -8   2    1.03    0.58
   0  -8   2    1.29    0.38
  -1   8  -2    8.62    0.73
   1  -8   2    9.60    0.68
   1  -8   2    8.63    0.85
  -2   8  -2  104.56    3.81
   2  -8   2   91.90    4.28
   2  -8   2   99.42    3.90
  -3   8  -2   85.82    3.22
   3  -8   2   81.97    3.30
   3  -8   2   79.36    3.63
  -4   8  -2    4.01    0.45
   4  -8   2    3.62    0.48
   4  -8   2    3.40    0.59
  -5   8  -2   20.94    1.05
   5  -8   2   19.88    1.13
   5  -8   2   21.00    1.28
  -6   8  -2   11.34    0.95
  -6   8  -2   10.79    0.81
   6  -8   2   12.57    0.93
  -7   8  -2   22.97    1.32
  -8   8  -2   19.20    1.26
   7   7  -2   12.65    1.10
  -7  -7   2   10.40    0.95
   6   7  -2   39.31    1.92
  -6  -7   2   41.41    2.00
   5   7  -2    1.88    0.51
  -5  -7   2    3.17    0.61
   4   7  -2   55.12    2.30
  -4  -7   2   54.88    2.40
   3   7  -2    1.68    0.48
  -3  -7   2    1.53    0.39
  -3  -7   2    1.67    0.49
   2   7  -2   28.91    1.32
  -2  -7   2   28.57    1.43
  -2  -7   2   29.17    1.36
   1   7  -2  302.32   11.29
  -1  -7   2  305.35   11.72
  -1  -7   2  310.29   12.44
   0   7  -2   22.08    0.96
   0  -7   2   18.24    0.99
   0  -7   2   17.49    1.20
  -1   7  -2    9.96    0.71
   1  -7   2   10.91    0.75
   1  -7   2   11.15    1.01
  -2   7  -2    3.13    0.40
   2  -7   2    2.27    0.39
   2  -7   2    2.77    0.57
  -3   7  -2    0.71    0.32
   3  -7   2    0.69    0.51
   3  -7   2   -0.57    0.33
  -4   7  -2  101.50    3.81
   4  -7   2   96.56    3.98
   4  -7   2  102.56    4.27
  -5   7  -2   21.10    1.19
  -5   7  -2   21.00    1.02
   5  -7   2   19.11    1.13
  -6   7  -2    0.18    0.44
   6  -7   2    0.72    0.48
   6  -7   2    0.64    0.40
  -7   7  -2   27.56    1.48
   7  -7   2   26.21    1.32
  -8   7  -2    8.85    0.80
   8   6  -2   26.16    1.49
  -8  -6   2   24.82    1.49
   7   6  -2   16.22    1.19
  -7  -6   2   15.53    1.21
   6   6  -2   -0.28    0.55
  -6  -6   2   -0.07    0.56
   5   6  -2   69.84    2.93
  -5  -6   2   72.47    3.04
   4   6  -2   62.25    2.64
   4   6  -2   64.20    2.59
  -4  -6   2   61.68    2.68
   3   6  -2    4.14    0.54
  -3  -6   2    3.80    0.49
  -3  -6   2    5.50    0.51
   2   6  -2   19.73    0.98
  -2  -6   2   17.95    1.02
  -2  -6   2   19.45    1.01
   1   6  -2   32.59    1.39
  -1  -6   2   33.34    1.46
  -1  -6   2   33.55    1.59
   0   6  -2   84.55    3.25
   0  -6   2   86.25    3.65
   0  -6   2   85.06    3.38
  -1   6  -2  386.41   13.38
   1  -6   2  355.04   14.74
   1  -6   2  349.17   13.88
  -2   6  -2    9.59    0.60
   2  -6   2    8.44    0.66
   2  -6   2    9.87    0.85
  -3   6  -2    8.16    0.52
   3  -6   2    7.50    0.60
   3  -6   2    4.79    0.55
   4  -6   2   53.90    2.14
   4  -6   2   57.00    2.43
   4  -6   2   53.25    2.28
  -5   6  -2    4.60    0.52
   5  -6   2    5.06    0.58
   5  -6   2    6.62    0.59
  -6   6  -2   73.05    3.06
   6  -6   2   69.58    3.01
   6  -6   2   72.27    2.81
  -7   6  -2    0.14    0.57
   7  -6   2    0.09    0.47
  -8   6  -2    5.17    0.71
   8  -6   2    5.84    0.67
   8   5  -2   23.18    1.45
  -8  -5   2   25.06    1.43
   7   5  -2   19.71    1.30
  -7  -5   2   21.34    1.32
   6   5  -2   40.60    1.93
  -6  -5   2   42.48    2.00
   5   5  -2    1.31    0.55
  -5  -5   2    0.92    0.53
   4   5  -2   15.61    1.01
   4   5  -2   16.82    0.83
  -4  -5   2   16.45    1.06
   3   5  -2  148.71    5.52
  -3  -5   2  143.48    5.73
   2   5  -2  160.02    5.88
  -2  -5   2  152.01    6.10
  -2  -5   2  159.14    6.40
   1   5  -2    0.24    0.25
  -1  -5   2    0.60    0.33
  -1  -5   2    0.36    0.30
   0   5  -2   20.77    0.93
   0  -5   2   22.51    1.02
   0  -5   2   22.14    1.11
  -1   5  -2    6.66    0.50
   1  -5   2    6.60    0.61
   1  -5   2    8.72    0.58
  -2   5  -2  184.41    6.60
   2  -5   2  176.28    7.32
   2  -5   2  175.38    6.89
   3  -5   2  145.23    5.89
   3  -5   2  141.51    5.29
   3  -5   2  142.23    5.56
  -4   5  -2    2.99    0.41
   4  -5   2    3.18    0.42
   4  -5   2    3.22    0.35
  -5   5  -2   63.04    2.58
   5  -5   2   58.45    2.36
   5  -5   2   59.34    2.53
  -6   5  -2   73.12    3.06
   6  -5   2   71.97    2.85
   6  -5   2   73.60    3.07
  -7   5  -2   19.50    1.26
   7  -5   2   19.61    1.09
  -8   5  -2    6.23    0.74
   8  -5   2    4.52    0.66
  -9   5  -2    4.54    0.72
   9  -5   2    3.67    0.66
   8   4  -2    2.37    0.62
  -8  -4   2    2.36    0.61
   7   4  -2   11.16    1.01
  -7  -4   2   10.05    0.91
   6   4  -2  117.21    4.48
  -6  -4   2  112.50    4.64
   5   4  -2    3.05    0.51
  -5  -4   2    1.86    0.53
   4   4  -2   47.77    2.02
   4   4  -2   48.90    1.97
  -4  -4   2   45.62    2.07
   3   4  -2   42.37    1.76
   3   4  -2   40.70    1.74
  -3  -4   2   40.79    1.81
   2   4  -2   14.69    0.77
  -2  -4   2   15.08    0.73
  -2  -4   2   13.49    0.82
   1   4  -2  386.90   13.47
  -1  -4   2  365.91   14.78
  -1  -4   2  348.56   14.00
   0   4  -2  154.99    5.61
   0  -4   2  149.35    5.86
  -1   4  -2    3.67    0.33
   1  -4   2    2.59    0.34
   1  -4   2    2.55    0.33
   2  -4   2  394.58   14.69
   2  -4   2  379.53   15.53
   2  -4   2  381.95   14.08
  -3   4  -2    9.52    0.64
   3  -4   2    8.58    0.63
   3  -4   2    9.56    0.51
  -4   4  -2  138.53    5.68
   4  -4   2  137.17    5.17
   4  -4   2  141.37    5.45
  -5   4  -2   50.53    2.16
   5  -4   2   49.32    2.20
   5  -4   2   51.32    2.02
  -6   4  -2    3.42    0.37
  -6   4  -2    2.08    0.58
   6  -4   2    3.06    0.49
  -7   4  -2   65.09    2.86
   7  -4   2   67.16    2.68
  -8   4  -2   16.88    1.18
   8  -4   2   15.27    1.08
  -9   4  -2    7.20    0.80
   9  -4   2    7.12    0.74
   9   3  -2   11.32    1.06
  -9  -3   2   12.20    1.03
   8   3  -2    5.42    0.72
  -8  -3   2    6.44    0.72
   7   3  -2    0.11    0.55
  -7  -3   2    1.17    0.50
   6   3  -2    0.43    0.45
  -6  -3   2   -0.06    0.53
   5   3  -2   84.65    3.28
  -5  -3   2   82.40    3.45
   4   3  -2  304.92   11.31
  -4  -3   2  306.81   11.77
   3   3  -2    0.60    0.30
   3   3  -2    0.62    0.18
  -3  -3   2    0.87    0.33
   2   3  -2    0.56    0.26
   2   3  -2    0.80    0.20
  -2  -3   2    0.71    0.31
   1   3  -2  126.88    4.63
   1   3  -2  128.12    5.09
  -1  -3   2  120.08    4.84
   0   3  -2   57.45    2.09
   0  -3   2   55.37    2.23
   0  -3   2   54.53    2.34
  -1   3  -2  572.47   22.82
  -1   3  -2  569.36   20.72
   1  -3   2  557.99   21.51
  -2   3  -2   20.43    0.94
   2  -3   2   20.69    0.92
   2  -3   2   19.11    0.80
  -3   3  -2   93.83    3.72
   3  -3   2   89.22    3.38
   3  -3   2   87.99    3.57
  -4   3  -2  264.14   10.48
   4  -3   2  261.89   10.01
   4  -3   2  253.68    9.57
  -5   3  -2   -0.02    0.25
   5  -3   2    0.54    0.38
   5  -3   2    0.69    0.46
  -6   3  -2   36.19    1.75
   6  -3   2   38.09    1.64
  -7   3  -2    1.82    0.53
   7  -3   2    3.55    0.57
  -8   3  -2    1.22    0.54
   8  -3   2    1.65    0.57
  -9   3  -2   51.86    2.36
   9  -3   2   50.05    2.23
   9   2  -2    1.16    0.64
  -9  -2   2    1.95    0.60
   8   2  -2   62.96    2.64
  -8  -2   2   62.08    2.72
   7   2  -2   19.35    1.17
  -7  -2   2   19.18    1.20
   6   2  -2    3.92    0.57
  -6  -2   2    4.09    0.55
   5   2  -2    0.34    0.43
  -5  -2   2    0.28    0.47
   4   2  -2   30.68    1.36
  -4  -2   2   29.65    1.42
   3   2  -2  321.44   13.18
   3   2  -2  330.40   12.10
  -3  -2   2  335.21   12.60
   2   2  -2  173.70    6.78
   2   2  -2  169.23    6.23
  -2  -2   2  162.19    6.49
   1   2  -2   46.44    1.89
   1   2  -2   45.70    1.72
  -1  -2   2   42.27    1.82
   0   2  -2  238.47    9.06
   0   2  -2  251.43    9.99
   0  -2   2  258.04    9.07
   0  -2   2  243.98    9.45
  -1   2  -2  201.99    7.29
  -1   2  -2  200.08    8.05
   1  -2   2  194.00    7.63
   1  -2   2  201.90    7.30
  -2   2  -2  138.61    5.46
   2  -2   2  132.28    4.96
   2  -2   2  132.46    5.20
  -3   2  -2  110.79    4.23
   3  -2   2  100.48    3.87
   3  -2   2   98.63    4.06
  -4   2  -2   20.07    0.92
   4  -2   2   18.86    0.93
   4  -2   2   18.54    1.05
  -5   2  -2  238.38    8.97
  -5   2  -2  212.70    8.62
   5  -2   2  215.15    8.25
  -6   2  -2   79.42    3.24
   6  -2   2   75.81    3.05
  -7   2  -2    4.10    0.63
   7  -2   2    3.14    0.51
  -8   2  -2    4.33    0.63
   8  -2   2    5.42    0.69
  -9   2  -2   18.37    1.25
   9  -2   2   18.49    1.19
   9   1  -2    5.27    0.66
  -9  -1   2    4.93    0.69
   8   1  -2    2.03    0.61
  -8  -1   2    3.04    0.59
   7   1  -2    5.40    0.60
  -7  -1   2    6.03    0.63
   6   1  -2  170.03    6.25
  -6  -1   2  160.91    6.49
   5   1  -2   13.12    0.86
  -5  -1   2   13.44    0.94
   4   1  -2    1.22    0.34
  -4  -1   2    1.02    0.39
   3   1  -2  267.72   10.02
   3   1  -2  239.62    9.20
  -3  -1   2  241.24    9.59
   2   1  -2    5.54    0.39
   2   1  -2    5.88    0.40
  -2  -1   2    6.34    0.44
   1   1  -2 1000.00   35.92
   1   1  -2  991.57   39.51
  -1  -1   2  955.06   37.30
   0   1  -2   42.72    1.75
   0  -1   2   40.12    1.55
   0  -1   2   43.46    1.55
  -1   1  -2   11.85    0.60
   1  -1   2   12.72    0.53
  -2   1  -2  329.89   12.95
   2  -1   2  312.89   11.80
   2  -1   2  323.80   12.28
  -3   1  -2  234.34    9.09
   3  -1   2  226.86    8.33
   3  -1   2  214.99    8.67
  -4   1  -2   87.86    3.44
   4  -1   2   81.96    3.23
   4  -1   2   81.51    3.40
  -5   1  -2    0.01    0.39
  -5   1  -2    0.23    0.23
   5  -1   2    0.02    0.38
  -6   1  -2    0.99    0.47
   6  -1   2    1.08    0.49
  -7   1  -2   76.96    3.15
   7  -1   2   73.32    3.01
  -8   1  -2   38.24    1.82
   8  -1   2   35.64    1.72
  -9   1  -2    0.32    0.59
   9  -1   2    0.91    0.59
   9   0  -2   26.74    1.48
  -9   0   2   28.80    1.51
   8   0  -2    3.53    0.58
  -8   0   2    4.91    0.66
   7   0  -2    0.97    0.48
  -7   0   2    0.18    0.51
   6   0  -2   35.82    1.59
  -6   0   2   33.45    1.61
   5   0  -2   74.56    2.92
  -5   0   2   73.99    3.06
   4   0  -2  168.79    6.36
   4   0  -2  173.99    6.86
  -4   0   2  169.03    6.64
   3   0  -2    8.13    0.51
   3   0  -2    9.09    0.51
  -3   0   2    8.95    0.59
   2   0  -2   81.40    3.33
   2   0  -2   80.80    3.04
  -2   0   2   81.99    3.19
   1   0  -2  920.78   30.43
   1   0  -2  750.35   33.45
  -1   0   2  819.11   31.59
   0   0  -2  212.82    8.92
   0   0   2  227.03    8.10
   0   0   2  221.13    8.39
  -1   0  -2  194.65    8.21
   1   0   2  201.34    7.73
   1   0   2  212.69    7.47
  -2   0  -2    0.84    0.22
   2   0   2    1.00    0.23
   2   0   2    1.03    0.22
  -3   0  -2   57.97    2.40
   3   0   2   58.05    2.25
   3   0   2   55.69    2.36
  -4   0  -2  308.58   12.06
  -4   0  -2  325.70   12.64
   4   0   2  308.25   11.60
  -5   0  -2   18.65    0.82
  -5   0  -2   17.24    1.03
   5   0   2   16.78    1.01
  -6   0  -2   10.28    0.79
   6   0   2    9.13    0.75
  -7   0  -2   12.37    0.98
   7   0   2   12.17    0.97
  -8   0  -2    0.76    0.53
   8   0   2   -0.23    0.53
  -9   0  -2   23.87    1.28
   9   0   2   20.86    1.29
   9  -1  -2    1.04    0.59
  -9   1   2    1.50    0.58
   8  -1  -2   72.32    2.84
  -8   1   2   65.27    2.90
   7  -1  -2   43.80    1.87
  -7   1   2   40.18    1.92
   6  -1  -2    8.32    0.69
  -6   1   2    7.92    0.78
   5  -1  -2   82.03    3.29
   5  -1  -2   80.51    3.14
  -5   1   2   79.11    3.28
   4  -1  -2   54.00    2.13
   4  -1  -2   55.49    2.27
  -4   1   2   52.84    2.27
   3  -1  -2  162.81    6.10
   3  -1  -2  164.13    6.70
  -3   1   2  167.46    6.37
   2  -1  -2  138.36    5.69
   2  -1  -2  135.73    5.16
  -2   1   2  144.45    5.37
   1  -1  -2   76.35    2.76
   1  -1  -2   73.89    3.07
  -1   1   2   69.43    2.82
   0  -1  -2  207.25    7.57
   0   1   2  198.82    7.37
   0   1   2  192.71    7.57
  -1  -1  -2  348.41   14.85
   1   1   2  387.26   13.55
   1   1   2  371.45   14.01
  -2  -1  -2   92.43    3.53
  -2  -1  -2   86.12    3.71
   2   1   2   91.66    3.42
  -3  -1  -2    5.77    0.51
  -3  -1  -2    5.95    0.46
   3   1   2    6.23    0.52
  -4  -1  -2   17.48    0.79
  -4  -1  -2   15.94    0.93
   4   1   2   15.29    0.95
  -5  -1  -2   37.69    1.73
   5   1   2   39.48    1.70
  -6  -1  -2  175.88    6.90
   6   1   2  177.00    6.68
  -7  -1  -2    0.54    0.48
   7   1   2    0.25    0.51
  -8  -1  -2    2.73    0.58
   8   1   2    1.35    0.55
  -9  -1  -2    8.72    0.80
   9   1   2   10.98    0.91
   9  -2  -2   -0.08    0.54
  -9   2   2    0.05    0.47
   8  -2  -2   10.66    0.95
  -8   2   2    9.04    0.77
   7  -2  -2    2.56    0.55
  -7   2   2    1.99    0.50
   6  -2  -2  134.36    5.15
  -6   2   2  137.33    5.37
   5  -2  -2    0.89    0.40
   5  -2  -2    0.86    0.28
  -5   2   2    1.09    0.41
   4  -2  -2   11.71    0.69
   4  -2  -2   10.47    0.69
  -4   2   2   11.65    0.75
   3  -2  -2  372.82   15.31
   3  -2  -2  366.34   13.90
  -3   2   2  399.01   14.46
   2  -2  -2   71.69    3.13
   2  -2  -2   72.04    2.80
  -2   2   2   77.78    2.89
   1  -2  -2  247.29   10.07
  -1   2   2  254.44    9.41
  -1   2   2  242.99    9.40
  -1   2   2  249.22    9.14
   0  -2  -2    0.85    0.10
   0  -2  -2    0.67    0.28
   0  -2  -2    0.51    0.09
   0   2   2    0.63    0.27
  -1  -2  -2    9.42    0.50
  -1  -2  -2    9.13    0.61
   1   2   2    8.58    0.59
  -2  -2  -2  408.89   16.51
  -2  -2  -2  411.83   15.61
   2   2   2  409.52   15.08
  -3  -2  -2  210.61    8.34
  -3  -2  -2  227.34    8.77
   3   2   2  211.74    8.07
  -4  -2  -2   18.76    0.85
  -4  -2  -2   16.69    0.97
   4   2   2   15.82    0.97
  -5  -2  -2    0.72    0.38
   5   2   2    0.17    0.51
  -6  -2  -2   44.02    1.91
   6   2   2   42.11    1.93
  -7  -2  -2   23.65    1.29
   7   2   2   24.08    1.39
  -8  -2  -2   37.17    1.76
   8   2   2   39.53    1.86
   9  -3  -2   16.97    1.16
  -9   3   2   17.24    1.12
   8  -3  -2    0.64    0.57
  -8   3   2    0.56    0.50
   7  -3  -2   17.50    1.07
  -7   3   2   17.23    1.06
   6  -3  -2   51.69    2.13
   6  -3  -2   47.79    2.06
  -6   3   2   47.70    2.13
   5  -3  -2   19.13    0.96
   5  -3  -2   20.34    1.03
  -5   3   2   19.27    1.05
   4  -3  -2  137.04    5.16
   4  -3  -2  134.77    5.69
  -4   3   2  141.96    5.38
   3  -3  -2   10.58    0.65
   3  -3  -2   11.70    0.80
  -3   3   2   10.21    0.65
   2  -3  -2   70.25    3.22
  -2   3   2   74.03    2.89
  -2   3   2   81.79    2.94
   1  -3  -2  386.65   15.66
  -1   3   2  387.12   14.22
   0  -3  -2   69.76    2.56
   0  -3  -2   65.54    2.89
   0   3   2   65.33    2.67
  -1  -3  -2   75.12    3.30
  -1  -3  -2   80.90    3.04
  -2  -3  -2   52.84    2.27
  -2  -3  -2   55.38    2.13
   2   3   2   48.50    2.13
  -3  -3  -2    3.36    0.38
  -3  -3  -2    4.41    0.46
   3   3   2    2.94    0.51
  -4  -3  -2  229.00    8.38
  -4  -3  -2  195.98    8.00
   4   3   2  194.30    7.75
  -5  -3  -2   44.39    1.96
   5   3   2   44.27    1.97
  -6  -3  -2    0.66    0.43
   6   3   2   -0.77    0.50
  -7  -3  -2   20.21    1.16
   7   3   2   19.72    1.34
  -8  -3  -2   14.24    1.03
   8   3   2   14.25    1.21
   9  -4  -2    5.96    0.73
  -9   4   2    5.32    0.63
   8  -4  -2   39.26    1.79
  -8   4   2   38.58    1.82
   7  -4  -2   14.39    0.99
  -7   4   2   14.95    1.00
   6  -4  -2    0.46    0.45
   6  -4  -2    0.16    0.36
  -6   4   2    0.53    0.41
   5  -4  -2   54.01    2.22
   5  -4  -2   56.05    2.44
  -5   4   2   55.46    2.31
   4  -4  -2  132.78    5.11
   4  -4  -2  135.93    5.66
  -4   4   2  139.67    5.30
   3  -4  -2   17.48    1.08
  -3   4   2   18.30    0.91
  -3   4   2   17.88    0.87
   2  -4  -2   20.01    1.20
  -2   4   2   24.26    0.95
  -2   4   2   21.24    1.04
   1  -4  -2    0.35    0.39
  -1   4   2    0.28    0.33
   0  -4  -2   72.01    3.44
   0  -4  -2   84.52    3.08
   0  -4  -2   92.15    3.10
   0   4   2   71.03    3.16
  -1  -4  -2  456.33   18.97
  -1  -4  -2  465.35   17.83
   1   4   2  488.71   17.35
  -2  -4  -2    2.22    0.43
  -2  -4  -2    2.17    0.34
   2   4   2    2.58    0.52
  -3  -4  -2    1.77    0.39
  -3  -4  -2    1.64    0.42
   3   4   2    1.14    0.51
  -4  -4  -2   50.75    2.28
  -4  -4  -2   57.62    2.31
   4   4   2   51.30    2.30
  -5  -4  -2    9.16    0.85
   5   4   2   11.17    0.94
  -6  -4  -2   53.75    2.37
   6   4   2   55.05    2.42
  -7  -4  -2    0.40    0.50
   7   4   2    0.00    0.66
  -8  -4  -2    2.31    0.57
   8   4   2    1.49    0.74
   8  -5  -2   45.89    1.97
  -8   5   2   41.45    1.93
   7  -5  -2    0.30    0.49
  -7   5   2    0.63    0.43
   6  -5  -2   31.29    1.44
   6  -5  -2   31.64    1.55
  -6   5   2   30.66    1.44
   5  -5  -2   11.86    0.95
   5  -5  -2   11.65    0.73
  -5   5   2   10.94    0.77
   4  -5  -2    0.43    0.48
  -4   5   2    0.41    0.33
  -4   5   2   -0.06    0.39
   3  -5  -2  223.11    9.54
  -3   5   2  248.61    8.90
  -3   5   2  225.70    8.64
   2  -5  -2   53.39    2.61
  -2   5   2   64.67    2.27
  -2   5   2   54.84    2.33
   1  -5  -2   32.32    1.69
  -1   5   2   33.28    1.50
   0  -5  -2   26.92    1.57
   0  -5  -2   32.28    1.19
   0   5   2   28.98    1.46
  -1  -5  -2   39.98    1.59
  -1  -5  -2   37.75    1.88
   1   5   2   39.56    1.80
  -2  -5  -2  121.31    4.70
  -2  -5  -2  122.69    5.06
   2   5   2  118.51    4.68
  -3  -5  -2  271.12   10.73
  -3  -5  -2  265.30   10.15
   3   5   2  255.45    9.87
  -4  -5  -2    9.25    0.88
  -4  -5  -2   10.77    0.73
   4   5   2    9.65    0.86
  -5  -5  -2   24.84    1.36
   5   5   2   26.18    1.48
  -6  -5  -2   38.25    1.81
   6   5   2   37.57    1.93
  -7  -5  -2    5.44    0.67
   7   5   2    5.67    0.78
   8  -6  -2    1.23    0.56
   7  -6  -2    7.31    0.67
   6  -6  -2   80.36    3.42
  -6   6   2   75.97    3.09
   5  -6  -2    1.89    0.57
  -5   6   2    1.64    0.42
   4  -6  -2   26.26    1.52
  -4   6   2   27.14    1.29
   3  -6  -2    1.01    0.49
  -3   6   2    1.30    0.40
   2  -6  -2    0.66    0.54
  -2   6   2    0.47    0.41
   1  -6  -2  323.74   13.47
  -1   6   2  336.98   12.27
   0  -6  -2   22.22    1.27
   0   6   2   21.82    1.19
  -1  -6  -2    1.09    0.50
  -1  -6  -2    0.73    0.24
   1   6   2    0.80    0.49
  -2  -6  -2   49.61    2.01
  -2  -6  -2   48.66    2.22
   2   6   2   46.93    2.16
  -3  -6  -2   12.18    0.86
  -3  -6  -2   12.84    0.83
   3   6   2    8.90    0.88
  -4  -6  -2   99.11    3.87
  -4  -6  -2   94.68    4.01
   4   6   2   93.05    3.86
  -5  -6  -2   13.95    1.03
   5   6   2   14.45    1.23
  -6  -6  -2    0.75    0.55
   6   6   2    0.65    0.71
  -7  -6  -2   27.90    1.55
   7   6   2   30.02    1.75
  -8   7   2    8.02    0.77
  -7   7   2   11.17    0.94
   6  -7  -2    8.70    0.83
  -6   7   2    8.87    0.82
   5  -7  -2   53.00    2.47
  -5   7   2   50.63    2.17
   4  -7  -2   84.82    3.75
  -4   7   2   84.14    3.34
   3  -7  -2    2.72    0.63
  -3   7   2    2.66    0.51
   2  -7  -2   23.93    1.49
  -2   7   2   25.79    1.26
   1  -7  -2   74.02    3.29
  -1   7   2   71.28    2.94
   0  -7  -2   17.02    1.21
   0   7   2   17.66    1.14
  -1  -7  -2  118.34    5.15
   1   7   2  125.15    4.77
  -2  -7  -2    9.77    0.85
   2   7   2    7.35    0.76
  -3  -7  -2   14.21    0.98
   3   7   2   13.97    1.17
  -4  -7  -2   80.13    3.20
   4   7   2   73.72    3.20
  -5  -7  -2    1.27    0.55
   5   7   2    0.86    0.73
  -6  -7  -2   21.79    1.38
   6   7   2   23.74    1.46
  -7   8   2   13.76    1.07
   6  -8  -2    5.97    0.80
  -6   8   2    6.58    0.68
   5  -8  -2    2.35    0.70
  -5   8   2    2.49    0.54
   4  -8  -2    2.36    0.67
  -4   8   2    2.17    0.47
   3  -8  -2  126.05    5.41
  -3   8   2  125.68    4.87
   2  -8  -2   42.24    2.14
  -2   8   2   44.58    1.96
   1  -8  -2    0.55    0.55
  -1   8   2   -0.08    0.45
   0  -8  -2   11.70    1.09
   0   8   2   11.35    0.93
  -1  -8  -2   56.33    2.59
   1   8   2   54.52    2.40
  -2  -8  -2   54.74    2.49
   2   8   2   53.73    2.39
  -3  -8  -2   18.13    1.15
   3   8   2   16.22    1.30
   4   8   2    0.35    0.72
   5   8   2   14.22    1.32
   6   8   2   59.74    2.76
   6  -9  -2   45.03    2.25
  -6   9   2   40.54    1.93
   5  -9  -2    4.46    0.76
  -5   9   2    5.02    0.64
   4  -9  -2    3.72    0.69
  -4   9   2    4.39    0.63
   3  -9  -2   29.05    1.71
  -3   9   2   25.70    1.43
   2  -9  -2    1.10    0.72
  -2   9   2    0.61    0.53
   1  -9  -2   72.23    3.28
  -1   9   2   71.86    2.99
   0  -9  -2   12.19    1.17
   0   9   2   11.85    1.05
  -1  -9  -2    0.27    0.60
   1   9   2   -0.03    0.59
  -2  -9  -2   61.90    2.80
   2   9   2   61.27    2.70
  -3  -9  -2    9.11    0.90
   3   9   2   10.80    1.00
   4   9   2    6.74    0.94
   5   9   2    3.08    0.86
   5 -10  -2    7.06    0.90
  -5  10   2    5.88    0.69
   4 -10  -2   58.20    2.80
  -4  10   2   56.71    2.48
   3 -10  -2    0.30    0.72
  -3  10   2    1.50    0.56
   2 -10  -2    2.93    0.70
  -2  10   2    2.72    0.60
   1 -10  -2   28.20    1.74
  -1  10   2   27.70    1.52
   0 -10  -2    0.74    0.60
   0  10   2    0.90    0.57
  -1 -10  -2   28.88    1.63
   1  10   2   26.33    1.53
  -2 -10  -2    0.53    0.57
   2  10   2    0.22    0.58
   3  10   2    3.39    0.80
   4  10   2   39.78    2.06
   4 -11  -2    5.97    0.90
  -4  11   2    5.54    0.72
   3 -11  -2   18.29    1.47
  -3  11   2   16.73    1.16
   2 -11  -2    5.25    0.90
  -2  11   2    5.33    0.71
   1 -11  -2    2.97    0.80
  -1  11   2    1.72    0.61
   0 -11  -2   23.41    1.53
   0  11   2   21.08    1.35
  -1 -11  -2   25.44    1.56
   1  11   2   25.52    1.50
  -2 -11  -2    3.76    0.69
   2  11   2    4.15    0.78
   2  13  -3    0.96    0.61
   0 -13   3   41.45    2.24
   1 -13   3    3.83    0.88
   2 -13   3   -1.00    0.77
  -3  13  -3   15.28    1.40
   2  12  -3    9.94    1.03
  -1 -12   3   -0.28    0.63
   0 -12   3   14.57    1.30
   1 -12   3    0.37    0.76
   2 -12   3   44.70    2.43
   3 -12   3    0.91    0.79
  -4  12  -3    1.52    0.78
  -5  12  -3   19.81    1.51
   5  11  -3    2.08    0.62
  -5 -11   3    2.01    0.71
   4  11  -3    0.28    0.54
  -4 -11   3   -0.02    0.56
   3  11  -3   11.83    0.91
   3  11  -3   10.61    0.93
  -3 -11   3   10.77    0.85
   2  11  -3   38.03    1.64
  -2 -11   3   34.78    1.65
  -2 -11   3   34.18    1.83
   1  11  -3   40.76    1.71
  -1 -11   3   37.04    1.74
  -1 -11   3   37.28    1.99
   0 -11   3    7.32    0.90
   1 -11   3    3.37    0.81
   2 -11   3   48.48    2.53
   3 -11   3    3.57    0.88
  -4  11  -3   13.33    1.33
  -5  11  -3   -0.65    0.65
  -6  11  -3    6.18    0.85
   6  10  -3   -0.11    0.57
  -6 -10   3    0.28    0.65
   5  10  -3   30.42    1.63
  -5 -10   3   33.43    1.69
   4  10  -3   17.77    1.13
  -4 -10   3   19.56    1.24
   3  10  -3    0.78    0.49
   3  10  -3    1.23    0.52
  -3 -10   3    0.35    0.50
   2  10  -3   34.06    1.55
  -2 -10   3   32.46    1.71
  -2 -10   3   33.68    1.63
   1  10  -3   10.08    0.75
  -1 -10   3   10.15    0.83
  -1 -10   3   10.17    0.91
   0  10  -3   64.25    2.49
   0 -10   3   60.25    2.57
   0 -10   3   61.51    2.92
  -1  10  -3   15.88    0.90
   1 -10   3   15.07    0.91
   1 -10   3   14.88    1.35
   2 -10   3    1.40    0.45
   2 -10   3    1.09    0.73
   3 -10   3   80.08    3.10
   3 -10   3   70.14    3.47
  -4  10  -3   23.85    1.62
   4 -10   3   27.02    1.33
  -5  10  -3   15.61    1.26
   5 -10   3   15.02    1.02
  -6  10  -3    0.33    0.62
   6   9  -3    1.57    0.59
  -6  -9   3    1.13    0.65
  -5  -9   3    4.14    0.67
   4   9  -3    4.84    0.62
  -4  -9   3    5.06    0.66
   3   9  -3   83.55    3.83
   3   9  -3   91.48    3.54
  -3  -9   3   95.10    3.68
   2   9  -3    3.42    0.50
  -2  -9   3    2.91    0.54
  -2  -9   3    2.43    0.54
   1   9  -3    3.55    0.47
  -1  -9   3    3.43    0.51
  -1  -9   3    4.28    0.66
   0   9  -3  132.80    4.81
   0  -9   3  123.84    5.42
   0  -9   3  124.81    5.01
  -1   9  -3   10.91    0.70
   1  -9   3    8.42    0.87
   1  -9   3    9.78    0.78
  -2   9  -3   56.42    2.17
   2  -9   3   54.33    2.27
   2  -9   3   48.57    2.54
  -3   9  -3    0.44    0.43
   3  -9   3    0.64    0.43
   3  -9   3    0.56    0.63
  -4   9  -3    1.02    0.67
   4  -9   3    1.97    0.48
  -5   9  -3   97.58    4.26
   5  -9   3   99.86    4.00
  -6   9  -3    4.77    0.68
   6  -9   3    5.57    0.66
   7   8  -3   28.87    1.58
  -7  -8   3   30.28    1.69
   6   8  -3   31.88    1.58
  -6  -8   3   33.10    1.76
   5   8  -3   -0.24    0.53
  -5  -8   3    0.13    0.57
   4   8  -3   21.54    1.19
  -4  -8   3   21.13    1.27
   3   8  -3   68.56    3.06
   3   8  -3   72.89    2.84
  -3  -8   3   71.81    2.96
   2   8  -3   42.53    1.76
  -2  -8   3   41.77    1.84
  -2  -8   3   39.16    1.92
   1   8  -3   60.87    2.40
  -1  -8   3   61.01    2.54
  -1  -8   3   59.85    2.72
   0   8  -3   -0.09    0.30
   0  -8   3    0.15    0.37
   0  -8   3    0.28    0.53
  -1   8  -3   64.29    2.48
   1  -8   3   61.11    2.87
   1  -8   3   63.86    2.62
  -2   8  -3  238.55    8.19
   2  -8   3  207.29    9.09
   2  -8   3  214.59    8.51
  -3   8  -3    0.84    0.35
   3  -8   3    0.74    0.41
   3  -8   3    0.37    0.55
  -4   8  -3   13.48    0.78
  -4   8  -3   13.64    1.09
   4  -8   3   14.56    0.91
  -5   8  -3   13.04    1.06
   5  -8   3   14.89    0.98
  -6   8  -3    6.12    0.63
   6  -8   3    5.01    0.65
  -8   8  -3    0.48    0.60
   7   7  -3    9.61    0.87
  -7  -7   3   10.43    0.97
   6   7  -3    3.27    0.65
  -6  -7   3    2.20    0.71
   5   7  -3   73.08    3.01
  -5  -7   3   74.95    3.13
   4   7  -3   27.27    1.39
  -4  -7   3   30.67    1.51
   3   7  -3    2.22    0.42
   3   7  -3    2.03    0.45
  -3  -7   3    1.75    0.51
   2   7  -3  116.53    4.36
  -2  -7   3  115.51    4.78
  -2  -7   3  112.02    4.54
   1   7  -3   71.26    2.68
  -1  -7   3   66.60    2.98
  -1  -7   3   69.46    2.83
   0   7  -3   73.78    2.80
   0  -7   3   74.36    3.20
   0  -7   3   71.85    2.97
  -1   7  -3   23.01    1.02
   1  -7   3   22.40    1.15
   1  -7   3   21.98    1.32
  -2   7  -3    0.18    0.30
   2  -7   3    0.85    0.45
   2  -7   3   -0.12    0.40
  -3   7  -3  156.18    5.60
   3  -7   3  149.20    6.25
   3  -7   3  144.53    5.86
  -4   7  -3  133.31    4.93
  -4   7  -3  136.91    5.50
   4  -7   3  125.16    5.19
  -5   7  -3    7.13    0.63
   5  -7   3    6.63    0.66
  -6   7  -3    4.98    0.54
   6  -7   3    4.59    0.49
   6  -7   3    5.10    0.66
  -8   7  -3   11.09    1.08
   8   6  -3   24.51    1.47
  -8  -6   3   24.87    1.51
   7   6  -3    0.52    0.58
  -7  -6   3    0.29    0.63
   6   6  -3    7.87    0.76
  -6  -6   3    6.28    0.81
   5   6  -3  118.12    4.67
  -5  -6   3  123.76    4.90
   4   6  -3    2.08    0.51
   4   6  -3    2.49    0.35
  -4  -6   3    2.13    0.55
   3   6  -3  102.91    3.80
   3   6  -3   96.61    4.08
  -3  -6   3   95.89    3.96
   2   6  -3    2.78    0.42
   2   6  -3    1.67    0.37
  -2  -6   3    1.99    0.45
   1   6  -3   12.47    0.65
  -1  -6   3   13.14    0.81
  -1  -6   3   11.55    0.78
   0   6  -3  416.28   14.56
   0  -6   3  387.94   16.06
   0  -6   3  388.22   15.18
  -1   6  -3   36.57    1.41
   1  -6   3   34.68    1.68
   1  -6   3   33.44    1.57
  -2   6  -3   40.45    1.53
   2  -6   3   37.59    1.80
   2  -6   3   35.24    1.66
  -3   6  -3   36.60    1.72
  -3   6  -3   36.74    1.44
   3  -6   3   34.47    1.61
  -4   6  -3    0.83    0.41
   4  -6   3    0.82    0.28
   4  -6   3    1.15    0.44
  -5   6  -3   91.12    3.83
   5  -6   3   90.44    3.72
   5  -6   3   93.03    3.47
  -6   6  -3   35.18    1.59
   6  -6   3   34.12    1.49
   6  -6   3   33.34    1.69
  -7   6  -3    0.57    0.54
   7  -6   3    0.32    0.45
  -8   6  -3   12.49    1.15
   8   5  -3    7.03    0.82
  -8  -5   3    7.36    0.81
   7   5  -3   25.30    1.38
  -7  -5   3   27.91    1.53
   6   5  -3   41.17    1.92
  -6  -5   3   43.37    2.03
   5   5  -3    9.82    0.89
  -5  -5   3   10.46    0.90
   4   5  -3  140.27    5.45
   4   5  -3  151.47    5.84
  -4  -5   3  138.88    5.68
   3   5  -3  181.53    6.87
   3   5  -3  185.83    7.46
  -3  -5   3  184.50    7.16
   2   5  -3   17.04    0.89
   2   5  -3   17.12    0.85
  -2  -5   3   16.83    0.92
   1   5  -3   32.72    1.31
   1   5  -3   31.71    1.48
  -1  -5   3   31.35    1.42
   0   5  -3   40.24    1.78
   0   5  -3   39.74    1.50
   0  -5   3   36.47    1.63
  -1   5  -3   41.13    1.54
  -1   5  -3   40.33    1.83
   1  -5   3   37.71    1.72
  -2   5  -3  416.08   16.91
  -2   5  -3  431.83   15.32
   2  -5   3  409.07   16.00
  -3   5  -3   12.95    0.81
   3  -5   3   12.56    0.80
   3  -5   3   12.43    0.60
  -4   5  -3    2.59    0.38
   4  -5   3    2.95    0.31
   4  -5   3    3.06    0.49
  -5   5  -3   42.63    1.87
   5  -5   3   42.15    1.73
   5  -5   3   43.11    1.92
  -6   5  -3    1.24    0.35
   6  -5   3    0.06    0.40
   6  -5   3    0.92    0.50
  -7   5  -3   85.11    3.58
   7  -5   3   83.61    3.32
  -8   5  -3    1.74    0.66
   8  -5   3    0.23    0.54
  -9   5  -3    0.14    0.65
   9   4  -3    2.76    0.61
  -9  -4   3    3.59    0.68
   8   4  -3    0.34    0.58
  -8  -4   3    0.59    0.52
   7   4  -3   47.67    2.11
  -7  -4   3   46.32    2.19
   6   4  -3   21.04    1.22
  -6  -4   3   21.79    1.31
   5   4  -3   23.27    1.17
  -5  -4   3   23.12    1.27
   4   4  -3   18.68    1.04
   4   4  -3   19.49    0.89
  -4  -4   3   20.01    1.15
   3   4  -3    0.49    0.34
   3   4  -3    0.08    0.24
  -3  -4   3    0.74    0.39
   2   4  -3  482.57   19.07
   2   4  -3  483.49   17.39
  -2  -4   3  458.63   18.10
   1   4  -3  103.63    3.75
   1   4  -3  100.49    4.15
  -1  -4   3   98.02    3.96
   0   4  -3    2.58    0.24
   0   4  -3    2.75    0.35
   0  -4   3    2.50    0.34
  -1   4  -3    2.95    0.24
  -1   4  -3    3.10    0.38
   1  -4   3    2.40    0.35
  -2   4  -3   48.64    2.11
   2  -4   3   49.34    1.84
   2  -4   3   48.51    2.04
  -3   4  -3  106.47    4.41
   3  -4   3  105.08    3.97
   3  -4   3  109.96    4.23
  -4   4  -3  128.37    5.16
   4  -4   3  125.44    4.97
   4  -4   3  123.46    4.68
  -5   4  -3    0.38    0.31
   5  -4   3    1.48    0.47
   5  -4   3    0.39    0.34
  -6   4  -3   18.40    0.95
   6  -4   3   17.13    0.98
   6  -4   3   17.88    1.20
  -7   4  -3   81.86    3.40
   7  -4   3   77.40    3.15
  -8   4  -3    0.53    0.63
   8  -4   3    1.43    0.57
  -9   4  -3   27.21    1.57
   9  -4   3   25.54    1.41
   9   3  -3    5.68    0.71
  -9  -3   3    6.20    0.73
   8   3  -3   29.56    1.54
  -8  -3   3   30.12    1.60
   7   3  -3   -0.29    0.52
  -7  -3   3    0.87    0.50
   6   3  -3   15.67    0.97
  -6  -3   3   16.08    1.05
   5   3  -3  155.03    5.92
  -5  -3   3  158.89    6.21
   4   3  -3   14.90    0.68
   4   3  -3   12.65    0.79
  -4  -3   3   14.61    0.97
   3   3  -3   50.53    2.09
   3   3  -3   49.30    1.98
  -3  -3   3   50.40    2.13
   2   3  -3   51.73    2.12
   2   3  -3   50.66    1.96
  -2  -3   3   48.74    2.08
   1   3  -3    0.20    0.20
   1   3  -3    0.02    0.15
  -1  -3   3    0.55    0.23
   0   3  -3  638.81   22.49
   0   3  -3  619.41   24.82
   0  -3   3  562.27   23.39
   0  -3   3  643.15   22.50
  -1   3  -3  267.54   10.79
  -2   3  -3   22.26    1.04
   2  -3   3   21.11    0.86
   2  -3   3   21.93    1.01
  -3   3  -3   96.98    3.81
   3  -3   3   88.96    3.44
   3  -3   3   90.56    3.66
  -4   3  -3   92.57    3.57
   4  -3   3   82.39    3.46
   4  -3   3   82.39    3.26
  -5   3  -3   83.26    3.27
   5  -3   3   78.31    3.04
   5  -3   3   73.66    3.23
  -6   3  -3   50.73    2.24
   6  -3   3   49.19    2.07
  -7   3  -3    0.27    0.59
   7  -3   3    0.37    0.51
  -8   3  -3   11.31    1.00
   8  -3   3   11.68    0.95
  -9   3  -3   28.70    1.54
   9  -3   3   27.57    1.47
   9   2  -3   15.94    1.19
  -9  -2   3   16.69    1.18
   8   2  -3   35.36    1.69
  -8  -2   3   37.22    1.80
  -7  -2   3   16.99    1.16
   6   2  -3    8.86    0.81
  -6  -2   3    9.03    0.80
   5   2  -3   11.23    0.81
  -5  -2   3   11.21    0.86
   4   2  -3  124.96    4.59
   4   2  -3  107.99    4.29
  -4  -2   3  106.25    4.52
   3   2  -3  388.88   13.73
   3   2  -3  357.70   15.02
  -3  -2   3  374.79   14.30
   2   2  -3   38.44    1.43
   2   2  -3   36.02    1.55
  -2  -2   3   34.41    1.53
   1   2  -3   27.21    1.20
   1   2  -3   27.21    1.05
  -1  -2   3   27.12    1.17
   0   2  -3  188.79    7.60
   0  -2   3  194.15    6.85
   0  -2   3  180.38    7.18
  -1   2  -3   26.06    0.95
  -1   2  -3   24.19    1.12
   1  -2   3   25.64    0.95
   1  -2   3   22.14    1.06
  -2   2  -3  418.63   16.34
   2  -2   3  410.64   14.85
   2  -2   3  389.90   15.47
  -3   2  -3   70.42    2.80
   3  -2   3   68.11    2.57
   3  -2   3   62.24    2.71
  -4   2  -3   10.33    0.64
   4  -2   3   10.01    0.68
   4  -2   3   10.12    0.82
  -5   2  -3  239.70    9.32
   5  -2   3  224.16    8.56
   5  -2   3  227.63    8.97
  -6   2  -3   17.91    1.17
   6  -2   3   17.15    0.99
  -7   2  -3   18.25    1.21
   7  -2   3   18.44    1.09
  -8   2  -3    1.60    0.60
   8  -2   3    1.57    0.57
  -9   2  -3    0.70    0.62
   9  -2   3    1.09    0.57
   9   1  -3    3.16    0.60
  -9  -1   3    3.46    0.62
   8   1  -3    0.11    0.49
  -8  -1   3    0.50    0.49
   7   1  -3   70.63    2.87
  -7  -1   3   72.11    3.03
   6   1  -3   64.52    2.61
  -6  -1   3   63.87    2.75
   5   1  -3   13.75    0.87
  -5  -1   3   13.07    0.96
   4   1  -3    6.30    0.51
   4   1  -3    6.83    0.43
  -4  -1   3    4.47    0.53
   3   1  -3   89.18    3.68
   3   1  -3   89.27    3.39
  -3  -1   3   90.86    3.57
   2   1  -3  179.36    7.56
   2   1  -3  194.39    6.86
  -2  -1   3  185.61    7.16
   1   1  -3  404.90   14.31
   1   1  -3  378.32   15.69
  -1  -1   3  386.87   14.81
   0   1  -3  135.33    5.45
   0  -1   3  134.18    4.91
   0  -1   3  129.61    5.11
  -1   1  -3  103.61    4.14
   1  -1   3  100.91    3.73
   1  -1   3   97.63    3.90
  -2   1  -3  234.68    9.36
   2  -1   3  223.48    8.86
   2  -1   3  236.42    8.51
  -3   1  -3   54.41    2.23
   3  -1   3   50.09    2.16
   3  -1   3   52.42    2.07
  -4   1  -3  134.53    5.29
   4  -1   3  125.43    5.12
   4  -1   3  128.72    4.89
  -5   1  -3    1.48    0.29
  -5   1  -3    1.12    0.44
   5  -1   3    1.53    0.41
  -6   1  -3   15.54    0.98
   6  -1   3   14.28    0.94
  -7   1  -3  119.14    4.64
   7  -1   3  110.39    4.43
  -8   1  -3    0.50    0.52
   8  -1   3    1.30    0.52
  -9   1  -3    1.88    0.63
   9  -1   3    2.90    0.63
   9   0  -3    1.90    0.62
  -9   0   3    1.15    0.58
   8   0  -3    8.45    0.77
  -8   0   3    9.63    0.82
   7   0  -3    2.39    0.56
  -7   0   3    2.53    0.55
   6   0  -3    4.64    0.57
  -6   0   3    3.57    0.53
   5   0  -3  244.26    9.20
   5   0  -3  261.83    9.97
  -5   0   3  237.51    9.60
   4   0  -3   65.28    2.62
   4   0  -3   70.25    2.82
  -4   0   3   67.23    2.79
   3   0  -3    9.46    0.59
  -3   0   3    9.85    0.66
   2   0  -3   56.83    2.09
   2   0  -3   52.63    2.33
  -2   0   3   54.65    2.19
   1   0  -3  301.10   13.36
   1   0  -3  349.23   12.12
  -1   0   3  343.03   12.58
   0   0  -3  682.95   29.28
   0   0   3  737.96   26.77
   0   0   3  763.63   27.67
  -1   0  -3  151.55    6.28
   1   0   3  156.18    5.69
   1   0   3  152.57    5.87
  -2   0  -3    5.09    0.50
   2   0   3    4.35    0.44
   2   0   3    5.07    0.44
  -3   0  -3  149.93    6.15
   3   0   3  150.76    5.86
   3   0   3  150.96    5.63
  -4   0  -3  163.03    6.43
  -4   0  -3  168.89    6.70
   4   0   3  162.48    6.19
  -5   0  -3   16.85    0.80
  -5   0  -3   15.99    1.00
   5   0   3   14.62    0.91
  -6   0  -3    6.16    0.61
   6   0   3    8.48    0.71
  -7   0  -3    3.75    0.55
   7   0   3    3.97    0.56
  -8   0  -3   27.30    1.44
   8   0   3   24.68    1.41
  -9   0  -3   28.51    1.52
   9   0   3   26.50    1.47
   9  -1  -3   11.31    1.02
  -9   1   3   12.16    0.99
   8  -1  -3   55.78    2.32
  -8   1   3   53.94    2.41
   7  -1  -3   -0.28    0.44
  -7   1   3    0.48    0.45
   6  -1  -3    6.39    0.61
  -6   1   3    5.54    0.62
   5  -1  -3   56.30    2.22
   5  -1  -3   56.70    2.30
  -5   1   3   50.03    2.32
   4  -1  -3   32.10    1.49
   4  -1  -3   32.11    1.39
  -4   1   3   33.62    1.49
   3  -1  -3  288.65   11.67
   3  -1  -3  283.11   10.61
  -3   1   3  294.01   11.04
   2  -1  -3   37.45    1.43
   2  -1  -3   34.90    1.60
  -2   1   3   34.83    1.45
   1  -1  -3    0.64    0.29
  -1   1   3    0.96    0.20
  -1   1   3    1.00    0.14
   0  -1  -3  559.08   24.20
   0   1   3  624.54   22.04
   0   1   3  622.35   22.87
  -1  -1  -3   64.63    2.81
   1   1   3   65.59    2.57
   1   1   3   66.48    2.58
  -2  -1  -3  292.27   12.63
   2   1   3  327.18   11.94
   2   1   3  318.81   11.53
  -3  -1  -3    8.99    0.65
  -3  -1  -3   10.02    0.64
   3   1   3    9.18    0.66
  -4  -1  -3    4.68    0.45
  -4  -1  -3    3.69    0.44
   4   1   3    3.72    0.54
  -5  -1  -3  147.66    5.74
   5   1   3  145.04    5.57
  -6  -1  -3   14.93    0.92
   6   1   3   14.77    0.99
  -7  -1  -3    4.00    0.54
   7   1   3    4.03    0.66
  -8  -1  -3    6.75    0.66
   8   1   3    5.89    0.72
   9  -2  -3    1.01    0.52
  -9   2   3    0.57    0.51
   8  -2  -3    4.75    0.65
  -8   2   3    4.80    0.64
   7  -2  -3   34.28    1.60
  -7   2   3   34.62    1.65
   6  -2  -3  182.62    6.80
  -6   2   3  180.68    7.09
   5  -2  -3    5.02    0.46
   5  -2  -3    4.04    0.45
  -5   2   3    4.29    0.53
   4  -2  -3   10.65    0.79
   4  -2  -3    9.73    0.63
  -4   2   3   11.39    0.77
   3  -2  -3  108.39    4.16
   3  -2  -3  110.28    4.62
  -3   2   3  113.60    4.32
   2  -2  -3   87.12    3.27
   2  -2  -3   86.62    3.65
  -2   2   3   85.65    3.33
   1  -2  -3  152.53    6.26
  -1   2   3  149.08    5.66
  -1   2   3  142.41    5.76
  -1   2   3  163.61    5.76
   0  -2  -3    3.78    0.44
   0   2   3    3.01    0.39
  -1  -2  -3   68.67    2.49
  -1  -2  -3   61.19    2.73
   1   2   3   59.32    2.54
  -2  -2  -3  346.90   13.02
  -2  -2  -3  335.84   13.80
   2   2   3  341.75   12.62
  -3  -2  -3    1.53    0.33
  -3  -2  -3    1.46    0.35
   3   2   3    0.85    0.39
  -4  -2  -3    5.80    0.54
  -4  -2  -3    5.73    0.53
   4   2   3    6.13    0.64
  -5  -2  -3    4.28    0.48
   5   2   3    4.17    0.64
  -6  -2  -3   14.80    0.96
   6   2   3   12.64    0.99
  -7  -2  -3   82.00    3.40
   7   2   3   83.55    3.36
  -8  -2  -3    0.57    0.53
   8   2   3   -0.20    0.58
   9  -3  -3    2.55    0.60
  -9   3   3    1.97    0.55
   8  -3  -3    6.00    0.71
  -8   3   3    5.83    0.64
   7  -3  -3   21.67    1.20
  -7   3   3   21.51    1.20
   6  -3  -3    1.91    0.40
   6  -3  -3    1.59    0.44
  -6   3   3    2.21    0.47
   5  -3  -3  103.19    4.19
   5  -3  -3   96.58    3.80
  -5   3   3   99.25    3.98
   4  -3  -3   91.92    3.60
   4  -3  -3   93.11    4.02
  -4   3   3   98.55    3.75
   3  -3  -3   14.14    0.78
   3  -3  -3   14.21    0.96
  -3   3   3   14.28    0.75
   2  -3  -3  310.02   12.77
  -2   3   3  309.27   11.57
  -2   3   3  323.54   11.92
   1  -3  -3   90.39    3.73
  -1   3   3   84.38    3.35
   0  -3  -3  109.09    4.62
   0   3   3  111.49    4.24
  -1  -3  -3   32.61    1.59
  -1  -3  -3   36.20    1.38
   1   3   3   30.93    1.56
  -2  -3  -3    4.11    0.48
  -2  -3  -3    4.84    0.42
   2   3   3    3.60    0.51
  -3  -3  -3  219.01    8.63
  -3  -3  -3  204.79    8.16
  -4  -3  -3  130.49    5.09
  -4  -3  -3  119.69    4.87
   4   3   3  120.40    4.79
  -5  -3  -3    1.67    0.47
   5   3   3    2.19    0.57
  -6  -3  -3    0.86    0.45
   6   3   3    0.58    0.61
  -7  -3  -3    9.14    0.86
   7   3   3    8.88    0.90
  -8  -3  -3    2.86    0.55
   8   3   3    3.37    0.75
   9  -4  -3    2.26    0.67
   8  -4  -3   56.33    2.31
  -8   4   3   51.10    2.31
   7  -4  -3    0.04    0.52
  -7   4   3    0.27    0.45
   6  -4  -3    6.02    0.58
   6  -4  -3    7.39    0.64
  -6   4   3    7.08    0.63
   5  -4  -3   69.70    2.98
   5  -4  -3   64.74    2.66
  -5   4   3   68.83    2.77
   4  -4  -3    1.43    0.39
   4  -4  -3    0.76    0.46
  -4   4   3    0.89    0.36
   3  -4  -3  166.13    7.36
  -3   4   3  176.59    6.66
  -3   4   3  191.03    6.83
   2  -4  -3    0.19    0.44
  -2   4   3    0.61    0.32
   1  -4  -3   11.91    0.95
  -1   4   3   11.96    0.80
   0  -4  -3  216.81    9.14
   0   4   3  228.98    8.37
  -1  -4  -3   46.32    1.79
  -1  -4  -3   43.64    2.09
   1   4   3   44.59    1.98
  -2  -4  -3   17.82    0.85
  -2  -4  -3   15.85    1.00
   2   4   3   14.54    1.08
  -3  -4  -3   18.74    1.08
  -3  -4  -3   19.88    1.01
  -4  -4  -3   -0.32    0.42
  -4  -4  -3    0.03    0.37
   4   4   3   -0.24    0.58
  -5  -4  -3  128.49    5.21
   5   4   3  135.53    5.16
  -6  -4  -3   21.61    1.28
   6   4   3   23.56    1.45
  -7  -4  -3    1.11    0.51
   7   4   3    0.51    0.69
  -8  -4  -3    3.33    0.56
   8   4   3    4.92    0.84
   8  -5  -3   17.37    1.13
   7  -5  -3   18.44    1.10
   6  -5  -3   49.07    2.04
   6  -5  -3   48.09    2.26
   5  -5  -3    2.73    0.60
  -5   5   3    2.58    0.51
   4  -5  -3   55.49    2.59
  -4   5   3   57.65    2.32
   3  -5  -3  124.54    5.25
  -3   5   3  122.79    4.71
   2  -5  -3    4.53    0.65
  -2   5   3    0.72    0.40
   1  -5  -3   62.74    2.83
  -1   5   3   62.58    2.57
   0  -5  -3    1.01    0.55
   0   5   3    1.77    0.53
  -1  -5  -3   87.71    3.32
  -1  -5  -3   82.28    3.72
   1   5   3   86.95    3.47
  -2  -5  -3   99.52    3.80
  -2  -5  -3   97.87    4.14
   2   5   3   92.91    3.85
  -3  -5  -3   28.36    1.46
  -3  -5  -3   30.22    1.36
   3   5   3   26.46    1.52
  -4  -5  -3    0.87    0.47
  -4  -5  -3    1.21    0.41
   4   5   3    1.51    0.68
  -5  -5  -3   41.18    1.91
   5   5   3   43.16    2.00
  -6  -5  -3    4.62    0.63
   6   5   3    4.93    0.81
  -7  -5  -3   30.91    1.60
   7   5   3   32.48    1.82
  -7   6   3   18.47    1.16
   6  -6  -3    5.31    0.69
  -6   6   3    5.18    0.63
   5  -6  -3   28.27    1.57
  -5   6   3   26.94    1.36
   4  -6  -3    5.40    0.66
  -4   6   3    6.44    0.62
   3  -6  -3    0.11    0.48
  -3   6   3   -0.13    0.41
   2  -6  -3  135.49    5.68
  -2   6   3  132.72    5.14
   1  -6  -3   86.09    3.73
  -1   6   3   82.07    3.34
   0  -6  -3   11.64    1.09
   0   6   3   12.71    0.93
  -1  -6  -3    3.87    0.58
   1   6   3    4.28    0.69
  -2  -6  -3   21.93    1.30
   2   6   3   22.21    1.29
  -3  -6  -3   58.07    2.59
  -3  -6  -3   59.08    2.42
   3   6   3   56.97    2.56
  -4  -6  -3   86.04    3.45
  -4  -6  -3   85.21    3.60
   4   6   3   81.98    3.50
  -5  -6  -3    2.91    0.58
   5   6   3    3.42    0.80
  -6  -6  -3    2.10    0.57
   6   6   3    2.58    0.85
   7   6   3   34.34    1.93
  -7   7   3   -0.71    0.51
   6  -7  -3    2.99    0.65
  -6   7   3    2.48    0.58
   5  -7  -3   59.06    2.74
  -5   7   3   57.37    2.44
   4  -7  -3    2.02    0.63
  -4   7   3    3.93    0.57
   3  -7  -3    3.04    0.61
  -3   7   3    3.76    0.52
   2  -7  -3    0.34    0.59
  -2   7   3   -0.10    0.46
   1  -7  -3    2.12    0.58
  -1   7   3    2.25    0.52
   0  -7  -3  145.13    6.17
   0   7   3  147.59    5.64
  -1  -7  -3   40.69    2.00
   1   7   3   38.26    1.84
  -2  -7  -3    9.62    0.90
   2   7   3    8.06    0.82
  -3  -7  -3   28.23    1.45
   3   7   3   26.97    1.53
   4   7   3   12.04    1.05
   5   7   3   24.54    1.63
   6   7   3   16.53    1.49
  -7   8   3    3.72    0.61
   6  -8  -3   17.00    1.31
  -6   8   3   14.69    1.06
   5  -8  -3    3.16    0.69
  -5   8   3    2.12    0.56
   4  -8  -3   12.68    1.20
  -4   8   3   10.76    0.95
   3  -8  -3   67.85    3.08
  -3   8   3   64.89    2.73
   2  -8  -3    3.36    0.65
  -2   8   3    3.84    0.62
   1  -8  -3    0.27    0.55
  -1   8   3    0.35    0.49
   0  -8  -3   14.17    1.20
   0   8   3   12.74    1.10
  -1  -8  -3    2.63    0.64
   1   8   3    2.32    0.61
  -2  -8  -3   79.80    3.55
   2   8   3   82.14    3.39
  -3  -8  -3   10.00    0.95
   3   8   3   11.99    1.05
   4   8   3   -0.68    0.66
   5   8   3   45.01    2.21
   6  -9  -3   14.27    1.25
  -6   9   3   12.85    1.05
   5  -9  -3    2.86    0.74
  -5   9   3    2.75    0.61
   4  -9  -3    0.21    0.70
  -4   9   3    0.22    0.52
   3  -9  -3    3.23    0.78
  -3   9   3    5.31    0.68
   2  -9  -3   54.28    2.66
  -2   9   3   54.24    2.37
   1  -9  -3   50.69    2.43
  -1   9   3   45.40    2.15
   0  -9  -3    0.39    0.64
   0   9   3    0.54    0.60
  -1  -9  -3    4.22    0.67
   1   9   3    3.16    0.65
  -2  -9  -3   38.22    1.93
   2   9   3   38.93    1.96
  -3  -9  -3   17.92    1.19
   3   9   3   19.32    1.42
   4   9   3   23.76    1.63
   5 -10  -3   20.30    1.46
  -5  10   3   18.49    1.22
   4 -10  -3    8.81    0.98
  -4  10   3    7.68    0.78
   3 -10  -3    4.71    0.86
  -3  10   3    5.71    0.72
   2 -10  -3   16.63    1.42
  -2  10   3   13.85    1.11
   1 -10  -3    6.06    0.88
  -1  10   3    6.67    0.78
   0 -10  -3   45.60    2.26
   0  10   3   40.25    2.00
  -1 -10  -3   21.87    1.43
   1  10   3   18.85    1.35
  -2 -10  -3    1.28    0.63
   2  10   3    0.59    0.67
   3  10   3   27.23    1.66
   3 -11  -3   51.75    2.61
  -3  11   3   50.53    2.29
   2 -11  -3    0.08    0.71
  -2  11   3   -0.33    0.56
   1 -11  -3    0.14    0.74
  -1  11   3   -0.20    0.54
   0 -11  -3   19.89    1.48
   0  11   3   18.71    1.28
  -1 -11  -3    2.95    0.71
   1  11   3    1.24    0.60
   2  13  -4    8.51    0.87
   1  13  -4   27.92    1.71
   0  13  -4   34.72    1.96
  -1  13  -4    0.22    0.70
  -2  13  -4    0.42    0.71
  -3  13  -4    5.69    0.83
   2  12  -4    3.47    0.69
   1  12  -4    3.73    0.73
   0  12  -4    2.38    0.77
  -1  12  -4   63.13    3.05
  -2  12  -4   14.99    1.40
  -3  12  -4    0.83    0.78
  -4  12  -4   14.02    1.37
  -5  12  -4   14.74    1.36
   5  11  -4    6.35    0.71
  -5 -11   4    6.11    0.77
   4  11  -4    6.36    0.67
  -4 -11   4    4.85    0.70
   3  11  -4   14.05    1.12
   3  11  -4   16.64    1.01
  -3 -11   4   16.64    1.13
   2  11  -4   56.72    2.77
  -2 -11   4   64.70    2.60
   1  11  -4    6.61    0.83
  -1 -11   4    6.29    0.63
   0  11  -4   -0.28    0.66
   0 -11   4    0.07    0.48
  -1  11  -4   36.55    2.09
   1 -11   4   43.00    1.84
  -2  11  -4    0.21    0.68
   2 -11   4    0.04    0.47
  -3  11  -4   39.74    2.31
   3 -11   4   47.34    2.00
  -4  11  -4   16.03    1.42
   4 -11   4   19.68    1.12
  -5  11  -4   -0.27    0.66
  -6  11  -4   22.14    1.47
   6  10  -4   31.25    1.61
  -6 -10   4   33.55    1.76
   5  10  -4   49.63    2.24
  -5 -10   4   54.90    2.40
   4  10  -4    4.83    0.60
  -4 -10   4    4.72    0.67
   3  10  -4    0.47    0.47
   3  10  -4    0.46    0.50
  -3 -10   4    0.34    0.53
   2  10  -4   18.45    1.01
   2  10  -4   14.57    1.19
  -2 -10   4   18.90    1.13
   1  10  -4   35.64    1.45
   1  10  -4   29.58    1.76
  -1 -10   4   31.09    1.54
   0  10  -4   77.73    3.53
   0 -10   4   77.59    3.20
  -1  10  -4   -0.26    0.71
   1 -10   4    0.64    0.47
  -2  10  -4    6.26    0.89
   2 -10   4    6.23    0.63
  -3  10  -4   72.63    3.44
   3 -10   4   77.07    3.12
  -4  10  -4   -0.52    0.56
   4 -10   4   -0.15    0.50
  -5  10  -4   18.61    1.33
   5 -10   4   19.06    1.17
  -6  10  -4    5.23    0.72
   6 -10   4    5.78    0.73
   6   9  -4    2.41    0.58
  -6  -9   4    3.37    0.72
   5   9  -4   -0.46    0.51
  -5  -9   4   -0.47    0.60
   4   9  -4   77.31    3.05
  -4  -9   4   74.49    3.19
   3   9  -4   36.01    1.58
   3   9  -4   32.66    1.69
  -3  -9   4   34.60    1.63
   2   9  -4    2.05    0.44
   2   9  -4    2.46    0.54
  -2  -9   4    2.21    0.54
   1   9  -4   25.15    1.45
   1   9  -4   24.36    1.14
  -1  -9   4   24.15    1.27
   0   9  -4   30.06    1.69
   0   9  -4   32.54    1.33
   0  -9   4   30.94    1.49
  -1   9  -4   70.67    3.24
   1  -9   4   69.39    2.91
  -2   9  -4   40.49    2.18
   2  -9   4   43.08    1.90
  -3   9  -4    0.93    0.66
   3  -9   4    0.51    0.46
  -4   9  -4   45.81    2.25
   4  -9   4   46.18    2.05
  -5   9  -4   58.32    2.69
   5  -9   4   59.86    2.56
  -6   9  -4    2.99    0.58
   6  -9   4    4.15    0.70
   7  -9   4    7.27    0.81
   7   8  -4   41.00    1.94
  -7  -8   4   43.11    2.11
   6   8  -4    1.20    0.57
  -6  -8   4    1.96    0.67
   5   8  -4   -0.17    0.49
  -5  -8   4    0.33    0.60
   4   8  -4   30.33    1.45
  -4  -8   4   29.86    1.58
   3   8  -4    2.71    0.49
   3   8  -4    4.03    0.51
  -3  -8   4    3.19    0.57
   2   8  -4  158.66    5.68
   2   8  -4  145.73    6.26
  -2  -8   4  149.09    5.95
   1   8  -4   20.97    0.98
   1   8  -4   18.54    1.22
  -1  -8   4   20.39    1.14
   0   8  -4    0.81    0.29
   0   8  -4    1.21    0.61
   0  -8   4    1.13    0.40
  -1   8  -4   79.21    3.44
  -1   8  -4   78.19    2.90
   1  -8   4   71.80    3.13
  -2   8  -4   75.63    3.34
  -2   8  -4   78.58    2.88
   2  -8   4   71.26    3.10
  -3   8  -4   45.51    2.15
   3  -8   4   42.70    1.96
  -4   8  -4    4.20    0.56
   4  -8   4    3.08    0.55
  -5   8  -4    0.15    0.46
   5  -8   4   -0.22    0.51
  -6   8  -4   59.84    2.68
   6  -8   4   62.00    2.69
   7  -8   4   28.02    1.57
  -8   8  -4    1.52    0.70
   7   7  -4    2.67    0.61
  -7  -7   4    3.94    0.76
   6   7  -4   19.14    1.22
  -6  -7   4   21.30    1.28
   5   7  -4   89.98    3.59
  -5  -7   4   91.83    3.79
   4   7  -4   -0.45    0.44
  -4  -7   4   -0.48    0.52
   3   7  -4   13.61    0.83
   3   7  -4   13.33    0.85
  -3  -7   4   12.27    0.96
   2   7  -4  151.47    6.50
   2   7  -4  167.74    5.91
  -2  -7   4  154.13    6.18
   1   7  -4   12.75    0.92
   1   7  -4   13.75    0.72
  -1  -7   4   11.07    0.81
   0   7  -4  210.51    8.57
   0   7  -4  220.85    7.68
   0  -7   4  193.68    8.06
  -1   7  -4    3.92    0.37
  -1   7  -4    4.54    0.62
   1  -7   4    2.79    0.48
  -2   7  -4    5.77    0.44
  -2   7  -4    4.03    0.61
   2  -7   4    4.29    0.57
  -3   7  -4  176.21    7.38
  -3   7  -4  188.35    6.63
   3  -7   4  172.08    6.99
  -4   7  -4   16.87    0.80
  -4   7  -4   14.88    1.00
   4  -7   4   15.06    0.97
  -5   7  -4   11.78    0.84
   5  -7   4   12.32    0.99
  -6   7  -4    2.78    0.44
   6  -7   4    2.33    0.64
   7  -7   4    0.59    0.59
  -8   7  -4   41.18    2.08
   8   6  -4   20.58    1.22
  -8  -6   4   20.51    1.40
   7   6  -4    4.91    0.65
  -7  -6   4    4.99    0.79
   6   6  -4   12.00    0.88
  -6  -6   4   12.29    1.15
   5   6  -4    2.40    0.53
  -5  -6   4    2.74    0.59
   4   6  -4   30.75    1.49
   4   6  -4   33.74    1.50
  -4  -6   4   33.46    1.63
   3   6  -4  129.57    4.77
   3   6  -4  123.91    5.17
  -3  -6   4  124.17    4.99
   2   6  -4    0.79    0.36
   2   6  -4    1.33    0.34
  -2  -6   4    1.43    0.44
   1   6  -4  133.45    5.66
   1   6  -4  145.05    5.10
  -1  -6   4  132.48    5.38
   0   6  -4  182.79    7.65
   0   6  -4  201.04    6.87
   0  -6   4  176.15    7.24
  -1   6  -4   29.64    1.15
  -1   6  -4   30.52    1.46
   1  -6   4   28.41    1.40
  -2   6  -4   37.23    1.37
  -2   6  -4   33.46    1.63
   2  -6   4   31.93    1.60
  -3   6  -4   17.00    0.98
  -3   6  -4   16.86    0.73
   3  -6   4   14.37    0.94
  -4   6  -4   77.05    3.17
   4  -6   4   72.32    2.81
   4  -6   4   73.97    3.07
  -5   6  -4  127.99    5.28
   5  -6   4  123.29    4.78
   5  -6   4  133.16    5.13
  -6   6  -4    0.37    0.38
   6  -6   4    0.65    0.57
   6  -6   4    0.13    0.37
   7  -6   4    1.24    0.66
  -8   6  -4   11.06    1.03
   8   5  -4   -0.39    0.56
  -8  -5   4    0.29    0.56
   7   5  -4   76.74    3.12
  -7  -5   4   76.36    3.29
   6   5  -4    4.77    0.65
  -6  -5   4    5.34    0.75
   5   5  -4   -0.04    0.42
  -5  -5   4    0.37    0.58
   4   5  -4  123.98    4.70
   4   5  -4  127.75    5.05
  -4  -5   4  118.92    4.93
   3   5  -4   33.89    1.49
   3   5  -4   32.67    1.41
  -3  -5   4   31.25    1.56
   2   5  -4  152.46    5.51
   2   5  -4  147.36    6.05
  -2  -5   4  144.04    5.79
   1   5  -4   52.58    2.31
   1   5  -4   55.36    2.05
  -1  -5   4   52.27    2.21
   0   5  -4    0.83    0.36
   0   5  -4    1.04    0.18
   0  -5   4    0.98    0.36
  -1   5  -4  319.74   13.58
  -1   5  -4  354.93   12.25
  -1   5  -4  363.48   12.26
   1  -5   4  304.64   12.86
  -2   5  -4  153.78    5.13
  -2   5  -4  132.36    5.73
   2  -5   4  131.46    5.47
  -3   5  -4   33.22    1.57
   3  -5   4   32.70    1.32
   3  -5   4   37.02    1.60
  -4   5  -4    1.41    0.35
   4  -5   4    0.84    0.47
   4  -5   4    1.28    0.26
  -5   5  -4   21.39    1.12
   5  -5   4   23.05    1.29
   5  -5   4   21.46    1.01
  -6   5  -4   64.79    2.75
   6  -5   4   66.34    2.83
   6  -5   4   63.08    2.57
   7  -5   4   26.87    1.35
  -8   5  -4    0.36    0.60
   8   4  -4    1.75    0.58
  -8  -4   4    1.66    0.59
   7   4  -4   23.39    1.31
  -7  -4   4   24.12    1.36
   6   4  -4   16.83    1.01
  -6  -4   4   18.23    1.22
   5   4  -4  157.68    5.89
  -5  -4   4  154.24    6.19
   4   4  -4    8.20    0.58
   4   4  -4    9.36    0.63
  -4  -4   4    7.49    0.69
   3   4  -4   32.55    1.38
   3   4  -4   33.69    1.46
  -3  -4   4   31.73    1.53
   2   4  -4  364.09   14.29
   2   4  -4  359.34   13.01
  -2  -4   4  340.78   13.57
   1   4  -4   37.31    1.42
   1   4  -4   37.55    1.64
  -1  -4   4   35.38    1.57
   0   4  -4  155.53    6.24
   0   4  -4  155.31    5.57
   0  -4   4  154.14    5.59
   0  -4   4  145.26    5.91
  -1   4  -4   63.94    2.73
   1  -4   4   65.44    2.64
  -2   4  -4   69.65    2.93
   2  -4   4   68.94    2.81
   2  -4   4   69.61    2.56
  -3   4  -4  245.24    9.87
   3  -4   4  242.60    8.93
   3  -4   4  242.81    9.39
  -4   4  -4   67.16    2.76
   4  -4   4   64.43    2.49
   4  -4   4   62.97    2.70
  -5   4  -4    5.82    0.48
   5  -4   4    5.73    0.69
   5  -4   4    5.63    0.50
  -6   4  -4   40.58    1.81
   6  -4   4   41.24    1.75
   6  -4   4   39.55    1.97
  -7   4  -4    1.61    0.69
   7  -4   4    0.89    0.52
  -8   4  -4   30.75    1.65
   8  -4   4   30.13    1.50
   9   3  -4   28.53    1.52
  -9  -3   4   27.01    1.48
   8   3  -4   17.68    1.18
  -8  -3   4   17.83    1.25
   7   3  -4   -0.19    0.44
  -7  -3   4    0.19    0.57
   6   3  -4   31.11    1.46
  -6  -3   4   29.90    1.61
   5   3  -4   95.46    3.75
  -5  -3   4   98.71    3.96
   4   3  -4   41.68    1.67
   4   3  -4   39.09    1.74
  -4  -3   4   40.73    1.83
   3   3  -4   63.73    2.67
   3   3  -4   64.10    2.46
  -3  -3   4   62.34    2.64
   2   3  -4    1.02    0.27
   2   3  -4    0.73    0.22
  -2  -3   4    0.47    0.35
   1   3  -4  239.34    9.57
   1   3  -4  235.37    8.66
  -1  -3   4  235.74    9.08
   0   3  -4  367.27   14.94
   0  -3   4  399.51   13.53
   0  -3   4  345.57   14.13
  -1   3  -4    0.22    0.29
   1  -3   4    0.38    0.28
  -2   3  -4    1.53    0.31
   2  -3   4    1.76    0.36
   2  -3   4    2.70    0.21
  -3   3  -4   61.70    2.54
   3  -3   4   57.40    2.46
   3  -3   4   59.67    2.28
  -4   3  -4  118.14    4.68
   4  -3   4  105.68    4.51
   4  -3   4  116.54    4.28
  -5   3  -4   64.40    2.64
   5  -3   4   63.24    2.46
   5  -3   4   58.34    2.64
   6  -3   4    1.49    0.55
   6  -3   4    2.38    0.48
  -7   3  -4    4.13    0.66
   7  -3   4    4.43    0.60
  -8   3  -4   63.32    2.78
   8  -3   4   60.50    2.59
  -9   3  -4    0.15    0.61
   9  -3   4    0.40    0.58
   9   2  -4   22.07    1.26
  -9  -2   4   22.57    1.37
   8   2  -4    1.87    0.59
  -8  -2   4    1.31    0.62
   7   2  -4   59.28    2.41
  -7  -2   4   56.69    2.53
   6   2  -4    6.70    0.61
  -6  -2   4    7.51    0.75
   5   2  -4    0.63    0.43
  -5  -2   4    1.34    0.55
   4   2  -4  244.99    9.25
   4   2  -4  254.90   10.10
  -4  -2   4  250.90    9.68
   3   2  -4   40.37    1.86
   3   2  -4   44.37    1.71
  -3  -2   4   43.57    1.86
   2   2  -4   42.54    1.88
   2   2  -4   45.12    1.67
  -2  -2   4   42.05    1.81
   1   2  -4   21.67    0.85
   1   2  -4   22.05    1.04
  -1  -2   4   20.88    0.98
   0  -2   4   10.83    0.48
   0  -2   4   11.05    0.60
  -1   2  -4  314.79   12.80
   1  -2   4  319.61   11.59
  -2   2  -4  315.82   12.38
   2  -2   4  310.31   11.23
   2  -2   4  293.55   11.71
  -3   2  -4    0.19    0.29
   3  -2   4   -0.12    0.25
   3  -2   4   -0.03    0.30
  -4   2  -4   63.74    2.61
   4  -2   4   58.22    2.58
   4  -2   4   61.77    2.42
  -5   2  -4   23.25    1.09
   5  -2   4   21.17    1.12
   5  -2   4   21.34    1.27
  -6   2  -4   32.81    1.60
   6  -2   4   31.70    1.51
  -7   2  -4   24.29    1.39
   7  -2   4   26.27    1.31
  -8   2  -4    1.54    0.62
   8  -2   4    0.83    0.54
  -9   2  -4    9.43    0.88
   9  -2   4   10.53    0.97
   9   1  -4   -0.67    0.55
  -9  -1   4    0.88    0.52
   8   1  -4    6.33    0.71
  -8  -1   4    6.67    0.68
   7   1  -4   80.78    3.11
  -7  -1   4   74.57    3.24
   6   1  -4    1.12    0.44
  -6  -1   4    1.30    0.56
   5   1  -4   37.68    1.61
  -5  -1   4   36.22    1.71
   4   1  -4    2.10    0.38
   4   1  -4    2.50    0.32
  -4  -1   4    2.83    0.50
   3   1  -4   67.00    2.93
   3   1  -4   71.81    2.67
  -3  -1   4   70.43    2.83
   2   1  -4  516.69   18.51
   2   1  -4  484.62   20.30
  -2  -1   4  512.08   19.18
   1   1  -4    3.83    0.40
   1   1  -4    3.65    0.30
  -1  -1   4    3.58    0.35
   0   1  -4    1.00    0.29
   0  -1   4    0.71    0.19
   0  -1   4    0.15    0.18
  -1   1  -4   86.44    3.66
   1  -1   4   88.64    3.42
   1  -1   4   87.74    3.29
  -2   1  -4    1.68    0.35
   2  -1   4    1.24    0.26
   2  -1   4    1.72    0.31
  -3   1  -4  215.48    8.65
   3  -1   4  212.47    7.88
   3  -1   4  210.36    8.21
  -4   1  -4   56.07    2.30
   4  -1   4   52.23    2.14
   4  -1   4   50.99    2.25
  -5   1  -4    0.38    0.29
   5  -1   4    0.02    0.45
   5  -1   4    0.26    0.41
  -6   1  -4   73.01    3.03
   6  -1   4   70.40    2.88
  -7   1  -4   20.54    1.21
   7  -1   4   16.49    1.12
  -8   1  -4   10.61    0.89
   8  -1   4   11.02    1.02
   9   0  -4   22.19    1.26
  -9   0   4   22.91    1.34
   8   0  -4    5.86    0.65
  -8   0   4    5.96    0.67
   7   0  -4   -0.17    0.51
  -7   0   4    0.72    0.53
   6   0  -4   48.17    1.98
  -6   0   4   46.28    2.10
   5   0  -4  125.64    4.91
   5   0  -4  138.81    5.33
  -5   0   4  125.28    5.16
   4   0  -4    0.68    0.34
   4   0  -4    0.66    0.32
  -4   0   4    0.07    0.40
   3   0  -4    4.99    0.40
   3   0  -4    3.96    0.41
  -3   0   4    3.25    0.40
   2   0  -4   14.38    0.66
   2   0  -4   14.80    0.84
  -2   0   4   13.56    0.70
   1   0  -4   97.42    4.33
  -1   0   4  111.38    4.00
  -1   0   4  101.73    3.87
   0   0  -4  247.86   10.72
   0   0   4  268.14    9.74
   0   0   4  275.46   10.05
  -1   0  -4   22.85    1.18
   1   0   4   22.28    0.98
   1   0   4   23.21    1.04
  -2   0  -4  105.32    4.34
   2   0   4  102.51    4.06
   2   0   4  104.34    3.94
  -3   0  -4  132.64    5.31
   3   0   4  127.45    4.85
   3   0   4  125.42    5.03
  -4   0  -4   14.94    0.82
   4   0   4   13.60    0.88
   4   0   4   13.87    0.94
  -5   0  -4   84.35    3.50
  -5   0  -4   89.16    3.56
   5   0   4   83.35    3.38
  -6   0  -4    0.09    0.42
   6   0   4   -0.32    0.48
  -7   0  -4    2.27    0.56
   7   0   4    2.86    0.61
  -8   0  -4   48.02    2.14
   8   0   4   44.89    2.08
   9  -1  -4   21.59    1.29
  -9   1   4   21.11    1.28
   8  -1  -4    7.42    0.68
  -8   1   4    7.37    0.73
   7  -1  -4   21.86    1.20
  -7   1   4   20.59    1.24
   6  -1  -4    6.06    0.56
  -6   1   4    6.98    0.67
   5  -1  -4    8.12    0.69
   5  -1  -4    8.11    0.69
  -5   1   4    6.91    0.64
   4  -1  -4  193.23    7.53
   4  -1  -4  208.36    8.30
  -4   1   4  209.05    7.87
   3  -1  -4  140.62    5.18
   3  -1  -4  136.80    5.73
  -3   1   4  139.56    5.38
   2  -1  -4    4.13    0.40
   2  -1  -4    4.17    0.47
  -2   1   4    4.62    0.36
   1  -1  -4   24.29    1.29
  -1   1   4   24.66    1.10
  -1   1   4   27.07    1.04
   0  -1  -4   38.35    1.70
   0   1   4   33.35    1.39
   0   1   4   35.17    1.50
  -1  -1  -4  129.36    5.47
   1   1   4  131.80    5.06
   1   1   4  134.22    5.00
  -2  -1  -4  117.05    4.98
   2   1   4  122.97    4.67
   2   1   4  119.68    4.56
  -3  -1  -4    1.74    0.37
   3   1   4    1.78    0.43
   3   1   4    1.20    0.36
  -4  -1  -4   71.84    3.04
  -4  -1  -4   80.03    3.18
   4   1   4   74.20    2.99
  -5  -1  -4  171.81    6.58
  -5  -1  -4  154.19    6.30
   5   1   4  157.47    6.13
  -6  -1  -4    9.20    0.81
   6   1   4    7.34    0.74
  -7  -1  -4   11.21    0.92
   7   1   4   11.02    1.04
  -8  -1  -4    1.86    0.55
   8   1   4    2.02    0.66
   9  -2  -4    0.42    0.52
  -9   2   4    0.23    0.52
   8  -2  -4    5.83    0.68
  -8   2   4    5.59    0.67
   7  -2  -4   53.28    2.22
  -7   2   4   53.43    2.34
   6  -2  -4   -0.18    0.44
  -6   2   4   -0.05    0.46
   5  -2  -4    0.55    0.35
   5  -2  -4    0.17    0.42
  -5   2   4    0.48    0.44
   4  -2  -4   49.90    2.30
   4  -2  -4   49.31    2.04
  -4   2   4   53.17    2.13
   3  -2  -4   10.69    0.80
   3  -2  -4    9.37    0.65
  -3   2   4   10.55    0.60
   2  -2  -4  327.18   14.20
  -2   2   4  352.08   12.90
  -2   2   4  372.27   13.31
   1  -2  -4   41.28    1.99
  -1   2   4   44.97    1.65
  -1   2   4   41.50    1.75
   0  -2  -4    5.54    0.57
   0   2   4    7.66    0.61
   0   2   4    6.81    0.35
  -1  -2  -4  197.37    8.27
   1   2   4  200.85    7.70
   1   2   4  206.30    7.58
  -2  -2  -4   59.03    2.31
  -2  -2  -4   56.26    2.52
   2   2   4   55.19    2.33
  -3  -2  -4  135.47    5.47
  -3  -2  -4  130.50    5.17
   3   2   4  131.12    5.05
  -4  -2  -4   21.94    1.07
  -4  -2  -4   20.44    1.07
   4   2   4   18.96    1.18
  -5  -2  -4    4.25    0.48
   5   2   4    4.39    0.61
  -6  -2  -4   74.23    3.03
   6   2   4   72.41    3.04
  -7  -2  -4   37.35    1.74
   7   2   4   36.78    1.84
  -8  -2  -4    8.89    0.85
   8   2   4    9.07    0.84
   9  -3  -4    2.40    0.63
   8  -3  -4    1.75    0.53
  -8   3   4    0.55    0.51
   7  -3  -4    1.11    0.54
  -7   3   4    1.46    0.51
   6  -3  -4   20.24    1.13
   6  -3  -4   21.15    1.16
  -6   3   4   19.82    1.12
   5  -3  -4  139.80    5.44
   5  -3  -4  144.59    6.01
  -5   3   4  149.49    5.66
   4  -3  -4    0.52    0.46
   4  -3  -4    0.42    0.37
  -4   3   4    0.80    0.32
   3  -3  -4   10.39    0.89
  -3   3   4   11.01    0.57
  -3   3   4   10.68    0.70
   2  -3  -4   59.67    2.84
  -2   3   4   70.38    2.46
  -2   3   4   60.95    2.54
   1  -3  -4    1.33    0.44
  -1   3   4    1.23    0.34
   0  -3  -4  298.31   12.48
   0   3   4  315.18   11.40
  -1  -3  -4    7.55    0.50
  -1  -3  -4    8.61    0.82
   1   3   4    7.03    0.71
  -2  -3  -4   46.49    2.18
  -2  -3  -4   49.37    1.98
  -3  -3  -4  157.17    6.09
  -3  -3  -4  161.34    6.46
   3   3   4  151.68    5.97
  -4  -3  -4   13.88    0.86
  -4  -3  -4   14.84    0.87
   4   3   4   13.81    1.09
  -5  -3  -4   18.64    1.07
   5   3   4   19.35    1.19
  -6  -3  -4    6.85    0.62
   6   3   4    6.66    0.81
  -7  -3  -4    1.93    0.52
   7   3   4    1.00    0.69
  -8  -3  -4   59.22    2.60
   8   3   4   63.24    2.73
   8  -4  -4    5.52    0.70
   7  -4  -4    2.73    0.52
   6  -4  -4    6.75    0.69
   6  -4  -4    7.72    0.69
   5  -4  -4   13.11    1.01
   5  -4  -4   13.48    0.82
  -5   4   4   13.83    0.85
   4  -4  -4   79.71    3.62
  -4   4   4   87.19    3.27
  -4   4   4   82.12    3.25
   3  -4  -4   68.77    3.05
  -3   4   4   67.51    2.70
   2  -4  -4   -0.03    0.44
  -2   4   4    1.74    0.41
   1  -4  -4  114.00    4.71
  -1   4   4  107.03    4.25
   0  -4  -4  181.68    7.57
   0   4   4  183.19    6.91
  -1  -4  -4   74.47    2.72
  -1  -4  -4   65.97    3.07
   1   4   4   68.46    2.91
  -2  -4  -4   86.98    3.93
  -2  -4  -4   99.83    3.63
   2   4   4   88.69    3.71
  -3  -4  -4   33.56    1.50
  -3  -4  -4   33.67    1.60
   3   4   4   31.16    1.61
  -4  -4  -4   57.91    2.51
  -4  -4  -4   62.62    2.62
   4   4   4   58.65    2.60
  -5  -4  -4   91.75    3.82
   5   4   4   99.27    3.89
  -6  -4  -4   -0.02    0.46
   6   4   4    0.17    0.66
  -7  -4  -4    1.33    0.52
   7   4   4    1.42    0.68
   8  -5  -4    4.80    0.67
   7  -5  -4   45.86    2.00
   6  -5  -4    7.42    0.74
  -6   5   4    6.45    0.65
   5  -5  -4    0.66    0.53
  -5   5   4    0.64    0.50
   4  -5  -4   72.63    3.34
  -4   5   4   77.53    3.01
   3  -5  -4    3.72    0.66
  -3   5   4    3.56    0.51
   2  -5  -4  127.12    5.41
  -2   5   4  127.35    4.88
   1  -5  -4    0.12    0.52
  -1   5   4    1.30    0.47
   0  -5  -4    0.82    0.57
   0   5   4    0.48    0.53
  -1  -5  -4  155.15    6.55
   1   5   4  157.46    6.01
  -2  -5  -4  113.66    4.68
   2   5   4  105.93    4.35
  -3  -5  -4   55.19    2.56
  -3  -5  -4   60.16    2.36
   3   5   4   54.19    2.47
  -4  -5  -4    3.42    0.54
  -4  -5  -4    3.52    0.51
   4   5   4    3.21    0.69
  -5  -5  -4    6.43    0.67
   5   5   4    7.38    0.91
  -6  -5  -4   33.35    1.72
   6   5   4   41.11    2.00
  -7  -5  -4   35.14    1.80
   7   5   4   45.87    2.11
  -8   6   4   -0.02    0.60
  -7   6   4   21.10    1.28
   6  -6  -4   13.09    1.09
  -6   6   4   11.97    0.98
   5  -6  -4   59.84    2.78
  -5   6   4   60.90    2.52
   4  -6  -4    0.21    0.57
  -4   6   4    0.78    0.49
   3  -6  -4    0.57    0.54
  -3   6   4    0.49    0.47
   2  -6  -4  183.99    7.71
  -2   6   4  184.76    6.97
   1  -6  -4    0.52    0.62
  -1   6   4   -0.21    0.47
   0  -6  -4   45.95    2.29
   0   6   4   45.87    2.08
  -1  -6  -4    0.77    0.59
   1   6   4   -0.34    0.57
  -2  -6  -4   15.06    1.10
   2   6   4   14.41    1.21
  -3  -6  -4   98.37    4.23
   3   6   4  100.40    4.05
  -4  -6  -4    9.67    0.85
   4   6   4    8.10    0.94
   5   6   4    1.90    0.76
   6   6   4   18.65    1.54
  -7   7   4   -0.02    0.53
   6  -7  -4   19.60    1.39
  -6   7   4   18.77    1.20
   5  -7  -4   14.61    1.21
  -5   7   4   13.04    1.00
   4  -7  -4   33.15    1.80
  -4   7   4   32.40    1.55
   3  -7  -4   15.94    1.30
  -3   7   4   18.53    1.14
   2  -7  -4    8.04    0.89
  -2   7   4    6.79    0.68
   1  -7  -4   46.80    2.29
  -1   7   4   45.09    2.03
   0  -7  -4  119.90    5.19
   0   7   4  121.60    4.74
  -1  -7  -4    3.03    0.68
   1   7   4    1.74    0.57
  -2  -7  -4    0.50    0.55
   2   7   4    0.58    0.60
  -3  -7  -4   18.28    1.18
   3   7   4   17.76    1.37
   4   7   4   14.84    1.35
   5   7   4   62.45    2.81
   6  -8  -4    1.07    0.66
  -6   8   4    1.21    0.57
   5  -8  -4    0.65    0.66
  -5   8   4   -0.39    0.52
   4  -8  -4   66.15    3.11
  -4   8   4   68.09    2.82
   3  -8  -4    7.19    0.84
  -3   8   4    5.53    0.66
   2  -8  -4   20.92    1.46
  -2   8   4   19.93    1.26
   1  -8  -4    0.50    0.66
  -1   8   4    0.58    0.57
   0  -8  -4    1.93    0.64
   0   8   4    2.47    0.60
  -1  -8  -4   74.21    3.35
   1   8   4   74.03    3.12
  -2  -8  -4   38.15    1.93
   2   8   4   37.96    1.94
  -3  -8  -4    0.19    0.49
   3   8   4    0.60    0.73
   4   8   4   -0.37    0.78
   5   8   4   16.24    1.52
   5  -9  -4   21.44    1.47
  -5   9   4   19.56    1.28
   4  -9  -4   -0.30    0.66
  -4   9   4    0.01    0.55
   3  -9  -4    0.04    0.64
  -3   9   4    0.30    0.55
   2  -9  -4   65.28    3.06
  -2   9   4   65.41    2.78
   1  -9  -4    4.70    0.84
  -1   9   4    4.66    0.71
   0  -9  -4    2.18    0.72
   0   9   4    0.45    0.53
  -1  -9  -4    4.65    0.74
   1   9   4    5.83    0.72
  -2  -9  -4    0.06    0.56
   2   9   4    0.31    0.61
  -3  -9  -4   27.73    1.58
   3   9   4   32.62    1.77
   4   9   4   15.93    1.44
   4 -10  -4    2.65    0.79
  -4  10   4    2.57    0.65
   3 -10  -4    0.56    0.76
  -3  10   4    0.52    0.59
   2 -10  -4    0.71    0.78
  -2  10   4    0.17    0.58
   1 -10  -4    9.64    1.00
  -1  10   4    6.96    0.82
   0 -10  -4   46.27    2.38
   0  10   4   46.56    2.15
  -1 -10  -4    0.49    0.64
   1  10   4    0.67    0.65
  -2 -10  -4    1.36    0.63
   2  10   4    0.88    0.70
   2  13  -5    0.56    0.61
   1  13  -5   39.72    2.10
   0  13  -5    4.27    0.82
  -1  13  -5    8.12    1.01
  -2  13  -5    2.30    0.81
  -3  13  -5   -0.12    0.76
  -4 -12   5   26.31    1.50
  -3 -12   5    0.32    0.57
   2  12  -5   19.17    1.33
  -2 -12   5   22.12    1.24
   1  12  -5    0.75    0.67
  -1 -12   5   -0.01    0.53
   0  12  -5    3.50    0.73
   0 -12   5    4.92    0.64
  -1  12  -5   72.33    3.50
   1 -12   5   77.79    3.14
  -2  12  -5    4.20    0.86
   2 -12   5    3.76    0.60
  -3  12  -5    0.93    0.81
   3 -12   5    0.08    0.52
  -4  12  -5    7.67    0.94
  -5  12  -5    0.14    0.73
  -5 -11   5    6.07    0.79
  -4 -11   5    0.39    0.59
   3  11  -5   48.42    2.35
  -3 -11   5   53.63    2.31
   2  11  -5   23.39    1.52
  -2 -11   5   27.93    1.40
   1  11  -5    2.63    0.69
  -1 -11   5    2.62    0.56
   0  11  -5    1.58    0.73
   0 -11   5    1.78    0.55
  -1  11  -5    9.44    0.97
   1 -11   5   11.32    0.94
  -2  11  -5   41.81    2.24
   2 -11   5   44.19    1.97
  -3  11  -5   30.30    1.87
   3 -11   5   31.11    1.58
  -4  11  -5    0.02    0.65
   4 -11   5   -0.11    0.54
  -5  11  -5    5.34    0.81
   5 -11   5    8.87    0.81
  -6  11  -5   27.56    1.62
   6 -11   5   29.18    1.60
   6  10  -5   21.27    1.24
  -6 -10   5   21.93    1.41
   5  10  -5    7.64    0.72
  -5 -10   5    8.13    0.82
   4  10  -5   17.37    1.06
  -4 -10   5   17.08    1.18
   3  10  -5    3.12    0.53
   3  10  -5    2.88    0.54
  -3 -10   5    2.24    0.60
   2  10  -5    1.48    0.55
  -2 -10   5    2.02    0.61
   1  10  -5  122.80    5.22
  -1 -10   5  121.50    4.88
   0  10  -5   30.80    1.77
   0 -10   5   30.18    1.51
  -1  10  -5    1.55    0.73
   1 -10   5    1.42    0.52
  -2  10  -5   23.38    1.59
   2 -10   5   24.04    1.32
  -3  10  -5    1.50    0.70
   3 -10   5    0.94    0.55
  -4  10  -5   36.62    1.97
   4 -10   5   38.60    1.82
  -5  10  -5    6.61    0.76
   5 -10   5    7.55    0.76
  -6  10  -5    0.89    0.54
   6 -10   5    0.41    0.63
   6   9  -5    0.15    0.53
  -6  -9   5   -0.45    0.66
   5   9  -5   10.85    0.93
  -5  -9   5   13.22    1.09
   4   9  -5  119.91    4.54
  -4  -9   5  115.51    4.76
   3   9  -5    1.38    0.46
   3   9  -5    0.78    0.45
  -3  -9   5    1.10    0.52
   2   9  -5    1.23    0.50
   2   9  -5    1.54    0.41
  -2  -9   5    1.28    0.55
   1   9  -5   16.72    1.19
   1   9  -5   18.31    0.97
  -1  -9   5   16.02    1.06
   0   9  -5    6.00    0.77
   0  -9   5    4.57    0.57
  -1   9  -5  160.31    6.62
   1  -9   5  154.78    6.21
  -2   9  -5    5.21    0.72
   2  -9   5    4.78    0.62
  -3   9  -5    1.55    0.57
   3  -9   5    0.64    0.52
  -4   9  -5   58.91    2.67
   4  -9   5   56.86    2.54
  -5   9  -5    0.10    0.51
   5  -9   5    0.26    0.57
  -6   9  -5    4.51    0.58
   6  -9   5    5.99    0.78
   7  -9   5    3.11    0.73
   7   8  -5   18.44    1.18
  -7  -8   5   16.19    1.35
   6   8  -5   10.90    0.94
  -6  -8   5   12.09    1.16
   5   8  -5    0.40    0.49
  -5  -8   5    0.39    0.60
   4   8  -5    2.65    0.50
  -4  -8   5    1.17    0.50
   3   8  -5   72.10    2.64
   3   8  -5   60.92    2.84
  -3  -8   5   64.08    2.76
   2   8  -5   92.28    4.06
   2   8  -5  103.27    3.68
  -2  -8   5   92.52    3.90
   1   8  -5    0.52    0.32
   1   8  -5    0.51    0.43
  -1  -8   5    0.73    0.48
   0   8  -5   60.09    2.89
   0   8  -5   72.49    2.48
   0  -8   5   58.99    2.69
  -1   8  -5   14.65    1.13
   1  -8   5   13.65    0.92
  -2   8  -5   39.56    1.91
   2  -8   5   37.63    1.82
  -3   8  -5   76.57    3.26
   3  -8   5   70.96    3.09
  -4   8  -5    3.45    0.54
   4  -8   5    3.27    0.64
  -5   8  -5   23.87    1.29
   5  -8   5   24.01    1.41
  -6   8  -5   44.18    2.11
   6  -8   5   50.34    2.24
   7  -8   5    0.26    0.62
   7   7  -5    3.44    0.63
  -7  -7   5    3.57    0.75
   6   7  -5   80.10    3.23
  -6  -7   5   80.84    3.45
   5   7  -5   11.18    0.91
  -5  -7   5   10.93    1.07
   4   7  -5    2.87    0.49
  -4  -7   5    3.21    0.57
   3   7  -5   11.59    0.84
   3   7  -5   13.25    0.83
  -3  -7   5   12.53    0.89
   2   7  -5    4.82    0.53
   2   7  -5    5.56    0.47
  -2  -7   5    5.55    0.60
   1   7  -5  174.76    7.60
   1   7  -5  201.21    6.85
  -1  -7   5  179.33    7.21
   0   7  -5   16.52    0.69
   0   7  -5   13.74    0.95
   0  -7   5   12.95    0.93
  -1   7  -5   21.02    1.22
   1  -7   5   19.65    1.16
  -2   7  -5   83.69    3.54
   2  -7   5   81.24    3.40
  -3   7  -5   47.61    2.14
   3  -7   5   45.33    2.06
  -4   7  -5   31.94    1.53
   4  -7   5   30.04    1.59
  -5   7  -5    5.94    0.55
   5  -7   5    6.13    0.75
  -6   7  -5    0.46    0.40
   6  -7   5    0.23    0.58
   7  -7   5   30.12    1.72
  -8   7  -5   31.75    1.84
   8   6  -5    0.61    0.56
  -8  -6   5    0.01    0.59
   7   6  -5    1.15    0.50
  -7  -6   5    0.15    0.65
   6   6  -5   15.45    1.03
  -6  -6   5   15.45    1.13
   5   6  -5   47.44    2.05
  -5  -6   5   50.10    2.26
   4   6  -5  117.51    4.73
   4   6  -5  114.01    4.37
  -4  -6   5  112.21    4.61
   3   6  -5    9.39    0.73
   3   6  -5    9.01    0.64
  -3  -6   5    9.25    0.87
   2   6  -5    4.01    0.38
   2   6  -5    3.36    0.45
  -2  -6   5    4.33    0.54
   1   6  -5  151.07    5.35
   1   6  -5  139.04    5.96
  -1  -6   5  143.57    5.68
   0   6  -5    2.77    0.20
   0   6  -5    2.03    0.41
   0  -6   5    2.23    0.46
  -1   6  -5  200.24    8.14
   1  -6   5  197.81    7.73
  -2   6  -5    3.59    0.49
   2  -6   5    3.43    0.56
  -3   6  -5   20.95    1.14
   3  -6   5   21.41    1.16
  -4   6  -5   79.70    3.47
   4  -6   5   85.05    3.40
  -5   6  -5   33.80    1.63
   5  -6   5   35.89    1.71
  -6   6  -5   21.83    1.18
   6  -6   5   24.95    1.48
   7  -6   5    7.35    0.88
  -8   6  -5   -0.09    0.74
   8   5  -5   25.98    1.40
  -8  -5   5   24.10    1.53
   7   5  -5   40.30    1.83
  -7  -5   5   42.57    2.01
   6   5  -5    1.26    0.46
  -6  -5   5    0.74    0.67
   5   5  -5   10.89    0.83
  -5  -5   5   10.98    0.95
   4   5  -5    8.02    0.69
   4   5  -5    7.95    0.67
  -4  -5   5    9.19    0.77
   3   5  -5   84.57    3.12
   3   5  -5   80.90    3.41
  -3  -5   5   78.81    3.33
   2   5  -5   57.64    2.17
   2   5  -5   56.23    2.43
  -2  -5   5   55.09    2.37
   1   5  -5    9.75    0.71
   1   5  -5    9.40    0.48
  -1  -5   5   10.01    0.77
   0  -5   5   67.26    2.74
  -1   5  -5  225.80    9.10
   1  -5   5  221.30    8.64
  -2   5  -5    2.22    0.37
   2  -5   5    1.99    0.43
  -3   5  -5   32.11    1.51
   3  -5   5   32.32    1.49
   3  -5   5   30.51    1.21
  -4   5  -5    3.93    0.45
   4  -5   5    3.97    0.33
   4  -5   5    4.40    0.60
  -5   5  -5   29.59    1.40
   5  -5   5   29.90    1.55
   5  -5   5   28.04    1.26
  -6   5  -5  138.70    5.77
   6  -5   5  142.52    5.67
   7  -5   5    0.46    0.65
  -8   5  -5    3.43    0.74
   8   4  -5    3.84    0.69
  -8  -4   5    3.12    0.71
   7   4  -5   -0.49    0.50
  -7  -4   5    0.23    0.64
   6   4  -5   58.14    2.44
  -6  -4   5   60.96    2.67
   5   4  -5   51.17    2.11
  -5  -4   5   51.15    2.29
   4   4  -5    0.42    0.35
   4   4  -5    0.34    0.32
  -4  -4   5    0.88    0.52
   3   4  -5  153.51    6.27
   3   4  -5  153.71    5.71
  -3  -4   5  153.38    6.03
   2   4  -5   13.70    0.79
   2   4  -5   13.19    0.64
  -2  -4   5   13.81    0.86
   1   4  -5  101.16    3.75
   1   4  -5  104.31    4.22
  -1  -4   5   99.63    4.01
   0   4  -5   64.54    2.70
   0  -4   5   62.03    2.58
  -1   4  -5    3.39    0.43
   1  -4   5    3.02    0.40
  -2   4  -5  225.00    8.78
   2  -4   5  213.56    8.33
   2  -4   5  209.16    7.87
  -3   4  -5  173.35    6.97
   3  -4   5  172.89    6.27
   3  -4   5  165.13    6.65
  -4   4  -5   10.72    0.74
   4  -4   5   10.20    0.62
   4  -4   5   10.61    0.81
  -5   4  -5    2.24    0.41
   5  -4   5    1.66    0.40
   5  -4   5    1.71    0.58
  -6   4  -5   20.41    1.08
   6  -4   5   20.25    1.09
   6  -4   5   19.88    1.32
  -7   4  -5   17.63    1.25
   7  -4   5   17.71    1.09
  -8   4  -5   59.28    2.73
   9   3  -5   16.82    1.21
  -9  -3   5   19.35    1.29
   8   3  -5   -0.02    0.56
  -8  -3   5    0.27    0.61
   7   3  -5    5.45    0.65
  -7  -3   5    3.39    0.70
   6   3  -5   34.52    1.58
  -6  -3   5   34.60    1.77
   5   3  -5   10.19    0.78
  -5  -3   5   10.56    0.86
   4   3  -5  146.36    5.41
   4   3  -5  137.99    5.90
  -4  -3   5  148.85    5.70
   3   3  -5    6.28    0.54
   3   3  -5    6.68    0.59
  -3  -3   5    6.67    0.61
   2   3  -5    2.70    0.27
   2   3  -5    3.56    0.40
  -2  -3   5    2.43    0.39
   1   3  -5  418.41   16.66
   1   3  -5  419.32   15.14
  -1  -3   5  402.80   15.76
   0   3  -5   55.70    2.40
   0  -3   5   56.25    2.08
   0  -3   5   55.01    2.26
  -1   3  -5  146.63    6.24
   1  -3   5  143.61    5.90
   1  -3   5  161.11    5.56
   1  -3   5  156.37    5.56
  -2   3  -5   15.84    0.94
   2  -3   5   16.88    0.71
   2  -3   5   16.95    0.91
  -3   3  -5    2.66    0.40
   3  -3   5    4.01    0.34
   3  -3   5    2.36    0.42
  -4   3  -5  290.05   11.48
   4  -3   5  270.56   10.92
   4  -3   5  289.56   10.45
  -5   3  -5   74.26    3.09
   5  -3   5   73.94    2.86
   5  -3   5   69.59    3.05
   6  -3   5    4.06    0.72
   6  -3   5    5.27    0.58
  -7   3  -5    4.71    0.76
   7  -3   5    4.20    0.59
  -8   3  -5   11.62    1.01
   8  -3   5   12.01    0.93
   9   2  -5    8.09    0.81
  -9  -2   5    7.38    0.83
   8   2  -5   29.00    1.52
  -8  -2   5   30.38    1.62
   7   2  -5   22.06    1.20
  -7  -2   5   19.01    1.32
   6   2  -5    1.74    0.51
  -6  -2   5    1.63    0.62
   5   2  -5   27.30    1.28
  -5  -2   5   27.02    1.46
   4   2  -5  172.47    6.44
   4   2  -5  172.26    7.06
  -4  -2   5  174.63    6.77
   3   2  -5   28.43    1.38
   3   2  -5   29.45    1.21
  -3  -2   5   28.21    1.35
   2   2  -5  106.38    4.45
   2   2  -5  106.70    3.97
  -2  -2   5  107.34    4.19
   1   2  -5    6.42    0.55
   1   2  -5    6.19    0.38
  -1  -2   5    5.34    0.50
   0   2  -5   89.36    3.76
   0  -2   5   88.69    3.52
   0  -2   5   91.30    3.36
  -1   2  -5  342.89   13.79
   1  -2   5  343.60   13.01
   1  -2   5  336.40   12.48
  -2   2  -5    0.85    0.36
   2  -2   5    1.34    0.33
   2  -2   5    1.98    0.27
  -3   2  -5   20.41    1.05
   3  -2   5   18.81    1.04
   3  -2   5   20.24    0.94
  -4   2  -5  125.08    5.04
   4  -2   5  121.04    4.85
   4  -2   5  119.79    4.61
  -5   2  -5   16.97    0.95
   5  -2   5   16.82    0.98
   5  -2   5   16.15    1.04
   6  -2   5  107.41    4.14
  -7   2  -5    3.52    0.70
   7  -2   5    3.99    0.60
  -8   2  -5   -0.05    0.58
   8  -2   5   -0.25    0.53
   9   1  -5    0.02    0.56
  -9  -1   5    0.14    0.58
   8   1  -5   13.59    1.05
  -8  -1   5   13.72    1.12
   7   1  -5    4.76    0.63
  -7  -1   5    4.35    0.71
   6   1  -5   66.10    2.61
  -6  -1   5   62.55    2.78
   5   1  -5   17.97    1.04
   5   1  -5   22.07    1.04
  -5  -1   5   19.80    1.19
   4   1  -5    4.24    0.44
   4   1  -5    4.07    0.42
  -4  -1   5    3.90    0.53
   3   1  -5  215.53    9.01
   3   1  -5  223.66    8.16
  -3  -1   5  224.64    8.52
   2   1  -5  260.89   11.02
   2   1  -5  276.04    9.96
  -2  -1   5  276.93   10.37
   1   1  -5  104.62    4.47
  -1  -1   5  110.00    4.14
  -1  -1   5  105.28    3.98
   0   1  -5    1.03    0.35
   0  -1   5    1.05    0.26
   0  -1   5    0.94    0.24
  -1   1  -5   18.46    1.01
   1  -1   5   18.53    0.87
   1  -1   5   18.90    0.87
  -2   1  -5  173.07    7.00
   2  -1   5  168.78    6.58
   2  -1   5  169.38    6.33
  -3   1  -5  264.14   10.74
   3  -1   5  263.37   10.16
   3  -1   5  265.67    9.77
  -4   1  -5    1.62    0.37
   4  -1   5    0.97    0.46
   4  -1   5    1.06    0.40
  -5   1  -5    7.60    0.66
   5  -1   5    5.93    0.70
   5  -1   5    6.52    0.61
  -6   1  -5   53.89    2.36
   6  -1   5   53.61    2.26
  -7   1  -5   15.88    1.14
   7  -1   5   14.39    1.03
  -8   1  -5   23.48    1.40
   8  -1   5   23.16    1.33
   9   0  -5   17.19    1.18
  -9   0   5   18.31    1.22
   8   0  -5    0.03    0.47
  -8   0   5    0.55    0.57
   7   0  -5    2.32    0.50
  -7   0   5    2.48    0.60
   6   0  -5  112.21    4.37
  -6   0   5  116.45    4.62
   5   0  -5    0.13    0.39
   5   0  -5    0.63    0.37
  -5   0   5    0.27    0.49
   4   0  -5   52.62    2.31
   4   0  -5   52.32    2.09
  -4   0   5   52.91    2.22
   3   0  -5    0.03    0.25
   3   0  -5    0.21    0.35
  -3   0   5    0.39    0.31
   2   0  -5    4.26    0.38
   2   0  -5    2.93    0.47
  -2   0   5    4.59    0.40
   1   0  -5  792.92   33.81
  -1   0   5  886.67   31.96
  -1   0   5  844.43   30.86
   0   0  -5   21.43    1.16
   0   0   5   21.68    0.94
   0   0   5   22.40    1.02
  -1   0  -5   53.62    2.39
   1   0   5   52.59    2.13
   1   0   5   53.82    2.16
  -2   0  -5   33.87    1.58
   2   0   5   32.55    1.41
   2   0   5   31.36    1.42
  -3   0  -5   47.78    2.08
   3   0   5   46.40    1.98
   3   0   5   44.87    1.91
  -4   0  -5  127.32    5.05
   4   0   5  121.39    4.85
   4   0   5  117.36    4.66
  -5   0  -5   47.23    1.95
  -5   0  -5   42.31    1.97
   5   0   5   41.78    1.92
  -6   0  -5    0.73    0.49
   6   0   5   -0.17    0.50
  -7   0  -5   27.26    1.41
   7   0   5   23.95    1.43
  -8   0  -5   17.47    1.16
   8   0   5   14.87    1.13
   9  -1  -5   13.73    1.08
  -9   1   5   13.06    1.06
   8  -1  -5   13.79    0.94
  -8   1   5   11.60    1.03
   7  -1  -5   47.81    2.03
  -7   1   5   45.10    2.12
   6  -1  -5   11.34    0.83
  -6   1   5    8.40    0.77
   5  -1  -5   40.36    1.87
   5  -1  -5   37.87    1.65
  -5   1   5   40.34    1.79
   4  -1  -5  169.62    6.48
   4  -1  -5  175.59    7.17
  -4   1   5  177.53    6.75
   3  -1  -5    0.05    0.36
   3  -1  -5    0.12    0.28
  -3   1   5    0.49    0.26
   2  -1  -5    2.89    0.44
  -2   1   5    3.70    0.34
  -2   1   5    3.29    0.36
   1  -1  -5   25.04    1.40
  -1   1   5   27.15    1.19
  -1   1   5   29.95    1.13
   0  -1  -5   21.60    1.18
   0   1   5   17.93    0.99
   0   1   5   18.64    0.81
  -1  -1  -5  450.52   18.59
   1   1   5  470.10   17.46
   1   1   5  458.87   16.95
  -2  -1  -5    3.37    0.50
   2   1   5    3.68    0.51
   2   1   5    2.89    0.37
  -3  -1  -5   14.81    0.90
   3   1   5   12.25    0.84
   3   1   5   12.63    0.89
  -4  -1  -5   54.83    2.36
  -4  -1  -5   54.12    2.27
   4   1   5   52.53    2.27
  -5  -1  -5    1.91    0.37
  -5  -1  -5    3.18    0.49
   5   1   5    2.81    0.61
  -6  -1  -5   50.94    2.23
   6   1   5   51.71    2.27
  -7  -1  -5    0.49    0.46
   7   1   5    1.05    0.58
  -8  -1  -5    2.96    0.60
   8   1   5    2.95    0.68
  -9   2   5    0.27    0.57
   8  -2  -5   34.49    1.58
  -8   2   5   32.24    1.64
   7  -2  -5   34.86    1.59
  -7   2   5   31.72    1.65
   6  -2  -5   39.70    1.78
  -6   2   5   41.93    1.86
   5  -2  -5    3.72    0.56
   5  -2  -5    3.80    0.50
  -5   2   5    3.33    0.50
   4  -2  -5   13.70    1.01
   4  -2  -5   15.33    0.80
  -4   2   5   14.29    0.79
   3  -2  -5  190.86    8.14
  -3   2   5  204.75    7.57
  -3   2   5  198.48    7.38
   2  -2  -5  131.56    5.95
  -2   2   5  139.76    5.37
  -2   2   5  156.49    5.46
   1  -2  -5    0.13    0.41
  -1   2   5    0.63    0.31
  -1   2   5    0.82    0.13
   0  -2  -5    6.80    0.69
   0   2   5    7.07    0.66
   0   2   5    7.67    0.40
  -1  -2  -5   84.84    3.83
   1   2   5   92.91    3.49
   1   2   5   90.47    3.54
  -2  -2  -5   82.77    3.58
  -2  -2  -5   84.74    3.29
   2   2   5   81.68    3.33
  -3  -2  -5   89.25    3.49
  -3  -2  -5   86.50    3.73
   3   2   5   87.11    3.49
  -4  -2  -5    2.45    0.42
  -4  -2  -5    2.52    0.43
   4   2   5    1.98    0.61
  -5  -2  -5    5.01    0.53
   5   2   5    7.42    0.76
  -6  -2  -5   73.92    3.09
   6   2   5   76.58    3.14
  -7  -2  -5    0.70    0.49
   7   2   5    0.72    0.66
  -8  -2  -5    7.34    0.69
   8   2   5   10.13    0.94
   8  -3  -5    1.42    0.61
   7  -3  -5    9.72    0.79
   6  -3  -5   75.55    3.16
   6  -3  -5   67.36    2.85
  -6   3   5   73.23    2.97
   5  -3  -5   16.92    1.10
   5  -3  -5   15.75    0.88
  -5   3   5   15.83    0.92
   4  -3  -5   37.44    1.88
  -4   3   5   38.96    1.68
  -4   3   5   37.59    1.57
   3  -3  -5   62.30    2.95
  -3   3   5   67.69    2.57
  -3   3   5   68.25    2.65
   2  -3  -5    0.98    0.51
  -2   3   5    0.95    0.36
   1  -3  -5  199.96    8.22
  -1   3   5  197.46    7.44
   0  -3  -5   96.99    4.22
   0   3   5   98.33    3.83
  -1  -3  -5   -0.12    0.49
  -1  -3  -5    0.10    0.25
   1   3   5   -0.18    0.51
  -2  -3  -5   82.85    3.66
  -2  -3  -5   89.43    3.36
   2   3   5   81.79    3.43
  -3  -3  -5   48.55    2.02
  -3  -3  -5   48.08    2.18
   3   3   5   46.72    2.15
  -4  -3  -5   50.92    2.24
  -4  -3  -5   48.30    2.13
   4   3   5   51.42    2.25
  -5  -3  -5   16.09    1.01
   5   3   5   18.16    1.18
  -6  -3  -5    0.51    0.46
   6   3   5    0.04    0.62
  -7  -3  -5    5.08    0.60
   7   3   5    3.49    0.76
   8  -4  -5    2.61    0.61
   7  -4  -5    3.79    0.59
   6  -4  -5    8.97    0.88
   6  -4  -5    8.23    0.69
   5  -4  -5   23.72    1.45
  -5   4   5   25.53    1.26
   4  -4  -5  118.03    5.25
  -4   4   5  129.56    4.75
   3  -4  -5    8.84    0.83
  -3   4   5    8.97    0.79
   2  -4  -5    2.11    0.54
  -2   4   5    2.24    0.43
   1  -4  -5   47.75    2.27
  -1   4   5   44.46    1.96
   0  -4  -5    2.38    0.56
   0   4   5    2.53    0.57
  -1  -4  -5   75.10    3.42
   1   4   5   78.95    3.19
  -2  -4  -5   29.96    1.22
  -2  -4  -5   24.00    1.45
   2   4   5   24.71    1.49
  -3  -4  -5    4.13    0.50
  -3  -4  -5    3.37    0.53
   3   4   5    2.94    0.65
  -4  -4  -5  100.74    4.19
  -4  -4  -5   96.48    3.96
   4   4   5  101.08    4.02
  -5  -4  -5    6.06    0.61
   5   4   5    6.27    0.86
  -6  -4  -5    3.85    0.56
   6   4   5    4.27    0.78
  -7  -4  -5    0.71    0.48
   7   4   5    0.69    0.73
  -8   5   5   21.72    1.35
  -7   5   5   19.91    1.27
   6  -5  -5    1.24    0.55
  -6   5   5    1.25    0.51
   5  -5  -5    1.95    0.60
  -5   5   5    1.49    0.54
   4  -5  -5   18.09    1.27
  -4   5   5   17.57    1.10
   3  -5  -5   42.42    2.19
  -3   5   5   44.79    1.93
   2  -5  -5   85.54    3.80
  -2   5   5   84.48    3.37
   1  -5  -5    0.48    0.62
  -1   5   5    0.48    0.49
   0  -5  -5   36.29    1.95
   0   5   5   37.06    1.77
  -1  -5  -5   72.68    3.27
   1   5   5   71.69    3.02
  -2  -5  -5   -0.21    0.53
   2   5   5    1.65    0.69
  -3  -5  -5   69.90    3.08
   3   5   5   69.41    2.96
  -4  -5  -5    1.34    0.50
   4   5   5    1.43    0.66
   5   5   5    7.86    0.99
   6   5   5   48.70    2.33
  -7   6   5   -0.19    0.56
   6  -6  -5   35.91    1.89
  -6   6   5   35.35    1.72
   5  -6  -5   19.43    1.38
  -5   6   5   19.04    1.13
   4  -6  -5   -0.16    0.59
  -4   6   5    0.22    0.51
   3  -6  -5   19.51    1.40
  -3   6   5   20.98    1.21
   2  -6  -5   14.21    1.28
  -2   6   5   14.52    0.97
   1  -6  -5   64.34    2.99
  -1   6   5   60.78    2.60
   0  -6  -5   12.77    1.25
   0   6   5   12.17    0.96
  -1  -6  -5    2.11    0.69
   1   6   5    1.65    0.58
  -2  -6  -5   62.36    2.97
   2   6   5   67.05    2.83
  -3  -6  -5   67.64    3.05
   3   6   5   70.24    3.01
   4   6   5    0.70    0.67
   5   6   5    7.89    1.03
   6   6   5    4.42    0.97
   6  -7  -5   23.03    1.48
  -6   7   5   21.64    1.31
   5  -7  -5    1.54    0.64
  -5   7   5    1.25    0.51
   4  -7  -5   33.50    1.83
  -4   7   5   31.40    1.62
   3  -7  -5   29.46    1.76
  -3   7   5   30.29    1.55
   2  -7  -5    0.33    0.69
  -2   7   5    0.78    0.50
   1  -7  -5   67.59    3.15
  -1   7   5   66.85    2.83
   0  -7  -5    7.19    0.89
   0   7   5    5.36    0.68
  -1  -7  -5   22.21    1.43
   1   7   5   23.54    1.39
  -2  -7  -5    0.82    0.61
   2   7   5    1.02    0.62
  -3  -7  -5    0.02    0.53
   3   7   5    0.36    0.64
   4   7   5   50.47    2.44
   5   7   5   10.79    1.15
   6  -8  -5    0.61    0.67
  -6   8   5    0.21    0.56
   5  -8  -5    4.73    0.81
  -5   8   5    4.60    0.71
   4  -8  -5   23.20    1.56
  -4   8   5   24.63    1.41
   3  -8  -5    6.01    0.79
  -3   8   5    6.95    0.75
   2  -8  -5   19.42    1.47
  -2   8   5   18.46    1.24
   1  -8  -5    0.29    0.62
  -1   8   5    0.86    0.58
   0  -8  -5    7.17    0.91
   0   8   5    5.57    0.71
  -1  -8  -5   77.65    3.45
   1   8   5   72.54    3.15
  -2  -8  -5    0.29    0.58
   2   8   5    0.16    0.67
  -3  -8  -5    1.17    0.54
   3   8   5    0.54    0.66
   4   8   5    6.81    0.89
   5  -9  -5    7.52    0.92
   4  -9  -5    0.06    0.72
  -4   9   5    0.51    0.62
   3  -9  -5   44.06    2.27
  -3   9   5   39.77    1.99
   2  -9  -5   13.79    1.34
  -2   9   5   12.80    1.03
   1  -9  -5    8.95    1.02
  -1   9   5    9.66    0.87
   0  -9  -5    3.95    0.81
   0   9   5    3.45    0.69
  -1  -9  -5    6.34    0.82
   1   9   5    5.25    0.80
  -2  -9  -5   38.75    1.98
   2   9   5   37.77    1.88
   3   9   5   16.80    1.38
   3 -10  -5    2.23    0.82
  -3  10   5    0.86    0.61
   2 -10  -5    0.94    0.77
  -2  10   5    0.31    0.58
   1 -10  -5   35.74    2.03
  -1  10   5   33.08    1.75
   0 -10  -5   11.30    1.06
   0  10   5   11.96    1.09
   1  10   5    2.32    0.62
   2  13  -6   19.27    1.39
  -2 -13   6   21.71    1.27
   1  13  -6   10.64    1.01
  -1 -13   6   12.46    1.01
   0  13  -6    6.69    0.90
   0 -13   6    8.76    0.77
  -1  13  -6    3.08    0.85
   1 -13   6    4.97    0.68
  -2  13  -6   -0.33    0.76
  -3  13  -6   18.03    1.55
  -4 -12   6    0.55    0.65
  -3 -12   6   10.90    1.03
   2  12  -6    5.05    0.71
  -2 -12   6    5.30    0.69
   1  12  -6    2.20    0.67
  -1 -12   6    2.48    0.61
   0  12  -6   50.34    2.61
   0 -12   6   54.81    2.36
  -1  12  -6    4.72    0.87
   1 -12   6    4.35    0.65
  -2  12  -6    5.91    0.97
   2 -12   6    6.98    0.71
  -3  12  -6    0.46    0.79
   3 -12   6   -0.11    0.55
  -4  12  -6    1.04    0.73
   4 -12   6    2.10    0.64
  -5 -11   6   -0.22    0.57
  -4 -11   6    4.05    0.68
   3  11  -6   40.20    2.05
  -3 -11   6   46.72    2.07
   2  11  -6    0.01    0.54
  -2 -11   6    0.72    0.58
   1  11  -6    8.22    0.89
  -1 -11   6    9.60    0.80
   0  11  -6    0.30    0.60
   0 -11   6    0.43    0.55
  -1  11  -6    7.54    0.89
   1 -11   6    5.30    0.66
  -2  11  -6   83.13    3.75
   2 -11   6   83.19    3.47
  -3  11  -6   10.86    1.03
   3 -11   6   12.04    1.02
  -4  11  -6    2.78    0.74
   4 -11   6    5.01    0.72
  -5  11  -6    4.45    0.74
   5 -11   6    6.22    0.76
  -6 -10   6    5.83    0.79
  -5 -10   6   15.82    1.22
  -4 -10   6   13.12    1.09
   3  10  -6    0.40    0.48
  -3 -10   6    1.07    0.60
   2  10  -6   37.02    1.87
  -2 -10   6   39.23    1.85
   1  10  -6   55.59    2.66
  -1 -10   6   59.72    2.52
   0  10  -6    2.79    0.71
   0 -10   6    4.14    0.61
  -1  10  -6    0.59    0.68
   1 -10   6    0.68    0.53
  -2  10  -6   12.46    1.22
   2 -10   6   11.62    1.03
  -3  10  -6   28.77    1.69
   3 -10   6   29.57    1.55
  -4  10  -6   60.78    2.83
   4 -10   6   62.09    2.72
  -5  10  -6    0.19    0.51
   5 -10   6   -0.45    0.61
  -6  10  -6    0.01    0.53
   6 -10   6    0.62    0.70
   6   9  -6    4.35    0.63
  -6  -9   6    3.22    0.66
   5   9  -6   35.66    1.66
  -5  -9   6   37.76    1.86
   4   9  -6    7.26    0.64
  -4  -9   6    6.18    0.74
   3   9  -6   12.13    0.82
   3   9  -6    9.39    0.88
  -3  -9   6   10.48    0.88
   2   9  -6    0.54    0.47
  -2  -9   6    1.20    0.58
   1   9  -6    1.27    0.55
  -1  -9   6    0.83    0.53
   0   9  -6  131.45    5.53
   0  -9   6  129.65    5.20
  -1   9  -6   66.67    3.01
   1  -9   6   66.85    2.85
  -2   9  -6    1.32    0.55
   2  -9   6    1.40    0.52
  -3   9  -6   10.99    1.04
   3  -9   6    9.96    0.90
  -4   9  -6   16.62    1.12
   4  -9   6   15.19    1.18
  -5   9  -6   45.94    2.16
   5  -9   6   47.38    2.21
  -6   9  -6   13.83    1.01
   6  -9   6   15.83    1.27
   7  -9   6    1.20    0.73
   7   8  -6    1.94    0.59
  -7  -8   6    1.20    0.70
   6   8  -6   22.49    1.26
  -6  -8   6   20.62    1.43
   5   8  -6    0.36    0.48
  -5  -8   6    0.92    0.64
   4   8  -6   26.13    1.23
  -4  -8   6   22.17    1.38
   3   8  -6  157.15    5.52
   3   8  -6  139.33    6.05
  -3  -8   6  142.99    5.81
   2   8  -6    1.49    0.47
   2   8  -6    1.66    0.37
  -2  -8   6    1.52    0.55
   1   8  -6   17.14    1.09
  -1  -8   6   17.38    1.10
   0   8  -6   20.69    1.26
   0  -8   6   21.01    1.20
  -1   8  -6    4.86    0.61
   1  -8   6    7.05    0.68
  -2   8  -6  168.94    6.69
   2  -8   6  153.24    6.35
  -3   8  -6   26.10    1.40
   3  -8   6   24.35    1.42
  -4   8  -6    0.31    0.44
   4  -8   6   -0.74    0.59
  -5   8  -6   34.18    1.72
   5  -8   6   38.30    1.85
  -6   8  -6    9.59    0.81
   6  -8   6    8.54    0.87
   7  -8   6   27.03    1.67
   7   7  -6   14.76    1.07
  -7  -7   6   17.29    1.32
   6   7  -6   36.90    1.72
  -6  -7   6   37.16    1.91
   5   7  -6    2.94    0.52
  -5  -7   6    2.37    0.61
   4   7  -6    6.53    0.61
   4   7  -6    6.33    0.58
  -4  -7   6    6.71    0.76
   3   7  -6   13.40    0.78
   3   7  -6   13.15    0.92
  -3  -7   6   13.74    1.02
   2   7  -6   91.71    4.06
   2   7  -6  103.32    3.64
  -2  -7   6   93.90    3.92
   1   7  -6  171.40    7.47
   1   7  -6  199.77    6.70
  -1  -7   6  174.48    7.11
   0   7  -6    0.50    0.45
   0  -7   6    0.53    0.46
  -1   7  -6    9.25    0.83
   1  -7   6    6.63    0.64
  -2   7  -6   88.35    3.72
   2  -7   6   85.32    3.58
  -3   7  -6   18.21    1.09
   3  -7   6   17.92    1.18
  -4   7  -6   85.22    3.72
   4  -7   6   90.74    3.67
  -5   7  -6    0.17    0.42
   5  -7   6    0.33    0.62
  -6   7  -6    2.48    0.46
   6  -7   6    2.18    0.73
   7  -7   6   51.09    2.47
   8   6  -6   17.24    1.16
  -8  -6   6   16.43    1.21
   7   6  -6    0.37    0.51
  -7  -6   6    0.30    0.66
   6   6  -6    1.08    0.48
  -6  -6   6    2.26    0.63
   5   6  -6   86.19    3.34
  -5  -6   6   84.88    3.57
   4   6  -6   72.14    3.12
   4   6  -6   74.50    2.87
  -4  -6   6   73.45    3.12
   3   6  -6   19.55    0.95
   3   6  -6   19.64    1.05
  -3  -6   6   18.55    1.10
   2   6  -6   14.94    0.96
   2   6  -6   16.86    0.76
  -2  -6   6   15.53    0.96
   1   6  -6   19.18    1.11
   1   6  -6   20.74    0.81
  -1  -6   6   19.02    1.14
   0   6  -6  152.54    6.02
   0  -6   6  138.32    5.71
  -1   6  -6   81.79    3.50
   1  -6   6   81.62    3.33
  -2   6  -6    2.88    0.47
   2  -6   6    3.63    0.58
  -3   6  -6   78.47    3.41
   3  -6   6   81.48    3.33
  -4   6  -6   85.73    3.73
   4  -6   6   91.28    3.65
  -5   6  -6   17.71    1.04
   5  -6   6   20.47    1.30
  -6   6  -6   13.35    0.92
   6  -6   6   14.09    1.13
   7  -6   6   -0.23    0.60
  -8   6  -6    4.71    0.81
   8   5  -6   31.86    1.56
  -8  -5   6   29.39    1.73
   7   5  -6    0.27    0.52
  -7  -5   6    0.31    0.64
   6   5  -6   12.72    0.91
  -6  -5   6   13.40    1.16
   5   5  -6   56.15    2.32
  -5  -5   6   58.96    2.58
   4   5  -6   16.58    0.93
   4   5  -6   18.39    1.01
  -4  -5   6   18.02    1.10
   3   5  -6  260.51   10.42
   3   5  -6  257.14    9.46
  -3  -5   6  252.48    9.93
   2   5  -6   50.39    2.26
   2   5  -6   52.28    1.97
  -2  -5   6   51.30    2.21
   1   5  -6    9.36    0.76
   1   5  -6    9.21    0.43
  -1  -5   6    8.79    0.72
   0   5  -6  140.66    5.64
   0  -5   6  132.16    5.35
  -1   5  -6    5.84    0.55
   1  -5   6    5.81    0.55
  -2   5  -6  138.91    5.85
   2  -5   6  145.07    5.60
  -3   5  -6   27.89    1.36
   3  -5   6   28.24    1.38
  -4   5  -6    1.04    0.39
   4  -5   6    1.35    0.56
  -5   5  -6   78.15    3.31
   5  -5   6   77.01    3.29
  -6   5  -6   35.09    1.67
   6  -5   6   35.96    1.87
   7  -5   6    3.38    0.72
  -8   5  -6   -0.43    0.65
   8   4  -6    0.88    0.59
  -8  -4   6    2.20    0.65
   7   4  -6   32.68    1.56
  -7  -4   6   31.52    1.76
   6   4  -6   79.53    3.17
  -6  -4   6   82.02    3.42
   5   4  -6    2.36    0.49
  -5  -4   6    2.77    0.63
   4   4  -6    0.71    0.36
   4   4  -6    0.43    0.36
  -4  -4   6    0.22    0.46
   3   4  -6   83.07    3.08
   3   4  -6   79.28    3.43
  -3  -4   6   81.13    3.33
   2   4  -6   61.48    2.27
   2   4  -6   58.51    2.60
  -2  -4   6   59.77    2.50
   1   4  -6  192.98    7.98
   1   4  -6  205.22    7.16
  -1  -4   6  187.56    7.56
   0   4  -6    1.13    0.37
   0  -4   6    1.56    0.35
  -1   4  -6   55.99    2.40
   1  -4   6   53.49    2.27
  -2   4  -6  162.31    6.53
   2  -4   6  154.77    6.18
  -3   4  -6    1.46    0.41
   3  -4   6    1.93    0.24
   3  -4   6    1.83    0.44
  -4   4  -6   31.42    1.50
   4  -4   6   29.53    1.54
   4  -4   6   32.14    1.31
  -5   4  -6    0.22    0.40
   5  -4   6    0.20    0.51
   5  -4   6    0.53    0.38
  -6   4  -6    5.00    0.54
   6  -4   6    4.55    0.73
   7  -4   6   75.72    3.29
  -8   4  -6    6.31    0.90
   8   3  -6    9.42    0.78
  -8  -3   6    8.77    0.94
   7   3  -6    3.37    0.58
  -7  -3   6    2.95    0.74
   6   3  -6    3.84    0.56
  -6  -3   6    4.20    0.76
   5   3  -6   88.06    3.50
  -5  -3   6   93.91    3.78
   4   3  -6   83.24    3.54
   4   3  -6   85.92    3.21
  -4  -3   6   82.07    3.42
   3   3  -6    0.42    0.27
   3   3  -6    0.46    0.34
  -3  -3   6    0.24    0.41
   2   3  -6  100.68    4.25
   2   3  -6  100.51    3.77
  -2  -3   6  103.07    4.02
   1   3  -6   87.08    3.84
   1   3  -6   97.87    3.39
  -1  -3   6   88.06    3.62
   0   3  -6   80.65    3.41
   0  -3   6   80.12    3.19
   0  -3   6   79.45    3.00
  -1   3  -6  137.00    5.73
   1  -3   6  134.28    5.39
   1  -3   6  143.45    5.09
  -2   3  -6    2.39    0.44
   2  -3   6    0.96    0.34
   2  -3   6    1.98    0.25
  -3   3  -6   91.48    3.86
   3  -3   6   94.75    3.46
   3  -3   6   87.86    3.68
  -4   3  -6   83.02    3.53
   4  -3   6   79.16    3.42
   4  -3   6   87.79    3.21
  -5   3  -6    1.94    0.43
   5  -3   6    2.22    0.62
   5  -3   6    3.32    0.47
   6  -3   6    2.07    0.67
   6  -3   6    2.17    0.51
  -7   3  -6   10.26    0.97
  -8   3  -6    5.14    0.81
   8   2  -6   63.10    2.56
  -8  -2   6   57.91    2.71
   7   2  -6    1.61    0.54
  -7  -2   6    0.87    0.64
   6   2  -6    1.79    0.49
  -6  -2   6    1.96    0.68
   5   2  -6   60.33    2.46
  -5  -2   6   63.08    2.65
   4   2  -6    2.29    0.38
   4   2  -6    1.70    0.41
  -4  -2   6    2.37    0.50
   3   2  -6  121.69    5.07
   3   2  -6  121.36    4.54
  -3  -2   6  122.19    4.79
   2   2  -6   24.16    1.01
   2   2  -6   24.03    1.26
  -2  -2   6   23.86    1.12
   1   2  -6    1.39    0.42
  -1  -2   6    0.64    0.23
  -1  -2   6    0.30    0.26
   0   2  -6  287.76   11.66
   0  -2   6  282.13   10.54
   0  -2   6  290.16   10.96
  -1   2  -6  125.01    5.16
   1  -2   6  126.11    4.82
   1  -2   6  120.04    4.61
  -2   2  -6   43.50    1.98
   2  -2   6   42.92    1.84
   2  -2   6   43.79    1.71
  -3   2  -6   22.89    1.22
   3  -2   6   23.02    1.05
   3  -2   6   22.65    1.16
  -4   2  -6    9.77    0.78
   4  -2   6    8.49    0.74
   4  -2   6    8.33    0.70
  -5   2  -6   86.31    3.59
   5  -2   6   83.62    3.31
   5  -2   6   84.48    3.50
   6  -2   6   46.32    1.98
   6  -2   6   45.54    2.18
  -7   2  -6   -0.35    0.53
   7  -2   6    0.19    0.52
  -8   2  -6    0.27    0.63
  -9  -1   6    1.29    0.63
   8   1  -6   10.35    0.94
  -8  -1   6    9.04    0.88
   7   1  -6   12.93    0.88
  -7  -1   6   11.67    1.10
   6   1  -6   88.79    3.49
  -6  -1   6   90.45    3.73
   5   1  -6    2.89    0.45
   5   1  -6    2.29    0.44
  -5  -1   6    2.73    0.58
   4   1  -6    7.97    0.73
   4   1  -6    8.90    0.62
  -4  -1   6    7.73    0.71
   3   1  -6  131.83    4.92
   3   1  -6  129.89    5.49
  -3  -1   6  134.38    5.15
   2   1  -6    2.70    0.48
   2   1  -6    2.08    0.30
  -2  -1   6    1.88    0.32
   1   1  -6   59.46    2.72
  -1  -1   6   63.58    2.46
  -1  -1   6   62.03    2.38
   0  -1   6   14.45    0.72
   0  -1   6   14.23    0.76
  -1   1  -6   32.34    1.61
   1  -1   6   31.95    1.38
   1  -1   6   32.60    1.38
  -2   1  -6  205.76    8.52
   2  -1   6  203.96    7.71
   2  -1   6  213.15    8.00
  -3   1  -6   20.17    1.11
   3  -1   6   18.26    0.97
   3  -1   6   20.24    1.04
  -4   1  -6    9.92    0.78
   4  -1   6    9.41    0.85
   4  -1   6    8.92    0.74
  -5   1  -6   18.06    0.98
   5  -1   6   16.63    1.05
   5  -1   6   15.18    1.04
  -6   1  -6    2.17    0.60
   6  -1   6    1.92    0.53
  -7   1  -6   58.31    2.51
   7  -1   6   54.12    2.39
  -8   1  -6    5.86    0.75
   8  -1   6    5.75    0.72
   8   0  -6   -0.46    0.55
  -8   0   6    0.22    0.59
   7   0  -6    9.95    0.83
  -7   0   6   11.46    1.01
   6   0  -6   14.47    0.95
  -6   0   6   15.59    1.14
   5   0  -6   43.39    1.92
   5   0  -6   38.97    1.73
  -5   0   6   40.69    1.85
   4   0  -6   62.76    2.55
   4   0  -6   66.75    2.89
  -4   0   6   68.43    2.70
   3   0  -6   -0.12    0.39
   3   0  -6   -0.36    0.29
  -3   0   6    0.02    0.28
   2   0  -6   47.20    2.28
  -2   0   6   51.13    2.00
  -2   0   6   50.30    1.98
  -1   0   6  254.71    9.49
  -1   0   6  243.02    9.20
   0   0  -6    0.30    0.41
   0   0   6    0.14    0.34
   0   0   6    0.55    0.22
  -1   0  -6    9.86    0.79
   1   0   6   10.54    0.60
   1   0   6    8.84    0.74
  -2   0  -6   11.83    0.86
   2   0   6    9.83    0.64
   2   0   6    9.09    0.73
  -3   0  -6   87.27    3.53
   3   0   6   79.60    3.22
   3   0   6   80.82    3.32
  -4   0  -6  141.25    5.61
   4   0   6  127.64    5.16
   4   0   6  137.55    5.36
  -5   0  -6    0.94    0.39
  -5   0  -6    1.05    0.43
   5   0   6    0.26    0.50
  -6   0  -6    0.30    0.51
   6   0   6    0.99    0.56
  -7   0  -6   28.59    1.45
   7   0   6   25.42    1.46
  -8   0  -6    0.99    0.57
   8   0   6    1.68    0.62
   8  -1  -6   29.77    1.47
  -8   1   6   30.52    1.58
   7  -1  -6    1.09    0.54
  -7   1   6    1.44    0.59
   6  -1  -6   10.55    0.84
  -6   1   6    9.95    0.80
   5  -1  -6   74.72    3.19
   5  -1  -6   70.12    2.87
  -5   1   6   74.30    3.00
   4  -1  -6   17.04    1.13
   4  -1  -6   18.81    0.94
  -4   1   6   17.47    0.91
   3  -1  -6   81.16    3.17
   3  -1  -6   82.21    3.59
  -3   1   6   85.74    3.25
   2  -1  -6    3.10    0.55
  -2   1   6    4.76    0.46
  -2   1   6    4.06    0.37
   1  -1  -6    0.38    0.44
  -1   1   6    1.47    0.21
  -1   1   6    1.52    0.36
   0  -1  -6  197.47    8.36
   0   1   6  205.67    7.60
   0   1   6  204.70    7.73
  -1  -1  -6  167.36    6.80
   1   1   6  161.66    6.20
   1   1   6  161.72    6.28
  -2  -1  -6   23.84    1.29
   2   1   6   22.71    1.08
   2   1   6   22.61    1.21
  -3  -1  -6    6.28    0.60
   3   1   6    6.29    0.65
   3   1   6    7.03    0.65
  -4  -1  -6   40.80    1.78
  -4  -1  -6   38.41    1.73
   4   1   6   35.21    1.75
  -5  -1  -6   65.38    2.68
  -5  -1  -6   61.66    2.59
   5   1   6   58.44    2.61
  -6  -1  -6   28.79    1.40
   6   1   6   26.39    1.49
  -7  -1  -6   -0.08    0.48
   7   1   6   -0.43    0.60
   8  -2  -6   14.90    1.02
   7  -2  -6   -0.19    0.52
   6  -2  -6   52.00    2.27
  -6   2   6   57.67    2.35
   5  -2  -6   -0.22    0.36
   5  -2  -6    0.13    0.52
  -5   2   6   -0.28    0.37
   4  -2  -6   13.36    1.03
   4  -2  -6   14.05    0.84
  -4   2   6   14.50    0.74
   3  -2  -6  133.36    5.87
  -3   2   6  147.20    5.37
  -3   2   6  138.53    5.29
   2  -2  -6   16.55    1.18
  -2   2   6   15.72    0.90
  -2   2   6   18.04    0.74
   1  -2  -6   24.63    1.46
  -1   2   6   26.12    1.24
  -1   2   6   27.80    1.06
   0  -2  -6   25.25    1.51
   0   2   6   28.41    1.35
   0   2   6   27.09    1.11
  -1  -2  -6    4.72    0.61
   1   2   6    6.95    0.48
   1   2   6    8.28    0.76
  -2  -2  -6  159.74    6.76
   2   2   6  165.94    6.22
  -3  -2  -6   40.22    1.88
  -3  -2  -6   40.23    1.72
   3   2   6   38.61    1.84
  -4  -2  -6   -0.07    0.39
  -4  -2  -6    0.30    0.39
   4   2   6    0.23    0.57
  -5  -2  -6   42.28    1.85
   5   2   6   41.87    1.94
  -6  -2  -6    2.26    0.47
   6   2   6    1.14    0.66
  -7  -2  -6   30.60    1.55
   7   2   6   32.55    1.72
   8  -3  -6   -0.22    0.53
   7  -3  -6   12.80    0.97
   6  -3  -6   55.94    2.51
   6  -3  -6   52.67    2.25
   5  -3  -6    5.37    0.70
  -5   3   6    6.40    0.66
   4  -3  -6   21.00    1.35
  -4   3   6   23.07    1.20
   3  -3  -6    3.28    0.62
  -3   3   6    1.21    0.42
   2  -3  -6   60.42    2.78
  -2   3   6   60.55    2.47
   1  -3  -6  172.60    7.22
  -1   3   6  172.94    6.53
   0  -3  -6    6.93    0.75
   0   3   6    7.15    0.68
  -1  -3  -6    3.18    0.65
   1   3   6    5.28    0.69
  -2  -3  -6   67.62    2.58
  -2  -3  -6   63.74    2.89
   2   3   6   59.72    2.68
  -3  -3  -6   14.81    0.85
  -3  -3  -6   13.62    1.03
   3   3   6   12.68    1.12
  -4  -3  -6   69.34    2.80
  -4  -3  -6   66.98    2.98
   4   3   6   69.27    2.88
  -5  -3  -6    0.36    0.41
   5   3   6    1.12    0.68
  -6  -3  -6    5.50    0.60
   6   3   6    6.68    0.88
  -7  -3  -6   35.35    1.70
   7   3   6   39.95    1.97
   8  -4  -6   14.26    1.06
  -7   4   6   -0.59    0.58
   6  -4  -6    0.26    0.55
  -6   4   6    0.14    0.57
   5  -4  -6   59.63    2.80
  -5   4   6   61.68    2.51
   4  -4  -6   33.29    1.78
  -4   4   6   31.80    1.55
   3  -4  -6   12.37    1.15
  -3   4   6   13.23    0.87
   2  -4  -6   20.64    1.32
  -2   4   6   20.32    1.16
   1  -4  -6    3.06    0.63
  -1   4   6    2.09    0.49
   0  -4  -6  124.14    5.33
   0   4   6  123.93    4.82
  -1  -4  -6   94.81    4.20
   1   4   6   97.51    3.85
  -2  -4  -6   16.10    1.13
   2   4   6   15.98    1.22
  -3  -4  -6   53.36    2.47
   3   4   6   55.20    2.46
  -4  -4  -6   33.88    1.65
   4   4   6   32.36    1.71
   5   4   6   14.37    1.32
   6   4   6   20.64    1.53
  -7   5   6   -0.66    0.59
   6  -5  -6   12.99    1.16
  -6   5   6   13.81    1.06
   5  -5  -6    6.73    0.79
  -5   5   6    7.36    0.70
   4  -5  -6    5.99    0.83
  -4   5   6    6.65    0.69
   3  -5  -6  112.12    4.76
  -3   5   6  106.91    4.26
   2  -5  -6    8.59    0.89
  -2   5   6   10.63    0.84
   1  -5  -6    0.81    0.61
  -1   5   6    1.81    0.50
   0  -5  -6   37.45    2.02
   0   5   6   36.31    1.78
  -1  -5  -6    0.41    0.62
   1   5   6    0.46    0.54
  -2  -5  -6   40.18    2.04
   2   5   6   40.62    1.93
  -3  -5  -6    6.37    0.72
   3   5   6    8.33    0.92
  -4  -5  -6    0.68    0.49
   4   5   6    0.36    0.74
   5   5   6   61.36    2.81
   6   5   6   12.43    1.16
  -7   6   6   12.74    1.13
   6  -6  -6   24.61    1.50
  -6   6   6   24.90    1.44
   5  -6  -6    1.45    0.64
  -5   6   6    1.70    0.59
   4  -6  -6    0.12    0.65
  -4   6   6    0.45    0.49
   3  -6  -6   31.79    1.87
   2  -6  -6   25.28    1.66
  -2   6   6   23.37    1.31
   1  -6  -6   88.44    3.79
  -1   6   6   78.01    3.34
   0  -6  -6    1.22    0.73
   0   6   6    0.76    0.57
  -1  -6  -6   12.04    1.23
   1   6   6   12.97    1.00
  -2  -6  -6   42.60    2.16
   2   6   6   42.08    2.01
  -3  -6  -6    0.82    0.57
   3   6   6    0.20    0.73
   4   6   6   24.42    1.62
   5   6   6    0.62    0.80
   6  -7  -6   -0.04    0.65
  -6   7   6    0.78    0.59
   5  -7  -6   34.45    1.91
  -5   7   6   35.24    1.76
   4  -7  -6    5.93    0.79
  -4   7   6    5.91    0.69
   3  -7  -6    1.03    0.68
  -3   7   6    0.20    0.57
   2  -7  -6   21.46    1.62
  -2   7   6   22.74    1.35
   1  -7  -6   23.20    1.64
  -1   7   6   19.85    1.24
   0  -7  -6   30.07    1.85
   0   7   6   28.78    1.52
  -1  -7  -6   23.11    1.58
   1   7   6   22.59    1.39
  -2  -7  -6    4.80    0.76
   2   7   6    4.97    0.80
  -3  -7  -6   21.78    1.40
   3   7   6   26.05    1.47
   4   7   6   45.46    2.27
   5  -8  -6    8.76    0.92
  -5   8   6    8.72    0.82
   4  -8  -6    1.08    0.71
  -4   8   6    0.18    0.60
   3  -8  -6   37.44    2.11
  -3   8   6   38.21    1.83
   2  -8  -6    4.57    0.83
  -2   8   6    3.59    0.70
   1  -8  -6    1.84    0.81
  -1   8   6    1.48    0.61
   0  -8  -6   28.39    1.76
   0   8   6   25.01    1.42
  -1  -8  -6   14.78    1.31
   1   8   6   12.81    1.03
  -2  -8  -6   14.41    1.25
   2   8   6   14.20    1.24
  -3  -8  -6    6.01    0.72
   3   8   6    7.65    0.93
   3  -9  -6   19.23    1.50
  -3   9   6   17.26    1.27
   2  -9  -6    1.20    0.79
  -2   9   6    0.41    0.55
   1  -9  -6   17.95    1.49
  -1   9   6   14.94    1.22
   0  -9  -6    0.80    0.71
   0   9   6    0.61    0.55
  -1  -9  -6    2.88    0.75
   1   9   6    2.46    0.69
   2  13  -7   21.82    1.40
  -2 -13   7   24.48    1.39
   1  13  -7    0.35    0.65
  -1 -13   7    1.05    0.60
   0  13  -7   31.42    1.89
   0 -13   7   33.01    1.67
  -1  13  -7    1.31    0.80
   1 -13   7    1.58    0.60
  -2  13  -7    0.90    0.80
   2 -13   7    1.32    0.59
  -3  13  -7   23.89    1.71
   3 -13   7   24.21    1.40
  -3 -12   7   24.35    1.42
   2  12  -7    0.57    0.57
  -2 -12   7    0.38    0.57
   1  12  -7    7.34    0.83
  -1 -12   7    8.33    0.79
   0  12  -7   45.13    2.47
   0 -12   7   53.47    2.28
  -1  12  -7    6.54    0.93
   1 -12   7    5.97    0.74
  -2  12  -7   15.46    1.30
   2 -12   7   14.40    1.12
  -3  12  -7   -0.30    0.72
   3 -12   7   -0.02    0.57
  -4  12  -7    8.79    0.91
   4 -12   7   12.93    1.09
  -5 -11   7    0.07    0.60
  -4 -11   7   24.62    1.49
   3  11  -7   -0.59    0.50
  -3 -11   7    0.68    0.62
   2  11  -7   29.60    1.70
  -2 -11   7   34.21    1.66
   1  11  -7   10.92    1.09
  -1 -11   7   12.05    1.02
   0  11  -7    1.31    0.68
   0 -11   7    1.31    0.60
  -1  11  -7   59.51    2.86
   1 -11   7   59.36    2.61
  -2  11  -7   20.11    1.46
   2 -11   7   18.15    1.26
  -3  11  -7    0.29    0.66
   3 -11   7    0.52    0.61
  -4  11  -7    1.75    0.69
   4 -11   7    2.13    0.67
  -5  11  -7    4.55    0.72
   5 -11   7    5.66    0.80
  -5 -10   7   59.73    2.64
  -4 -10   7   -0.30    0.51
   3  10  -7    3.89    0.60
  -3 -10   7    2.73    0.60
   2  10  -7   64.83    2.96
  -2 -10   7   68.52    2.87
   1  10  -7    4.03    0.68
  -1 -10   7    4.63    0.66
   0  10  -7   38.06    1.97
   0 -10   7   37.18    1.82
  -1  10  -7    0.48    0.64
   1 -10   7    0.22    0.53
  -2  10  -7    1.96    0.68
   2 -10   7    1.47    0.63
  -3  10  -7   61.48    2.85
   3 -10   7   61.73    2.69
  -4  10  -7   16.89    1.21
   4 -10   7   17.63    1.18
  -5  10  -7   -0.45    0.49
   5 -10   7   -0.43    0.65
  -6  10  -7   -0.48    0.51
   6 -10   7    0.33    0.69
  -6  -9   7    6.95    0.83
  -5  -9   7   32.04    1.72
  -4  -9   7   21.87    1.35
   3   9  -7   27.41    1.46
  -3  -9   7   29.68    1.49
   2   9  -7    0.64    0.50
  -2  -9   7    1.55    0.59
   1   9  -7   23.86    1.34
  -1  -9   7   25.33    1.38
   0   9  -7   76.34    3.42
   0  -9   7   80.27    3.28
  -1   9  -7    0.01    0.48
   1  -9   7    0.77    0.56
  -2   9  -7    6.24    0.73
   2  -9   7    5.80    0.68
  -3   9  -7   19.80    1.17
   3  -9   7   17.57    1.25
  -4   9  -7    9.92    0.95
   4  -9   7    8.70    0.89
  -5   9  -7   38.85    1.92
   5  -9   7   40.02    2.01
  -6   9  -7   10.28    0.92
   6  -9   7   11.18    1.03
   7   8  -7   31.66    1.51
  -7  -8   7   28.71    1.76
   6   8  -7    4.46    0.60
  -6  -8   7    3.52    0.70
   5   8  -7    0.58    0.48
  -5  -8   7    0.55    0.62
   4   8  -7   42.18    1.75
  -4  -8   7   39.11    1.91
   3   8  -7   45.50    2.19
  -3  -8   7   51.41    2.21
   2   8  -7   18.80    1.18
  -2  -8   7   21.85    1.26
   1   8  -7    0.34    0.46
  -1  -8   7   -0.11    0.51
   0   8  -7    9.57    0.94
   0  -8   7   11.62    0.94
  -1   8  -7   44.00    2.11
   1  -8   7   43.96    2.03
  -2   8  -7  105.76    4.42
   2  -8   7  101.40    4.23
  -3   8  -7    2.30    0.55
   3  -8   7    2.03    0.62
  -4   8  -7    3.95    0.57
   4  -8   7    4.06    0.72
  -5   8  -7   14.21    0.99
   5  -8   7   16.17    1.24
  -6   8  -7   10.45    0.84
   6  -8   7   11.29    1.02
   7  -8   7   24.18    1.65
   7   7  -7   24.47    1.33
  -7  -7   7   25.31    1.58
   6   7  -7    0.43    0.49
  -6  -7   7   -0.06    0.67
   5   7  -7   36.25    1.61
  -5  -7   7   36.62    1.86
   4   7  -7    0.40    0.39
   4   7  -7    0.50    0.46
  -4  -7   7    0.29    0.56
   3   7  -7    1.97    0.48
   3   7  -7    2.14    0.37
  -3  -7   7    1.77    0.57
   2   7  -7  159.34    6.99
   2   7  -7  185.30    6.31
  -2  -7   7  164.96    6.68
   1   7  -7   29.05    1.47
  -1  -7   7   30.07    1.44
   0   7  -7   14.84    1.02
   0  -7   7   13.80    0.92
  -1   7  -7    2.52    0.48
   1  -7   7    1.65    0.48
  -2   7  -7    2.47    0.54
   2  -7   7    2.11    0.53
  -3   7  -7   53.77    2.49
   3  -7   7   59.17    2.51
  -4   7  -7   52.04    2.35
   4  -7   7   53.20    2.36
  -5   7  -7    0.26    0.41
   5  -7   7   -0.38    0.54
  -6   7  -7   21.19    1.19
   6  -7   7   22.34    1.41
   7  -7   7    9.89    0.96
   7   6  -7    0.80    0.54
  -7  -6   7    0.75    0.71
   6   6  -7   22.26    1.20
  -6  -6   7   22.18    1.36
   5   6  -7   36.32    1.59
  -5  -6   7   36.04    1.86
   4   6  -7    1.43    0.47
   4   6  -7    2.07    0.42
  -4  -6   7    1.36    0.58
   3   6  -7   14.06    0.96
   3   6  -7   14.17    0.74
  -3  -6   7   13.03    0.94
   2   6  -7    4.70    0.39
   2   6  -7    4.86    0.56
  -2  -6   7    4.28    0.57
   1   6  -7   28.88    1.44
  -1  -6   7   27.06    1.40
   0   6  -7  249.80    9.99
   0  -6   7  239.86    9.47
  -1   6  -7    6.02    0.59
   1  -6   7    8.34    0.79
  -2   6  -7    0.41    0.45
   2  -6   7    0.66    0.46
  -3   6  -7   28.78    1.48
   3  -6   7   30.34    1.47
  -4   6  -7   -0.17    0.41
   4  -6   7   -0.65    0.55
  -5   6  -7   68.66    3.06
   5  -6   7   74.22    3.11
  -6   6  -7    0.16    0.41
   6  -6   7    1.28    0.72
   7  -6   7    2.80    0.80
   8   5  -7   15.68    1.07
  -8  -5   7   12.50    1.08
   7   5  -7   15.99    1.05
  -7  -5   7   16.94    1.33
   6   5  -7    9.50    0.83
  -6  -5   7    7.86    0.87
   5   5  -7    0.54    0.42
  -5  -5   7    0.82    0.57
   4   5  -7   58.90    2.36
   4   5  -7   60.04    2.63
  -4  -5   7   60.23    2.58
   3   5  -7   66.66    2.92
   3   5  -7   69.14    2.57
  -3  -5   7   65.19    2.80
   2   5  -7    0.34    0.21
   2   5  -7    0.62    0.42
  -2  -5   7    0.45    0.46
   1   5  -7    2.21    0.22
   1   5  -7    2.23    0.49
  -1  -5   7    1.82    0.46
   0   5  -7   33.38    1.61
   0  -5   7   33.41    1.54
  -1   5  -7   70.56    3.01
   1  -5   7   67.42    2.83
  -2   5  -7  133.72    5.62
   2  -5   7  137.15    5.34
  -3   5  -7    0.02    0.37
   3  -5   7    0.19    0.47
  -4   5  -7   26.06    1.33
   4  -5   7   24.30    1.33
  -5   5  -7   72.29    3.11
   5  -5   7   72.19    3.08
  -6   5  -7    7.02    0.63
   6  -5   7    6.76    0.81
   7  -5   7   16.81    1.39
  -8   5  -7    4.80    0.89
   8   4  -7    2.04    0.60
  -8  -4   7    2.05    0.73
   7   4  -7   41.14    1.85
  -7  -4   7   42.15    2.10
   6   4  -7   11.89    0.88
  -6  -4   7   11.48    1.03
   5   4  -7   26.70    1.26
  -5  -4   7   27.34    1.52
   4   4  -7   13.17    0.76
   4   4  -7   14.34    0.94
  -4  -4   7   13.15    0.96
   3   4  -7    0.42    0.27
   3   4  -7    1.19    0.42
  -3  -4   7    0.00    0.39
   2   4  -7  190.16    7.93
   2   4  -7  196.43    7.11
  -2  -4   7  193.36    7.51
   1   4  -7  107.74    4.53
  -1  -4   7  107.98    4.27
   0   4  -7   11.71    0.91
   0  -4   7   11.97    0.80
   0  -4   7   12.44    0.56
  -1   4  -7  115.02    4.85
   1  -4   7  116.92    4.58
  -2   4  -7   19.86    1.15
   2  -4   7   19.17    1.06
  -3   4  -7   86.66    3.60
   3  -4   7   81.32    3.41
  -4   4  -7   42.24    1.95
   4  -4   7   41.07    1.88
  -5   4  -7    4.50    0.54
   5  -4   7    4.16    0.62
  -6   4  -7   30.52    1.51
   6  -4   7   29.66    1.67
   7  -4   7   36.88    1.98
  -8   4  -7    2.84    0.79
   8   3  -7    2.17    0.59
  -8  -3   7    1.28    0.70
   7   3  -7   -0.72    0.49
  -7  -3   7    0.24    0.67
   6   3  -7   12.76    0.91
  -6  -3   7   15.62    1.17
   5   3  -7  129.11    4.86
  -5  -3   7  128.33    5.17
   4   3  -7    0.51    0.33
   4   3  -7    0.69    0.42
  -4  -3   7    0.03    0.46
   3   3  -7    2.52    0.46
   3   3  -7    1.72    0.30
  -3  -3   7    2.45    0.45
   2   3  -7   59.64    2.22
   2   3  -7   55.77    2.58
  -2  -3   7   58.50    2.41
   1   3  -7    2.91    0.52
  -1  -3   7    3.00    0.31
  -1  -3   7    4.36    0.45
   0   3  -7  188.15    7.76
   0  -3   7  186.74    7.28
   0  -3   7  190.72    6.97
  -1   3  -7    4.45    0.58
   1  -3   7    4.94    0.39
   1  -3   7    4.12    0.44
  -2   3  -7   14.64    1.02
   2  -3   7   13.76    0.87
   2  -3   7   14.70    0.70
  -3   3  -7  216.97    8.82
   3  -3   7  208.68    8.34
   3  -3   7  220.35    7.96
  -4   3  -7    0.02    0.40
   4  -3   7    0.74    0.37
   4  -3   7    0.56    0.44
  -5   3  -7   32.20    1.57
   5  -3   7   30.64    1.65
   5  -3   7   33.75    1.54
   6  -3   7   -0.44    0.60
  -7   3  -7   -0.38    0.66
  -8   3  -7   44.27    2.19
   8   2  -7   14.54    1.02
  -8  -2   7   12.25    1.22
   7   2  -7    0.81    0.50
  -7  -2   7    1.03    0.68
   6   2  -7    0.86    0.44
  -6  -2   7    0.36    0.58
   5   2  -7   17.59    1.03
   5   2  -7   16.79    0.92
  -5  -2   7   16.36    1.11
   4   2  -7  100.22    3.80
   4   2  -7   99.82    4.24
  -4  -2   7  101.14    4.02
   3   2  -7  109.28    4.10
   3   2  -7  108.57    4.61
  -3  -2   7  110.22    4.31
   2   2  -7    0.24    0.25
   2   2  -7    0.30    0.43
  -2  -2   7    0.95    0.35
   1   2  -7   37.39    1.86
  -1  -2   7   39.35    1.56
  -1  -2   7   38.41    1.64
   0   2  -7   78.99    3.54
   0  -2   7   81.12    3.15
   0  -2   7   86.12    3.26
  -1   2  -7   27.83    1.42
   1  -2   7   25.96    1.18
   1  -2   7   24.09    1.12
  -2   2  -7   90.48    3.92
   2  -2   7   93.10    3.49
   2  -2   7   91.94    3.65
  -3   2  -7   10.96    0.86
   3  -2   7   10.14    0.78
   3  -2   7   10.96    0.73
  -4   2  -7   66.78    2.89
   4  -2   7   65.19    2.62
   4  -2   7   65.74    2.77
  -5   2  -7   83.44    3.48
   5  -2   7   81.70    3.39
   5  -2   7   78.22    3.20
   6  -2   7    0.27    0.49
   6  -2   7    0.22    0.58
  -7   2  -7    4.52    0.73
  -8   2  -7   10.70    0.99
   8   1  -7    0.31    0.53
  -8  -1   7   -0.02    0.66
   7   1  -7   62.95    2.66
  -7  -1   7   68.00    2.88
   6   1  -7    3.82    0.48
  -6  -1   7    4.24    0.67
   5   1  -7   -0.41    0.42
   5   1  -7    0.40    0.39
  -5  -1   7    0.38    0.47
   4   1  -7   33.72    1.77
   4   1  -7   37.69    1.53
  -4  -1   7   38.31    1.63
   3   1  -7   19.19    1.19
   3   1  -7   19.17    0.91
  -3  -1   7   19.65    0.96
   2   1  -7  304.41   12.51
  -2  -1   7  302.23   11.30
  -2  -1   7  314.67   11.73
   1   1  -7    1.82    0.50
  -1  -1   7    1.16    0.28
  -1  -1   7    1.51    0.32
   0   1  -7    0.62    0.45
   0  -1   7    1.99    0.38
   0  -1   7    0.74    0.27
  -1   1  -7  131.51    5.56
   1  -1   7  134.21    5.14
   1  -1   7  131.30    5.01
  -2   1  -7  150.57    6.14
   2  -1   7  145.01    5.54
   2  -1   7  146.75    5.72
  -3   1  -7   32.46    1.60
   3  -1   7   31.87    1.45
   3  -1   7   31.96    1.48
  -4   1  -7   12.08    0.83
   4  -1   7   10.22    0.89
   4  -1   7    9.58    0.79
  -5   1  -7    3.19    0.47
   5  -1   7    2.91    0.52
   5  -1   7    2.54    0.60
  -6   1  -7   37.37    1.72
   6  -1   7   33.75    1.66
  -7   1  -7   33.02    1.64
   7  -1   7   29.72    1.59
   8   0  -7    0.82    0.54
  -8   0   7    0.89    0.64
   7   0  -7   19.46    1.16
  -7   0   7   20.83    1.29
   6   0  -7   12.07    0.88
  -6   0   7   11.54    1.01
   5   0  -7   76.09    3.27
   5   0  -7   73.11    2.94
  -5   0   7   75.96    3.07
   4   0  -7   10.29    0.89
   4   0  -7   12.21    0.74
  -4   0   7   12.15    0.76
   3   0  -7    4.01    0.56
  -3   0   7    4.59    0.39
   2   0  -7  156.68    6.69
  -2   0   7  166.43    6.17
  -2   0   7  158.12    6.00
   1   0  -7    3.45    0.55
  -1   0   7    4.04    0.34
  -1   0   7    3.30    0.42
   0   0  -7  120.37    5.21
   0   0   7  125.80    4.77
   0   0   7  124.14    4.72
  -1   0  -7    1.60    0.53
   1   0   7    1.55    0.31
   1   0   7    1.74    0.47
  -2   0  -7    9.12    0.85
   2   0   7    8.03    0.74
   2   0   7    8.53    0.62
  -3   0  -7  128.25    5.18
   3   0   7  124.52    4.87
   3   0   7  118.16    4.73
  -4   0  -7   33.14    1.55
   4   0   7   32.07    1.53
   4   0   7   30.16    1.51
  -5   0  -7    8.15    0.74
  -5   0  -7    7.17    0.69
   5   0   7    7.30    0.73
  -6   0  -7    7.70    0.70
   6   0   7    7.35    0.75
  -7   0  -7    0.29    0.49
   7   0   7    1.38    0.60
   8  -1  -7   22.40    1.32
   7  -1  -7    7.75    0.73
  -7   1   7    8.07    0.88
   6  -1  -7   12.13    0.83
  -6   1   7   12.67    0.94
   5  -1  -7   28.36    1.37
   5  -1  -7   31.15    1.60
  -5   1   7   31.31    1.39
   4  -1  -7   31.40    1.36
   4  -1  -7   31.15    1.66
  -4   1   7   31.44    1.35
   3  -1  -7   38.77    2.02
  -3   1   7   42.92    1.69
  -3   1   7   42.45    1.74
   2  -1  -7    4.23    0.60
  -2   1   7    5.09    0.42
  -2   1   7    5.02    0.51
   1  -1  -7   32.17    1.69
  -1   1   7   30.03    1.42
  -1   1   7   31.66    1.28
   0  -1  -7  206.09    8.66
   0   1   7  208.98    7.86
   0   1   7  213.05    7.99
  -1  -1  -7    6.67    0.72
   1   1   7    5.25    0.62
   1   1   7    6.44    0.51
  -2  -1  -7    2.89    0.57
   2   1   7    3.58    0.59
   2   1   7    3.91    0.43
  -3  -1  -7    3.20    0.54
   3   1   7    2.80    0.58
   3   1   7    3.48    0.47
  -4  -1  -7    4.74    0.53
  -4  -1  -7    4.93    0.55
   4   1   7    4.80    0.67
  -5  -1  -7  131.92    5.34
  -5  -1  -7  126.49    5.07
   5   1   7  126.06    4.98
  -6  -1  -7    1.20    0.48
   6   1   7    0.44    0.62
  -7  -1  -7    0.41    0.49
   7   1   7    1.33    0.65
   8  -2  -7    1.05    0.55
   7  -2  -7   35.72    1.66
   6  -2  -7    4.61    0.57
   5  -2  -7    0.07    0.52
   4  -2  -7  104.07    4.55
  -4   2   7  107.93    4.10
   3  -2  -7   22.96    1.45
  -3   2   7   25.11    1.23
   2  -2  -7   59.80    2.86
  -2   2   7   63.16    2.51
   1  -2  -7   10.46    0.98
  -1   2   7   10.30    0.76
   0  -2  -7    2.48    0.58
   0   2   7    3.06    0.55
  -1  -2  -7   83.53    3.88
   1   2   7   94.30    3.51
   1   2   7   89.75    3.59
  -2  -2  -7  112.97    4.77
   2   2   7  110.67    4.40
  -3  -2  -7    4.77    0.60
  -3  -2  -7    6.32    0.51
   3   2   7    4.86    0.71
  -4  -2  -7    0.05    0.42
  -4  -2  -7    0.54    0.40
   4   2   7    0.35    0.58
  -5  -2  -7   30.48    1.44
   5   2   7   31.23    1.66
  -6  -2  -7    3.44    0.52
   6   2   7    2.87    0.72
  -7  -2  -7   51.40    2.30
   7   2   7   56.01    2.45
   6  -3  -7    0.16    0.57
  -6   3   7    0.03    0.51
   5  -3  -7   42.37    2.20
  -5   3   7   45.15    1.96
   4  -3  -7    0.62    0.57
  -4   3   7    0.98    0.45
   3  -3  -7    3.13    0.69
  -3   3   7    3.15    0.49
   2  -3  -7  111.66    4.81
  -2   3   7  109.33    4.27
   1  -3  -7   52.80    2.59
  -1   3   7   54.15    2.29
   0  -3  -7   29.07    1.66
   0   3   7   30.43    1.51
  -1  -3  -7    3.20    0.69
   1   3   7    4.20    0.67
  -2  -3  -7    0.32    0.54
   2   3   7    0.25    0.60
  -3  -3  -7   83.10    3.63
   3   3   7   83.74    3.41
  -4  -3  -7   24.72    1.34
   4   3   7   25.96    1.50
   5   3   7    1.12    0.73
   6   3   7    5.58    0.88
  -7   4   7   -1.04    0.60
   6  -4  -7    9.09    0.85
  -6   4   7    9.31    0.81
   5  -4  -7   46.85    2.30
  -5   4   7   45.03    2.05
   4  -4  -7    3.69    0.72
  -4   4   7    2.31    0.58
   3  -4  -7   20.36    1.44
  -3   4   7   20.37    1.14
   2  -4  -7    1.05    0.65
  -2   4   7    1.53    0.48
   1  -4  -7    7.86    0.93
  -1   4   7    8.64    0.77
   0  -4  -7  123.48    5.37
   0   4   7  126.42    4.88
  -1  -4  -7    8.84    0.91
   1   4   7    7.23    0.74
  -2  -4  -7    9.63    0.89
   2   4   7   12.12    0.98
  -3  -4  -7   34.44    1.80
   3   4   7   35.87    1.84
  -4  -4  -7    0.45    0.46
   4   4   7    0.79    0.69
   5   4   7   40.05    2.08
   6   4   7    4.44    0.86
  -7   5   7    7.74    0.85
   6  -5  -7    4.98    0.76
  -6   5   7    5.25    0.74
   5  -5  -7    1.66    0.69
  -5   5   7    2.50    0.57
   4  -5  -7   41.18    2.25
  -4   5   7   46.45    2.02
   3  -5  -7   41.78    2.24
  -3   5   7   42.02    1.94
   2  -5  -7    7.67    0.93
  -2   5   7    8.42    0.79
   1  -5  -7    3.46    0.81
  -1   5   7    2.93    0.55
   0  -5  -7   11.96    1.16
   0   5   7   13.28    1.07
  -1  -5  -7   29.77    1.75
   1   5   7   30.01    1.59
  -2  -5  -7  116.28    5.17
   2   5   7  126.00    4.79
  -3  -5  -7    2.96    0.62
   3   5   7    3.56    0.71
  -4  -5  -7    0.61    0.52
   4   5   7    0.28    0.75
   5   5   7   29.74    1.81
   6  -6  -7    1.85    0.67
  -6   6   7    1.22    0.64
   5  -6  -7   10.53    0.99
  -5   6   7   10.72    0.95
   4  -6  -7    1.80    0.73
  -4   6   7    2.09    0.60
   3  -6  -7    9.46    1.01
  -3   6   7    7.02    0.74
   2  -6  -7   88.10    3.91
  -2   6   7   80.65    3.41
   1  -6  -7   15.88    1.48
  -1   6   7   14.26    1.14
   0  -6  -7    0.64    0.76
   0   6   7    0.94    0.54
  -1  -6  -7    9.17    0.92
   1   6   7   10.25    0.93
  -2  -6  -7   12.86    1.18
   2   6   7   11.77    1.06
  -3  -6  -7   22.70    1.46
   3   6   7   23.22    1.50
   4   6   7   15.21    1.37
   5  -7  -7   28.24    1.77
  -5   7   7   32.06    1.66
   4  -7  -7    2.90    0.77
  -4   7   7    2.34    0.67
   3  -7  -7    7.08    0.90
  -3   7   7    7.08    0.76
   2  -7  -7   15.29    1.50
  -2   7   7   13.87    1.15
   1  -7  -7    0.32    0.81
  -1   7   7    0.21    0.55
   0  -7  -7   56.92    2.82
   0   7   7   55.01    2.47
  -1  -7  -7    3.97    0.78
   1   7   7    3.86    0.73
  -2  -7  -7    1.28    0.68
   2   7   7    0.71    0.66
  -3  -7  -7   19.85    1.33
   3   7   7   21.40    1.35
   4  -8  -7   29.39    1.87
  -4   8   7   32.32    1.64
   3  -8  -7    8.92    1.03
  -3   8   7   12.67    1.12
   2  -8  -7   -0.31    0.78
  -2   8   7    1.01    0.62
   1  -8  -7    1.02    0.84
  -1   8   7    0.23    0.61
   0  -8  -7   35.86    2.08
   0   8   7   32.64    1.73
  -1  -8  -7   10.87    1.07
   1   8   7   12.27    0.99
  -2  -8  -7    7.00    0.86
   2   8   7    6.75    0.84
   1  13  -8   21.37    1.50
  -1 -13   8   23.88    1.40
   0  13  -8   11.54    1.09
  -1  13  -8   -0.16    0.76
   1 -13   8    0.09    0.59
  -2  13  -8   14.38    1.43
   2 -13   8   13.03    1.11
  -3 -12   8    9.76    0.90
   2  12  -8    0.19    0.56
  -2 -12   8    0.65    0.58
   1  12  -8    3.72    0.71
  -1 -12   8    4.96    0.71
   0  12  -8    0.11    0.68
   0 -12   8    1.55    0.64
  -1  12  -8   31.37    1.89
   1 -12   8   31.58    1.66
  -2  12  -8    6.63    0.95
   2 -12   8    6.43    0.76
  -3  12  -8    0.18    0.73
   3 -12   8   -0.14    0.57
  -4  12  -8   21.53    1.52
   4 -12   8   21.15    1.43
  -4 -11   8    7.09    0.77
   3  11  -8   10.35    1.03
  -3 -11   8   13.53    1.11
   2  11  -8   27.02    1.60
  -2 -11   8   33.92    1.64
   1  11  -8    5.25    0.72
  -1 -11   8    5.01    0.65
   0  11  -8    2.02    0.63
   0 -11   8    2.73    0.65
  -1  11  -8   39.56    2.06
   1 -11   8   41.08    1.96
  -2  11  -8    0.73    0.71
   2 -11   8    0.32    0.62
  -3  11  -8   20.99    1.47
   3 -11   8   20.36    1.27
  -4  11  -8   -0.98    0.62
   4 -11   8    0.39    0.62
  -5  11  -8    1.43    0.62
   5 -11   8    1.01    0.72
  -5 -10   8   17.98    1.21
  -4 -10   8    1.17    0.59
   3  10  -8    7.34    0.72
  -3 -10   8    8.20    0.85
   2  10  -8   14.05    1.08
  -2 -10   8   14.33    1.03
   1  10  -8   39.86    2.04
  -1 -10   8   43.13    1.99
   0  10  -8   14.69    1.20
   0 -10   8   15.83    1.14
  -1  10  -8    0.90    0.65
   1 -10   8    0.91    0.52
  -2  10  -8   30.05    1.68
   2 -10   8   31.90    1.67
  -3  10  -8   35.73    1.84
   3 -10   8   36.10    1.85
  -4  10  -8    7.41    0.76
   4 -10   8    5.95    0.80
  -5  10  -8    0.12    0.51
   5 -10   8   -0.44    0.65
  -6  10  -8    5.44    0.65
   6 -10   8    6.85    0.94
  -6  -9   8    3.65    0.75
  -5  -9   8    0.77    0.62
  -4  -9   8   46.99    2.21
   3   9  -8    5.45    0.63
  -3  -9   8    6.36    0.77
   2   9  -8    0.36    0.50
  -2  -9   8    0.72    0.58
   1   9  -8   69.41    3.08
  -1  -9   8   70.19    2.95
   0   9  -8   24.13    1.45
   0  -9   8   25.54    1.40
  -1   9  -8   43.74    2.20
   1  -9   8   46.66    2.11
  -2   9  -8    2.27    0.56
   2  -9   8    3.81    0.62
  -3   9  -8   -0.28    0.49
   3  -9   8   -0.60    0.57
  -4   9  -8   52.14    2.39
   4  -9   8   51.45    2.37
  -5   9  -8    9.73    0.90
   5  -9   8   11.54    1.02
  -6   9  -8    0.15    0.47
   6  -9   8    0.68    0.74
  -6  -8   8    0.03    0.66
  -5  -8   8    4.23    0.72
  -4  -8   8   30.82    1.64
   3   8  -8   10.78    0.99
  -3  -8   8   13.64    1.09
   2   8  -8   40.04    1.94
  -2  -8   8   41.17    1.90
   1   8  -8   -0.09    0.50
  -1  -8   8    0.33    0.53
   0   8  -8   17.64    1.18
   0  -8   8   18.86    1.17
  -1   8  -8  120.80    5.10
   1  -8   8  121.76    4.88
  -2   8  -8    1.64    0.54
   2  -8   8    0.92    0.53
  -3   8  -8    9.59    0.92
   3  -8   8   10.45    0.88
  -4   8  -8    6.42    0.63
   4  -8   8    5.98    0.73
  -5   8  -8    0.27    0.45
   5  -8   8    0.19    0.67
  -6   8  -8   48.89    2.34
   6  -8   8   55.39    2.47
   7   7  -8    4.16    0.63
  -7  -7   8    3.30    0.79
   6   7  -8   23.18    1.24
  -6  -7   8   23.90    1.49
   5   7  -8   25.28    1.26
  -5  -7   8   24.62    1.42
   4   7  -8    0.26    0.39
   4   7  -8   -0.87    0.48
  -4  -7   8    0.31    0.58
   3   7  -8   47.07    2.23
  -3  -7   8   48.75    2.20
   2   7  -8   59.37    2.72
  -2  -7   8   63.14    2.66
   1   7  -8   22.33    1.28
  -1  -7   8   21.97    1.20
   0   7  -8    0.47    0.44
   0  -7   8    0.26    0.42
  -1   7  -8    0.49    0.51
   1  -7   8    0.48    0.49
  -2   7  -8   76.83    3.40
   2  -7   8   80.85    3.31
  -3   7  -8   89.32    3.88
   3  -7   8   93.50    3.76
  -4   7  -8    1.93    0.50
   4  -7   8    2.55    0.65
  -5   7  -8   -0.09    0.44
   5  -7   8    0.39    0.63
  -6   7  -8   12.48    0.93
   6  -7   8   15.15    1.19
   7  -7   8    1.57    0.71
   7   6  -8    1.60    0.55
  -7  -6   8    0.06    0.73
   6   6  -8   51.43    2.19
  -6  -6   8   54.11    2.50
   5   6  -8    0.15    0.41
  -5  -6   8    0.34    0.62
   4   6  -8   61.03    2.73
   4   6  -8   62.68    2.41
  -4  -6   8   60.14    2.68
   3   6  -8    3.37    0.56
   3   6  -8    3.30    0.34
  -3  -6   8    2.48    0.53
   2   6  -8    0.29    0.46
  -2  -6   8    0.13    0.45
   1   6  -8  135.30    5.51
  -1  -6   8  128.07    5.21
   0   6  -8   57.77    2.59
   0  -6   8   56.70    2.42
  -1   6  -8   18.86    1.11
   1  -6   8   18.17    1.05
  -2   6  -8   11.24    0.86
   2  -6   8   10.79    0.93
  -3   6  -8    6.24    0.64
   3  -6   8    6.36    0.68
  -4   6  -8   52.23    2.42
   4  -6   8   55.93    2.43
  -5   6  -8   49.12    2.28
   5  -6   8   51.66    2.35
  -6   6  -8   -0.04    0.46
   6  -6   8   -0.50    0.60
   7  -6   8    5.11    0.87
   7   5  -8   19.59    1.16
  -7  -5   8   19.71    1.43
   6   5  -8    1.53    0.50
  -6  -5   8    2.08    0.73
   5   5  -8   28.74    1.32
  -5  -5   8   29.44    1.61
   4   5  -8  105.31    3.85
   4   5  -8  102.08    4.31
  -4  -5   8   96.97    4.12
   3   5  -8    1.43    0.48
   3   5  -8    0.60    0.26
  -3  -5   8    0.09    0.43
   2   5  -8   22.14    1.28
   2   5  -8   22.46    0.93
  -2  -5   8   22.01    1.17
   1   5  -8    5.31    0.61
  -1  -5   8    5.79    0.59
   0   5  -8   14.69    1.03
   0  -5   8   13.08    0.91
  -1   5  -8  177.65    7.27
   1  -5   8  174.27    6.86
  -2   5  -8   25.19    1.40
   2  -5   8   25.97    1.28
  -3   5  -8    1.92    0.51
   3  -5   8    1.93    0.53
  -4   5  -8   25.76    1.42
   4  -5   8   28.21    1.46
  -5   5  -8    4.21    0.56
   5  -5   8    3.72    0.63
  -6   5  -8   44.61    2.16
   6  -5   8   49.49    2.30
   7  -5   8    4.13    0.75
   8   4  -8   14.71    1.02
  -8  -4   8   13.04    1.26
   7   4  -8   12.14    0.94
  -7  -4   8   12.80    1.21
   6   4  -8    7.00    0.62
  -6  -4   8    6.66    0.77
   5   4  -8   21.43    1.08
  -5  -4   8   21.01    1.33
   4   4  -8    2.69    0.37
   4   4  -8    3.13    0.52
  -4  -4   8    2.10    0.53
   3   4  -8   97.65    3.71
   3   4  -8  100.77    4.21
  -3  -4   8   98.32    3.96
   2   4  -8   74.18    3.37
   2   4  -8   83.16    2.93
  -2  -4   8   74.80    3.14
   1   4  -8    0.88    0.50
  -1  -4   8    0.53    0.35
  -1  -4   8    0.28    0.24
   0   4  -8    0.46    0.45
   0  -4   8    1.30    0.25
   0  -4   8    0.27    0.40
  -1   4  -8   43.22    2.04
   1  -4   8   43.50    1.88
  -2   4  -8   23.97    1.33
   2  -4   8   21.64    1.17
  -3   4  -8  101.72    4.30
   3  -4   8  100.17    4.06
  -4   4  -8    7.06    0.67
   4  -4   8    6.63    0.68
  -5   4  -8    3.79    0.56
   5  -4   8    3.30    0.60
   6  -4   8   42.79    2.04
   7  -4   8   -0.07    0.69
   8   3  -8   -0.07    0.52
  -8  -3   8    0.53    0.69
   7   3  -8    1.33    0.50
  -7  -3   8    0.12    0.63
   6   3  -8   61.97    2.50
  -6  -3   8   62.27    2.75
   5   3  -8   14.40    0.83
  -5  -3   8   13.25    1.06
   4   3  -8   10.15    0.85
   4   3  -8    9.54    0.62
  -4  -3   8    8.47    0.82
   3   3  -8    0.60    0.29
   3   3  -8    0.24    0.43
  -3  -3   8    0.63    0.40
   2   3  -8    8.36    0.83
  -2  -3   8    7.45    0.60
   1   3  -8  199.22    8.52
  -1  -3   8  207.89    7.98
  -1  -3   8  213.45    7.65
   0   3  -8  125.29    5.46
   0  -3   8  131.40    4.86
   0  -3   8  132.29    5.08
  -1   3  -8    9.11    0.85
   1  -3   8    9.38    0.71
   1  -3   8    9.89    0.58
  -2   3  -8    9.08    0.84
   2  -3   8    9.38    0.73
   2  -3   8   10.14    0.61
  -3   3  -8   69.24    3.00
   3  -3   8   65.97    2.78
  -4   3  -8   24.54    1.38
   4  -3   8   26.78    1.37
  -5   3  -8   42.81    1.95
   5  -3   8   39.27    1.96
   6  -3   8   -0.46    0.59
  -7   3  -8    4.44    0.77
   8   2  -8    2.68    0.59
  -8  -2   8    2.18    0.70
   7   2  -8   11.41    0.92
  -7  -2   8   13.12    1.15
   6   2  -8    2.21    0.47
  -6  -2   8    2.21    0.61
   5   2  -8    9.80    0.87
   5   2  -8   10.24    0.73
  -5  -2   8   11.00    0.90
   4   2  -8  110.53    4.61
   4   2  -8  106.47    4.10
  -4  -2   8  109.46    4.32
   3   2  -8   17.81    0.85
   3   2  -8   18.56    1.15
  -3  -2   8   17.28    0.94
   2   2  -8    6.69    0.68
  -2  -2   8    7.72    0.55
  -2  -2   8    6.57    0.64
   1   2  -8   36.41    1.87
  -1  -2   8   38.41    1.61
  -1  -2   8   38.13    1.57
   0   2  -8    1.33    0.53
   0  -2   8    2.07    0.39
   0  -2   8    1.36    0.35
  -1   2  -8  131.35    5.60
   1  -2   8  130.66    5.00
   1  -2   8  136.61    5.18
  -2   2  -8   41.56    2.03
   2  -2   8   42.42    1.76
   2  -2   8   44.65    1.85
  -3   2  -8    3.35    0.55
   3  -2   8    3.29    0.45
   3  -2   8    4.76    0.50
  -4   2  -8   93.64    3.99
   4  -2   8   91.60    3.62
   4  -2   8   94.81    3.79
  -5   2  -8   22.60    1.27
   5  -2   8   25.22    1.36
   6  -2   8   21.14    1.35
  -7   2  -8    4.20    0.72
   8   1  -8   11.55    0.98
  -8  -1   8   11.90    0.98
   7   1  -8   34.96    1.63
  -7  -1   8   35.68    1.78
   6   1  -8    1.54    0.49
  -6  -1   8    2.00    0.58
   5   1  -8    4.08    0.49
   5   1  -8    3.34    0.58
  -5  -1   8    4.58    0.56
   4   1  -8   24.00    1.39
   4   1  -8   23.95    1.12
  -4  -1   8   25.56    1.17
   3   1  -8   31.28    1.62
  -3  -1   8   28.82    1.33
  -3  -1   8   32.42    1.37
   2   1  -8  163.27    7.00
  -2  -1   8  174.52    6.50
  -2  -1   8  167.62    6.29
   1   1  -8   15.47    1.11
  -1  -1   8   14.23    0.78
  -1  -1   8   15.22    0.86
   0   1  -8    1.08    0.47
   0  -1   8    2.09    0.42
   0  -1   8    1.24    0.32
  -1   1  -8   75.63    3.31
   1  -1   8   72.73    2.95
   1  -1   8   75.54    2.97
  -2   1  -8    8.55    0.87
   2  -1   8    7.13    0.62
   2  -1   8    7.47    0.61
  -3   1  -8   53.81    2.35
   3  -1   8   47.63    2.11
   3  -1   8   51.43    2.17
  -4   1  -8   -0.02    0.43
   4  -1   8   -0.29    0.45
   4  -1   8   -0.41    0.47
  -5   1  -8    0.38    0.42
   5  -1   8   -0.58    0.50
   5  -1   8    1.46    0.53
  -6   1  -8   87.70    3.64
  -7   1  -8    1.76    0.56
   8   0  -8   -0.20    0.54
   7   0  -8   -0.27    0.52
  -7   0   8    0.18    0.56
   6   0  -8   49.18    2.12
  -6   0   8   52.59    2.22
   5   0  -8   25.90    1.23
   5   0  -8   26.24    1.44
  -5   0   8   26.69    1.27
   4   0  -8    8.51    0.65
   4   0  -8    6.68    0.72
  -4   0   8    7.84    0.60
   3   0  -8   10.78    0.92
  -3   0   8   12.47    0.80
  -3   0   8   12.45    0.69
   2   0  -8   81.76    3.70
  -2   0   8   83.55    3.27
  -2   0   8   87.24    3.31
   1   0  -8  114.81    4.82
  -1   0   8  115.60    4.37
  -1   0   8  107.12    4.30
   0   0  -8   90.69    3.97
   0   0   8   90.02    3.59
   0   0   8   93.58    3.58
  -1   0  -8    2.40    0.53
   1   0   8    2.40    0.50
   1   0   8    2.24    0.35
  -2   0  -8   42.05    2.05
   2   0   8   43.56    1.81
   2   0   8   42.41    1.86
  -3   0  -8  102.64    4.27
   3   0   8   95.30    3.91
   3   0   8  102.87    4.00
  -4   0  -8    7.21    0.66
   4   0   8    6.34    0.72
   4   0   8    7.82    0.68
  -5   0  -8   12.65    0.94
  -5   0  -8   13.15    0.88
   5   0   8   11.67    0.92
  -6   0  -8    1.76    0.54
   6   0   8    1.06    0.62
  -7   0  -8    6.36    0.69
   8  -1  -8    1.82    0.57
   7  -1  -8    5.19    0.62
   6  -1  -8   12.63    0.89
   5  -1  -8    0.31    0.53
   4  -1  -8   88.29    3.94
  -4   1   8   92.28    3.53
   3  -1  -8   18.16    1.25
  -3   1   8   17.51    1.00
   2  -1  -8   -0.10    0.49
  -2   1   8    0.50    0.41
   1  -1  -8   76.36    3.39
  -1   1   8   73.82    2.99
   0  -1  -8   29.49    1.65
   0   1   8   28.56    1.24
   0   1   8   30.23    1.44
  -1  -1  -8   89.49    3.90
   1   1   8   87.27    3.54
   1   1   8   90.05    3.49
  -2  -1  -8    8.63    0.78
   2   1   8    8.23    0.76
   2   1   8    7.85    0.65
  -3  -1  -8    1.05    0.50
   3   1   8    1.01    0.42
   3   1   8    1.09    0.55
  -4  -1  -8   60.23    2.67
  -4  -1  -8   61.90    2.51
   4   1   8   58.25    2.56
  -5  -1  -8   19.31    1.05
   5   1   8   15.59    1.20
  -6  -1  -8    0.72    0.49
   6   1   8    0.09    0.63
   7  -2  -8   56.64    2.37
  -6   2   8    1.12    0.58
   5  -2  -8   -0.04    0.57
  -5   2   8    1.04    0.54
   4  -2  -8   32.05    1.82
  -4   2   8   36.13    1.61
   3  -2  -8    2.21    0.60
  -3   2   8    2.37    0.51
   2  -2  -8   60.69    2.78
  -2   2   8   57.71    2.44
   1  -2  -8    0.04    0.61
  -1   2   8    0.34    0.48
   0  -2  -8   18.87    1.38
   0   2   8   20.38    1.19
  -1  -2  -8  113.42    4.88
   1   2   8  112.82    4.44
  -2  -2  -8    2.16    0.53
   2   2   8    3.84    0.65
  -3  -2  -8   12.05    0.98
   3   2   8   11.97    1.10
  -4  -2  -8    0.31    0.47
   4   2   8    0.17    0.63
   5   2   8    2.80    0.74
   6   2   8   40.37    2.00
  -7   3   8    1.38    0.66
  -6   3   8   19.92    1.19
   5  -3  -8   36.73    2.00
  -5   3   8   39.71    1.81
   4  -3  -8    3.45    0.72
  -4   3   8    3.73    0.59
   3  -3  -8   40.06    2.08
  -3   3   8   37.61    1.73
   2  -3  -8   32.28    1.79
  -2   3   8   31.83    1.52
   1  -3  -8   27.00    1.65
  -1   3   8   24.11    1.36
   0  -3  -8   17.70    1.36
   0   3   8   14.41    1.10
  -1  -3  -8    7.59    0.84
   1   3   8    8.64    0.80
  -2  -3  -8   41.66    2.10
   2   3   8   41.89    1.99
  -3  -3  -8   60.12    2.84
   3   3   8   66.04    2.75
  -4  -3  -8    0.32    0.48
   4   3   8    1.07    0.70
   5   3   8    0.72    0.72
   6  -4  -8   18.60    1.39
  -6   4   8   18.76    1.18
   5  -4  -8    1.00    0.66
  -5   4   8    1.50    0.61
   4  -4  -8   29.87    1.76
  -4   4   8   28.19    1.45
   3  -4  -8    2.77    0.72
  -3   4   8    2.77    0.58
   2  -4  -8    0.12    0.69
  -2   4   8    0.36    0.52
   1  -4  -8   59.77    2.86
  -1   4   8   56.33    2.45
   0  -4  -8   30.66    1.73
   0   4   8   28.31    1.48
  -1  -4  -8    3.78    0.70
   1   4   8    4.12    0.71
  -2  -4  -8   -0.10    0.59
   2   4   8    0.00    0.55
  -3  -4  -8    0.19    0.54
   3   4   8    0.47    0.69
  -4  -4  -8   38.94    1.98
   4   4   8   45.48    2.10
   5   4   8   16.04    1.26
   6  -5  -8    0.93    0.65
  -6   5   8   -0.40    0.60
   5  -5  -8    6.26    0.85
  -5   5   8    5.51    0.70
   4  -5  -8   28.82    1.81
  -4   5   8   30.48    1.58
   3  -5  -8    0.89    0.76
  -3   5   8    0.09    0.52
   2  -5  -8   24.09    1.69
  -2   5   8   23.14    1.38
   1  -5  -8    1.10    0.76
  -1   5   8    0.83    0.57
   0  -5  -8    8.70    1.00
   0   5   8    7.08    0.73
  -1  -5  -8   23.92    1.55
   1   5   8   27.47    1.46
  -2  -5  -8   13.33    1.21
   2   5   8   16.35    1.23
  -3  -5  -8    1.83    0.60
   3   5   8    1.06    0.68
   4   5   8   14.09    1.29
   5  -6  -8    2.45    0.75
  -5   6   8    2.20    0.67
   4  -6  -8   -0.12    0.68
  -4   6   8    0.22    0.63
   3  -6  -8   29.56    1.87
  -3   6   8   28.81    1.61
   2  -6  -8   32.84    2.02
  -2   6   8   30.20    1.66
   1  -6  -8    1.50    0.87
  -1   6   8    1.33    0.62
   0  -6  -8    0.55    0.77
   0   6   8    0.84    0.59
  -1  -6  -8   12.63    1.13
   1   6   8   12.65    1.12
  -2  -6  -8   15.78    1.33
   2   6   8   18.33    1.20
  -3  -6  -8   29.70    1.69
   3   6   8   31.06    1.72
   4  -7  -8    2.30    0.77
  -4   7   8    3.88    0.75
   3  -7  -8    0.51    0.80
  -3   7   8    0.57    0.65
   2  -7  -8   -0.20    0.85
  -2   7   8   -0.49    0.61
   1  -7  -8   23.74    1.68
  -1   7   8   24.48    1.45
   0  -7  -8   18.98    1.62
   0   7   8   19.75    1.30
  -1  -7  -8    2.77    0.82
   1   7   8    3.54    0.64
  -2  -7  -8    4.36    0.79
   2   7   8    6.08    0.82
  -1 -13   9   37.57    1.91
   0  13  -9   -0.35    0.70
   0 -13   9    0.26    0.61
  -1  13  -9    0.07    0.78
   1 -13   9    0.16    0.59
  -3 -12   9    1.40    0.64
   2  12  -9    0.28    0.60
  -2 -12   9    0.18    0.61
   1  12  -9    5.17    0.79
  -1 -12   9    6.88    0.80
   0  12  -9   37.64    2.04
  -1  12  -9   18.34    1.51
   1 -12   9   21.33    1.34
  -2  12  -9   -0.11    0.72
   2 -12   9    0.37    0.63
  -3  12  -9    2.91    0.80
   3 -12   9    3.36    0.71
  -4 -11   9    3.85    0.77
  -3 -11   9   43.18    2.08
   2  11  -9    8.59    0.84
  -2 -11   9    9.85    0.88
   1  11  -9    0.63    0.62
  -1 -11   9    1.25    0.63
   0  11  -9   13.98    1.27
   0 -11   9   15.85    1.19
  -1  11  -9    1.59    0.71
   1 -11   9    1.83    0.62
  -2  11  -9   19.27    1.49
   2 -11   9   22.59    1.39
  -3  11  -9   17.60    1.29
   3 -11   9   19.92    1.32
  -4  11  -9   -0.40    0.58
   4 -11   9   -0.08    0.68
  -5 -10   9    2.17    0.72
  -4 -10   9    0.51    0.64
   3  10  -9    7.32    0.75
  -3 -10   9    8.69    0.85
   2  10  -9    2.86    0.61
  -2 -10   9    3.95    0.63
   1  10  -9   52.29    2.61
  -1 -10   9   61.53    2.56
   0  10  -9    3.82    0.69
   0 -10   9    3.52    0.69
  -1  10  -9    1.26    0.65
   1 -10   9    1.21    0.54
  -2  10  -9   45.96    2.27
   2 -10   9   45.54    2.13
  -3  10  -9   -0.06    0.60
   3 -10   9    0.26    0.61
  -4  10  -9   16.00    1.18
   4 -10   9   16.69    1.28
  -5  10  -9    6.75    0.68
   5 -10   9    7.91    0.93
  -6  -9   9    0.77    0.69
  -5  -9   9   28.20    1.61
  -4  -9   9   31.67    1.73
   3   9  -9   -0.10    0.51
  -3  -9   9    0.41    0.56
   2   9  -9    3.68    0.62
  -2  -9   9    4.52    0.69
   1   9  -9   11.38    1.03
  -1  -9   9   13.65    0.98
   0   9  -9   11.86    1.08
   0  -9   9   13.31    1.07
  -1   9  -9   37.91    1.86
   1  -9   9   36.66    1.83
  -2   9  -9    0.91    0.55
   2  -9   9    1.91    0.64
  -3   9  -9   17.44    1.13
   3  -9   9   17.58    1.17
  -4   9  -9   46.24    2.24
   4  -9   9   50.78    2.31
  -5   9  -9    0.04    0.49
   5  -9   9    0.33    0.67
  -6   9  -9    6.93    0.69
   6  -9   9    7.68    0.98
  -6  -8   9    2.58    0.73
  -5  -8   9   10.84    0.97
  -4  -8   9    2.45    0.61
   3   8  -9   72.85    3.21
  -3  -8   9   71.89    3.07
   2   8  -9   16.55    1.16
  -2  -8   9   18.09    1.18
   1   8  -9    0.12    0.51
  -1  -8   9    0.79    0.48
   0   8  -9   18.65    1.19
   0  -8   9   21.81    1.25
  -1   8  -9   60.19    2.78
   1  -8   9   62.82    2.68
  -2   8  -9   21.24    1.30
   2  -8   9   22.12    1.33
  -3   8  -9   15.85    1.10
   3  -8   9   14.10    1.06
  -4   8  -9    0.73    0.50
   4  -8   9    0.90    0.65
  -5   8  -9   22.47    1.30
   5  -8   9   23.12    1.50
  -6   8  -9   20.58    1.29
   6  -8   9   25.43    1.59
  -7  -7   9    4.93    0.81
  -6  -7   9   39.46    2.04
  -5  -7   9    2.74    0.67
   4   7  -9   -0.35    0.53
  -4  -7   9    0.20    0.52
   3   7  -9   52.46    2.43
  -3  -7   9   51.10    2.35
   2   7  -9    0.03    0.50
  -2  -7   9    0.80    0.55
   1   7  -9   91.86    3.81
  -1  -7   9   83.55    3.58
   0   7  -9    0.95    0.49
   0  -7   9    0.65    0.47
  -1   7  -9    0.38    0.51
   1  -7   9   -0.14    0.45
  -2   7  -9   69.60    3.18
   2  -7   9   74.76    3.03
  -3   7  -9   30.50    1.62
   3  -7   9   31.71    1.61
  -4   7  -9   11.50    0.95
   4  -7   9   11.37    0.95
  -5   7  -9    2.05    0.53
   5  -7   9    2.03    0.68
  -6   7  -9    0.00    0.46
   6  -7   9   -0.18    0.63
   7   6  -9    1.74    0.55
  -7  -6   9    1.25    0.71
   6   6  -9    4.75    0.58
  -6  -6   9    4.61    0.80
   5   6  -9    4.54    0.50
  -5  -6   9    3.05    0.70
   4   6  -9   61.77    2.74
  -4  -6   9   59.35    2.66
   3   6  -9   -0.21    0.51
  -3  -6   9    0.03    0.48
   2   6  -9   26.76    1.43
  -2  -6   9   23.98    1.36
   1   6  -9   79.59    3.47
  -1  -6   9   79.96    3.27
   0   6  -9    3.44    0.56
   0  -6   9    4.32    0.53
  -1   6  -9   30.01    1.60
   1  -6   9   30.19    1.49
  -2   6  -9    3.30    0.60
   2  -6   9    2.86    0.55
  -3   6  -9   18.61    1.22
   3  -6   9   21.07    1.22
  -4   6  -9   82.89    3.63
   4  -6   9   85.17    3.52
  -5   6  -9   -0.28    0.49
   5  -6   9    0.52    0.63
  -6   6  -9   -0.62    0.48
   6  -6   9    0.14    0.60
   7   5  -9    8.92    0.74
  -7  -5   9   10.43    0.99
   6   5  -9    2.60    0.50
  -6  -5   9    1.90    0.66
   5   5  -9   37.11    1.59
  -5  -5   9   36.97    1.86
   4   5  -9   14.14    0.77
   4   5  -9   14.70    1.05
  -4  -5   9   13.15    0.97
   3   5  -9   40.39    1.92
   3   5  -9   39.71    1.54
  -3  -5   9   34.62    1.74
   2   5  -9   32.63    1.66
  -2  -5   9   30.57    1.52
   1   5  -9    5.37    0.67
  -1  -5   9    3.47    0.49
   0   5  -9   92.08    3.96
   0  -5   9   90.90    3.68
  -1   5  -9   73.32    3.22
   1  -5   9   71.78    2.99
  -2   5  -9    3.88    0.63
   2  -5   9    3.18    0.48
  -3   5  -9    0.93    0.55
   3  -5   9    1.06    0.50
  -4   5  -9   18.95    1.17
   4  -5   9   18.10    1.18
  -5   5  -9   23.67    1.38
   5  -5   9   27.61    1.48
  -6   5  -9   33.82    1.74
   6  -5   9   35.81    1.87
   7  -5   9    0.49    0.69
   7   4  -9    0.17    0.48
  -7  -4   9    0.38    0.70
   6   4  -9   52.90    2.16
  -6  -4   9   52.06    2.43
   5   4  -9    0.13    0.37
  -5  -4   9    0.05    0.51
   4   4  -9    3.26    0.55
   4   4  -9    2.82    0.39
  -4  -4   9    3.07    0.55
   3   4  -9  107.23    3.95
   3   4  -9  105.41    4.49
  -3  -4   9  102.64    4.20
   2   4  -9   25.13    1.43
  -2  -4   9   25.99    1.27
  -2  -4   9   24.66    1.09
   1   4  -9   53.40    2.58
  -1  -4   9   59.31    2.23
  -1  -4   9   54.93    2.35
   0   4  -9    4.75    0.65
   0  -4   9    4.17    0.52
  -1   4  -9   11.85    0.95
   1  -4   9   10.36    0.74
  -2   4  -9   94.67    4.10
   2  -4   9   96.06    3.83
  -3   4  -9   26.71    1.52
   3  -4   9   28.29    1.40
  -4   4  -9    3.61    0.60
   4  -4   9    2.83    0.57
  -5   4  -9   10.27    0.93
   5  -4   9   12.87    1.05
   6  -4   9    8.20    0.86
   7  -4   9   18.79    1.40
   7   3  -9    2.40    0.52
  -7  -3   9    2.31    0.74
   6   3  -9   34.64    1.54
  -6  -3   9   34.95    1.77
   5   3  -9    8.71    0.68
  -5  -3   9    8.41    0.75
   4   3  -9   26.15    1.16
   4   3  -9   27.73    1.41
  -4  -3   9   25.01    1.31
   3   3  -9    0.35    0.45
   3   3  -9    0.55    0.31
  -3  -3   9    0.42    0.42
   2   3  -9   24.36    1.33
  -2  -3   9   23.23    1.16
  -2  -3   9   23.61    1.07
   1   3  -9  104.89    4.61
  -1  -3   9  107.57    4.24
  -1  -3   9  110.06    4.08
   0   3  -9    5.51    0.70
   0  -3   9    6.49    0.62
   0  -3   9    6.79    0.61
  -1   3  -9    2.69    0.60
   1  -3   9    2.05    0.42
  -2   3  -9   37.91    1.92
   2  -3   9   38.40    1.70
  -3   3  -9   33.72    1.71
   3  -3   9   34.09    1.55
  -4   3  -9   32.95    1.69
   4  -3   9   33.14    1.57
  -5   3  -9    7.29    0.69
   5  -3   9    7.51    0.79
   6  -3   9   -0.24    0.58
  -7   3  -9   35.63    1.86
   7   2  -9    3.53    0.58
  -7  -2   9    2.23    0.68
   6   2  -9   -0.11    0.44
  -6  -2   9    1.10    0.56
   5   2  -9   51.08    2.08
   5   2  -9   52.41    2.40
  -5  -2   9   50.76    2.21
   4   2  -9   34.29    1.67
   4   2  -9   32.88    1.39
  -4  -2   9   31.37    1.50
   3   2  -9   15.83    1.09
  -3  -2   9   16.15    0.92
  -3  -2   9   16.57    0.88
   2   2  -9    1.91    0.55
  -2  -2   9    1.04    0.36
  -2  -2   9    2.14    0.38
   1   2  -9    2.52    0.59
  -1  -2   9    1.70    0.37
   0   2  -9   70.79    3.18
   0  -2   9   71.67    2.81
   0  -2   9   69.75    2.84
  -1   2  -9  135.59    5.82
   1  -2   9  137.44    5.21
   1  -2   9  141.08    5.38
  -2   2  -9    0.84    0.48
   2  -2   9    1.88    0.41
   2  -2   9    1.59    0.41
  -3   2  -9    4.41    0.62
   3  -2   9    3.65    0.50
  -4   2  -9   22.24    1.28
   4  -2   9   21.94    1.25
  -5   2  -9    5.13    0.60
   5  -2   9    5.05    0.66
   6  -2   9   17.69    1.24
  -7   2  -9    0.30    0.61
   7   1  -9   -0.38    0.49
  -7  -1   9   -0.33    0.59
   6   1  -9   12.88    0.89
  -6  -1   9   14.12    0.96
   5   1  -9    1.29    0.40
   5   1  -9    0.59    0.53
  -5  -1   9    0.77    0.41
   4   1  -9    0.23    0.50
  -4  -1   9    0.37    0.40
  -4  -1   9    0.38    0.35
   3   1  -9  122.93    5.04
  -3  -1   9  118.32    4.61
  -3  -1   9  113.55    4.47
   2   1  -9    2.22    0.55
  -2  -1   9    2.75    0.37
  -2  -1   9    2.66    0.42
   1   1  -9    0.31    0.49
  -1  -1   9    0.24    0.38
  -1  -1   9    0.60    0.32
   0   1  -9   23.11    1.41
   0  -1   9   22.75    1.17
   0  -1   9   22.81    1.08
  -1   1  -9    7.28    0.77
   1  -1   9    8.30    0.60
   1  -1   9    8.94    0.68
  -2   1  -9   66.79    3.09
   2  -1   9   72.40    2.82
   2  -1   9   68.61    2.77
  -3   1  -9   42.45    2.03
   3  -1   9   41.80    1.87
   3  -1   9   41.94    1.84
  -4   1  -9    0.00    0.46
   4  -1   9    0.08    0.50
   4  -1   9    0.24    0.47
  -5   1  -9   26.00    1.41
   5  -1   9   26.12    1.46
  -6   1  -9   12.45    1.05
   7   0  -9    7.36    0.66
   6   0  -9   37.41    1.65
   5   0  -9    0.58    0.55
  -5   0   9    0.37    0.48
   4   0  -9    3.74    0.65
  -4   0   9    4.13    0.52
   3   0  -9    1.43    0.58
  -3   0   9    1.44    0.43
   2   0  -9    6.87    0.77
  -2   0   9    8.76    0.57
  -2   0   9    7.51    0.71
   1   0  -9  111.86    4.74
  -1   0   9  109.21    4.25
  -1   0   9  107.53    4.23
   0   0  -9    3.02    0.60
   0   0   9    3.38    0.36
   0   0   9    3.50    0.55
  -1   0  -9    8.69    0.84
   1   0   9    9.12    0.63
   1   0   9    9.49    0.83
  -2   0  -9   33.03    1.72
   2   0   9   33.45    1.46
   2   0   9   30.16    1.55
  -3   0  -9    0.44    0.47
   3   0   9    0.47    0.51
   3   0   9    0.30    0.44
  -4   0  -9   43.06    2.04
   4   0   9   44.65    1.95
   4   0   9   42.01    1.94
  -5   0  -9    0.16    0.44
  -5   0  -9    0.54    0.49
   5   0   9    0.41    0.58
  -6   0  -9    0.15    0.50
   7  -1  -9    1.48    0.45
  -6   1   9   -0.85    0.53
   5  -1  -9   33.74    1.83
  -5   1   9   35.35    1.61
   4  -1  -9   29.29    1.66
  -4   1   9   29.23    1.38
   3  -1  -9    0.94    0.60
  -3   1   9    1.12    0.46
   2  -1  -9    3.44    0.65
  -2   1   9    3.76    0.54
   1  -1  -9   36.39    1.91
  -1   1   9   34.15    1.62
   0  -1  -9   27.38    1.57
   0   1   9   23.90    1.34
  -1  -1  -9   60.27    2.86
   1   1   9   63.39    2.61
  -2  -1  -9    0.18    0.46
   2   1   9    0.45    0.53
  -3  -1  -9    9.71    0.92
   3   1   9   10.50    0.97
  -4  -1  -9   84.33    3.63
   4   1   9   84.13    3.43
   5   1   9    3.38    0.72
  -7   2   9    2.55    0.65
  -6   2   9    1.13    0.51
   5  -2  -9   10.06    0.94
  -5   2   9   10.29    0.95
   4  -2  -9    0.16    0.63
  -4   2   9   -0.06    0.48
   3  -2  -9   71.27    3.18
  -3   2   9   65.22    2.77
   2  -2  -9   27.58    1.60
  -2   2   9   26.42    1.39
   1  -2  -9    2.83    0.72
  -1   2   9    2.78    0.58
   0  -2  -9   33.48    1.81
   0   2   9   28.81    1.55
  -1  -2  -9   21.07    1.35
   1   2   9   21.89    1.28
  -2  -2  -9   25.39    1.51
   2   2   9   25.66    1.43
  -3  -2  -9   10.46    0.98
   3   2   9   10.37    0.90
  -4  -2  -9    3.34    0.57
   4   2   9    4.65    0.76
   5   2   9   21.77    1.42
  -6   3   9   34.69    1.73
   5  -3  -9    0.85    0.67
  -5   3   9    0.38    0.50
   4  -3  -9    0.46    0.66
  -4   3   9    0.60    0.54
   3  -3  -9   16.13    1.36
  -3   3   9   15.69    1.09
   2  -3  -9    1.70    0.76
  -2   3   9    2.38    0.55
   1  -3  -9   83.36    3.70
  -1   3   9   77.59    3.26
   0  -3  -9    0.57    0.69
   0   3   9    0.74    0.56
  -1  -3  -9    4.35    0.76
   1   3   9    2.80    0.66
  -2  -3  -9   57.04    2.70
   2   3   9   57.92    2.53
  -3  -3  -9    8.39    0.80
   3   3   9    8.18    0.84
  -4  -3  -9   11.51    0.99
   4   3   9   13.08    1.05
   5   3   9    1.37    0.74
  -6   4   9    5.91    0.79
   5  -4  -9   16.83    1.37
  -5   4   9   16.83    1.19
   4  -4  -9   24.22    1.63
  -4   4   9   23.53    1.38
   3  -4  -9   -0.17    0.69
  -3   4   9   -0.02    0.55
   2  -4  -9   14.82    1.42
  -2   4   9   15.66    1.14
   1  -4  -9   40.56    2.13
  -1   4   9   37.39    1.85
   0  -4  -9    7.42    0.95
   0   4   9    6.85    0.76
  -1  -4  -9   44.08    2.28
   1   4   9   43.72    2.03
  -2  -4  -9   22.59    1.49
   2   4   9   24.47    1.45
  -3  -4  -9    6.82    0.76
   3   4   9    8.30    0.86
  -4  -4  -9   41.78    2.10
   4   4   9   47.38    2.17
   5  -5  -9   10.63    1.04
  -5   5   9    8.33    0.85
   4  -5  -9   10.14    1.03
  -4   5   9   12.09    1.10
   3  -5  -9   32.52    1.99
  -3   5   9   32.15    1.70
   2  -5  -9    1.88    0.81
  -2   5   9    1.45    0.64
   1  -5  -9    0.01    0.68
  -1   5   9   -0.39    0.58
   0  -5  -9   27.80    1.74
   0   5   9   28.85    1.56
  -1  -5  -9   43.41    2.23
   1   5   9   39.47    1.96
  -2  -5  -9   13.48    1.22
   2   5   9   12.53    1.14
  -3  -5  -9    0.68    0.58
   3   5   9    1.12    0.66
   4  -6  -9    2.88    0.82
  -4   6   9    1.91    0.63
   3  -6  -9   44.55    2.41
  -3   6   9   41.47    2.00
   2  -6  -9    1.00    0.90
  -2   6   9    1.10    0.62
   1  -6  -9   16.59    1.61
  -1   6   9   16.47    1.22
   0  -6  -9    0.00    0.69
   0   6   9    0.74    0.63
  -1  -6  -9   -0.22    0.71
   1   6   9    0.17    0.62
  -2  -6  -9   21.34    1.55
   2   6   9   20.77    1.39
   2  12 -10   -0.10    0.57
  -2 -12  10    0.91    0.65
   1  12 -10   -0.34    0.63
  -1 -12  10    0.44    0.62
   0  12 -10   42.46    2.20
  -1  12 -10    5.06    0.86
   1 -12  10    3.84    0.66
  -2  12 -10    1.50    0.77
   2 -12  10    1.66    0.68
  -3 -11  10   19.43    1.36
   2  11 -10   -0.04    0.58
  -2 -11  10    0.31    0.55
   1  11 -10    0.07    0.59
  -1 -11  10    1.71    0.66
   0  11 -10    5.69    0.81
   0 -11  10    6.08    0.79
  -1  11 -10   13.79    1.28
   1 -11  10   15.09    1.18
  -2  11 -10   26.07    1.72
   2 -11  10   31.63    1.64
  -3  11 -10    0.93    0.59
   3 -11  10    0.79    0.59
  -4  11 -10    1.65    0.63
   4 -11  10    2.09    0.66
  -4 -10  10    0.41    0.67
   3  10 -10   -0.24    0.56
  -3 -10  10    0.24    0.62
   2  10 -10   49.41    2.41
  -2 -10  10   52.44    2.32
   1  10 -10   17.78    1.26
   0  10 -10    1.43    0.62
   0 -10  10    1.99    0.65
  -1  10 -10    2.61    0.60
   1 -10  10    1.77    0.64
  -2  10 -10    4.41    0.66
   2 -10  10    6.74    0.78
  -3  10 -10   15.98    1.21
   3 -10  10   14.72    1.23
  -4  10 -10    6.00    0.73
   4 -10  10    5.13    0.81
  -5  -9  10   37.74    1.98
  -4  -9  10    1.51    0.70
   3   9 -10    0.09    0.56
  -3  -9  10    1.64    0.63
   2   9 -10    5.80    0.74
  -2  -9  10    7.31    0.80
   1   9 -10    0.57    0.56
  -1  -9  10    0.62    0.56
   0   9 -10   65.11    3.00
   0  -9  10   68.81    2.89
  -1   9 -10    9.01    0.86
   1  -9  10    9.04    0.83
  -2   9 -10    0.28    0.58
   2  -9  10    0.11    0.60
  -3   9 -10   24.27    1.47
   3  -9  10   26.57    1.50
  -4   9 -10    3.22    0.60
   4  -9  10    2.01    0.71
  -5   9 -10    7.04    0.72
   5  -9  10    8.91    0.94
  -6  -8  10    0.82    0.72
  -5  -8  10    0.19    0.67
  -4  -8  10   14.67    1.23
   3   8 -10   45.63    2.26
  -3  -8  10   48.72    2.22
   2   8 -10   -0.69    0.53
  -2  -8  10   -0.47    0.55
   1   8 -10   13.63    1.09
  -1  -8  10   13.37    0.98
   0   8 -10    5.09    0.68
   0  -8  10    5.59    0.71
  -1   8 -10    5.39    0.70
   1  -8  10    7.48    0.74
  -2   8 -10   33.36    1.80
   2  -8  10   36.06    1.74
  -3   8 -10    0.54    0.48
   3  -8  10    1.55    0.62
  -4   8 -10    4.31    0.61
   4  -8  10    6.24    0.79
  -5   8 -10   35.64    1.83
   5  -8  10   39.49    1.94
  -6  -7  10    5.64    0.82
  -5  -7  10    1.92    0.67
   4   7 -10    3.13    0.67
  -4  -7  10    4.08    0.74
   3   7 -10    9.46    0.84
  -3  -7  10    7.70    0.75
   2   7 -10   47.84    2.27
  -2  -7  10   45.79    2.14
   1   7 -10   25.40    1.49
  -1  -7  10   27.24    1.42
   0   7 -10    2.82    0.62
   0  -7  10    2.50    0.53
  -1   7 -10   28.39    1.53
   1  -7  10   28.76    1.48
  -2   7 -10   21.94    1.37
   2  -7  10   23.67    1.32
  -3   7 -10    7.99    0.77
   3  -7  10    8.79    0.81
  -4   7 -10   11.86    1.01
   4  -7  10   13.83    1.03
  -5   7 -10    0.80    0.54
   5  -7  10    1.00    0.67
  -6   7 -10    4.92    0.66
   6  -7  10    7.41    0.90
  -6  -6  10   11.75    1.02
  -5  -6  10   38.84    1.94
   4   6 -10    4.96    0.66
  -4  -6  10    4.27    0.63
   3   6 -10   -0.23    0.53
  -3  -6  10   -0.16    0.52
   2   6 -10   28.73    1.57
  -2  -6  10   27.05    1.45
   1   6 -10    6.45    0.77
  -1  -6  10    6.97    0.65
   0   6 -10   70.50    3.24
   0  -6  10   74.18    3.03
  -1   6 -10    2.46    0.57
   1  -6  10    2.76    0.52
  -2   6 -10    1.70    0.54
   2  -6  10    2.91    0.56
  -3   6 -10   35.93    1.86
   3  -6  10   36.32    1.75
  -4   6 -10   28.68    1.60
   4  -6  10   30.71    1.51
  -5   6 -10    9.23    0.81
   5  -6  10   10.28    0.89
  -6   6 -10   -0.45    0.49
   6  -6  10    0.15    0.67
   7   5 -10   -0.57    0.48
  -7  -5  10   -0.35    0.67
   6   5 -10    0.67    0.46
  -6  -5  10    0.55    0.56
   5   5 -10   10.08    0.75
  -5  -5  10   10.57    0.89
   4   5 -10   15.12    1.07
  -4  -5  10   11.25    1.01
   3   5 -10   23.06    1.34
  -3  -5  10   20.08    1.16
   2   5 -10    5.68    0.69
  -2  -5  10    5.44    0.56
   1   5 -10   15.01    1.15
  -1  -5  10   13.48    0.94
   0   5 -10   82.17    3.59
   0  -5  10   79.56    3.30
  -1   5 -10   -0.15    0.51
   1  -5  10   -0.35    0.43
  -2   5 -10   30.99    1.70
   2  -5  10   30.94    1.50
  -3   5 -10    1.14    0.58
   3  -5  10    0.79    0.51
  -4   5 -10    4.20    0.66
   4  -5  10    3.55    0.61
  -5   5 -10   53.43    2.50
   5  -5  10   55.17    2.41
   6  -5  10    1.44    0.70
   7   4 -10   16.03    1.07
  -7  -4  10   16.99    1.28
   6   4 -10   22.51    1.17
  -6  -4  10   21.22    1.34
   5   4 -10    0.33    0.39
  -5  -4  10   -0.78    0.49
   4   4 -10   20.84    0.99
   4   4 -10   22.40    1.31
  -4  -4  10   19.25    1.18
   3   4 -10   17.11    1.13
  -3  -4  10   12.58    0.76
  -3  -4  10   12.46    0.90
   2   4 -10   24.83    1.45
  -2  -4  10   27.41    1.29
   1   4 -10   22.39    1.38
  -1  -4  10   21.54    1.14
   0   4 -10    5.87    0.75
   0  -4  10    5.82    0.55
  -1   4 -10   39.88    2.03
   1  -4  10   39.65    1.77
  -2   4 -10   98.57    4.32
   2  -4  10  100.35    3.99
  -3   4 -10    0.03    0.51
   3  -4  10    0.86    0.47
  -4   4 -10    3.17    0.62
   4  -4  10    4.34    0.62
  -5   4 -10    5.27    0.66
   5  -4  10    6.74    0.73
   6  -4  10    3.46    0.70
   7   3 -10    9.64    0.89
  -7  -3  10   11.03    0.94
   6   3 -10   -0.05    0.44
  -6  -3  10    0.41    0.55
   5   3 -10   30.47    1.35
  -5  -3  10   28.81    1.47
   4   3 -10    8.10    0.65
   4   3 -10    9.85    0.91
  -4  -3  10    7.76    0.76
   3   3 -10    0.43    0.52
  -3  -3  10    0.24    0.34
  -3  -3  10   -0.07    0.39
   2   3 -10   96.53    4.18
  -2  -3  10   96.16    3.84
  -2  -3  10   97.33    3.69
   1   3 -10   22.47    1.44
  -1  -3  10   24.22    1.19
  -1  -3  10   23.29    1.16
   0   3 -10   33.83    1.79
   0  -3  10   35.70    1.56
  -1   3 -10    0.96    0.51
   1  -3  10    1.27    0.40
  -2   3 -10    7.09    0.75
   2  -3  10    8.49    0.74
  -3   3 -10   95.31    4.07
   3  -3  10   92.00    3.77
  -4   3 -10   30.67    1.61
   4  -3  10   29.59    1.51
  -5   3 -10    2.74    0.57
   5  -3  10    3.09    0.66
   6  -3  10    0.60    0.63
   7   2 -10    0.06    0.50
   6   2 -10    2.04    0.47
  -6  -2  10    1.26    0.52
   5   2 -10   39.11    1.94
   5   2 -10   37.50    1.63
  -5  -2  10   39.48    1.73
   4   2 -10    2.73    0.59
  -4  -2  10    1.98    0.42
  -4  -2  10    2.48    0.44
   3   2 -10   34.96    1.75
  -3  -2  10   31.99    1.43
  -3  -2  10   32.40    1.45
   2   2 -10    0.79    0.55
  -2  -2  10    0.42    0.36
  -2  -2  10   -0.06    0.34
   1   2 -10    4.32    0.65
  -1  -2  10    4.34    0.52
  -1  -2  10    3.55    0.44
   0   2 -10   96.26    4.30
   0  -2  10   99.75    3.91
   0  -2  10  101.13    3.84
  -1   2 -10    6.79    0.76
   1  -2  10    7.33    0.67
  -2   2 -10    5.65    0.72
   2  -2  10    5.76    0.56
  -3   2 -10   27.13    1.55
   3  -2  10   29.05    1.38
  -4   2 -10    0.19    0.49
   4  -2  10    0.72    0.50
  -5   2 -10   68.34    3.04
   5  -2  10   69.60    2.94
   7   1 -10   12.09    0.91
   6   1 -10    6.42    0.58
   5   1 -10    1.12    0.57
  -5  -1  10    0.76    0.46
   4   1 -10   35.98    1.78
  -4  -1  10   31.40    1.50
   3   1 -10   91.66    3.95
  -3  -1  10   90.89    3.55
  -3  -1  10   87.50    3.49
   2   1 -10   24.71    1.46
  -2  -1  10   23.33    1.18
  -2  -1  10   23.87    1.12
   1   1 -10    5.38    0.68
  -1  -1  10    6.34    0.61
  -1  -1  10    5.68    0.47
   0   1 -10   10.00    0.91
   0  -1  10   10.74    0.72
   0  -1  10   11.50    0.89
  -1   1 -10   27.23    1.61
   1  -1  10   29.34    1.39
   1  -1  10   28.91    1.32
  -2   1 -10   85.44    3.85
   2  -1  10   90.05    3.47
   2  -1  10   89.03    3.52
  -3   1 -10   -0.53    0.50
   3  -1  10    0.16    0.46
  -4   1 -10    0.41    0.49
   4  -1  10    1.10    0.48
  -5   1 -10   29.61    1.61
   5  -1  10   33.28    1.64
  -6   1 -10    1.10    0.58
  -7   0  10   20.12    1.22
  -6   0  10   -0.02    0.48
   5   0 -10   14.69    1.16
  -5   0  10   14.70    0.98
   4   0 -10    0.44    0.58
  -4   0  10    0.69    0.46
   3   0 -10    3.91    0.65
  -3   0  10    3.47    0.51
   2   0 -10  114.82    4.86
  -2   0  10  110.15    4.33
   1   0 -10   33.00    1.84
  -1   0  10   35.04    1.62
   0   0 -10   14.63    1.18
   0   0  10   15.03    1.06
  -1   0 -10    6.82    0.80
   1   0  10    7.75    0.70
  -2   0 -10   19.37    1.33
   2   0  10   22.38    1.24
  -3   0 -10   33.41    1.72
   3   0  10   32.41    1.62
  -4   0 -10   29.23    1.57
  -6   1  10    2.48    0.58
   5  -1 -10   49.08    2.37
  -5   1  10   46.96    2.07
   4  -1 -10    1.99    0.68
  -4   1  10    2.25    0.53
   3  -1 -10    4.08    0.74
  -3   1  10    3.54    0.55
   2  -1 -10    1.05    0.62
  -2   1  10    1.43    0.50
   1  -1 -10    0.71    0.64
  -1   1  10    0.51    0.51
   0  -1 -10  109.02    4.70
   0   1  10  106.70    4.23
  -1  -1 -10    3.47    0.68
   1   1  10    4.26    0.63
  -2  -1 -10    0.66    0.56
   2   1  10    0.90    0.56
  -3  -1 -10   13.66    1.06
   3   1  10   12.77    1.11
  -4  -1 -10    6.01    0.67
   4   1  10    8.08    0.83
  -6   2  10    4.62    0.69
   5  -2 -10    9.21    0.93
  -5   2  10    9.02    0.79
   4  -2 -10   25.33    1.60
  -4   2  10   24.52    1.28
   3  -2 -10   34.67    1.96
  -3   2  10   35.46    1.68
   2  -2 -10    1.12    0.69
  -2   2  10    0.15    0.48
   1  -2 -10    0.79    0.69
  -1   2  10    1.29    0.56
   0  -2 -10   30.97    1.78
   0   2  10   28.91    1.53
  -1  -2 -10    7.73    0.87
   1   2  10    8.33    0.79
  -2  -2 -10   44.37    2.27
   2   2  10   49.08    2.16
  -3  -2 -10    1.84    0.56
   3   2  10    2.00    0.67
  -4  -2 -10    0.12    0.52
   4   2  10    1.12    0.69
   5  -3 -10    7.61    0.89
  -5   3  10    6.75    0.74
   4  -3 -10    3.90    0.77
  -4   3  10    2.93    0.63
   3  -3 -10    2.44    0.70
  -3   3  10    2.80    0.61
   2  -3 -10   36.40    2.06
  -2   3  10   34.47    1.73
   1  -3 -10   34.67    1.91
  -1   3  10   33.01    1.68
   0  -3 -10    1.06    0.73
   0   3  10    0.65    0.56
  -1  -3 -10    5.64    0.82
   1   3  10    6.68    0.74
  -2  -3 -10   17.86    1.32
   2   3  10   18.11    1.24
  -3  -3 -10    8.08    0.82
   3   3  10    8.19    0.88
  -4  -3 -10    4.65    0.66
   4   3  10    6.85    0.87
   5  -4 -10   17.11    1.43
  -5   4  10   17.92    1.24
   4  -4 -10    7.73    0.96
  -4   4  10    4.81    0.66
   3  -4 -10    3.35    0.83
  -3   4  10    3.74    0.69
   2  -4 -10   14.25    1.24
  -2   4  10   12.91    1.11
   1  -4 -10    2.43    0.76
  -1   4  10    4.09    0.67
   0  -4 -10   11.74    1.20
   0   4  10   11.26    1.05
  -1  -4 -10   21.22    1.52
   1   4  10   20.06    1.29
  -2  -4 -10    0.24    0.63
   2   4  10    0.43    0.62
  -3  -4 -10   22.60    1.43
   3   4  10   23.94    1.47
   3  -5 -10   24.43    1.75
  -3   5  10   23.29    1.44
   2  -5 -10   -0.10    0.79
  -2   5  10    0.27    0.60
   1  -5 -10    2.02    0.82
  -1   5  10    0.58    0.61
   0  -5 -10   19.64    1.53
   0   5  10   17.07    1.24
  -1  -5 -10    1.27    0.72
   1   5  10    0.69    0.63
   1  12 -11   19.98    1.47
  -1 -12  11   24.37    1.47
   0  12 -11    8.55    0.94
   0 -12  11    8.50    0.90
  -1  12 -11    0.74    0.70
   1 -12  11    0.03    0.62
  -3 -11  11    1.07    0.64
   2  11 -11    6.87    0.79
  -2 -11  11    6.76    0.76
   1  11 -11    0.08    0.63
  -1 -11  11    1.17    0.65
   0  11 -11    0.51    0.67
   0 -11  11    1.35    0.66
  -1  11 -11   32.18    1.91
   1 -11  11   37.04    1.82
  -2  11 -11    6.29    0.84
   2 -11  11    8.75    0.86
  -3  11 -11    2.68    0.73
   3 -11  11    3.31    0.74
  -4 -10  11    0.67    0.67
   3  10 -11    5.11    0.75
  -3 -10  11    5.28    0.72
   2  10 -11   29.76    1.73
  -2 -10  11   33.94    1.72
   1  10 -11    0.19    0.60
  -1 -10  11    0.34    0.55
   0  10 -11    0.07    0.62
   0 -10  11    0.53    0.55
  -1  10 -11    4.26    0.69
   1 -10  11    6.74    0.77
  -2  10 -11    7.46    0.79
   2 -10  11    8.08    0.77
  -3  10 -11   36.34    1.92
  -4  10 -11    0.28    0.54
   4 -10  11    0.78    0.62
  -5  -9  11    7.29    0.83
  -4  -9  11    5.24    0.73
   3   9 -11    0.84    0.64
  -3  -9  11    1.42    0.67
   2   9 -11    0.97    0.63
  -2  -9  11    1.17    0.62
   1   9 -11   24.25    1.52
  -1  -9  11   26.74    1.48
   0   9 -11   45.12    2.23
  -1   9 -11    2.91    0.65
   1  -9  11    2.06    0.56
  -2   9 -11    0.89    0.59
   2  -9  11    1.00    0.59
  -3   9 -11   12.32    1.09
   3  -9  11   12.03    1.12
  -4   9 -11    7.56    0.75
   4  -9  11   10.25    0.91
  -5  -8  11    0.86    0.72
  -4  -8  11   46.65    2.24
   3   8 -11    2.01    0.68
  -3  -8  11    2.28    0.64
   2   8 -11    5.95    0.79
  -2  -8  11    5.50    0.70
   1   8 -11    4.20    0.71
  -1  -8  11    4.38    0.62
   0   8 -11    5.89    0.70
   0  -8  11    5.34    0.65
  -1   8 -11   62.05    2.93
   1  -8  11   65.99    2.78
  -2   8 -11   24.06    1.48
   2  -8  11   24.76    1.40
  -3   8 -11   -0.17    0.49
   3  -8  11    0.12    0.52
  -4   8 -11    7.41    0.78
   4  -8  11   11.73    0.95
  -5   8 -11    7.58    0.76
   5  -8  11    9.10    0.90
  -6  -7  11   -0.03    0.70
  -5  -7  11    9.17    0.94
  -4  -7  11    4.32    0.73
   3   7 -11   17.26    1.27
  -3  -7  11   13.47    1.11
   2   7 -11   57.98    2.66
  -2  -7  11   53.81    2.45
   1   7 -11    0.22    0.58
  -1  -7  11    0.45    0.53
   0   7 -11    0.00    0.53
   0  -7  11    0.08    0.50
  -1   7 -11   29.29    1.67
   1  -7  11   29.76    1.47
  -2   7 -11    0.12    0.58
   2  -7  11   -0.19    0.46
  -3   7 -11   41.13    2.09
   3  -7  11   42.68    1.98
  -4   7 -11   -0.10    0.55
   4  -7  11    0.33    0.53
  -5   7 -11    0.59    0.55
   5  -7  11    0.83    0.63
  -6  -6  11   18.94    1.26
  -5  -6  11   25.01    1.49
   4   6 -11    4.66    0.69
  -4  -6  11    3.67    0.68
   3   6 -11    0.62    0.57
  -3  -6  11   -0.10    0.52
   2   6 -11   16.37    1.22
  -2  -6  11   14.55    1.04
   1   6 -11   30.73    1.64
  -1  -6  11   29.16    1.50
   0   6 -11   48.76    2.38
   0  -6  11   48.50    2.16
  -1   6 -11   -0.67    0.53
   1  -6  11    0.85    0.51
  -2   6 -11   11.97    1.11
   2  -6  11    9.62    0.82
  -3   6 -11   41.70    2.10
   3  -6  11   42.09    1.95
  -4   6 -11    3.35    0.66
   4  -6  11    5.62    0.70
  -5   6 -11    9.64    0.98
   5  -6  11   11.13    1.08
  -6  -5  11   10.08    0.88
  -5  -5  11    0.87    0.57
   4   5 -11   63.76    2.79
  -4  -5  11   57.18    2.59
   3   5 -11   20.79    1.33
  -3  -5  11   19.87    1.16
   2   5 -11   10.97    1.05
  -2  -5  11    8.72    0.82
   1   5 -11   29.52    1.67
  -1  -5  11   28.88    1.43
   0   5 -11    4.77    0.68
   0  -5  11    5.22    0.58
  -1   5 -11   19.47    1.36
   1  -5  11   20.14    1.12
  -2   5 -11   20.59    1.34
   2  -5  11   18.85    1.13
  -3   5 -11    1.99    0.64
   3  -5  11    2.75    0.55
  -4   5 -11   25.82    1.52
   4  -5  11   27.12    1.43
  -5   5 -11   27.38    1.50
   5  -5  11   26.09    1.49
  -6  -4  11   -0.29    0.56
  -5  -4  11    0.27    0.53
   4   4 -11   22.43    1.31
  -4  -4  11   18.24    1.13
   3   4 -11    2.92    0.59
  -3  -4  11    1.80    0.46
   2   4 -11   57.70    2.61
  -2  -4  11   52.89    2.31
   1   4 -11    6.51    0.79
  -1  -4  11    5.84    0.59
   0   4 -11    3.59    0.64
   0  -4  11    5.00    0.53
  -1   4 -11   43.69    2.20
   1  -4  11   43.81    1.91
  -2   4 -11    0.52    0.57
   2  -4  11    0.71    0.46
  -3   4 -11    7.85    0.81
   3  -4  11    8.73    0.83
  -4   4 -11    0.61    0.54
   4  -4  11    1.11    0.55
  -5   4 -11    0.14    0.53
   5  -4  11    0.11    0.58
   6   3 -11   20.26    1.04
  -6  -3  11   17.37    1.18
  -5  -3  11   21.30    1.21
   4   3 -11   -0.18    0.51
  -4  -3  11   -0.53    0.36
  -4  -3  11   -0.74    0.40
   3   3 -11    7.40    0.76
  -3  -3  11    6.63    0.61
  -3  -3  11    6.70    0.56
   2   3 -11   27.90    1.59
  -2  -3  11   27.93    1.33
   1   3 -11    5.25    0.68
  -1  -3  11    5.75    0.53
   0   3 -11   44.58    2.24
   0  -3  11   44.93    1.92
  -1   3 -11    1.44    0.57
   1  -3  11    2.38    0.45
  -2   3 -11   11.83    1.05
   2  -3  11   13.70    0.89
  -3   3 -11   36.21    1.88
   3  -3  11   35.96    1.67
  -4   3 -11    6.61    0.73
   4  -3  11    6.01    0.68
  -5   3 -11    3.66    0.60
   5  -3  11    4.22    0.67
  -6  -2  11    8.87    0.71
  -5  -2  11    1.31    0.45
   4   2 -11   26.64    1.48
  -4  -2  11   24.35    1.23
   3   2 -11   10.26    1.01
  -3  -2  11    8.50    0.65
  -3  -2  11    8.19    0.69
   2   2 -11    0.55    0.58
  -2  -2  11    1.09    0.43
  -2  -2  11    0.91    0.38
   1   2 -11   38.32    1.97
  -1  -2  11   37.30    1.63
   0   2 -11   43.58    2.19
   0  -2  11   43.25    1.86
  -1   2 -11   12.18    1.03
   1  -2  11   12.52    0.83
  -2   2 -11   16.49    1.23
   2  -2  11   16.98    0.98
  -3   2 -11    6.38    0.74
   3  -2  11    5.64    0.62
  -4   2 -11   15.72    1.12
   4  -2  11   15.86    1.15
  -5   2 -11   22.25    1.31
   5  -2  11   23.38    1.34
  -6  -1  11    2.22    0.55
   5   1 -11    1.03    0.59
  -5  -1  11    0.61    0.45
   4   1 -11   22.89    1.39
  -4  -1  11   19.67    1.11
   3   1 -11    2.10    0.61
  -3  -1  11    1.14    0.44
   2   1 -11   14.78    1.17
  -2  -1  11   13.45    0.96
   1   1 -11    3.48    0.70
  -1  -1  11    4.10    0.58
   0   1 -11    2.11    0.67
   0  -1  11    2.06    0.52
  -1   1 -11   46.57    2.26
  -2   1 -11   13.79    1.06
  -3   1 -11    2.21    0.61
  -4   1 -11    2.68    0.58
  -5   1 -11    1.43    0.57
  -6   0  11    1.93    0.55
   5   0 -11   17.26    1.28
  -5   0  11   17.07    1.05
   4   0 -11    0.18    0.60
  -4   0  11    0.08    0.44
   3   0 -11    5.34    0.75
  -3   0  11    3.73    0.53
   2   0 -11   62.31    2.81
  -2   0  11   55.91    2.46
   1   0 -11    0.18    0.58
  -1   0  11    0.53    0.50
   0   0 -11   11.06    1.13
   0   0  11   12.22    1.01
  -1   0 -11    1.76    0.57
   1   0  11    2.61    0.58
  -2   0 -11    4.81    0.68
  -3   0 -11   48.65    2.34
  -4   0 -11    0.54    0.50
   5  -1 -11    5.29    0.78
  -5   1  11    3.87    0.60
   4  -1 -11   15.31    1.32
  -4   1  11   13.38    0.99
   3  -1 -11    3.30    0.74
  -3   1  11    2.25    0.55
   2  -1 -11    3.94    0.74
  -2   1  11    3.96    0.62
   1  -1 -11   26.76    1.65
  -1   1  11   24.83    1.41
   0  -1 -11   50.69    2.50
   0   1  11   52.72    2.28
  -1  -1 -11    0.75    0.56
   1   1  11    1.49    0.59
  -2  -1 -11   -0.01    0.57
   2   1  11    0.82    0.60
  -3  -1 -11   16.63    1.19
  -4  -1 -11   18.31    1.20
   5  -2 -11    1.55    0.69
  -5   2  11    0.99    0.53
   4  -2 -11   21.81    1.56
  -4   2  11   20.29    1.23
   3  -2 -11   13.52    1.27
  -3   2  11   11.93    0.99
   2  -2 -11   14.11    1.33
  -2   2  11   12.96    1.05
   1  -2 -11    3.40    0.71
  -1   2  11    3.96    0.66
   0  -2 -11    1.16    0.70
   0   2  11    0.81    0.57
  -1  -2 -11   27.15    1.65
   1   2  11   26.75    1.47
  -2  -2 -11   13.23    1.15
   2   2  11   11.60    1.07
  -3  -2 -11    1.43    0.59
   3   2  11    2.34    0.69
   4  -3 -11    1.46    0.73
  -4   3  11    0.48    0.57
   3  -3 -11    4.31    0.84
  -3   3  11    2.95    0.62
   2  -3 -11   40.61    2.19
  -2   3  11   36.62    1.84
   1  -3 -11   -0.06    0.64
  -1   3  11    0.83    0.55
   0  -3 -11    0.19    0.62
   0   3  11    1.76    0.62
  -1  -3 -11   25.58    1.64
   1   3  11   25.57    1.49
  -2  -3 -11    2.57    0.67
   2   3  11    3.02    0.70
   3  -4 -11    2.07    0.82
  -3   4  11    1.92    0.64
   2  -4 -11    0.82    0.75
  -2   4  11    0.74    0.61
   1  -4 -11   15.02    1.43
  -1   4  11   12.63    1.09
   0  -4 -11   29.57    1.75
   0   4  11   27.50    1.53
  -1  -4 -11    8.48    0.96
   1   4  11    9.15    0.86
   1  11 -12    0.03    0.62
  -1 -11  12    0.52    0.59
   0  11 -12   12.79    1.23
   0 -11  12   14.52    1.20
  -1  11 -12   15.49    1.38
   1 -11  12   20.67    1.33
   3  10 -12   18.29    1.40
  -3 -10  12   18.92    1.24
   2  10 -12    2.48    0.71
  -2 -10  12    3.22    0.68
   1  10 -12   13.13    1.20
  -1 -10  12   15.82    1.22
   0  10 -12    1.12    0.64
   0 -10  12    1.07    0.65
  -1  10 -12   -0.84    0.62
   1 -10  12    0.62    0.64
  -2  10 -12   18.53    1.38
   2 -10  12   20.66    1.26
   3 -10  12   10.08    0.93
  -4  -9  12   12.48    1.19
   3   9 -12   -0.04    0.65
  -3  -9  12    0.82    0.61
   2   9 -12    4.22    0.72
  -2  -9  12    4.67    0.71
   1   9 -12   21.60    1.46
  -1  -9  12   22.48    1.39
   0   9 -12    2.40    0.67
   0  -9  12    3.01    0.66
  -1   9 -12    3.34    0.71
   1  -9  12    3.64    0.70
  -2   9 -12    3.55    0.71
   2  -9  12    5.30    0.72
  -3   9 -12    1.20    0.63
   3  -9  12    1.25    0.62
  -4  -8  12   20.30    1.35
   3   8 -12    5.77    0.80
  -3  -8  12    4.53    0.65
   2   8 -12    1.10    0.67
  -2  -8  12    1.35    0.57
   1   8 -12    2.01    0.61
  -1  -8  12    1.66    0.62
   0   8 -12    3.53    0.71
   0  -8  12    4.51    0.68
  -1   8 -12   33.22    1.90
   1  -8  12   36.95    1.77
  -2   8 -12   -0.87    0.59
   2  -8  12    0.30    0.56
  -3   8 -12    0.33    0.62
   3  -8  12   -0.24    0.56
  -4   8 -12    9.27    0.86
   4  -8  12   10.17    0.89
  -5  -7  12    1.08    0.69
  -4  -7  12   -0.13    0.59
   3   7 -12   36.08    1.85
  -3  -7  12   30.47    1.66
   2   7 -12   24.40    1.54
  -2  -7  12   23.47    1.34
   1   7 -12    6.12    0.83
  -1  -7  12    7.34    0.72
   0   7 -12    0.29    0.66
   0  -7  12    0.01    0.46
  -1   7 -12    0.67    0.62
   1  -7  12    0.83    0.56
  -2   7 -12   11.60    1.15
   2  -7  12   10.84    0.89
  -3   7 -12   32.76    1.85
   3  -7  12   36.74    1.74
  -4   7 -12   -0.23    0.55
   4  -7  12    0.18    0.60
  -5  -6  12    0.30    0.59
   4   6 -12    3.99    0.69
  -4  -6  12    3.73    0.63
   3   6 -12   -0.49    0.57
  -3  -6  12   -0.02    0.48
   2   6 -12    1.49    0.62
  -2  -6  12    0.64    0.50
   1   6 -12   60.66    2.75
  -1  -6  12   54.80    2.47
   0   6 -12    3.45    0.73
   0  -6  12    4.11    0.58
  -1   6 -12    0.39    0.56
   1  -6  12    0.32    0.50
  -2   6 -12    7.52    0.79
   2  -6  12    9.60    0.87
  -3   6 -12    1.36    0.64
   3  -6  12    2.21    0.56
  -4   6 -12   22.45    1.44
   4  -6  12   24.66    1.36
  -5  -5  12    9.71    0.83
   4   5 -12   19.37    1.27
  -4  -5  12   15.53    1.11
   3   5 -12    2.15    0.63
  -3  -5  12    1.37    0.49
   2   5 -12    0.06    0.59
  -2  -5  12   -0.04    0.45
   1   5 -12   12.69    1.15
  -1  -5  12   11.21    0.88
   0   5 -12   12.24    1.16
   0  -5  12    9.66    0.82
  -1   5 -12   49.20    2.46
   1  -5  12   53.19    2.23
  -2   5 -12    0.18    0.54
   2  -5  12    0.15    0.48
  -3   5 -12    1.14    0.62
   3  -5  12    1.27    0.54
  -4   5 -12   19.76    1.32
   4  -5  12   19.96    1.23
  -5  -4  12    0.50    0.50
   4   4 -12    0.78    0.56
  -4  -4  12    1.16    0.47
   3   4 -12   36.39    1.81
  -3  -4  12   31.54    1.53
   2   4 -12   26.56    1.53
  -2  -4  12   24.30    1.27
   1   4 -12    4.80    0.74
  -1  -4  12    3.37    0.48
   0   4 -12   12.24    1.17
   0  -4  12   12.97    0.91
  -1   4 -12   16.50    1.30
   1  -4  12   16.21    0.98
  -2   4 -12   15.85    1.30
   2  -4  12   17.60    1.05
  -3   4 -12   13.11    1.08
   3  -4  12   14.25    0.98
  -4   4 -12    0.43    0.55
   4  -4  12    1.12    0.56
   4   3 -12    1.59    0.60
   3   3 -12   11.46    1.05
  -3  -3  12    8.51    0.70
   2   3 -12    0.91    0.58
  -2  -3  12    0.56    0.40
   1   3 -12   36.86    1.92
  -1  -3  12   37.65    1.66
   0   3 -12    7.74    0.80
   0  -3  12    9.02    0.72
  -1   3 -12    0.53    0.63
   1  -3  12   -0.07    0.42
  -2   3 -12   52.60    2.55
   2  -3  12   53.41    2.27
  -3   3 -12    0.48    0.55
   3  -3  12    0.68    0.50
  -4   3 -12   10.86    1.12
   4  -3  12   13.88    1.02
  -5  -2  12   10.01    0.80
   4   2 -12   30.55    1.71
   3   2 -12    0.51    0.57
   2   2 -12    3.61    0.69
   1   2 -12   22.66    1.45
   0   2 -12    1.03    0.61
  -1   2 -12   24.72    1.53
  -2   2 -12    1.36    0.61
  -3   2 -12    5.89    0.74
  -4   2 -12   39.58    1.98
   5   1 -12    4.36    0.76
  -5  -1  12    3.46    0.55
   4   1 -12   12.61    1.17
  -4  -1  12   10.71    0.84
   3   1 -12   53.28    2.46
  -3  -1  12   47.59    2.13
   2   1 -12    3.65    0.70
   1   1 -12    0.04    0.58
   0   1 -12   21.46    1.45
  -1   1 -12   37.36    1.97
  -2   1 -12    5.85    0.76
  -3   1 -12   10.49    1.09
  -4   1 -12    2.70    0.60
   5   0 -12    3.01    0.72
  -5   0  12    1.99    0.53
   4   0 -12    0.61    0.60
  -4   0  12    0.22    0.47
   3   0 -12   13.74    1.21
  -3   0  12   13.54    0.97
   2   0 -12    3.47    0.71
  -2   0  12    2.98    0.58
   1   0 -12   25.73    1.59
  -1   0  12   25.63    1.40
   0   0 -12    1.22    0.65
  -1   0 -12    1.19    0.64
  -2   0 -12   24.10    1.49
  -3   0 -12   20.78    1.34
   4  -1 -12    7.80    0.88
  -4   1  12    7.15    0.70
   3  -1 -12    1.61    0.68
  -3   1  12    0.96    0.54
   2  -1 -12    1.32    0.69
  -2   1  12    1.04    0.56
   1  -1 -12   45.92    2.33
  -1   1  12   44.45    2.03
   0  -1 -12    0.43    0.65
   0   1  12    1.61    0.61
  -1  -1 -12    5.43    0.79
  -2  -1 -12    0.66    0.61
   3  -2 -12    9.19    0.95
  -3   2  12    6.30    0.73
   2  -2 -12    5.18    0.86
  -2   2  12    4.08    0.65
   1  -2 -12    3.17    0.72
  -1   2  12    3.41    0.64
   0  -2 -12    8.21    0.92
   0   2  12    8.61    0.83
  -1  -2 -12   37.19    2.07
   1   2  12   41.38    1.91
   1  -3 -12    8.46    1.00
  -1   3  12    6.46    0.76
   1  10 -13    7.07    0.88
  -1 -10  13    6.13    0.77
   0  10 -13   -1.13    0.65
   0 -10  13   -0.18    0.58
   1 -10  13    7.60    0.84
   2   9 -13   12.11    1.21
  -2  -9  13   13.40    1.12
   1   9 -13   12.11    1.23
  -1  -9  13   12.87    1.12
   0   9 -13   15.33    1.31
  -1   9 -13    1.23    0.61
   1  -9  13    3.45    0.68
  -2   9 -13   -0.54    0.61
   2  -9  13    0.15    0.51
   3   8 -13   11.05    0.99
  -3  -8  13   10.09    0.88
   2   8 -13   -0.19    0.63
  -2  -8  13   -0.69    0.55
   1   8 -13    1.73    0.66
  -1  -8  13    1.55    0.57
   0   8 -13   36.63    2.00
   0  -8  13   37.44    1.81
  -1   8 -13    2.42    0.73
   1  -8  13    1.67    0.55
  -2   8 -13    3.93    0.77
   2  -8  13    4.90    0.70
  -3   8 -13    0.88    0.64
   3  -8  13    0.96    0.59
  -4  -7  13    6.85    0.76
   3   7 -13   18.20    1.33
  -3  -7  13   15.70    1.12
   2   7 -13    3.08    0.70
  -2  -7  13    2.60    0.56
   1   7 -13    3.32    0.73
  -1  -7  13    2.10    0.57
   0   7 -13   -0.12    0.65
   0  -7  13    0.86    0.54
  -1   7 -13    9.55    0.94
   1  -7  13   11.34    0.95
  -2   7 -13   30.28    1.73
   2  -7  13   28.70    1.52
  -3   7 -13   -0.24    0.57
   3  -7  13    0.07    0.50
  -4  -6  13    0.80    0.51
   3   6 -13    2.50    0.67
  -3  -6  13    1.43    0.52
   2   6 -13   26.28    1.56
  -2  -6  13   23.21    1.30
   1   6 -13   24.93    1.59
  -1  -6  13   24.82    1.32
   0   6 -13    1.88    0.69
   0  -6  13    2.74    0.54
  -1   6 -13   -0.47    0.61
   1  -6  13    0.13    0.48
  -2   6 -13    3.64    0.74
   2  -6  13    4.54    0.61
  -3   6 -13   13.27    1.17
   3  -6  13   14.18    1.06
   4   5 -13    0.70    0.60
  -4  -5  13    0.28    0.46
   3   5 -13    7.74    0.82
  -3  -5  13    6.44    0.62
   2   5 -13    0.04    0.62
  -2  -5  13    0.27    0.46
   1   5 -13    0.81    0.63
  -1  -5  13    0.82    0.46
   0   5 -13   25.89    1.65
   0  -5  13   27.32    1.36
  -1   5 -13   11.96    1.04
   1  -5  13   10.59    0.91
  -2   5 -13    1.33    0.68
   2  -5  13    1.53    0.53
  -3   5 -13    6.01    0.79
   3  -5  13    7.97    0.73
   4   4 -13    9.43    0.87
   3   4 -13   25.71    1.46
  -3  -4  13   20.61    1.17
   2   4 -13    1.77    0.65
  -2  -4  13    0.73    0.42
   1   4 -13    0.95    0.64
  -1  -4  13    1.47    0.44
   0   4 -13    9.63    0.92
   0  -4  13    9.93    0.83
  -1   4 -13    2.95    0.72
   1  -4  13    2.06    0.50
  -2   4 -13   30.39    1.77
   2  -4  13   31.51    1.52
  -3   4 -13    6.16    0.76
   3  -4  13    6.14    0.66
   4   3 -13    1.30    0.60
   3   3 -13    4.32    0.72
   2   3 -13   27.49    1.64
   1   3 -13   32.11    1.73
   0   3 -13    2.80    0.69
  -1   3 -13   -0.28    0.61
  -2   3 -13   27.96    1.65
  -3   3 -13    2.57    0.66
   4   2 -13    7.12    0.80
   3   2 -13    1.23    0.60
   2   2 -13    2.31    0.67
   1   2 -13    3.69    0.74
   0   2 -13   28.74    1.71
  -1   2 -13   16.33    1.32
  -2   2 -13    1.71    0.67
  -3   2 -13   11.28    1.09
   4   1 -13    1.42    0.64
   3   1 -13   33.07    1.84
   2   1 -13    2.31    0.67
   1   1 -13    0.95    0.63
   0   1 -13   17.45    1.34
  -1   1 -13   -0.04    0.59
  -2   1 -13   11.92    1.14
   3   0 -13   18.35    1.37
   2   0 -13   12.57    1.21
   1   0 -13   30.28    1.79
   0   0 -13    0.01    0.56
  -1   0 -13    0.97    0.61
   2  -1 -13    7.58    0.90
   1  -1 -13    8.69    0.94
   0  -1 -13    7.32    0.89
   1   8 -14    0.73    0.67
  -1  -8  14    1.09    0.53
   0   8 -14   17.66    1.37
   0  -8  14   17.26    1.16
   2   7 -14   22.47    1.49
  -2  -7  14   19.74    1.22
   1   7 -14   -0.37    0.60
  -1  -7  14   -0.14    0.50
   0   7 -14   -0.85    0.55
   0  -7  14   -0.03    0.53
  -1   7 -14   12.92    1.25
   1  -7  14   14.21    1.03
   2   6 -14   19.25    1.39
  -2  -6  14   18.65    1.15
   1   6 -14   -0.02    0.66
  -1  -6  14    0.13    0.47
   0   6 -14   10.72    1.00
   0  -6  14    9.72    0.88
  -1   6 -14    0.16    0.67
   1  -6  14    1.43    0.51
   3   5 -14   11.69    1.12
   2   5 -14    2.80    0.69
  -2  -5  14    3.23    0.51
   1   5 -14   13.28    1.22
  -1  -5  14   11.15    0.85
   0   5 -14   21.56    1.50
   0  -5  14   21.59    1.16
  -1   5 -14    0.59    0.67
   1  -5  14   -0.12    0.47
   2  -5  14    1.94    0.55
   3   4 -14    6.68    0.81
   2   4 -14    7.96    0.86
   1   4 -14    0.50    0.57
   0   4 -14   -0.26    0.66
  -1   4 -14   16.29    1.31
   2   3 -14   21.02    1.44
   1   3 -14    6.28    0.83
   0   3 -14    2.03    0.69
  -1   3 -14    5.73    0.74
   2   2 -14    0.56    0.63
   1   2 -14    5.34    0.80
   0   2 -14   28.21    1.69
   0   0   0    0.00    0.00
;
_shelx_hkl_checksum              92254
_shelx_res_file
;
TITL 2 in P-1
CELL 0.71073   6.3333   9.0515   9.5807 111.350  93.657  93.543
ZERR    2.00   0.0005   0.0007   0.0007   0.001   0.002   0.001
LATT  1
SFAC C H N SE BR
UNIT 20 24 2 2 2
TEMP -153.0
SIZE 0.20 0.20 0.30
L.S. 12
BOND $H
ACTA
CONF
EQIV $1 x+1, y, z
HTAB C7 Br1_$1
EQIV $2 x+1, y+1, z
HTAB C9A Br1_$2
WGHT    0.043100    0.181700
FVAR       0.24993
BR1   5    0.574518    0.302205    0.113838    11.00000    0.01950    0.01593 =
         0.02337    0.00698   -0.00022   -0.00059
C1    1    1.345841    1.158112    0.416699    11.00000    0.02212    0.01984 =
         0.01867    0.00224   -0.00442   -0.00156
AFIX  23
H1A   2    1.314860    1.101851    0.485451    11.00000   -1.20000
H1B   2    1.501631    1.171770    0.413948    11.00000   -1.20000
AFIX   0
C2    1    1.252587    1.318926    0.466893    11.00000    0.02319    0.01798 =
         0.01970   -0.00012   -0.00228   -0.00350
AFIX  23
H2A   2    1.322812    1.391096    0.423706    11.00000   -1.20000
H2B   2    1.265769    1.370951    0.577967    11.00000   -1.20000
AFIX   0
C3    1    1.017975    1.272183    0.403264    11.00000    0.02155    0.02159 =
         0.02075   -0.00230    0.00033    0.00062
AFIX  23
H3A   2    0.938878    1.220766    0.461867    11.00000   -1.20000
H3B   2    0.946262    1.365590    0.401181    11.00000   -1.20000
AFIX   0
C3A   1    1.040806    1.155117    0.244991    11.00000    0.01707    0.01447 =
         0.01542    0.00263   -0.00112    0.00028
AFIX  13
H3C   2    1.070997    1.216936    0.179567    11.00000   -1.20000
AFIX   0
SE4   4    0.796299    0.998915    0.148602    11.00000    0.01420    0.01455 =
         0.01694    0.00368   -0.00074    0.00013
C4A   1    0.959926    0.844444    0.182555    11.00000    0.01541    0.01533 =
         0.01446    0.00185    0.00090    0.00053
C5    1    0.887519    0.687152    0.156941    11.00000    0.01932    0.01571 =
         0.01947    0.00342    0.00067   -0.00250
AFIX  43
H5    2    0.743667    0.648710    0.121239    11.00000   -1.20000
AFIX   0
C6    1    1.029048    0.588064    0.184480    11.00000    0.02577    0.01656 =
         0.02088    0.00661    0.00129    0.00068
AFIX  43
H6    2    0.981640    0.481324    0.169639    11.00000   -1.20000
AFIX   0
C7    1    1.242172    0.644932    0.234221    11.00000    0.02375    0.01906 =
         0.02216    0.00834    0.00292    0.00601
AFIX  43
H7    2    1.340616    0.577285    0.252040    11.00000   -1.20000
AFIX   0
C8    1    1.305404    0.799664    0.256550    11.00000    0.01807    0.02044 =
         0.01829    0.00665    0.00025    0.00342
AFIX  43
H8    2    1.449924    0.839192    0.288049    11.00000   -1.20000
AFIX   0
N9    3    1.164088    0.897368    0.234229    11.00000    0.01565    0.01474 =
         0.01533    0.00391    0.00068    0.00043
C9A   1    1.235012    1.065650    0.257568    11.00000    0.01558    0.01474 =
         0.01580    0.00315   -0.00051   -0.00089
AFIX  13
H9A   2    1.332833    1.067854    0.180298    11.00000   -1.20000
AFIX   0
HKLF 4
REM  2 in P-1
REM R1 =  0.0302 for    3156 Fo > 4sig(Fo)  and  0.0376 for all    3711 data
REM    118 parameters refined using      0 restraints
END
WGHT      0.0431      0.1817
REM Highest difference peak  0.644,  deepest hole -1.053,  1-sigma level  0.157
Q1    1   0.8558  0.9874  0.0670  11.00000  0.05    0.64
Q2    1   0.6631  0.2442  0.1139  11.00000  0.05    0.61
Q3    1   0.5019  0.3141  0.1838  11.00000  0.05    0.60
Q4    1   0.4819  0.3639  0.1152  11.00000  0.05    0.59
Q5    1   1.1426  1.1150  0.2543  11.00000  0.05    0.58
Q6    1   0.8845  0.9360  0.1506  11.00000  0.05    0.57
Q7    1   0.5221  0.2077  0.0938  11.00000  0.05    0.53
Q8    1   0.6427  0.2960  0.0345  11.00000  0.05    0.51
Q9    1   1.2784  1.1116  0.3375  11.00000  0.05    0.50
Q10   1   0.8436  1.0926  0.1619  11.00000  0.05    0.48
Q11   1   0.6374  0.3838  0.1205  11.00000  0.05    0.48
Q12   1   1.2156  0.9659  0.2395  11.00000  0.05    0.48
Q13   1   0.6383  0.3436  0.1954  11.00000  0.05    0.45
Q14   1   0.7295  1.0088  0.2191  11.00000  0.05    0.44
Q15   1   1.2686  0.7209  0.2455  11.00000  0.05    0.42
Q16   1   0.7035  1.0556  0.1488  11.00000  0.05    0.42
Q17   1   1.5009  0.9462  0.2456  11.00000  0.05    0.41
Q18   1   1.0776  1.0557  0.5795  11.00000  0.05    0.41
Q19   1   1.3151  1.0134  0.1082  11.00000  0.05    0.41
Q20   1   0.9041  0.7758  0.1780  11.00000  0.05    0.40
;
_shelx_res_checksum              93060
_shelxl_version_number           .2013
loop_
_space_group_symop_operation_xyz
'x, y, z'
'-x, -y, -z'
loop_
_atom_site_type_symbol
_atom_site_label
_atom_site_fract_x
_atom_site_fract_y
_atom_site_fract_z
_atom_site_U_iso_or_equiv
_atom_site_adp_type
_atom_site_calc_flag
_atom_site_occupancy
Br Br1 0.57452(3) 0.30220(3) 0.11384(2) 0.01988(7) Uani d 1
C C1 1.3458(4) 1.1581(3) 0.4167(3) 0.0220(4) Uani d 1
H H1A 1.3149 1.1019 0.4855 0.026 Uiso calc 1
H H1B 1.5016 1.1718 0.4139 0.026 Uiso calc 1
C C2 1.2526(4) 1.3189(3) 0.4669(3) 0.0227(4) Uani d 1
H H2A 1.3228 1.3911 0.4237 0.027 Uiso calc 1
H H2B 1.2658 1.3710 0.5780 0.027 Uiso calc 1
C C3 1.0180(4) 1.2722(3) 0.4033(3) 0.0243(5) Uani d 1
H H3A 0.9389 1.2208 0.4619 0.029 Uiso calc 1
H H3B 0.9463 1.3656 0.4012 0.029 Uiso calc 1
C C3A 1.0408(3) 1.1551(3) 0.2450(2) 0.0166(4) Uani d 1
H H3C 1.0710 1.2169 0.1796 0.020 Uiso calc 1
Se Se4 0.79630(3) 0.99892(2) 0.14860(2) 0.01599(6) Uani d 1
C C4A 0.9599(3) 0.8444(3) 0.1826(2) 0.0162(4) Uani d 1
C C5 0.8875(4) 0.6872(3) 0.1569(3) 0.0193(4) Uani d 1
H H5 0.7437 0.6487 0.1212 0.023 Uiso calc 1
C C6 1.0290(4) 0.5881(3) 0.1845(3) 0.0213(4) Uani d 1
H H6 0.9816 0.4813 0.1696 0.026 Uiso calc 1
C C7 1.2422(4) 0.6449(3) 0.2342(3) 0.0212(4) Uani d 1
H H7 1.3406 0.5773 0.2520 0.025 Uiso calc 1
C C8 1.3054(3) 0.7997(3) 0.2566(3) 0.0191(4) Uani d 1
H H8 1.4499 0.8392 0.2880 0.023 Uiso calc 1
N N9 1.1641(3) 0.8974(2) 0.2342(2) 0.0158(3) Uani d 1
C C9A 1.2350(3) 1.0656(3) 0.2576(2) 0.0163(4) Uani d 1
H H9A 1.3328 1.0679 0.1803 0.020 Uiso calc 1
loop_
_atom_site_aniso_label
_atom_site_aniso_U_11
_atom_site_aniso_U_22
_atom_site_aniso_U_33
_atom_site_aniso_U_12
_atom_site_aniso_U_13
_atom_site_aniso_U_23
Br1 0.01950(11) 0.01593(11) 0.02337(11) -0.00059(8) -0.00022(8) 0.00698(8)
C1 0.0221(10) 0.0198(10) 0.0187(10) -0.0016(8) -0.0044(8) 0.0022(8)
C2 0.0232(10) 0.0180(10) 0.0197(10) -0.0035(8) -0.0023(8) -0.0001(8)
C3 0.0215(10) 0.0216(11) 0.0208(10) 0.0006(8) 0.0003(8) -0.0023(8)
C3A 0.0171(9) 0.0145(9) 0.0154(8) 0.0003(7) -0.0011(7) 0.0026(7)
Se4 0.01420(10) 0.01455(10) 0.01694(10) 0.00013(7) -0.00074(7) 0.00368(8)
C4A 0.0154(8) 0.0153(9) 0.0145(8) 0.0005(7) 0.0009(7) 0.0018(7)
C5 0.0193(9) 0.0157(9) 0.0195(9) -0.0025(7) 0.0007(7) 0.0034(8)
C6 0.0258(10) 0.0166(10) 0.0209(10) 0.0007(8) 0.0013(8) 0.0066(8)
C7 0.0238(10) 0.0191(10) 0.0222(10) 0.0060(8) 0.0029(8) 0.0083(8)
C8 0.0181(9) 0.0204(10) 0.0183(9) 0.0034(8) 0.0003(7) 0.0066(8)
N9 0.0156(7) 0.0147(8) 0.0153(7) 0.0004(6) 0.0007(6) 0.0039(6)
C9A 0.0156(8) 0.0147(9) 0.0158(8) -0.0009(7) -0.0005(7) 0.0031(7)
loop_
_atom_type_symbol
_atom_type_description
_atom_type_scat_dispersion_real
_atom_type_scat_dispersion_imag
_atom_type_scat_source
C C 0.0033 0.0016 'International Tables Vol C Tables 4.2.6.8 and 6.1.1.4'
H H 0.0000 0.0000 'International Tables Vol C Tables 4.2.6.8 and 6.1.1.4'
N N 0.0061 0.0033 'International Tables Vol C Tables 4.2.6.8 and 6.1.1.4'
Se Se -0.0929 2.2259 'International Tables Vol C Tables 4.2.6.8 and 6.1.1.4'
Br Br -0.2901 2.4595 'International Tables Vol C Tables 4.2.6.8 and 6.1.1.4'
loop_
_geom_angle_atom_site_label_1
_geom_angle_atom_site_label_2
_geom_angle_atom_site_label_3
_geom_angle
C2 C1 C9A 104.40(19)
C2 C1 H1A 110.9
C9A C1 H1A 110.9
C2 C1 H1B 110.9
C9A C1 H1B 110.9
H1A C1 H1B 108.9
C1 C2 C3 102.42(19)
C1 C2 H2A 111.3
C3 C2 H2A 111.3
C1 C2 H2B 111.3
C3 C2 H2B 111.3
H2A C2 H2B 109.2
C3A C3 C2 101.23(18)
C3A C3 H3A 111.5
C2 C3 H3A 111.5
C3A C3 H3B 111.5
C2 C3 H3B 111.5
H3A C3 H3B 109.3
C3 C3A C9A 106.34(17)
C3 C3A Se4 115.96(15)
C9A C3A Se4 108.73(14)
C3 C3A H3C 108.5
C9A C3A H3C 108.5
Se4 C3A H3C 108.5
C4A Se4 C3A 87.21(9)
N9 C4A C5 119.8(2)
N9 C4A Se4 114.19(16)
C5 C4A Se4 125.99(16)
C6 C5 C4A 118.9(2)
C6 C5 H5 120.6
C4A C5 H5 120.6
C5 C6 C7 120.2(2)
C5 C6 H6 119.9
C7 C6 H6 119.9
C8 C7 C6 118.7(2)
C8 C7 H7 120.7
C6 C7 H7 120.7
N9 C8 C7 120.7(2)
N9 C8 H8 119.6
C7 C8 H8 119.6
C4A N9 C8 121.68(19)
C4A N9 C9A 117.87(18)
C8 N9 C9A 120.34(18)
N9 C9A C3A 109.62(17)
N9 C9A C1 112.33(18)
C3A C9A C1 105.39(17)
N9 C9A H9A 109.8
C3A C9A H9A 109.8
C1 C9A H9A 109.8
loop_
_geom_bond_atom_site_label_1
_geom_bond_atom_site_label_2
_geom_bond_distance
C1 C2 1.527(3)
C1 C9A 1.542(3)
C1 H1A 0.9900
C1 H1B 0.9900
C2 C3 1.542(3)
C2 H2A 0.9900
C2 H2B 0.9900
C3 C3A 1.523(3)
C3 H3A 0.9900
C3 H3B 0.9900
C3A C9A 1.536(3)
C3A Se4 1.961(2)
C3A H3C 1.0000
Se4 C4A 1.898(2)
C4A N9 1.347(3)
C4A C5 1.396(3)
C5 C6 1.385(3)
C5 H5 0.9500
C6 C7 1.403(3)
C6 H6 0.9500
C7 C8 1.367(3)
C7 H7 0.9500
C8 N9 1.356(3)
C8 H8 0.9500
N9 C9A 1.492(3)
C9A H9A 1.0000
loop_
_geom_hbond_atom_site_label_D
_geom_hbond_atom_site_label_H
_geom_hbond_atom_site_label_A
_geom_hbond_site_symmetry_A
_geom_hbond_distance_DH
_geom_hbond_distance_HA
_geom_hbond_distance_DA
_geom_hbond_angle_DHA
C7 H7 Br1 1_655 0.95 2.91 3.728(2) 145.3
C9A H9A Br1 1_665 1.00 2.82 3.614(2) 136.7
loop_
_geom_torsion_atom_site_label_1
_geom_torsion_atom_site_label_2
_geom_torsion_atom_site_label_3
_geom_torsion_atom_site_label_4
_geom_torsion
C9A C1 C2 C3 38.3(2)
C1 C2 C3 C3A -44.9(2)
C2 C3 C3A C9A 34.7(2)
C2 C3 C3A Se4 155.69(16)
C3A Se4 C4A N9 -7.96(16)
C3A Se4 C4A C5 172.9(2)
N9 C4A C5 C6 -0.5(3)
Se4 C4A C5 C6 178.57(17)
C4A C5 C6 C7 -1.3(3)
C5 C6 C7 C8 0.9(3)
C6 C7 C8 N9 1.4(3)
C5 C4A N9 C8 2.8(3)
Se4 C4A N9 C8 -176.36(16)
C5 C4A N9 C9A 179.04(19)
Se4 C4A N9 C9A -0.1(2)
C7 C8 N9 C4A -3.3(3)
C7 C8 N9 C9A -179.5(2)
C4A N9 C9A C3A 11.0(2)
C8 N9 C9A C3A -172.69(19)
C4A N9 C9A C1 127.8(2)
C8 N9 C9A C1 -55.9(3)
C3 C3A C9A N9 109.6(2)
Se4 C3A C9A N9 -15.9(2)
C3 C3A C9A C1 -11.5(2)
Se4 C3A C9A C1 -137.02(15)
C2 C1 C9A N9 -136.01(19)
C2 C1 C9A C3A -16.7(2)

_cod_database_fobs_code 2242914
