#------------------------------------------------------------------------------
#$Date: 2018-01-13 08:05:03 +0200 (Sat, 13 Jan 2018) $
#$Revision: 205169 $
#$URL: file:///home/coder/svn-repositories/cod/cif/2/24/23/2242319.cif $
#------------------------------------------------------------------------------
#
# This file is available in the Crystallography Open Database (COD),
# http://www.crystallography.net/. The original data for this entry
# were provided by IUCr Journals, http://journals.iucr.org/.
#
# The file may be used within the scientific community so long as
# proper attribution is given to the journal article from which the
# data were obtained.
#
data_2242319
loop_
_publ_author_name
'Joshi, Dhruval J.'
'Jun, Meesook'
'Yang, Lijing'
'Lough, Alan J.'
'Yan, Hongbin'
_publ_section_title
;
 Further investigation on the nitration of BODIPY with cupric nitrate:
 crystal structures of
 4,4-difluoro-1,3,5,7,8-pentamethyl-2-nitro-4-bora-3a,4a-diaza-<i>s</i>-indacene,
 4,4-difluoro-3-nitro-8-phenyl-4-bora-3a,4a-diaza-<i>s</i>-indacene, and
 3-chloro-6-ethyl-5,7,8-trimethyl-2-nitro-4,4-diphenyl-4-bora-3a,4a-diaza-<i>s</i>-indacene
;
_journal_issue                   2
_journal_name_full               'Acta Crystallographica Section E'
_journal_page_first              103
_journal_page_last               108
_journal_paper_doi               10.1107/S2056989017018564
_journal_volume                  74
_journal_year                    2018
_chemical_formula_iupac          'C15 H10 B F2 N3 O2'
_chemical_formula_moiety         'C15 H10 B F2 N3 O2'
_chemical_formula_sum            'C15 H10 B F2 N3 O2'
_chemical_formula_weight         313.07
_chemical_name_systematic
4,4-Difluoro-3-nitro-8-phenyl-4-bora-3a,4a-diaza-<i>s</i>-indacene
_space_group_crystal_system      triclinic
_space_group_IT_number           2
_space_group_name_Hall           '-P 1'
_space_group_name_H-M_alt        'P -1'
_symmetry_space_group_name_Hall  '-P 1'
_symmetry_space_group_name_H-M   'P -1'
_atom_sites_solution_hydrogens   geom
_audit_creation_method           SHELXL2016/6
_cell_angle_alpha                81.093(2)
_cell_angle_beta                 74.358(2)
_cell_angle_gamma                78.581(2)
_cell_formula_units_Z            2
_cell_length_a                   7.2833(2)
_cell_length_b                   8.5450(3)
_cell_length_c                   11.8803(4)
_cell_measurement_reflns_used    8868
_cell_measurement_temperature    150(2)
_cell_measurement_theta_max      67.00
_cell_measurement_theta_min      3.89
_cell_volume                     693.86(4)
_computing_cell_refinement
;
APEX2 (Bruker, 2014)
;
_computing_data_collection
;
APEX2 (Bruker, 2014)
;
_computing_data_reduction
;
SAINT (Bruker, 2014)
;
_computing_molecular_graphics
;
PLATON (Spek, 2009)
;
_computing_publication_material
;
SHELXTL (Sheldrick, 2008)
;
_computing_structure_refinement
;
<i>SHELXL2016/6</i> (Sheldrick, 2015b)
;
_computing_structure_solution
;
SHELXT (Sheldrick, 2015a)
;
_diffrn_ambient_temperature      150(2)
_diffrn_measured_fraction_theta_full 0.984
_diffrn_measured_fraction_theta_max 0.984
_diffrn_measurement_device_type  'Bruker Kappa APEX-DUO CCD'
_diffrn_measurement_method       '\f and \w scans'
_diffrn_radiation_type           CuK\a
_diffrn_radiation_wavelength     1.54178
_diffrn_reflns_av_R_equivalents  0.0423
_diffrn_reflns_limit_h_max       8
_diffrn_reflns_limit_h_min       -8
_diffrn_reflns_limit_k_max       9
_diffrn_reflns_limit_k_min       -9
_diffrn_reflns_limit_l_max       14
_diffrn_reflns_limit_l_min       -14
_diffrn_reflns_number            21668
_diffrn_reflns_theta_full        67.220
_diffrn_reflns_theta_max         67.220
_diffrn_reflns_theta_min         3.886
_exptl_absorpt_coefficient_mu    1.014
_exptl_absorpt_correction_T_max  0.7529
_exptl_absorpt_correction_T_min  0.6605
_exptl_absorpt_correction_type   multi-scan
_exptl_absorpt_process_details
;
(SADABS, Bruker, 2014)
;
_exptl_crystal_colour            orange
_exptl_crystal_density_diffrn    1.498
_exptl_crystal_description       plate
_exptl_crystal_F_000             320
_exptl_crystal_size_max          0.120
_exptl_crystal_size_mid          0.080
_exptl_crystal_size_min          0.030
_refine_diff_density_max         0.144
_refine_diff_density_min         -0.244
_refine_ls_extinction_method     none
_refine_ls_goodness_of_fit_ref   1.051
_refine_ls_hydrogen_treatment    constr
_refine_ls_matrix_type           full
_refine_ls_number_parameters     208
_refine_ls_number_reflns         2453
_refine_ls_number_restraints     0
_refine_ls_restrained_S_all      1.051
_refine_ls_R_factor_all          0.0396
_refine_ls_R_factor_gt           0.0330
_refine_ls_shift/su_max          0.000
_refine_ls_shift/su_mean         0.000
_refine_ls_structure_factor_coef Fsqd
_refine_ls_weighting_details
'w=1/[\s^2^(Fo^2^)+(0.0461P)^2^+0.2263P] where P=(Fo^2^+2Fc^2^)/3'
_refine_ls_weighting_scheme      calc
_refine_ls_wR_factor_gt          0.0827
_refine_ls_wR_factor_ref         0.0864
_reflns_number_gt                2109
_reflns_number_total             2453
_reflns_threshold_expression     'I > 2\s(I)'
_cod_data_source_file            hb7723sup1.cif
_cod_data_source_block           5b
_cod_database_code               2242319
_shelx_space_group_comment
;
The symmetry employed for this shelxl refinement is uniquely defined
by the following loop, which should always be used as a source of
symmetry information in preference to the above space-group names.
They are only intended as comments.
;
_shelx_estimated_absorpt_t_min   0.888
_shelx_estimated_absorpt_t_max   0.970
_shelx_hkl_file
;
  -1   0   0  756.12   28.10
  -1   0   0  759.92   28.10
  -1   0   0  778.12   28.20
  -1   0   0  795.02   28.20
   1   0   0  745.53   28.20
   1   0   0  744.03   28.20
   1   0   0  761.32   28.20
   1   0   0  803.62   28.20
  -2   0   0  693.43   27.00
  -2   0   0  753.72   27.30
  -2   0   0  742.93   27.30
  -2   0   0  738.63   27.00
  -2   0   0  722.23   27.20
   2   0   0  745.63   27.30
   2   0   0  752.52   27.10
   2   0   0  730.23   27.30
   2   0   0  762.72   27.30
   2   0   0  711.33   26.90
  -3   0   0  149.69    6.70
  -3   0   0  142.99    6.20
  -3   0   0  156.38    6.30
  -3   0   0  157.58    6.30
  -3   0   0  142.09    6.10
  -3   0   0  159.78    6.70
  -3   0   0  146.29    6.50
   3   0   0  159.38    6.80
   3   0   0  157.28    6.70
   3   0   0  141.39    6.00
   3   0   0  159.58    6.30
   3   0   0  145.89    6.50
   3   0   0  161.48    6.40
  -4   0   0   20.90    2.10
  -4   0   0   19.60    2.10
  -4   0   0   22.70    2.70
   4   0   0   16.40    2.00
   4   0   0   20.00    2.10
   4   0   0   22.90    2.60
  -5   0   0   27.80    3.20
  -5   0   0   30.10    3.20
  -5   0   0   28.20    3.40
  -5   0   0   23.40    2.80
  -5   0   0   28.10    3.80
  -5   0   0   16.30    2.70
  -5   0   0   28.10    2.70
  -5   0   0   26.20    2.80
   5   0   0   24.10    2.70
   5   0   0   29.30    3.10
   5   0   0   24.70    2.80
   5   0   0   28.10    3.00
   5   0   0   27.80    3.50
   5   0   0   22.90    3.40
   5   0   0   23.50    2.80
  -6   0   0  364.86   15.70
  -6   0   0  366.16   15.60
  -6   0   0  373.06   16.20
  -6   0   0  379.66   15.50
  -6   0   0  363.56   15.10
  -6   0   0  353.86   15.40
   6   0   0  366.06   15.30
   6   0   0  375.16   15.40
   6   0   0  373.56   15.10
   6   0   0  354.96   15.70
   6   0   0  369.66   15.10
   6   0   0  365.16   15.40
  -7   0   0   74.29    6.40
  -7   0   0   96.19    5.80
  -7   0   0   92.49    5.80
  -7   0   0   97.89    6.30
  -7   0   0   84.19    5.80
  -7   0   0   88.89    6.80
   7   0   0   99.19    5.90
   7   0   0   98.69    5.50
   7   0   0   99.39    6.40
  -8   0   0   43.60    3.70
  -8   0   0   26.90    3.30
   8   0   0   38.90    3.50
   8   0   0   38.10    3.30
   8  -1   0    0.30    1.80
   7  -1   0   72.69    5.10
   7  -1   0   77.39    5.70
   7  -1   0   74.59    4.90
  -7   1   0   74.79    5.40
  -7   1   0   74.89    5.30
  -7   1   0   72.39    6.10
  -7   1   0   66.59    5.30
   6  -1   0    6.90    2.80
   6  -1   0    6.40    2.40
   6  -1   0    1.30    2.20
   6  -1   0    3.30    2.00
  -6   1   0    9.80    3.70
  -6   1   0    0.40    2.20
  -6   1   0    0.80    1.90
  -6   1   0    3.90    2.70
  -6   1   0    4.30    2.20
  -6   1   0    0.30    2.50
   5  -1   0  199.28    9.00
   5  -1   0  199.88    9.50
   5  -1   0  208.48    8.90
   5  -1   0  197.58    9.10
   5  -1   0  183.38    8.80
   5  -1   0  188.08    8.70
  -5   1   0  185.58    9.10
  -5   1   0  196.28    9.00
  -5   1   0  194.48    9.30
  -5   1   0  198.28    8.70
  -5   1   0  203.28   10.30
  -5   1   0  194.68    8.90
  -5   1   0  203.88    8.60
  -5   1   0  203.38    9.30
   4  -1   0  429.26   19.00
   4  -1   0  488.05   18.00
   4  -1   0  482.35   17.80
  -4   1   0  463.45   17.50
  -4   1   0  467.75   17.70
  -4   1   0  441.36   18.30
  -4   1   0  467.45   17.70
  -4   1   0  439.66   17.60
  -4   1   0  451.55   18.10
   3  -1   0  102.79    4.70
   3  -1   0  105.49    4.70
   3  -1   0   99.29    5.10
   3  -1   0   98.39    5.50
  -3   1   0  101.29    5.00
  -3   1   0  105.89    4.50
  -3   1   0  104.39    4.80
  -3   1   0  101.89    5.20
  -3   1   0  100.59    4.50
  -3   1   0  101.29    4.60
   2  -1   0  575.94   22.20
   2  -1   0  607.94   22.40
   2  -1   0  613.94   22.80
   2  -1   0  594.14   22.10
   2  -1   0  559.04   22.10
   2  -1   0  594.84   22.30
  -2   1   0  586.24   22.00
  -2   1   0  631.04   22.40
  -2   1   0  603.64   22.20
  -2   1   0  574.14   22.40
  -2   1   0  619.44   22.60
   1  -1   0  252.67    9.80
   1  -1   0  256.77    9.70
   1  -1   0  252.77    9.80
   1  -1   0  273.57   10.20
  -1   1   0  252.57    9.80
  -1   1   0  264.27    9.80
  -1   1   0  257.07    9.70
  -1   1   0  262.27   10.20
  -1   1   0  267.37    9.90
   0  -1   0  246.78    9.40
   0  -1   0  249.28    9.40
   0  -1   0  244.18    9.10
   0   1   0  235.78    9.10
   0   1   0  252.77    9.00
   0   1   0  240.68    9.40
   0   1   0  249.88    9.00
   0   1   0  242.78    9.40
  -1  -1   0   39.60    1.80
  -1  -1   0   37.30    1.80
  -1  -1   0   36.60    1.80
  -1  -1   0   37.60    1.90
   1   1   0   39.60    2.20
   1   1   0   38.00    2.10
   1   1   0   40.70    1.90
   1   1   0   38.80    1.80
  -2  -1   0  138.79    5.60
  -2  -1   0  139.69    5.80
  -2  -1   0  135.19    5.30
  -2  -1   0  143.19    5.60
  -2  -1   0  132.39    5.70
   2   1   0  144.59    5.90
   2   1   0  142.99    5.90
   2   1   0  130.09    5.70
   2   1   0  141.49    5.60
  -3  -1   0    0.50    1.10
  -3  -1   0    3.30    1.40
  -3  -1   0    2.60    1.10
  -3  -1   0    0.60    1.00
  -3  -1   0    3.70    1.50
   3   1   0    1.80    1.40
   3   1   0    1.90    1.10
   3   1   0    2.00    1.40
   3   1   0    1.80    1.30
   3   1   0    1.80    1.10
  -4  -1   0   24.20    2.80
  -4  -1   0   20.60    2.20
  -4  -1   0   22.60    2.30
  -4  -1   0   22.60    2.20
   4   1   0   25.80    2.40
   4   1   0   22.80    2.20
   4   1   0   20.80    1.80
   4   1   0   22.40    2.50
   4   1   0   23.70    2.70
   4   1   0   24.20    1.80
  -5  -1   0    2.90    2.10
  -5  -1   0   -0.40    1.40
  -5  -1   0    2.40    1.80
  -5  -1   0    1.20    1.60
  -5  -1   0    0.20    1.70
  -5  -1   0    2.40    1.90
  -5  -1   0    1.80    2.10
  -5  -1   0    1.10    1.80
   5   1   0    1.80    2.00
   5   1   0    0.00    1.70
   5   1   0   -0.30    1.70
   5   1   0    3.10    1.80
   5   1   0    5.10    2.00
   5   1   0    0.30    2.30
  -6  -1   0   52.49    5.00
  -6  -1   0   50.89    4.10
  -6  -1   0   48.00    4.40
  -6  -1   0   53.09    4.60
  -6  -1   0   53.19    5.00
  -6  -1   0   50.69    4.30
  -6  -1   0   53.09    3.90
  -6  -1   0   55.49    4.60
   6   1   0   53.19    4.40
   6   1   0   50.79    4.80
   6   1   0   48.20    4.20
   6   1   0   56.59    4.20
   6   1   0   59.79    4.70
  -7  -1   0   25.90    4.30
  -7  -1   0   14.70    3.10
  -7  -1   0   16.40    3.20
  -7  -1   0   12.90    2.80
  -7  -1   0   17.10    2.70
  -7  -1   0   19.60    2.90
   7   1   0   17.80    3.00
   7   1   0   15.30    3.00
   7   1   0   18.90    3.40
  -8  -1   0   27.40    4.10
  -8  -1   0   31.90    3.60
  -8  -1   0   23.40    2.80
  -8  -1   0   31.20    4.10
   8   1   0   40.80    3.70
   8   1   0   31.30    2.80
   8   1   0   42.90    3.60
   7  -2   0    4.80    2.60
   7  -2   0    1.80    2.00
   7  -2   0    2.80    2.10
  -7   2   0    1.10    2.40
  -7   2   0    2.50    2.40
  -7   2   0    4.90    2.60
   6  -2   0   53.69    4.30
   6  -2   0   46.70    4.50
   6  -2   0   49.99    4.10
   6  -2   0   52.29    5.00
  -6   2   0   55.89    5.00
  -6   2   0   49.00    4.50
  -6   2   0   59.49    5.10
   5  -2   0   41.90    4.10
   5  -2   0   36.70    3.40
   5  -2   0   34.80    3.50
   5  -2   0   32.60    3.40
   5  -2   0   38.80    3.60
   5  -2   0   45.10    4.80
  -5   2   0   42.90    4.50
  -5   2   0   30.40    3.30
  -5   2   0   42.40    4.10
  -5   2   0   34.10    2.60
  -5   2   0   31.30    3.30
   4  -2   0   41.50    3.70
   4  -2   0   34.10    2.90
   4  -2   0   38.20    3.30
   4  -2   0   33.20    3.10
   4  -2   0   28.90    2.70
   4  -2   0   30.10    2.90
   4  -2   0   27.20    2.80
  -4   2   0   37.10    3.60
  -4   2   0   27.40    2.70
  -4   2   0   35.30    3.40
  -4   2   0   28.20    2.60
  -4   2   0   28.20    2.50
  -4   2   0   29.00    2.70
  -4   2   0   30.50    2.40
  -4   2   0   28.20    2.30
  -4   2   0   28.80    2.70
  -4   2   0   33.40    2.40
   3  -2   0  410.96   15.20
   3  -2   0  384.36   16.20
   3  -2   0  400.56   15.10
   3  -2   0  381.66   15.80
  -3   2   0  399.06   15.20
  -3   2   0  381.46   15.10
  -3   2   0  364.36   14.80
  -3   2   0  373.96   14.80
  -3   2   0  401.56   15.50
  -3   2   0  389.06   14.70
  -3   2   0  386.26   15.80
   2  -2   0  176.68    7.50
   2  -2   0  165.08    6.90
   2  -2   0  167.88    7.60
   2  -2   0  158.38    6.80
  -2   2   0  165.68    6.80
  -2   2   0  167.08    7.50
  -2   2   0  162.78    6.60
  -2   2   0  176.18    7.00
   1  -2   0  677.93   24.70
   1  -2   0  666.33   24.50
  -1   2   0  644.54   24.00
  -1   2   0  656.03   24.50
  -1   2   0  603.24   23.80
  -1   2   0  618.94   24.00
  -1   2   0  678.33   24.00
   0  -2   0 1585.14   59.39
   0  -2   0 1636.74   58.79
   0  -2   0 1632.34   59.29
   0   2   0 1607.04   58.69
  -1  -2   0 2466.15   86.89
   1   2   0 2384.26   86.79
   1   2   0 2444.36   86.79
   1   2   0 2261.57   87.19
  -2  -2   0   64.49    3.00
  -2  -2   0   54.59    2.80
  -2  -2   0   56.29    2.90
  -2  -2   0   63.49    3.10
  -2  -2   0   61.69    2.80
   2   2   0   66.69    3.40
   2   2   0   57.79    2.90
   2   2   0   61.49    3.00
   2   2   0   61.69    3.10
  -3  -2   0   84.59    4.10
  -3  -2   0   86.59    4.00
  -3  -2   0   83.79    4.10
  -3  -2   0   81.09    4.20
   3   2   0   89.29    4.10
   3   2   0   84.69    4.40
   3   2   0   86.59    4.40
   3   2   0   78.39    4.90
   3   2   0   88.09    4.10
  -4  -2   0  261.17   10.20
  -4  -2   0  252.97   10.60
  -4  -2   0  260.47   10.30
  -4  -2   0  238.68   10.10
   4   2   0  243.48   11.20
   4   2   0  241.38   10.70
   4   2   0  232.28   10.60
   4   2   0  259.97    9.80
   4   2   0  250.47   10.10
   4   2   0  251.27   10.20
   4   2   0  250.57   10.10
  -5  -2   0   13.10    2.50
  -5  -2   0   12.90    2.30
  -5  -2   0   11.50    2.40
  -5  -2   0   10.20    2.40
  -5  -2   0   15.50    2.30
  -5  -2   0   11.50    2.80
  -5  -2   0   14.40    2.70
  -5  -2   0   12.50    2.60
   5   2   0   14.80    1.80
   5   2   0   11.30    2.10
   5   2   0   13.90    2.20
   5   2   0   11.30    2.00
   5   2   0   10.40    2.30
   5   2   0   11.00    2.40
   5   2   0   12.30    1.70
  -6  -2   0  592.24   22.90
  -6  -2   0  601.84   23.60
  -6  -2   0  552.84   22.90
  -6  -2   0  574.94   23.30
  -6  -2   0  588.34   23.70
  -6  -2   0  551.54   22.70
  -6  -2   0  586.34   23.60
   6   2   0  599.04   23.00
   6   2   0  591.74   22.80
   6   2   0  568.44   22.50
   6   2   0  542.85   23.30
  -7  -2   0   52.69    5.20
  -7  -2   0   54.49    4.90
  -7  -2   0   53.59    4.20
  -7  -2   0   55.39    5.00
  -7  -2   0   72.19    5.90
   7   2   0   58.89    4.80
   7   2   0   53.09    4.80
   7   2   0   52.59    5.20
  -8  -2   0   16.10    2.90
  -8  -2   0   10.90    2.20
  -8  -2   0   12.40    2.50
  -8  -2   0   14.80    2.90
   8   2   0   17.70    2.60
   8   2   0   14.80    2.30
   7  -3   0   58.29    4.20
   7  -3   0   50.89    5.20
   7  -3   0   54.39    4.00
  -7   3   0   51.39    4.00
  -7   3   0   47.50    4.20
  -7   3   0   51.39    4.60
   6  -3   0   12.20    3.60
   6  -3   0   11.10    2.60
   6  -3   0    9.50    2.80
   6  -3   0   11.70    2.60
  -6   3   0    8.30    2.70
  -6   3   0   16.60    3.30
  -6   3   0   13.60    3.30
   5  -3   0  356.66   15.50
   5  -3   0  379.06   15.40
   5  -3   0  334.97   14.70
   5  -3   0  380.36   15.60
   5  -3   0  373.66   15.10
   5  -3   0  341.97   15.90
  -5   3   0  360.46   15.50
  -5   3   0  373.66   14.30
  -5   3   0  358.26   15.00
  -5   3   0  376.66   15.30
  -5   3   0  362.16   14.40
   4  -3   0   27.70    3.10
   4  -3   0   37.50    3.30
   4  -3   0   38.40    3.60
   4  -3   0   33.40    3.30
   4  -3   0   37.20    3.20
   4  -3   0   36.20    4.10
   4  -3   0   31.30    3.40
  -4   3   0   42.00    3.80
  -4   3   0   34.40    2.80
  -4   3   0   39.70    4.10
  -4   3   0   40.10    3.50
  -4   3   0   35.70    2.60
   3  -3   0  376.06   16.20
   3  -3   0  397.76   15.30
   3  -3   0  381.56   16.60
  -3   3   0  395.66   16.50
  -3   3   0  390.06   14.80
  -3   3   0  412.76   15.60
  -3   3   0  380.76   15.70
   2  -3   0  286.47   12.10
   2  -3   0  283.77   11.80
   2  -3   0  272.17   11.00
  -2   3   0  256.67   10.60
  -2   3   0  291.37   11.10
  -2   3   0  272.07   10.90
  -2   3   0  282.57   11.90
   1  -3   0    6.90    1.90
   1  -3   0    4.10    1.50
   1  -3   0    5.00    1.30
  -1   3   0    5.30    1.00
  -1   3   0    5.60    1.00
  -1   3   0    2.20    0.70
  -1   3   0    2.40    0.90
  -1   3   0    5.20    1.70
   0  -3   0  458.65   18.10
   0  -3   0  476.25   18.00
   0   3   0  475.95   17.00
   0   3   0  445.36   17.80
   0   3   0  452.35   17.00
  -1  -3   0  238.78   10.10
  -1  -3   0  246.08    9.40
   1   3   0  241.28    9.90
   1   3   0  243.98    9.10
   1   3   0  233.48    9.50
   1   3   0  253.67    9.20
  -2  -3   0  630.84   23.00
  -2  -3   0  570.64   23.00
  -2  -3   0  626.04   22.90
   2   3   0  664.33   23.00
   2   3   0  588.24   23.00
   2   3   0  629.04   23.50
   2   3   0  608.24   23.10
   2   3   0  597.84   22.90
  -3  -3   0    1.20    1.10
  -3  -3   0    0.90    1.10
  -3  -3   0   -0.60    1.20
  -3  -3   0    0.80    1.50
   3   3   0    1.20    1.50
   3   3   0    1.90    1.30
   3   3   0   -0.10    0.80
   3   3   0    0.40    1.30
   3   3   0   -0.30    1.30
  -4  -3   0  593.84   22.10
  -4  -3   0  569.54   22.40
  -4  -3   0  567.84   22.50
  -4  -3   0  565.34   22.10
  -4  -3   0  589.64   22.20
   4   3   0  575.44   22.00
   4   3   0  544.45   22.40
   4   3   0  574.64   22.10
   4   3   0  589.44   22.70
   4   3   0  570.84   23.60
   4   3   0  594.14   21.60
  -5  -3   0   22.70    3.20
  -5  -3   0   19.20    5.30
  -5  -3   0   25.30    2.90
  -5  -3   0   24.20    3.50
  -5  -3   0   20.20    2.80
  -5  -3   0   19.10    2.90
  -5  -3   0   20.40    3.00
  -5  -3   0   25.60    3.70
   5   3   0   24.60    2.30
   5   3   0   26.00    2.70
   5   3   0   23.60    2.80
   5   3   0   26.90    2.90
   5   3   0   13.90    4.30
   5   3   0   20.60    2.60
   5   3   0   21.00    2.60
   5   3   0   26.10    2.20
   5   3   0   24.30    3.60
  -6  -3   0   -2.80    2.30
  -6  -3   0    2.80    2.50
  -6  -3   0   -1.20    2.30
  -6  -3   0    1.80    2.80
  -6  -3   0   -2.20    2.30
  -6  -3   0    1.30    2.20
  -6  -3   0   -6.20    3.60
   6   3   0   -1.50    2.20
   6   3   0    0.90    1.60
   6   3   0   -2.80    2.10
  -7  -3   0  445.06   17.80
  -7  -3   0  506.05   19.90
  -7  -3   0  432.56   18.00
  -7  -3   0  396.86   17.90
  -7  -3   0  401.56   18.20
  -7  -3   0  409.16   17.80
   7   3   0  395.26   17.90
   7   3   0  428.16   17.20
   7   3   0  423.86   17.30
  -8  -3   0   53.19    4.10
  -8  -3   0   56.59    4.20
  -8  -3   0   49.50    4.30
  -8  -3   0   54.99    3.90
  -8  -3   0   53.19    4.10
   8   3   0   54.89    3.80
   8   3   0   52.19    3.90
  -7   4   0   42.90    4.00
   6  -4   0    3.10    2.20
   6  -4   0    2.30    2.10
   6  -4   0    3.70    4.00
   6  -4   0    0.20    2.90
   6  -4   0    1.80    2.00
  -6   4   0    2.30    2.70
  -6   4   0    2.30    2.30
  -6   4   0    0.90    2.50
   5  -4   0  122.39    7.00
   5  -4   0  121.29    8.60
   5  -4   0  114.39    7.80
   5  -4   0  111.19    6.30
   5  -4   0  112.49    7.00
   5  -4   0  114.69    6.30
  -5   4   0  123.59    6.80
  -5   4   0  116.99    6.50
  -5   4   0  112.29    6.80
   4  -4   0   49.30    3.80
   4  -4   0   50.49    4.70
   4  -4   0   48.40    5.10
   4  -4   0   49.60    4.40
   4  -4   0   51.99    4.50
   4  -4   0   46.90    3.90
   4  -4   0   56.49    5.50
  -4   4   0   48.50    4.50
  -4   4   0   53.19    4.10
  -4   4   0   48.20    3.40
  -4   4   0   52.79    3.40
  -4   4   0   50.39    4.10
   3  -4   0    5.40    1.70
   3  -4   0    7.00    2.50
   3  -4   0    7.90    1.90
   3  -4   0    9.00    2.80
   3  -4   0    5.50    2.10
   3  -4   0    6.50    1.90
   3  -4   0    6.50    2.00
   3  -4   0    7.40    2.60
   3  -4   0    4.20    1.70
  -3   4   0    7.70    1.10
  -3   4   0    7.20    2.40
  -3   4   0    9.70    2.70
  -3   4   0    8.10    1.90
  -3   4   0    5.30    1.20
   2  -4   0    6.90    2.00
   2  -4   0    6.30    1.90
  -2   4   0    9.50    1.90
  -2   4   0    7.40    0.90
  -2   4   0   10.80    2.60
  -2   4   0    7.20    1.50
   1  -4   0   52.19    3.30
   1  -4   0   51.29    4.00
   1  -4   0   52.69    3.80
  -1   4   0   55.29    2.80
  -1   4   0   55.19    4.00
   0  -4   0  918.51   34.40
   0  -4   0  845.32   33.50
   0  -4   0  895.31   34.40
   0   4   0  930.01   33.00
   0   4   0  909.71   32.90
   0   4   0  896.01   34.10
  -1  -4   0  770.42   30.70
  -1  -4   0  853.71   30.60
   1   4   0  800.22   30.90
   1   4   0  820.92   30.20
   1   4   0  829.32   31.30
   1   4   0  869.31   30.20
  -2  -4   0   37.90    2.70
  -2  -4   0   41.80    2.60
   2   4   0   41.00    3.10
   2   4   0   45.10    2.50
   2   4   0   46.30    3.70
  -3  -4   0  829.22   31.40
  -3  -4   0  814.52   31.40
  -3  -4   0  815.02   31.50
   3   4   0  844.42   30.80
   3   4   0  850.91   32.10
   3   4   0  837.52   31.50
   3   4   0  863.51   31.50
   3   4   0  847.52   31.60
  -4  -4   0   12.30    2.80
  -4  -4   0   13.20    3.30
  -4  -4   0   14.30    3.20
  -4  -4   0   11.30    2.40
  -4  -4   0    8.50    2.00
  -4  -4   0   10.70    2.40
  -4  -4   0   14.90    2.50
  -4  -4   0   13.50    2.80
  -4  -4   0   12.30    2.10
  -4  -4   0   11.50    2.40
   4   4   0    9.80    2.40
   4   4   0    9.50    2.00
   4   4   0   13.60    1.50
   4   4   0   13.40    2.30
   4   4   0   11.00    1.50
   4   4   0   12.10    3.00
   4   4   0   10.20    2.10
  -5  -4   0   15.50    2.90
  -5  -4   0   13.70    4.00
  -5  -4   0   11.90    2.60
  -5  -4   0   19.10    3.40
  -5  -4   0   13.60    3.90
  -5  -4   0   16.90    2.60
  -5  -4   0   16.20    3.00
  -5  -4   0   12.60    3.20
  -5  -4   0   17.90    3.00
   5   4   0   16.20    2.50
   5   4   0   15.30    2.00
   5   4   0   11.00    2.30
   5   4   0   15.50    2.00
   5   4   0   12.70    2.10
  -6  -4   0  249.48   12.00
  -6  -4   0  231.08   10.90
  -6  -4   0  230.18   11.10
  -6  -4   0  232.38   12.10
  -6  -4   0  231.08   11.10
  -6  -4   0  229.58   10.50
   6   4   0  234.88   10.50
   6   4   0  220.88   10.50
   6   4   0  243.98    9.60
   6   4   0  221.58    9.60
   6   4   0  227.98   10.40
  -7  -4   0  100.99    6.40
  -7  -4   0   96.39    6.70
  -7  -4   0  106.49    6.40
  -7  -4   0  102.29    6.80
  -7  -4   0   92.89    7.20
  -7  -4   0   92.69    6.40
   7   4   0  109.49    7.10
   7   4   0  108.89    6.10
   7   4   0  104.49    6.00
  -8  -4   0   58.89    4.00
   8   4   0   60.89    4.10
   6  -5   0   11.80    3.00
   6  -5   0    7.30    2.20
   6  -5   0    4.00    2.80
  -6   5   0    8.70    2.60
  -6   5   0   14.30    2.60
   5  -5   0   59.89    6.60
   5  -5   0   58.19    4.30
   5  -5   0   55.79    5.40
   5  -5   0   36.50    3.90
   5  -5   0   51.79    4.90
  -5   5   0   46.30    4.20
  -5   5   0   48.90    4.50
  -5   5   0   48.90    3.50
  -5   5   0   50.39    3.70
   4  -5   0    6.00    4.60
   4  -5   0   -1.30    3.20
   4  -5   0    2.60    2.50
   4  -5   0    4.70    3.10
   4  -5   0    3.30    2.20
   4  -5   0    3.20    2.40
   4  -5   0    3.70    2.80
   4  -5   0    2.00    2.20
  -4   5   0    2.10    1.60
  -4   5   0    3.50    2.70
  -4   5   0    3.20    1.70
  -4   5   0    3.90    2.10
  -4   5   0    1.40    2.10
  -4   5   0    4.90    2.40
   3  -5   0    2.30    2.30
   3  -5   0    6.80    2.30
   3  -5   0    5.70    2.20
   3  -5   0    4.80    2.60
   3  -5   0    7.90    2.40
   3  -5   0    4.40    2.90
   3  -5   0    2.00    1.90
   3  -5   0    3.90    2.80
   3  -5   0    7.00    4.00
  -3   5   0    5.30    1.30
  -3   5   0    6.20    1.50
  -3   5   0    3.30    2.00
   2  -5   0    2.00    2.20
   2  -5   0    2.30    2.50
   2  -5   0    2.30    2.40
   2  -5   0    4.20    1.90
   2  -5   0    5.40    2.80
   2  -5   0    0.10    1.60
   2  -5   0    4.10    2.00
   2  -5   0    2.20    2.00
   2  -5   0    0.10    1.60
   2  -5   0    4.00    2.20
  -2   5   0    3.10    2.10
  -2   5   0    1.90    1.60
  -2   5   0    1.30    0.80
   1  -5   0    1.90    1.60
   1  -5   0    2.10    1.80
   1  -5   0   -0.30    1.90
   1  -5   0    2.40    1.70
   1  -5   0    1.20    2.00
   1  -5   0   -1.20    1.50
   1  -5   0   -0.10    1.50
   1  -5   0    1.60    2.30
  -1   5   0    0.40    1.70
  -1   5   0    0.90    1.30
  -1   5   0    0.50    0.80
   0  -5   0   25.00    3.10
   0  -5   0   21.30    2.30
   0   5   0   20.70    2.70
   0   5   0   23.00    2.10
   0   5   0   24.10    1.40
  -1  -5   0   18.50    2.20
   1   5   0   18.50    2.80
   1   5   0   20.30    1.20
   1   5   0   20.20    1.20
  -2  -5   0   39.80    2.70
   2   5   0   44.00    3.40
   2   5   0   40.40    2.30
   2   5   0   44.10    4.00
  -3  -5   0   21.70    2.90
  -3  -5   0   20.50    3.30
  -3  -5   0   23.80    3.00
  -3  -5   0   22.60    3.70
  -3  -5   0   23.10    3.00
  -3  -5   0   17.90    3.10
  -3  -5   0   17.60    2.80
  -3  -5   0   25.20    3.70
   3   5   0   20.80    2.70
   3   5   0   23.20    3.20
   3   5   0   23.60    2.80
  -4  -5   0  180.78    8.90
  -4  -5   0  184.98    8.80
  -4  -5   0  189.58    9.60
  -4  -5   0  177.48    9.60
  -4  -5   0  185.08   10.10
  -4  -5   0  176.18    9.30
  -4  -5   0  180.38    8.90
  -4  -5   0  174.78    8.80
   4   5   0  174.78   10.30
   4   5   0  181.28    7.40
   4   5   0  156.88    8.60
  -5  -5   0    2.70    2.90
  -5  -5   0   10.10    2.90
  -5  -5   0    7.30    3.20
  -5  -5   0   12.10    3.10
  -5  -5   0    7.10    4.00
  -5  -5   0   11.10    4.30
  -5  -5   0   11.70    3.10
  -5  -5   0    8.60    3.20
   5   5   0   12.40    2.30
   5   5   0   11.30    2.40
   5   5   0   14.30    2.00
   5   5   0   11.70    2.50
   5   5   0    7.90    1.90
  -6  -5   0   19.70    4.80
  -6  -5   0   22.80    3.80
  -6  -5   0   36.40    5.10
  -6  -5   0   28.10    4.30
  -6  -5   0   30.70    3.40
  -6  -5   0   22.50    3.90
  -6  -5   0   25.00    4.30
  -6  -5   0   18.80    3.90
   6   5   0   31.90    2.70
   6   5   0   23.30    3.10
   6   5   0   26.50    2.70
   6   5   0   20.70    3.10
  -7  -5   0   15.90    3.00
  -7  -5   0   18.70    3.10
  -7  -5   0   15.70    3.10
  -7  -5   0   25.40    4.10
   7   5   0   26.70    3.00
   7   5   0   24.70    3.90
   7   5   0   13.80    2.40
   7   5   0   17.90    1.80
   5  -6   0   43.40    4.60
   5  -6   0   48.10    3.70
   5  -6   0   47.70    4.10
   5  -6   0   43.20    5.00
  -5   6   0   40.50    3.40
  -5   6   0   43.00    3.20
  -5   6   0   48.50    4.20
   4  -6   0   67.19    5.80
   4  -6   0   74.19    5.40
   4  -6   0   85.59    5.90
   4  -6   0   69.59    5.50
   4  -6   0   74.89    7.10
   4  -6   0   80.59    6.20
   4  -6   0   77.39    6.40
   4  -6   0   77.39    7.00
  -4   6   0   67.89    5.10
  -4   6   0   72.59    4.40
  -4   6   0   79.69    4.30
  -4   6   0   65.49    5.20
   3  -6   0    1.60    3.10
   3  -6   0    3.20    2.30
   3  -6   0    5.20    3.60
   3  -6   0    1.10    2.50
   3  -6   0    0.40    2.70
   3  -6   0    0.80    2.20
   3  -6   0    2.10    2.80
   3  -6   0    0.10    3.90
   3  -6   0    0.20    2.50
  -3   6   0    3.50    2.30
  -3   6   0   -0.40    1.90
  -3   6   0    1.50    1.30
  -3   6   0   -1.90    1.40
   2  -6   0   10.30    3.80
   2  -6   0    8.80    3.60
   2  -6   0    4.60    2.20
   2  -6   0    7.30    2.70
   2  -6   0    9.20    3.60
   2  -6   0    8.90    2.50
   2  -6   0    7.80    2.90
   2  -6   0    7.20    2.80
   2  -6   0    9.10    2.20
  -2   6   0    5.10    2.00
  -2   6   0    6.60    1.20
   1  -6   0   16.00    3.10
   1  -6   0   13.40    2.50
   1  -6   0    7.90    3.10
   1  -6   0   14.40    3.30
   1  -6   0   18.80    3.40
   1  -6   0   11.50    2.20
   1  -6   0   14.90    3.40
  -1   6   0   15.90    2.50
  -1   6   0   20.10    3.30
   0  -6   0   59.09    4.50
   0  -6   0   59.29    4.70
   0  -6   0   52.69    5.00
   0  -6   0   53.29    4.90
   0  -6   0   57.49    5.10
   0  -6   0   54.59    4.50
   0  -6   0   53.99    4.80
   0   6   0   57.79    3.70
  -1  -6   0   23.90    3.80
  -1  -6   0   21.80    3.80
  -1  -6   0   22.90    3.00
  -1  -6   0   24.80    3.60
  -1  -6   0   17.70    2.70
  -1  -6   0   24.50    3.10
  -1  -6   0   20.90    3.60
   1   6   0   22.70    3.30
  -2  -6   0   53.79    5.30
  -2  -6   0   55.09    5.30
  -2  -6   0   54.69    4.10
  -2  -6   0   53.29    4.50
  -2  -6   0   53.79    4.40
  -2  -6   0   47.60    5.10
  -2  -6   0   49.10    4.10
   2   6   0   52.09    4.70
   2   6   0   48.70    4.10
  -3  -6   0  262.27   12.40
  -3  -6   0  238.18   11.60
  -3  -6   0  256.77   12.90
  -3  -6   0  271.37   12.50
  -3  -6   0  245.88   11.50
  -3  -6   0  247.68   11.30
   3   6   0  278.57   14.30
   3   6   0  231.88   11.30
  -4  -6   0   21.90    4.30
  -4  -6   0   26.50    4.20
  -4  -6   0   23.10    3.70
  -4  -6   0   22.90    3.70
  -4  -6   0   18.80    3.40
  -4  -6   0   27.10    4.70
  -4  -6   0   15.30    3.30
   4   6   0   26.80    2.30
  -5  -6   0   90.89    6.60
  -5  -6   0   87.49    7.10
  -5  -6   0   96.19    8.20
  -5  -6   0   87.19    6.10
  -5  -6   0   72.39    6.80
  -5  -6   0   99.79    7.00
  -5  -6   0   88.39    6.30
   5   6   0   88.09    4.60
   5   6   0   93.99    4.80
  -6  -6   0   -0.30    2.80
  -6  -6   0    4.50    4.40
  -6  -6   0    4.30    3.50
  -6  -6   0   -0.40    2.70
  -6  -6   0   -0.10    3.00
  -6  -6   0   -0.50    3.10
   6   6   0    0.60    1.80
   6   6   0    0.80    2.10
   6   6   0    2.20    1.60
  -7  -6   0    9.50    2.90
  -7  -6   0   16.80    2.70
  -7  -6   0   11.60    2.40
   7   6   0   16.40    1.60
   7   6   0   16.90    3.10
   7   6   0   18.70    2.30
   4  -7   0   29.30    3.70
   4  -7   0   35.70    4.60
   4  -7   0   23.30    3.70
   4  -7   0   37.80    3.60
  -4   7   0   36.50    2.70
  -4   7   0   31.60    2.80
   3  -7   0   33.80    4.40
   3  -7   0   27.10    3.90
   3  -7   0   28.40    3.50
   3  -7   0   31.70    4.90
   3  -7   0   31.60    3.60
   3  -7   0   26.70    4.20
  -3   7   0   27.00    2.30
  -3   7   0   16.30    2.60
   2  -7   0  250.57   11.30
   2  -7   0  251.47   12.60
   2  -7   0  251.47   11.20
   2  -7   0  234.48   11.50
   2  -7   0  230.78   11.90
   2  -7   0  247.88   12.60
  -2   7   0  240.08    9.60
  -2   7   0  229.68   10.80
   1  -7   0   54.89    5.30
   1  -7   0   48.60    4.50
   1  -7   0   36.40    4.70
   1  -7   0   55.59    5.10
   1  -7   0   58.29    5.10
   1  -7   0   56.29    6.00
  -1   7   0   44.70    3.90
  -1   7   0   49.50    4.00
   0  -7   0    4.20    2.70
   0  -7   0    0.60    2.70
   0  -7   0    3.60    3.10
   0  -7   0   -0.50    2.30
   0  -7   0    2.50    2.90
   0  -7   0   11.30    3.50
  -1  -7   0  117.59    7.90
  -1  -7   0  112.39    6.60
  -1  -7   0  109.89    7.50
  -1  -7   0  124.89    7.10
  -1  -7   0  111.09    7.10
  -1  -7   0  107.69    6.80
   1   7   0  112.29    6.50
  -2  -7   0   86.09    5.40
  -2  -7   0   82.19    7.10
  -2  -7   0   85.09    6.80
  -2  -7   0   91.99    6.20
  -2  -7   0   82.69    6.60
  -2  -7   0   86.79    6.00
  -3  -7   0   33.30    4.30
  -3  -7   0   38.70    5.10
  -3  -7   0   34.40    4.20
  -3  -7   0   35.10    5.00
  -3  -7   0   34.00    5.10
  -4  -7   0   37.70    5.10
  -4  -7   0   35.90    4.50
  -4  -7   0   32.60    5.00
  -4  -7   0   38.60    5.80
  -4  -7   0   36.60    4.50
   4   7   0   36.80    2.80
  -5  -7   0   65.19    6.00
  -5  -7   0   51.09    5.00
  -5  -7   0   58.39    5.80
  -5  -7   0   54.59    5.00
  -5  -7   0   55.99    5.70
  -5  -7   0   67.19    7.50
   5   7   0   58.39    3.60
   5   7   0   52.99    3.50
  -6  -7   0    2.60    2.60
  -6  -7   0   -2.60    2.50
  -6  -7   0    3.40    3.10
  -6  -7   0    3.70    4.20
  -6  -7   0    0.40    2.70
   6   7   0    1.30    1.40
   6   7   0    0.40    1.60
   3  -8   0   25.80    3.10
   3  -8   0   23.90    3.50
   3  -8   0   24.30    4.30
   3  -8   0   17.60    2.90
   3  -8   0   11.10    3.10
  -3   8   0   20.40    1.90
  -3   8   0   27.50    2.40
   2  -8   0   33.30    3.60
   2  -8   0   37.10    5.20
   2  -8   0   36.10    3.80
   2  -8   0   27.60    3.50
   2  -8   0   26.80    4.40
   2  -8   0   25.00    3.90
  -2   8   0   34.30    2.60
   1  -8   0    0.60    2.90
   1  -8   0    2.10    2.60
   1  -8   0    0.00    3.00
   1  -8   0    0.30    3.30
   1  -8   0   -4.70    2.80
   1  -8   0    0.50    3.30
   0  -8   0   -1.40    3.20
   0  -8   0   -0.90    2.60
   0  -8   0    0.00    3.00
   0  -8   0   -1.10    3.20
   0  -8   0    0.80    3.00
  -1  -8   0    4.60    2.60
  -1  -8   0   -2.70    2.60
  -1  -8   0    3.10    3.20
  -1  -8   0    0.10    3.70
  -1  -8   0    4.50    3.60
  -1  -8   0    2.90    2.80
  -2  -8   0    4.90    3.30
  -2  -8   0   10.80    4.10
  -2  -8   0    3.90    3.70
  -2  -8   0    3.90    2.60
  -2  -8   0   -3.40    3.10
  -2  -8   0    4.50    3.00
  -3  -8   0   67.99    6.40
  -3  -8   0   65.89    7.10
  -3  -8   0   78.49    6.40
  -3  -8   0   74.29    7.10
  -3  -8   0   70.19    5.90
  -4  -8   0    1.70    2.80
  -4  -8   0   -0.70    3.40
  -4  -8   0    1.80    3.50
  -4  -8   0    1.20    3.00
  -4  -8   0   -1.30    4.20
   4   8   0    0.60    1.20
  -5  -8   0   10.70    3.30
  -5  -8   0   17.00    3.50
  -5  -8   0   19.70    3.70
  -5  -8   0   19.80    4.70
  -5  -8   0   13.60    3.20
   5   8   0   16.40    1.80
   5   8   0   14.80    1.90
  -6  -8   0    6.00    2.60
  -6  -8   0   -2.00    4.50
   6   8   0    4.70    1.20
   2  -9   0   41.20    4.40
   2  -9   0   52.39    4.00
   1  -9   0   14.50    2.90
   1  -9   0    8.80    2.80
   1  -9   0    8.40    3.20
   1  -9   0    7.00    2.30
   0  -9   0   17.20    2.80
   0  -9   0    4.70    2.70
   0  -9   0   15.60    3.50
   0  -9   0   15.50    3.10
   0  -9   0   14.20    3.40
  -1  -9   0   70.09    5.80
  -1  -9   0   55.49    5.30
  -1  -9   0   77.89    5.10
  -1  -9   0   75.49    5.70
  -1  -9   0   48.80    5.10
  -2  -9   0   77.59    5.70
  -2  -9   0   70.29    5.80
  -2  -9   0   74.39    6.60
  -2  -9   0   73.09    5.10
  -2  -9   0   72.39    6.00
  -3  -9   0    1.10    2.80
  -3  -9   0    4.30    3.50
  -3  -9   0    6.20    3.70
  -3  -9   0    5.50    3.00
  -3  -9   0    5.10    2.90
  -4  -9   0    2.70    2.70
  -4  -9   0    2.70    3.70
  -4  -9   0    4.60    2.40
  -4  -9   0    2.90    2.30
  -4  -9   0    8.40    3.10
  -4  -9   1    0.40    2.50
  -4  -9   1    1.80    2.40
  -4  -9   1   -0.30    2.10
  -4  -9   1  -10.90    3.30
  -4  -9   1    0.20    2.70
  -3  -9   1   35.80    4.10
  -3  -9   1   35.90    4.10
  -3  -9   1   33.20    4.90
  -3  -9   1   37.40    3.80
  -3  -9   1   44.30    3.90
  -2  -9   1   35.60    3.90
  -2  -9   1   42.10    4.70
  -2  -9   1   31.70    3.20
  -2  -9   1   42.00    4.90
  -2  -9   1   31.60    3.80
  -1  -9   1  119.39    6.80
  -1  -9   1  161.68   10.00
  -1  -9   1  127.69    7.40
  -1  -9   1  127.99    8.00
  -1  -9   1  114.39    7.40
   0  -9   1    1.60    2.40
   0  -9   1   -0.40    2.90
   0  -9   1    2.90    2.90
   0  -9   1    1.20    2.80
   1  -9   1    0.80    2.20
   1  -9   1   -1.10    2.60
   1  -9   1   -0.20    2.80
   1  -9   1    1.20    2.30
   1  -9   1   -0.90    2.30
   2  -9   1   -1.30    1.90
   2  -9   1    0.90    2.40
   2  -9   1   -0.80    2.00
   2  -9   1   -0.60    1.70
   5   8  -1    2.30    1.30
  -5  -8   1    4.60    2.70
  -5  -8   1   -0.30    2.80
  -5  -8   1    1.40    2.90
  -5  -8   1    3.10    4.50
  -5  -8   1    0.70    2.60
   4   8  -1   72.69    4.00
  -4  -8   1   70.49    6.50
  -4  -8   1   80.49    6.60
  -4  -8   1   76.29    6.40
  -4  -8   1   82.49    7.70
  -4  -8   1   73.59    6.40
   3   8  -1    1.70    1.30
  -3  -8   1    3.40    3.10
  -3  -8   1    5.60    3.70
  -3  -8   1    3.80    3.40
  -3  -8   1    2.20    3.80
  -3  -8   1    4.80    4.20
  -2  -8   1    0.40    3.70
  -2  -8   1    7.20    3.90
  -2  -8   1    3.90    2.90
  -2  -8   1    2.70    3.20
  -2  -8   1    3.60    3.60
  -2  -8   1    3.00    3.90
  -1  -8   1   71.49    5.90
  -1  -8   1   76.09    6.90
  -1  -8   1   74.49    5.70
  -1  -8   1   77.49    6.90
  -1  -8   1   66.29    5.90
  -1  -8   1   71.19    6.10
   0  -8   1   47.90    4.90
   0  -8   1   32.10    4.70
   0  -8   1   45.90    5.40
   0  -8   1   45.10    5.40
   0  -8   1   49.20    4.50
  -1   8  -1   30.70    2.20
  -1   8  -1   21.70    3.70
   1  -8   1   27.70    4.50
   1  -8   1   30.40    4.20
   1  -8   1   34.00    3.80
   1  -8   1   27.80    4.20
   1  -8   1   29.90    4.00
  -2   8  -1    6.90    1.40
   2  -8   1    5.10    2.80
   2  -8   1    5.80    3.00
   2  -8   1    3.40    3.30
   2  -8   1    5.50    2.50
   2  -8   1    7.50    3.60
   2  -8   1    2.10    3.00
   3  -8   1   25.20    4.30
   3  -8   1   34.10    4.40
   3  -8   1   19.00    3.10
   3  -8   1   22.10    3.30
   3  -8   1   30.90    3.20
   6   7  -1   13.50    3.00
   6   7  -1   13.60    1.70
  -6  -7   1   15.40    2.90
  -6  -7   1   14.10    4.30
  -6  -7   1   11.10    3.20
  -6  -7   1    8.90    2.90
   5   7  -1   12.20    1.90
   5   7  -1   15.40    2.10
  -5  -7   1   11.90    3.90
  -5  -7   1   11.50    3.60
  -5  -7   1    7.00    3.30
  -5  -7   1   13.40    4.60
  -5  -7   1   17.90    4.00
   4   7  -1    8.80    1.80
  -4  -7   1    2.20    3.10
  -4  -7   1    7.50    3.70
  -4  -7   1    6.00    3.40
  -4  -7   1    6.50    4.50
  -4  -7   1   13.50    4.00
   3   7  -1   56.49    5.80
   3   7  -1   49.99    3.00
  -3  -7   1   46.30    4.20
  -3  -7   1   55.79    6.20
  -3  -7   1   59.59    5.20
  -3  -7   1   53.99    5.70
  -3  -7   1   40.50    4.80
  -3  -7   1   57.39    6.10
   2   7  -1   18.40    3.20
   2   7  -1   20.60    3.40
  -2  -7   1   15.00    3.50
  -2  -7   1   16.60    3.90
  -2  -7   1   18.70    3.60
  -2  -7   1   16.20    4.30
  -2  -7   1   17.60    3.10
  -2  -7   1   12.10    3.80
   1   7  -1    6.90    2.80
  -1  -7   1    6.00    3.00
  -1  -7   1    3.50    2.90
  -1  -7   1    3.30    2.60
  -1  -7   1    4.50    3.50
  -1  -7   1    3.00    3.30
  -1  -7   1    8.70    3.70
   0  -7   1   52.69    4.80
   0  -7   1   48.10    5.10
   0  -7   1   46.80    5.10
   0  -7   1   45.50    4.20
   0  -7   1   43.10    5.10
   0  -7   1   46.30    5.40
  -1   7  -1    3.90    2.00
   1  -7   1    4.60    3.20
   1  -7   1    9.30    3.50
   1  -7   1    2.40    3.10
   1  -7   1    1.90    2.50
   1  -7   1    5.70    3.20
   1  -7   1    7.10    3.70
   1  -7   1   -2.40    3.70
  -2   7  -1  239.78    9.80
  -2   7  -1  231.78   10.90
   2  -7   1  247.78   11.90
   2  -7   1  250.47   12.80
   2  -7   1  256.27   12.30
   2  -7   1  255.37   11.50
   2  -7   1  236.68   12.50
   2  -7   1  257.27   11.70
  -3   7  -1  239.58   10.20
  -3   7  -1  253.27   11.30
   3  -7   1  271.37   11.70
   3  -7   1  274.27   11.60
   3  -7   1  245.58   12.30
   3  -7   1  256.47   12.70
   3  -7   1  273.87   13.10
   3  -7   1  246.38   11.80
  -4   7  -1   21.50    2.10
  -4   7  -1   16.50    2.80
  -4   7  -1   18.10    2.10
   4  -7   1   26.90    4.00
   4  -7   1   23.00    3.40
   4  -7   1   31.60    3.30
   4  -7   1   28.20    4.30
   4  -7   1   13.10    2.70
  -5   7  -1   15.00    3.20
   5  -7   1    5.00    3.30
   7   6  -1   19.70    3.00
  -7  -6   1   15.70    2.70
  -7  -6   1   13.90    2.50
   6   6  -1  101.39    5.00
   6   6  -1  112.79    7.10
   6   6  -1   94.39    5.10
   6   6  -1   99.29    5.70
  -6  -6   1   97.29    7.10
  -6  -6   1  106.19    6.60
  -6  -6   1  104.19    8.30
  -6  -6   1  110.19    7.10
   5   6  -1    1.20    1.70
   5   6  -1   -0.40    1.80
  -5  -6   1   -4.30    2.70
  -5  -6   1    2.60    3.50
  -5  -6   1    2.50    3.40
  -5  -6   1    0.90    4.10
  -5  -6   1   -0.90    2.80
  -5  -6   1    5.70    3.90
   4   6  -1    8.50    3.00
   4   6  -1   13.30    1.90
  -4  -6   1   11.10    3.60
  -4  -6   1   12.60    3.30
  -4  -6   1   16.10    3.30
  -4  -6   1   21.60    4.90
  -4  -6   1   13.20    3.60
  -4  -6   1   14.50    4.10
  -4  -6   1   12.30    2.70
   3   6  -1    0.70    1.10
   3   6  -1    0.40    2.40
   3   6  -1    4.70    2.40
  -3  -6   1   -2.70    3.00
  -3  -6   1    0.00    2.20
  -3  -6   1   -2.10    2.90
  -3  -6   1    3.10    3.30
  -3  -6   1    0.10    2.10
  -3  -6   1   -0.40    2.30
  -3  -6   1    1.10    2.80
  -3  -6   1    2.70    2.20
   2   6  -1   14.00    2.90
   2   6  -1   16.60    3.30
  -2  -6   1   13.60    2.50
  -2  -6   1   14.70    2.90
  -2  -6   1   14.10    3.40
  -2  -6   1   14.80    2.50
  -2  -6   1   12.20    2.80
  -2  -6   1   12.10    3.30
  -2  -6   1   16.60    3.60
   1   6  -1  211.58   10.80
  -1  -6   1  216.48   10.00
  -1  -6   1  220.28   10.50
  -1  -6   1  228.78   10.40
  -1  -6   1  227.58   10.90
  -1  -6   1  213.18   10.90
  -1  -6   1  237.98   11.30
  -1  -6   1  230.48   10.10
  -1  -6   1  219.18   10.20
   0   6  -1   73.59    5.70
   0  -6   1   74.29    5.90
   0  -6   1   61.19    6.40
   0  -6   1   74.69    5.20
   0  -6   1   68.79    4.60
   0  -6   1   71.39    5.60
   0  -6   1   76.09    4.90
   0  -6   1   75.59    5.80
   0  -6   1   72.19    5.70
  -1   6  -1   54.59    3.70
  -1   6  -1   53.99    3.90
   1  -6   1   51.59    4.30
   1  -6   1   54.29    5.10
   1  -6   1   60.69    4.80
   1  -6   1   50.29    4.90
   1  -6   1   58.29    4.60
   1  -6   1   53.79    4.80
   1  -6   1   51.79    5.00
   1  -6   1   47.80    4.20
   1  -6   1   49.70    5.30
  -2   6  -1   25.50    3.00
  -2   6  -1   25.00    2.10
  -2   6  -1   32.20    3.30
   2  -6   1   37.70    4.70
   2  -6   1   32.40    3.60
   2  -6   1   36.10    3.90
   2  -6   1   30.90    4.10
   2  -6   1   35.60    3.70
   2  -6   1   34.10    4.30
   2  -6   1   28.90    4.40
  -3   6  -1    3.40    1.30
  -3   6  -1    3.60    2.00
  -3   6  -1    2.40    2.00
  -3   6  -1    2.70    1.50
   3  -6   1    1.40    2.80
   3  -6   1    4.70    2.70
   3  -6   1    2.00    3.30
   3  -6   1    2.90    2.40
   3  -6   1    1.50    2.60
   3  -6   1    2.20    2.40
   3  -6   1    4.50    2.90
   3  -6   1    3.80    3.50
  -4   6  -1   34.60    2.90
  -4   6  -1   38.10    3.20
  -4   6  -1   43.40    3.90
  -4   6  -1   35.10    3.90
   4  -6   1   43.20    4.40
   4  -6   1   28.80    3.60
   4  -6   1   43.30    3.90
   4  -6   1   30.80    4.40
   4  -6   1   34.80    3.90
   4  -6   1   38.10    5.30
   4  -6   1   28.60    3.90
  -5   6  -1   23.20    2.80
  -5   6  -1   16.00    2.60
  -5   6  -1   20.70    2.40
   5  -6   1   10.00    2.70
   5  -6   1   22.70    3.10
   5  -6   1   18.20    2.90
   5  -6   1   23.90    4.10
   5  -6   1   21.60    2.90
   7   5  -1   40.90    3.40
   7   5  -1   39.30    4.20
   7   5  -1   32.80    2.80
  -7  -5   1   27.70    3.50
  -7  -5   1   24.80    3.30
  -7  -5   1   25.30    3.50
   6   5  -1   76.39    4.60
   6   5  -1   72.39    5.00
   6   5  -1   81.29    4.50
   6   5  -1   83.99    5.30
   6   5  -1   95.89    6.80
  -6  -5   1   76.19    6.70
  -6  -5   1   76.39    5.10
  -6  -5   1   79.39    7.60
  -6  -5   1   87.89    7.10
  -6  -5   1   83.99    6.00
  -6  -5   1   89.79    6.30
   5   5  -1   29.30    2.60
   5   5  -1   25.90    2.50
   5   5  -1   23.20    4.70
   5   5  -1   35.70    3.40
  -5  -5   1   25.20    3.80
  -5  -5   1   22.30    3.50
  -5  -5   1   30.10    4.10
  -5  -5   1   30.10    3.90
  -5  -5   1   24.10    4.90
  -5  -5   1   22.90    4.30
  -5  -5   1   22.40    3.20
  -5  -5   1   24.80    4.10
  -5  -5   1   21.70    3.00
   4   5  -1   80.09    5.20
   4   5  -1   82.19    4.20
   4   5  -1   88.19    4.20
   4   5  -1   83.09    5.30
   4   5  -1   68.09    6.20
  -4  -5   1   90.39    7.00
  -4  -5   1   87.39    5.80
  -4  -5   1   87.89    6.20
  -4  -5   1   83.79    6.10
  -4  -5   1   84.29    5.90
  -4  -5   1   82.79    5.80
  -4  -5   1   81.49    5.60
  -4  -5   1   81.49    5.90
  -4  -5   1   88.89    6.90
   3   5  -1   91.79    6.00
   3   5  -1   95.89    5.20
   3   5  -1   92.09    5.20
   3   5  -1   95.39    4.10
  -3  -5   1   91.69    5.60
  -3  -5   1   97.29    5.20
  -3  -5   1   91.89    5.70
  -3  -5   1   87.39    6.00
  -3  -5   1   93.69    6.50
  -3  -5   1   88.59    5.60
  -3  -5   1   86.39    5.60
  -3  -5   1   96.89    6.40
  -3  -5   1   96.09    5.60
   2   5  -1    1.00    1.00
   2   5  -1    2.70    2.10
   2   5  -1    2.00    2.30
  -2  -5   1    1.90    2.50
  -2  -5   1    2.20    1.20
  -2  -5   1    0.80    2.30
  -2  -5   1   -0.80    1.90
  -2  -5   1   -3.90    1.90
  -2  -5   1    1.90    2.00
  -2  -5   1   -0.80    1.70
   1   5  -1  357.26   15.20
   1   5  -1  354.56   13.60
   0   5  -1  940.41   34.70
   0   5  -1  955.70   35.10
   0   5  -1  971.90   35.90
   0  -5   1  889.41   36.50
  -1   5  -1   18.40    1.80
  -1   5  -1   16.70    2.10
  -1   5  -1   14.00    2.50
   1  -5   1   23.80    3.60
   1  -5   1   15.00    2.60
   1  -5   1   15.50    2.80
   1  -5   1   23.60    2.60
   1  -5   1   19.10    3.00
   1  -5   1   22.10    2.60
   1  -5   1   18.70    3.20
  -2   5  -1  154.48    8.30
  -2   5  -1  165.58    7.40
  -2   5  -1  149.39    6.10
   2  -5   1  153.68    8.10
   2  -5   1  153.48    7.30
   2  -5   1  153.08    7.50
   2  -5   1  155.98    8.30
   2  -5   1  143.89    7.30
   2  -5   1  148.59    8.10
   2  -5   1  143.49    8.30
   2  -5   1  146.29    7.30
   2  -5   1  149.88    7.50
  -3   5  -1   -0.60    1.90
  -3   5  -1   -4.00    1.80
  -3   5  -1   -0.60    1.20
  -3   5  -1   -1.60    1.60
  -3   5  -1    1.60    1.10
   3  -5   1    1.90    1.80
   3  -5   1    0.00    2.30
   3  -5   1    2.40    2.00
   3  -5   1    3.60    3.80
   3  -5   1   -0.70    2.60
   3  -5   1    0.30    2.20
   3  -5   1   -0.70    1.90
   3  -5   1    2.20    2.10
   3  -5   1   -1.60    2.60
   3  -5   1    0.20    2.20
  -4   5  -1    0.60    2.80
  -4   5  -1    2.80    2.10
  -4   5  -1    0.60    1.50
  -4   5  -1    5.70    2.30
   4  -5   1    1.20    2.20
   4  -5   1    1.60    3.20
   4  -5   1    1.80    2.50
   4  -5   1    1.30    2.30
   4  -5   1    5.80    2.90
   4  -5   1   -0.10    2.10
   4  -5   1   -0.80    3.00
   4  -5   1    5.10    4.40
  -5   5  -1    3.60    2.10
  -5   5  -1   -1.90    2.00
  -5   5  -1   -0.90    1.70
  -5   5  -1    2.10    2.80
   5  -5   1    2.40    2.20
   5  -5   1   -0.10    2.10
   5  -5   1    1.70    4.00
   5  -5   1    2.80    3.40
   5  -5   1   -1.00    2.40
   5  -5   1   -0.40    2.30
  -6   5  -1   79.69    4.90
  -6   5  -1   81.79    5.40
  -6   5  -1   86.59    5.20
   6  -5   1   92.09    6.10
   6  -5   1   85.19    5.30
   7   4  -1   27.00    3.10
   7   4  -1   25.00    2.90
   7   4  -1   42.20    4.50
  -7  -4   1   27.90    3.40
  -7  -4   1   31.70    4.30
  -7  -4   1   29.00    3.70
  -7  -4   1   22.80    3.20
  -7  -4   1   28.70    3.50
   6   4  -1   24.40    4.10
   6   4  -1   17.50    2.10
   6   4  -1   19.60    3.00
   6   4  -1   18.20    3.10
  -6  -4   1   14.70    3.30
  -6  -4   1   17.40    4.20
  -6  -4   1   14.70    3.40
  -6  -4   1   10.90    3.00
  -6  -4   1    3.60    5.10
  -6  -4   1   18.70    2.80
  -6  -4   1   19.30    3.70
  -6  -4   1   14.00    2.80
   5   4  -1    2.90    1.70
   5   4  -1    2.70    2.10
   5   4  -1   -1.20    1.80
   5   4  -1    1.10    1.90
   5   4  -1    5.30    1.80
   5   4  -1    1.00    2.10
   5   4  -1    4.30    1.60
  -5  -4   1    1.50    2.50
  -5  -4   1    5.00    2.60
  -5  -4   1    2.90    3.80
  -5  -4   1    3.10    2.40
  -5  -4   1    2.90    2.30
  -5  -4   1    3.20    2.50
  -5  -4   1   -1.10    3.10
  -5  -4   1    2.60    2.10
   4   4  -1  132.29    8.10
   4   4  -1  121.49    6.30
   4   4  -1  138.89    5.80
   4   4  -1  131.19    7.30
   4   4  -1  124.59    6.20
   4   4  -1  135.39    5.80
   4   4  -1  140.09    6.60
   4   4  -1  131.69    6.60
  -4  -4   1  134.69    7.50
  -4  -4   1  126.99    6.80
  -4  -4   1  131.49    7.40
  -4  -4   1  135.79    6.50
  -4  -4   1  145.49    7.80
  -4  -4   1  116.69    6.90
  -4  -4   1  125.49    6.60
  -4  -4   1  132.99    6.90
  -4  -4   1  128.49    7.10
  -4  -4   1  138.59    8.20
   3   4  -1   12.10    2.10
   3   4  -1    7.50    1.70
   3   4  -1    9.00    2.10
   3   4  -1    9.60    2.40
   3   4  -1    7.70    1.10
  -3  -4   1    8.50    1.70
  -3  -4   1    6.50    1.70
  -3  -4   1    9.50    2.10
   2   4  -1    1.80    1.90
   2   4  -1    0.00    1.00
   2   4  -1   -0.30    1.60
  -2  -4   1   -0.90    0.90
  -2  -4   1    0.40    1.20
   1   4  -1   60.99    3.00
   1   4  -1   52.69    4.20
   1   4  -1   58.59    4.30
  -1  -4   1   57.99    2.90
  -1  -4   1   60.19    4.30
   0   4  -1    0.80    0.70
   0   4  -1    0.80    1.30
   0   4  -1   -0.70    0.80
   0   4  -1    0.20    1.00
   0  -4   1    1.20    1.70
  -1   4  -1  485.35   18.30
  -1   4  -1  482.35   19.00
  -1   4  -1  476.15   18.00
   1  -4   1  450.45   18.20
   1  -4   1  458.55   19.10
   1  -4   1  491.75   19.50
  -2   4  -1  100.19    5.80
  -2   4  -1   97.69    4.90
  -2   4  -1  105.29    4.90
  -2   4  -1   95.99    4.00
   2  -4   1   95.09    5.80
   2  -4   1   88.39    5.70
  -3   4  -1  160.08    6.50
  -3   4  -1  165.18    8.50
  -3   4  -1  161.58    7.40
  -3   4  -1  149.69    6.40
  -3   4  -1  147.69    7.20
  -3   4  -1  154.58    7.20
   3  -4   1  146.89    7.80
   3  -4   1  149.79    7.90
   3  -4   1  146.79    7.10
   3  -4   1  158.48    8.10
   3  -4   1  155.98    7.60
   3  -4   1  159.48    7.40
   3  -4   1  150.48    7.40
   3  -4   1  144.09    7.00
   3  -4   1  159.08    7.40
   3  -4   1  156.08    8.50
  -4   4  -1   51.49    4.00
  -4   4  -1   53.89    4.40
  -4   4  -1   54.19    4.10
  -4   4  -1   53.69    3.40
  -4   4  -1   53.59    4.10
  -4   4  -1   54.39    4.50
   4  -4   1   50.09    5.30
   4  -4   1   54.19    5.60
   4  -4   1   54.19    4.00
   4  -4   1   60.69    4.60
   4  -4   1   59.09    4.10
   4  -4   1   62.69    4.80
   4  -4   1   49.00    4.50
  -5   4  -1    4.10    3.00
  -5   4  -1    2.20    2.30
  -5   4  -1    2.90    2.10
  -5   4  -1    3.80    1.80
  -5   4  -1    3.80    2.10
   5  -4   1    3.50    2.40
   5  -4   1    2.20    2.40
   5  -4   1    3.50    2.10
   5  -4   1    5.40    3.60
  -6   4  -1    1.70    2.60
  -6   4  -1    4.00    2.50
  -6   4  -1    3.30    3.20
   6  -4   1    3.90    2.40
   6  -4   1    2.90    2.00
   6  -4   1    1.60    3.90
   6  -4   1    2.00    2.20
   6  -4   1    0.60    3.10
  -7   4  -1    0.20    1.90
  -7   4  -1    1.30    2.30
   7  -4   1    1.90    1.60
   8   3  -1    1.40    2.10
   8   3  -1    0.90    1.70
  -8  -3   1    1.20    2.00
  -8  -3   1   -0.10    1.50
   7   3  -1  103.89    5.90
   7   3  -1   95.19    6.90
   7   3  -1   95.69    5.80
  -7  -3   1  100.89    6.20
  -7  -3   1   99.19    6.70
  -7  -3   1   81.19    6.50
  -7  -3   1   97.89    6.60
  -7  -3   1   92.19    6.20
   6   3  -1   50.39    5.00
   6   3  -1   46.30    4.10
   6   3  -1   31.90    3.40
   6   3  -1   38.70    3.10
   6   3  -1   42.90    3.80
  -6  -3   1   37.50    3.70
  -6  -3   1   40.80    4.80
  -6  -3   1   35.20    4.10
  -6  -3   1   38.90    3.90
  -6  -3   1   38.90    4.60
  -6  -3   1   33.40    3.90
  -6  -3   1   40.50    4.90
   5   3  -1    0.70    1.80
   5   3  -1    0.20    2.00
   5   3  -1    2.80    2.00
   5   3  -1   -3.90    1.80
   5   3  -1    1.70    1.50
   5   3  -1   -0.50    1.90
   5   3  -1    0.60    1.50
   5   3  -1    1.50    1.50
  -5  -3   1    0.30    1.90
  -5  -3   1   -0.30    1.90
  -5  -3   1   -0.30    2.00
  -5  -3   1   -0.50    2.20
  -5  -3   1    3.90    2.60
  -5  -3   1    0.40    3.20
  -5  -3   1   -0.40    2.20
  -5  -3   1   -1.20    3.20
  -5  -3   1   -0.40    1.70
  -5  -3   1    0.40    2.30
   4   3  -1  293.67   12.50
   4   3  -1  324.37   12.10
   4   3  -1  314.07   12.60
   4   3  -1  303.97   12.00
   4   3  -1  339.27   13.10
   4   3  -1  305.97   14.10
   4   3  -1  298.57   13.30
   4   3  -1  287.87   13.00
   4   3  -1  317.37   12.70
  -4  -3   1  305.57   14.10
  -4  -3   1  331.37   12.60
  -4  -3   1  301.97   13.50
  -4  -3   1  309.87   13.00
  -4  -3   1  301.07   13.00
  -4  -3   1  302.37   13.00
  -4  -3   1  301.57   12.70
  -4  -3   1  305.57   13.10
  -4  -3   1  327.67   12.70
  -4  -3   1  309.47   13.50
   3   3  -1  141.89    6.30
   3   3  -1  137.79    6.40
   3   3  -1  137.59    6.80
   3   3  -1  139.99    6.30
   3   3  -1  130.29    5.50
  -3  -3   1  141.09    6.00
  -3  -3   1  135.79    6.00
  -3  -3   1  135.69    6.20
  -3  -3   1  139.59    6.00
  -3  -3   1  122.19    6.00
   2   3  -1  117.69    5.90
   2   3  -1  123.09    5.50
   2   3  -1  121.89    5.50
   2   3  -1  128.19    5.40
  -2  -3   1  107.89    5.10
  -2  -3   1  115.29    5.10
  -2  -3   1  118.39    5.30
  -2  -3   1  125.19    5.10
  -2  -3   1  121.59    5.20
   1   3  -1  298.27   10.80
   1   3  -1  263.47   10.80
   1   3  -1  258.97   10.50
   1   3  -1  280.57   10.70
   1   3  -1  298.27   11.60
  -1  -3   1  252.17   11.60
  -1  -3   1  288.57   10.70
  -1  -3   1  305.47   11.80
   0   3  -1 1550.84   52.99
   0   3  -1 1411.46   53.09
   0   3  -1 1450.75   53.49
   0  -3   1 1371.46   53.19
   0  -3   1 1461.25   53.89
  -1   3  -1  267.27   10.50
  -1   3  -1  275.57   10.40
  -1   3  -1  262.47   10.40
  -1   3  -1  273.37   11.10
   1  -3   1  252.47   10.40
   1  -3   1  286.37   11.50
   1  -3   1  258.77   10.50
   1  -3   1  265.17   11.20
  -2   3  -1   38.10    3.30
  -2   3  -1   38.80    2.70
  -2   3  -1   39.10    2.70
   2  -3   1   40.60    3.50
   2  -3   1   33.90    3.40
  -3   3  -1   17.10    2.10
  -3   3  -1   16.50    2.80
  -3   3  -1   20.20    1.70
  -3   3  -1   21.60    2.50
   3  -3   1   25.60    2.40
   3  -3   1   18.40    2.90
   3  -3   1   20.90    3.20
  -4   3  -1    1.60    1.70
  -4   3  -1    2.90    2.20
  -4   3  -1    1.40    2.20
  -4   3  -1    2.70    1.70
  -4   3  -1    3.40    1.60
  -4   3  -1    1.10    1.70
  -4   3  -1    1.30    1.30
   4  -3   1    1.90    1.80
   4  -3   1    0.30    1.60
   4  -3   1    1.30    1.60
   4  -3   1    1.20    2.10
   4  -3   1    2.60    2.20
   4  -3   1    2.20    1.70
   4  -3   1   -0.40    1.50
   4  -3   1    0.20    1.90
  -5   3  -1    1.10    2.00
  -5   3  -1    0.80    2.10
  -5   3  -1    1.80    1.90
  -5   3  -1    4.20    2.20
  -5   3  -1    1.00    1.40
  -5   3  -1    3.80    2.70
   5  -3   1    0.50    2.00
   5  -3   1    0.30    2.00
   5  -3   1   -1.10    2.10
   5  -3   1    0.60    3.10
  -6   3  -1  157.48   11.10
  -6   3  -1  224.78   10.00
  -6   3  -1  209.68   10.00
  -6   3  -1  214.78   10.10
   6  -3   1  201.38   10.60
   6  -3   1  215.88    9.90
   6  -3   1  211.78   10.00
   6  -3   1  203.68    9.90
  -7   3  -1   88.09    5.40
  -7   3  -1   95.09    5.80
  -7   3  -1   90.29    5.40
   7  -3   1   94.79    5.50
   7  -3   1   93.09    5.30
   7  -3   1   74.49    6.10
   7  -3   1   88.59    8.00
   8   2  -1    7.80    2.00
   8   2  -1    4.90    1.80
  -8  -2   1    8.50    2.50
  -8  -2   1    3.70    1.80
   7   2  -1    7.30    2.60
   7   2  -1    3.00    2.70
   7   2  -1    2.50    2.20
  -7  -2   1    3.50    2.40
  -7  -2   1    5.40    2.90
  -7  -2   1    8.80    3.40
  -7  -2   1    4.60    2.20
  -7  -2   1    3.10    2.40
   6   2  -1   26.70    3.30
   6   2  -1   32.30    4.30
   6   2  -1   29.40    3.40
   6   2  -1   27.90    3.30
   6   2  -1   25.50    3.30
  -6  -2   1   25.30    4.10
  -6  -2   1   22.80    3.60
  -6  -2   1   18.50    2.60
  -6  -2   1   27.50    3.70
  -6  -2   1   18.90    3.30
  -6  -2   1   21.80    3.10
  -6  -2   1   23.40    3.60
   5   2  -1  480.85   21.00
   5   2  -1  504.75   20.30
   5   2  -1  513.45   20.50
   5   2  -1  512.45   19.60
   5   2  -1  525.35   20.50
   5   2  -1  550.94   20.50
  -5  -2   1  506.65   20.80
  -5  -2   1  519.15   20.70
  -5  -2   1  541.25   20.60
  -5  -2   1  529.35   20.80
  -5  -2   1  504.75   21.10
  -5  -2   1  521.05   21.00
  -5  -2   1  546.45   20.50
  -5  -2   1  503.65   21.10
   4   2  -1    1.20    1.20
   4   2  -1    1.90    1.50
   4   2  -1    1.50    1.50
   4   2  -1   -0.10    1.40
   4   2  -1   -0.10    1.70
   4   2  -1   -0.10    1.70
  -4  -2   1   -1.60    1.20
  -4  -2   1    0.60    1.30
  -4  -2   1   -0.50    1.30
  -4  -2   1    1.70    1.70
  -4  -2   1    4.60    1.80
  -4  -2   1    0.20    1.60
   3   2  -1  202.68    8.70
   3   2  -1  208.88    8.90
   3   2  -1  197.08    7.90
   3   2  -1  210.08    8.40
   3   2  -1  211.88    8.50
  -3  -2   1  201.58    8.30
  -3  -2   1  203.78    8.30
  -3  -2   1  200.28    8.30
  -3  -2   1  200.48    8.70
  -3  -2   1  195.38    8.40
   2   2  -1  247.08    9.70
   2   2  -1  258.47    9.80
   2   2  -1  251.77   10.10
   2   2  -1  221.48    9.60
   2   2  -1  249.48    9.70
  -2  -2   1  235.88    9.80
  -2  -2   1  255.87    9.60
  -2  -2   1  238.38    9.50
  -2  -2   1  246.88    9.50
  -2  -2   1  237.58    9.70
  -2  -2   1  261.97    9.90
   1   2  -1  449.16   16.80
   1   2  -1  436.86   17.00
   1   2  -1  424.46   16.60
   1   2  -1  452.35   17.30
   1   2  -1  478.15   16.90
  -1  -2   1  480.55   17.50
  -1  -2   1  457.25   16.80
  -1  -2   1  438.66   16.70
   0   2  -1 1103.99   39.40
   0   2  -1  992.90   39.20
   0   2  -1 1071.89   39.60
   0   2  -1 1028.50   39.40
   0   2  -1 1096.89   39.30
   0  -2   1 1106.99   39.90
   0  -2   1 1110.89   39.90
   0  -2   1 1101.89   39.20
  -1   2  -1   35.90    2.70
  -1   2  -1   33.20    1.60
  -1   2  -1   37.40    2.10
  -1   2  -1   37.40    2.20
  -1   2  -1   33.20    1.60
  -1   2  -1   34.80    2.00
   1  -2   1   34.00    1.80
   1  -2   1   37.90    2.70
   1  -2   1   40.40    2.80
   1  -2   1   33.00    1.80
  -2   2  -1  246.28    9.60
  -2   2  -1  255.57   10.20
  -2   2  -1  248.68    9.70
  -2   2  -1  225.58    9.10
  -2   2  -1  231.78    9.20
   2  -2   1  234.48    9.40
   2  -2   1  241.78   10.20
   2  -2   1  257.27   10.40
   2  -2   1  241.58    9.70
   2  -2   1  232.88    9.10
  -3   2  -1  103.19    4.80
  -3   2  -1  101.79    4.40
  -3   2  -1  102.09    5.60
  -3   2  -1   97.99    4.30
  -3   2  -1  101.59    4.60
  -3   2  -1  104.79    5.20
   3  -2   1  100.39    5.60
   3  -2   1  102.79    5.80
   3  -2   1  100.39    4.70
  -4   2  -1   37.60    2.60
  -4   2  -1   40.90    3.40
  -4   2  -1   34.00    3.10
  -4   2  -1   34.70    2.40
  -4   2  -1   36.20    3.00
  -4   2  -1   32.30    3.60
  -4   2  -1   41.70    3.00
  -4   2  -1   46.70    3.70
   4  -2   1   44.70    3.70
   4  -2   1   36.90    3.30
   4  -2   1   31.20    3.90
   4  -2   1   36.70    3.00
   4  -2   1   33.00    3.10
   4  -2   1   35.40    3.10
  -5   2  -1   38.40    2.90
  -5   2  -1   40.80    3.50
  -5   2  -1   38.20    3.60
  -5   2  -1   40.60    4.10
  -5   2  -1   42.30    3.50
  -5   2  -1   41.50    3.80
   5  -2   1   39.80    3.90
   5  -2   1   41.80    3.40
   5  -2   1   45.30    3.90
   5  -2   1   38.30    3.50
   5  -2   1   41.50    3.90
  -6   2  -1    4.20    2.30
  -6   2  -1    9.50    3.20
  -6   2  -1    2.50    2.30
  -6   2  -1    2.70    3.00
   6  -2   1    8.00    2.60
   6  -2   1    2.70    2.60
   6  -2   1    4.10    2.10
   6  -2   1    5.30    2.10
   6  -2   1   11.50    3.30
   6  -2   1    4.90    2.50
  -7   2  -1   12.20    3.00
  -7   2  -1    6.00    2.50
  -7   2  -1    3.90    2.50
   7  -2   1    6.30    2.70
   7  -2   1    5.80    2.40
   8   1  -1    4.40    1.90
  -8  -1   1    6.50    2.00
  -8  -1   1    9.50    2.60
   7   1  -1  115.39    6.30
   7   1  -1  106.49    6.90
   7   1  -1  113.79    6.50
  -7  -1   1  107.99    6.50
  -7  -1   1  108.69    7.00
  -7  -1   1  121.99    7.00
  -7  -1   1  112.09    6.40
  -7  -1   1  113.49    7.20
   6   1  -1  325.57   14.30
   6   1  -1  347.77   14.30
   6   1  -1  362.86   14.50
   6   1  -1  336.47   14.20
   6   1  -1  338.47   14.80
   6   1  -1  307.17   14.80
  -6  -1   1  335.97   15.30
  -6  -1   1  321.17   14.00
  -6  -1   1  349.47   14.30
  -6  -1   1  340.67   14.60
  -6  -1   1  328.17   14.30
  -6  -1   1  338.57   14.60
  -6  -1   1  358.96   15.00
   5   1  -1   26.00    3.10
   5   1  -1   25.20    3.60
   5   1  -1   27.10    3.60
   5   1  -1   20.30    2.80
   5   1  -1   21.60    2.80
   5   1  -1   26.70    3.00
   5   1  -1   22.80    3.30
  -5  -1   1   22.20    3.20
  -5  -1   1   22.80    2.60
  -5  -1   1   22.40    3.10
  -5  -1   1   22.50    2.90
  -5  -1   1   21.50    2.80
  -5  -1   1   19.20    3.20
  -5  -1   1   19.60    3.00
  -5  -1   1   25.70    2.90
   4   1  -1   90.69    4.40
   4   1  -1   87.19    4.40
   4   1  -1   78.59    4.90
  -4  -1   1   80.69    4.30
  -4  -1   1   80.19    4.40
  -4  -1   1   77.89    4.30
  -4  -1   1   82.79    4.90
  -4  -1   1   85.69    4.40
   3   1  -1    2.50    1.20
   3   1  -1    3.10    1.60
   3   1  -1    2.10    1.30
   3   1  -1    3.60    1.70
   3   1  -1    2.00    1.30
  -3  -1   1    1.80    1.20
  -3  -1   1    1.50    1.40
  -3  -1   1    2.80    1.10
  -3  -1   1    2.60    1.20
   2   1  -1  302.27   11.10
   2   1  -1  262.17   11.10
   2   1  -1  307.47   11.30
   2   1  -1  305.37   11.40
   2   1  -1  302.87   11.10
  -2  -1   1  283.97   11.20
  -2  -1   1  266.67   10.60
  -2  -1   1  293.67   11.30
  -2  -1   1  285.27   11.00
  -2  -1   1  277.97   11.00
   1   1  -1  349.37   13.00
   1   1  -1  358.06   13.10
   1   1  -1  345.47   13.30
   1   1  -1  347.77   13.00
  -1  -1   1  336.57   12.90
  -1  -1   1  346.17   13.00
  -1  -1   1  342.97   13.00
   0   1  -1  693.43   24.90
   0   1  -1  678.83   25.00
   0   1  -1  700.93   24.90
   0   1  -1  664.93   25.20
   0   1  -1  685.93   25.20
   0  -1   1  702.13   25.20
   0  -1   1  657.63   24.90
   0  -1   1  693.93   24.80
   0  -1   1  645.04   24.90
  -1   1  -1 2419.06   89.99
  -1   1  -1 2441.46   90.29
  -1   1  -1 2417.76   90.09
  -1   1  -1 2655.83   90.09
  -1   1  -1 2433.36   90.29
   1  -1   1 2476.45   90.19
   1  -1   1 2494.25   89.99
   1  -1   1 2583.14   90.39
   1  -1   1 2344.67   89.89
  -2   1  -1 1101.59   39.10
  -2   1  -1 1065.09   38.90
  -2   1  -1 1047.50   38.80
  -2   1  -1  974.30   39.00
  -2   1  -1 1075.09   39.30
  -2   1  -1  998.80   38.60
   2  -1   1 1082.09   39.10
   2  -1   1 1050.49   38.70
   2  -1   1 1072.99   38.90
   2  -1   1 1115.29   39.40
   2  -1   1 1054.59   39.00
  -3   1  -1    4.10    1.20
  -3   1  -1    4.90    1.00
  -3   1  -1    4.90    1.70
  -3   1  -1    6.30    1.30
  -3   1  -1    4.50    1.50
  -3   1  -1    5.90    1.20
  -3   1  -1    4.90    1.20
   3  -1   1    4.80    1.80
   3  -1   1    5.70    1.40
   3  -1   1    5.60    0.90
   3  -1   1    6.80    1.30
   3  -1   1    5.80    1.30
  -4   1  -1   44.50    2.90
  -4   1  -1   46.80    3.00
  -4   1  -1   43.70    2.70
  -4   1  -1   46.80    3.10
  -4   1  -1   43.60    2.80
  -4   1  -1   45.70    2.50
  -4   1  -1   46.90    3.50
   4  -1   1   41.80    3.60
   4  -1   1   45.20    3.10
   4  -1   1   44.70    3.20
  -5   1  -1   31.30    2.90
  -5   1  -1   41.90    4.00
  -5   1  -1   38.40    4.30
  -5   1  -1   38.40    3.50
  -5   1  -1   36.40    2.80
  -5   1  -1   36.50    3.50
  -5   1  -1   35.70    3.70
   5  -1   1   37.50    3.40
   5  -1   1   37.40    3.30
   5  -1   1   32.40    3.00
   5  -1   1   45.10    4.20
   5  -1   1   32.60    3.10
   5  -1   1   33.90    3.20
   5  -1   1   34.50    3.40
  -6   1  -1  445.26   18.30
  -6   1  -1  446.96   18.40
  -6   1  -1  435.06   18.40
  -6   1  -1  468.85   18.80
  -6   1  -1  429.26   19.00
   6  -1   1  432.56   18.00
   6  -1   1  443.46   18.00
   6  -1   1  454.15   18.70
   6  -1   1  460.05   18.50
  -7   1  -1    2.60    2.90
  -7   1  -1    1.60    2.40
  -7   1  -1    0.60    2.40
  -7   1  -1    1.00    2.40
  -7   1  -1   -1.00    2.10
   7  -1   1    0.90    2.00
   7  -1   1    2.80    2.10
   7  -1   1    1.50    2.70
  -8   1  -1    3.20    2.00
   8  -1   1    4.30    2.00
   8   0  -1   25.20    3.10
   8   0  -1   17.30    3.80
  -8   0   1   27.30    5.00
   7   0  -1   27.10    4.00
   7   0  -1   20.70    4.20
   7   0  -1   18.00    3.10
  -7   0   1   15.00    2.80
  -7   0   1   19.80    3.20
  -7   0   1   20.70    3.20
  -7   0   1   23.80    4.30
   6   0  -1   -0.30    2.00
   6   0  -1   -1.10    2.70
   6   0  -1    2.20    2.20
   6   0  -1    4.20    2.30
   6   0  -1    1.20    2.00
  -6   0   1    0.80    2.10
  -6   0   1    1.30    2.80
  -6   0   1    2.30    2.30
  -6   0   1    0.50    3.00
  -6   0   1    0.80    2.00
  -6   0   1    2.10    1.80
  -6   0   1    0.40    2.40
   5   0  -1  191.38    8.40
   5   0  -1  181.78    8.80
   5   0  -1  178.48    8.20
   5   0  -1  204.08    8.40
   5   0  -1  180.28    8.40
   5   0  -1  169.88    9.00
  -5   0   1  179.18    8.80
  -5   0   1  182.98    8.50
  -5   0   1  185.18    8.90
  -5   0   1  179.18    8.20
  -5   0   1  188.58    8.30
  -5   0   1  177.78    8.70
  -5   0   1  174.68    9.00
  -5   0   1  173.58    8.80
   4   0  -1  201.98    8.70
   4   0  -1  198.48    9.20
   4   0  -1  197.48    8.50
  -4   0   1  207.28    8.50
  -4   0   1  192.88    8.40
  -4   0   1  203.68    9.00
  -4   0   1  207.98    8.60
   3   0  -1   86.79    4.60
   3   0  -1   91.49    4.20
   3   0  -1   77.79    4.00
   3   0  -1   90.79    4.70
   3   0  -1   94.79    4.20
  -3   0   1   82.39    3.70
  -3   0   1   84.59    4.00
  -3   0   1   82.29    4.10
  -3   0   1   93.69    4.10
  -3   0   1   90.39    4.50
  -3   0   1   87.09    4.10
  -3   0   1   82.49    4.40
   2   0  -1  567.64   20.40
   2   0  -1  530.85   20.30
   2   0  -1  514.55   20.20
   2   0  -1  533.25   20.00
   2   0  -1  547.05   20.10
  -2   0   1  535.05   20.00
  -2   0   1  528.15   20.10
  -2   0   1  558.44   20.30
  -2   0   1  519.35   20.00
  -2   0   1  550.04   20.30
   1   0  -1  174.08    6.90
   1   0  -1  174.38    6.80
   1   0  -1  181.58    7.00
   1   0  -1  177.58    7.00
  -1   0   1  183.78    6.90
  -1   0   1  179.98    6.90
  -1   0   1  178.38    6.80
  -1   0   1  176.48    7.00
   0   0  -1 2359.16   88.79
   0   0  -1 2508.75   89.29
   0   0  -1 2361.16   89.59
   0   0  -1 2351.06   89.39
   0   0   1 2441.06   89.39
   0   0   1 2645.34   89.49
   0   0   1 2438.46   89.29
   0   0   1 2501.95   89.29
   0   0   1 2408.96   89.39
  -1   0  -1 2271.07   77.79
  -1   0  -1 2037.40   77.59
  -1   0  -1 1974.80   77.89
  -1   0  -1 2161.28   77.59
   1   0   1 2148.58   77.99
   1   0   1 2140.49   78.49
   1   0   1 2087.39   77.69
   1   0   1 2180.58   77.59
   1   0   1 2205.38   77.89
  -2   0  -1  265.17    9.80
  -2   0  -1  239.28    9.60
  -2   0  -1  251.37    9.60
  -2   0  -1  256.87   10.00
  -2   0  -1  251.17    9.90
   2   0   1  257.97    9.80
   2   0   1  261.27   10.00
   2   0   1  252.57    9.60
   2   0   1  256.27    9.90
   2   0   1  248.38    9.60
  -3   0  -1  324.17   12.00
  -3   0  -1  310.97   12.50
  -3   0  -1  307.77   12.10
  -3   0  -1  309.47   12.00
  -3   0  -1  304.77   12.00
  -3   0  -1  320.07   12.40
  -3   0  -1  320.57   12.40
   3   0   1  320.37   12.50
   3   0   1  316.57   12.10
   3   0   1  300.87   12.10
   3   0   1  325.87   12.10
   3   0   1  312.37   12.50
   3   0   1  304.87   11.90
   3   0   1  321.97   12.40
  -4   0  -1  452.15   17.50
  -4   0  -1  438.56   17.80
  -4   0  -1  424.86   17.50
  -4   0  -1  488.35   17.60
  -4   0  -1  460.35   18.00
  -4   0  -1  484.85   17.60
   4   0   1  474.95   17.60
   4   0   1  444.46   18.60
   4   0   1  442.56   17.80
   4   0   1  420.66   18.00
   4   0   1  491.35   17.70
   4   0   1  473.95   18.10
  -5   0  -1   41.40    3.70
  -5   0  -1   43.90    3.10
  -5   0  -1   48.70    3.40
  -5   0  -1   44.00    3.70
  -5   0  -1   41.00    3.70
  -5   0  -1   40.20    3.50
  -5   0  -1   43.30    3.50
  -5   0  -1   43.60    4.00
   5   0   1   46.90    3.40
   5   0   1   41.00    3.60
   5   0   1   42.20    3.40
   5   0   1   41.40    3.30
   5   0   1   44.40    3.60
   5   0   1   49.40    4.40
  -6   0  -1   13.30    2.60
  -6   0  -1   15.10    3.00
  -6   0  -1   11.90    3.50
  -6   0  -1   11.80    2.00
  -6   0  -1   13.00    2.40
  -6   0  -1   12.60    2.90
  -6   0  -1   14.70    3.00
   6   0   1   16.50    2.90
   6   0   1   17.30    2.60
   6   0   1    9.60    2.30
   6   0   1   18.60    2.90
   6   0   1   14.80    3.30
   6   0   1   13.30    2.50
  -7   0  -1   18.70    3.70
  -7   0  -1   22.20    3.60
  -7   0  -1   22.70    3.20
  -7   0  -1   28.50    3.60
  -7   0  -1   23.10    3.10
  -7   0  -1   21.40    3.50
   7   0   1   15.50    2.80
   7   0   1   17.60    2.70
   7   0   1   17.20    3.20
   7   0   1   17.40    2.90
  -8   0  -1   57.39    4.30
  -8   0  -1   46.50    3.70
  -8   0  -1   52.29    4.70
   8   0   1   54.69    3.90
   8   0   1   52.69    4.40
   7  -1  -1   -1.70    2.10
   7  -1  -1    3.40    2.70
  -7   1   1    3.70    2.50
  -7   1   1    1.60    2.40
  -7   1   1    3.60    3.10
  -7   1   1    3.80    2.50
   6  -1  -1    2.40    2.20
   6  -1  -1   -1.60    2.00
   6  -1  -1    1.30    1.90
   6  -1  -1   -0.90    2.60
  -6   1   1    0.60    3.00
  -6   1   1    2.30    1.90
  -6   1   1   -1.50    2.40
  -6   1   1    0.40    2.80
  -6   1   1   -0.50    2.40
   5  -1  -1  270.17   11.30
   5  -1  -1  264.47   11.30
   5  -1  -1  252.17   11.20
   5  -1  -1  251.27   11.60
   5  -1  -1  270.47   11.10
   5  -1  -1  243.88   10.80
  -5   1   1  272.97   13.30
  -5   1   1  254.67   11.60
  -5   1   1  256.57   11.40
  -5   1   1  243.08   10.90
  -5   1   1  272.87   11.50
  -5   1   1  234.48   11.40
  -5   1   1  247.68   10.80
  -5   1   1  264.77   11.00
   4  -1  -1   35.80    3.70
   4  -1  -1   37.30    2.90
   4  -1  -1   33.30    3.70
   4  -1  -1   41.00    3.50
   4  -1  -1   38.80    2.90
  -4   1   1   42.20    2.90
  -4   1   1   39.80    2.80
  -4   1   1   37.90    3.20
  -4   1   1   53.89    4.20
   3  -1  -1  269.87   10.70
   3  -1  -1  266.07   11.10
   3  -1  -1  266.67   11.70
   3  -1  -1  265.17   10.60
  -3   1   1  268.87   11.00
  -3   1   1  265.37   10.60
  -3   1   1  260.77   11.10
  -3   1   1  279.27   10.60
  -3   1   1  263.47   11.00
   2  -1  -1  156.68    6.40
   2  -1  -1  158.88    6.70
   2  -1  -1  153.68    6.30
   2  -1  -1  145.69    5.90
   2  -1  -1  155.98    6.50
  -2   1   1  166.68    6.60
  -2   1   1  161.88    6.60
  -2   1   1  166.78    6.30
  -2   1   1  147.39    6.20
  -2   1   1  148.59    6.60
   1  -1  -1  685.93   27.00
   1  -1  -1  762.02   27.50
   1  -1  -1  747.43   27.20
   1  -1  -1  723.83   27.00
  -1   1   1  719.33   27.00
  -1   1   1  778.52   27.10
  -1   1   1  754.42   27.20
  -1   1   1  715.73   27.10
   0  -1  -1   -1.20    0.50
   0  -1  -1   -1.10    0.30
   0  -1  -1   -1.60    0.70
   0   1   1   -1.40    0.50
   0   1   1   -1.40    0.30
   0   1   1   -0.40    0.40
   0   1   1   -1.80    0.50
   0   1   1   -0.60    0.50
  -1  -1  -1  104.39    4.40
  -1  -1  -1  103.19    4.40
  -1  -1  -1  108.89    4.40
   1   1   1  102.49    4.40
   1   1   1   96.49    4.80
   1   1   1   99.89    4.30
   1   1   1  104.79    4.40
  -2  -1  -1  352.86   13.30
  -2  -1  -1  336.67   13.10
  -2  -1  -1  356.06   13.30
  -2  -1  -1  338.57   13.40
  -2  -1  -1  370.36   13.30
   2   1   1  343.27   13.50
   2   1   1  365.76   13.90
   2   1   1  366.16   13.50
   2   1   1  349.27   13.20
   2   1   1  364.36   13.40
  -3  -1  -1  189.18    8.60
  -3  -1  -1  214.08    8.20
  -3  -1  -1  217.58    8.20
  -3  -1  -1  209.98    8.20
  -3  -1  -1  189.28    7.90
  -3  -1  -1  217.58    8.30
   3   1   1  201.08    8.10
   3   1   1  217.08    8.60
   3   1   1  200.88    8.10
   3   1   1  210.28    8.90
   3   1   1  199.18    8.10
   3   1   1  207.48    8.40
  -4  -1  -1    0.90    1.20
  -4  -1  -1    0.20    1.10
  -4  -1  -1   -1.10    1.30
   4   1   1   -0.40    1.20
   4   1   1   -0.10    1.00
   4   1   1    1.20    1.20
   4   1   1   -0.60    1.40
   4   1   1    0.80    1.50
   4   1   1   -0.50    1.00
   4   1   1   -0.50    1.00
   4   1   1    0.10    1.30
  -5  -1  -1   31.50    3.30
  -5  -1  -1   36.90    3.80
  -5  -1  -1   32.00    2.70
  -5  -1  -1   37.70    3.50
  -5  -1  -1   36.60    3.10
  -5  -1  -1   39.90    4.00
  -5  -1  -1   32.90    2.90
  -5  -1  -1   34.00    3.40
   5   1   1   36.70    3.20
   5   1   1   40.10    4.10
   5   1   1   39.80    3.40
   5   1   1   24.70    2.60
   5   1   1   30.20    3.40
   5   1   1   32.20    3.00
   5   1   1   30.70    2.80
   5   1   1   32.30    2.30
  -6  -1  -1  255.57   11.90
  -6  -1  -1  276.37   11.70
  -6  -1  -1  284.27   12.60
  -6  -1  -1  271.77   12.50
  -6  -1  -1  279.57   12.40
  -6  -1  -1  288.47   12.50
  -6  -1  -1  279.17   12.10
  -6  -1  -1  265.57   11.60
  -6  -1  -1  259.27   11.70
   6   1   1  273.97   11.90
   6   1   1  257.87   12.40
   6   1   1  257.57   11.40
   6   1   1  277.67   11.80
  -7  -1  -1   54.19    4.20
  -7  -1  -1   52.59    4.80
  -7  -1  -1   48.40    5.00
  -7  -1  -1   75.49    6.30
  -7  -1  -1   51.99    4.80
   7   1   1   58.29    4.70
   7   1   1   52.39    4.80
   7   1   1   54.19    5.20
  -8  -1  -1   27.60    3.50
  -8  -1  -1   22.30    2.90
  -8  -1  -1   20.50    2.60
  -8  -1  -1   26.80    3.60
   8   1   1   35.20    3.60
   8   1   1   29.80    2.90
   8   1   1   28.70    3.00
   7  -2  -1    8.40    2.70
   7  -2  -1    6.30    2.00
   7  -2  -1    7.20    2.10
  -7   2   1    6.60    2.30
  -7   2   1   10.00    2.70
  -7   2   1   12.40    2.80
   6  -2  -1   58.89    5.00
   6  -2  -1   62.79    4.70
   6  -2  -1   61.09    4.80
   6  -2  -1   72.49    5.50
  -6   2   1   60.99    5.20
  -6   2   1   58.89    5.50
  -6   2   1   69.49    5.40
   5  -2  -1  472.05   19.00
   5  -2  -1  481.65   19.20
   5  -2  -1  480.15   18.80
   5  -2  -1  460.65   18.80
   5  -2  -1  469.45   19.10
  -5   2   1  476.35   19.00
  -5   2   1  455.65   18.50
  -5   2   1  445.86   17.90
  -5   2   1  484.85   19.30
  -5   2   1  458.15   19.00
   4  -2  -1   41.50    3.40
   4  -2  -1   35.40    3.10
   4  -2  -1   40.40    4.20
   4  -2  -1   42.20    3.30
   4  -2  -1   42.50    3.10
   4  -2  -1   41.30    3.80
   4  -2  -1   39.40    3.40
   4  -2  -1   40.50    3.30
  -4   2   1   40.50    3.30
  -4   2   1   47.60    3.10
  -4   2   1   39.50    3.00
  -4   2   1   36.40    3.70
  -4   2   1   41.50    2.90
  -4   2   1   40.90    3.30
  -4   2   1   35.90    2.60
  -4   2   1   50.69    4.00
   3  -2  -1  182.28    7.50
   3  -2  -1  161.38    8.50
   3  -2  -1  187.48    7.70
  -3   2   1  172.38    7.70
  -3   2   1  181.98    7.40
  -3   2   1  175.18    7.10
  -3   2   1  179.78    7.30
  -3   2   1  182.58    8.00
  -3   2   1  173.98    8.30
   2  -2  -1 1531.85   56.89
   2  -2  -1 1543.75   56.59
   2  -2  -1 1485.35   56.59
   2  -2  -1 1581.54   57.59
  -2   2   1 1538.45   56.49
  -2   2   1 1594.54   56.79
  -2   2   1 1559.84   56.79
  -2   2   1 1479.65   56.49
  -2   2   1 1569.94   57.39
   1  -2  -1   32.20    2.50
   1  -2  -1   29.30    1.80
   1  -2  -1   29.60    2.10
  -1   2   1   29.10    2.00
  -1   2   1   28.30    1.70
  -1   2   1   25.80    1.80
  -1   2   1   30.70    1.90
   0  -2  -1    5.30    1.30
   0  -2  -1    6.60    1.50
   0   2   1    6.50    0.60
   0   2   1    6.70    0.60
  -1  -2  -1 6371.76  222.78
   1   2   1 6298.57  222.48
   1   2   1 6311.07  222.38
   1   2   1 5504.85  223.18
  -2  -2  -1 1649.54   56.79
  -2  -2  -1 1392.36   56.69
  -2  -2  -1 1548.95   56.89
   2   2   1 1606.34   56.99
   2   2   1 1575.64   57.59
   2   2   1 1508.85   56.79
   2   2   1 1640.84   56.89
   2   2   1 1514.55   56.69
  -3  -2  -1   16.90    1.80
  -3  -2  -1   16.40    1.70
  -3  -2  -1   20.10    1.90
  -3  -2  -1   20.30    2.00
   3   2   1   22.80    2.10
   3   2   1   16.60    1.70
   3   2   1   18.30    1.70
   3   2   1   19.80    2.70
   3   2   1   18.80    2.00
  -4  -2  -1  656.13   24.00
  -4  -2  -1  631.24   23.70
  -4  -2  -1  638.54   23.60
  -4  -2  -1  614.94   23.60
   4   2   1  612.54   23.20
   4   2   1  644.74   23.60
   4   2   1  607.94   23.80
   4   2   1  612.14   24.00
   4   2   1  620.34   24.70
   4   2   1  597.54   23.40
   4   2   1  610.84   23.40
  -5  -2  -1   59.69    3.80
  -5  -2  -1   61.59    4.50
  -5  -2  -1   56.99    4.60
  -5  -2  -1   56.99    4.00
  -5  -2  -1   58.49    3.90
  -5  -2  -1   60.69    4.40
  -5  -2  -1   64.69    4.40
   5   2   1   57.49    4.10
   5   2   1   62.49    4.10
   5   2   1   66.69    3.80
   5   2   1   58.49    3.30
   5   2   1   56.49    3.80
   5   2   1   61.29    3.40
   5   2   1   55.29    3.40
   5   2   1   62.19    3.70
   5   2   1   56.59    4.50
  -6  -2  -1  104.29    6.90
  -6  -2  -1  106.69    6.70
  -6  -2  -1  110.99    6.60
  -6  -2  -1  109.79    5.90
  -6  -2  -1   92.99    6.40
  -6  -2  -1  104.19    6.30
   6   2   1  114.59    6.30
   6   2   1  108.39    6.00
  -7  -2  -1    0.20    2.50
  -7  -2  -1    1.80    2.40
  -7  -2  -1    4.40    2.50
  -7  -2  -1   -0.90    2.60
  -7  -2  -1   -0.90    1.70
  -7  -2  -1   -0.60    2.50
   7   2   1    0.40    2.20
   7   2   1    3.10    2.40
  -8  -2  -1   11.90    2.70
  -8  -2  -1    7.80    2.40
  -8  -2  -1   14.70    3.10
  -8  -2  -1   11.80    3.30
   8   2   1   13.50    2.60
   8   2   1    9.00    2.30
   7  -3  -1   23.10    2.70
   7  -3  -1   14.70    2.10
   7  -3  -1   12.80    2.90
  -7   3   1   21.10    2.90
  -7   3   1   17.70    2.60
   6  -3  -1   52.89    4.70
   6  -3  -1   53.09    4.60
  -6   3   1   49.40    4.60
  -6   3   1   57.69    4.70
  -6   3   1   42.60    4.10
   5  -3  -1   79.89    5.10
   5  -3  -1   89.19    5.30
   5  -3  -1   78.49    5.50
   5  -3  -1   85.29    5.60
   5  -3  -1   82.19    6.30
   5  -3  -1   78.39    5.10
   5  -3  -1   82.09    5.60
  -5   3   1   82.19    4.60
  -5   3   1   80.69    5.70
  -5   3   1   81.89    5.60
  -5   3   1   87.09    6.50
   4  -3  -1   83.69    4.90
   4  -3  -1   68.39    5.70
   4  -3  -1   76.89    4.90
   4  -3  -1   70.69    4.60
   4  -3  -1   82.99    5.00
   4  -3  -1   80.99    4.70
   4  -3  -1   84.99    5.30
   4  -3  -1   84.39    5.00
  -4   3   1   84.29    4.90
  -4   3   1   81.69    5.30
  -4   3   1   81.09    5.70
  -4   3   1   80.49    4.20
  -4   3   1   77.19    4.80
  -4   3   1   79.79    4.20
   3  -3  -1   44.70    3.10
   3  -3  -1   46.30    4.10
  -3   3   1   44.40    2.70
  -3   3   1   43.80    3.30
  -3   3   1   43.30    3.10
  -3   3   1   41.60    2.80
  -3   3   1   49.90    4.20
   2  -3  -1   49.40    3.20
   2  -3  -1   49.90    3.90
   2  -3  -1   47.80    2.90
  -2   3   1   55.89    3.20
  -2   3   1   50.49    3.00
  -2   3   1   46.10    2.70
  -2   3   1   52.09    3.90
  -2   3   1   51.39    2.70
   1  -3  -1    2.10    1.40
   1  -3  -1    1.60    1.20
   1  -3  -1    1.70    1.00
   1  -3  -1    2.50    1.60
  -1   3   1    0.40    0.80
  -1   3   1    0.50    0.90
  -1   3   1    1.50    1.00
  -1   3   1    2.50    0.90
  -1   3   1    2.10    0.90
   0  -3  -1  898.01   33.20
   0  -3  -1  885.91   33.10
   0  -3  -1  840.82   32.70
   0   3   1  908.21   32.20
   0   3   1  854.01   32.70
   0   3   1  905.41   32.20
  -1  -3  -1 1220.78   43.80
  -1  -3  -1 1082.99   43.90
   1   3   1 1235.88   43.40
   1   3   1 1235.48   43.40
  -2  -3  -1  370.46   14.40
  -2  -3  -1  376.66   14.20
  -2  -3  -1  371.66   14.20
   2   3   1  402.86   14.10
   2   3   1  355.76   14.20
   2   3   1  373.66   14.10
   2   3   1  363.86   14.50
  -3  -3  -1   30.60    2.30
  -3  -3  -1   32.40    2.50
  -3  -3  -1   29.30    2.60
   3   3   1   29.20    2.70
   3   3   1   30.60    3.60
   3   3   1   31.30    2.20
   3   3   1   29.00    2.50
   3   3   1   31.10    2.30
  -4  -3  -1   58.49    3.50
  -4  -3  -1   54.89    3.80
  -4  -3  -1   57.29    3.90
  -4  -3  -1   56.09    3.50
   4   3   1   60.39    3.00
   4   3   1   62.69    3.40
   4   3   1   55.79    4.40
   4   3   1   60.39    3.40
   4   3   1   58.59    3.80
   4   3   1   55.99    3.30
   4   3   1   58.39    3.80
  -5  -3  -1   22.70    2.70
  -5  -3  -1   27.30    3.40
  -5  -3  -1   25.20    3.40
  -5  -3  -1   22.60    3.10
  -5  -3  -1   25.90    3.30
  -5  -3  -1   28.70    3.20
  -5  -3  -1   27.50    3.50
   5   3   1   27.40    2.20
   5   3   1   26.10    2.90
   5   3   1   15.80    2.80
   5   3   1   19.10    2.30
   5   3   1   25.80    2.20
  -6  -3  -1   68.49    5.50
  -6  -3  -1   65.19    4.70
  -6  -3  -1   68.69    5.80
  -6  -3  -1   55.99    5.30
  -6  -3  -1   60.39    5.30
  -6  -3  -1   59.79    5.00
   6   3   1   61.09    4.80
   6   3   1   62.99    3.90
   6   3   1   72.59    5.10
  -7  -3  -1   66.49    5.50
  -7  -3  -1   64.39    4.60
  -7  -3  -1   63.19    5.70
  -7  -3  -1   71.19    6.60
  -7  -3  -1   64.29    5.50
  -7  -3  -1   65.09    5.80
  -7  -3  -1   65.49    5.30
   7   3   1   68.19    5.00
   7   3   1   63.09    5.70
   7   3   1   75.09    5.10
  -8  -3  -1   47.90    4.10
  -8  -3  -1   48.10    4.10
  -8  -3  -1   36.70    3.70
  -8  -3  -1   49.00    4.40
   8   3   1   43.50    3.70
   8   3   1   44.50    3.80
   6  -4  -1    0.70    3.80
   6  -4  -1    2.10    2.90
   6  -4  -1    1.40    2.00
   6  -4  -1   -0.20    2.10
  -6   4   1   -1.10    2.70
  -6   4   1    0.50    2.30
   5  -4  -1    0.30    2.20
   5  -4  -1   -1.40    2.00
   5  -4  -1   -2.40    1.90
   5  -4  -1   -5.50    4.30
   5  -4  -1    6.40    3.50
   5  -4  -1    1.60    2.00
  -5   4   1    1.20    2.50
  -5   4   1    2.00    1.80
  -5   4   1   -0.50    2.00
  -5   4   1   -0.70    1.70
  -5   4   1    2.00    3.30
  -5   4   1   -1.30    2.30
   4  -4  -1   46.10    4.10
   4  -4  -1   47.20    3.80
   4  -4  -1   42.40    4.00
   4  -4  -1   45.20    3.80
   4  -4  -1   38.00    3.70
   4  -4  -1   40.70    4.60
   4  -4  -1   44.90    4.80
   4  -4  -1   50.19    4.40
  -4   4   1   49.90    3.40
  -4   4   1   46.90    3.30
  -4   4   1   52.99    4.50
  -4   4   1   43.00    4.00
  -4   4   1   44.90    3.80
   3  -4  -1    2.40    1.80
   3  -4  -1    1.70    1.60
   3  -4  -1    3.20    1.70
   3  -4  -1    4.40    2.50
   3  -4  -1    3.40    1.90
   3  -4  -1    3.60    3.50
   3  -4  -1    2.60    2.30
   3  -4  -1    4.60    1.70
   3  -4  -1    3.10    1.70
   3  -4  -1    1.50    2.00
  -3   4   1    1.20    1.00
  -3   4   1    2.10    1.20
  -3   4   1    5.20    1.90
  -3   4   1    2.30    2.20
   2  -4  -1  141.99    7.60
  -2   4   1  137.79    7.40
  -2   4   1  137.29    6.20
  -2   4   1  129.99    5.40
   1  -4  -1  224.68   10.20
   1  -4  -1  207.18    9.60
   1  -4  -1  231.88    9.40
  -1   4   1  209.08    8.70
  -1   4   1  232.18    8.80
  -1   4   1  212.28    9.10
  -1   4   1  233.88   10.20
   0  -4  -1   71.79    4.20
   0  -4  -1   69.39    3.90
   0  -4  -1   71.79    4.50
   0   4   1   70.49    2.90
   0   4   1   64.89    3.70
   0   4   1   72.19    2.90
  -1  -4  -1    7.10    1.50
  -1  -4  -1    5.80    1.50
  -2  -4  -1  490.25   19.30
  -2  -4  -1  513.25   19.10
   2   4   1  478.65   19.50
   2   4   1  480.95   19.10
   2   4   1  511.15   18.90
   2   4   1  533.35   18.80
  -3  -4  -1   59.19    3.70
  -3  -4  -1   64.09    3.50
   3   4   1   60.29    3.50
   3   4   1   68.09    5.10
   3   4   1   65.09    3.40
   3   4   1   58.89    3.50
   3   4   1   61.99    3.90
  -4  -4  -1  242.78   11.10
  -4  -4  -1  238.48   10.50
  -4  -4  -1  247.68   11.20
  -4  -4  -1  236.78   10.40
  -4  -4  -1  236.38   10.30
  -4  -4  -1  226.58   10.80
  -4  -4  -1  223.98   10.50
  -4  -4  -1  228.08   11.40
  -4  -4  -1  229.38    9.90
  -4  -4  -1  235.18   10.90
   4   4   1  238.68   11.60
   4   4   1  246.58    9.30
   4   4   1  227.58   10.10
  -5  -4  -1    3.10    2.20
  -5  -4  -1    8.80    2.70
  -5  -4  -1    7.10    2.40
  -5  -4  -1    8.90    2.90
  -5  -4  -1   13.40    3.80
  -5  -4  -1    5.80    2.10
  -5  -4  -1   12.10    3.40
  -5  -4  -1    9.10    2.90
  -5  -4  -1   10.30    2.70
  -5  -4  -1    5.70    2.00
   5   4   1    7.00    1.70
   5   4   1   10.20    1.70
   5   4   1   11.50    3.00
   5   4   1    9.10    2.20
   5   4   1   10.00    2.10
  -6  -4  -1   54.69    4.90
  -6  -4  -1   49.70    4.70
  -6  -4  -1   51.09    5.40
  -6  -4  -1   50.29    4.10
  -6  -4  -1   54.19    4.90
  -6  -4  -1   50.49    5.90
  -6  -4  -1   57.89    5.60
  -6  -4  -1   59.79    5.10
   6   4   1   53.89    4.50
   6   4   1   50.29    4.30
   6   4   1   52.29    4.40
   6   4   1   52.99    3.80
   6   4   1   51.89    3.60
  -7  -4  -1    3.00    2.60
  -7  -4  -1    9.00    2.90
  -7  -4  -1   10.30    3.70
  -7  -4  -1    4.90    2.90
  -7  -4  -1    4.00    2.70
  -7  -4  -1    4.60    2.90
   7   4   1   12.80    3.50
   7   4   1    5.60    2.50
   7   4   1    6.60    1.60
   7   4   1   10.20    2.80
  -8  -4  -1    3.40    2.00
  -8  -4  -1    3.70    2.60
  -8  -4  -1    1.30    2.00
  -8  -4  -1    4.60    1.90
   8   4   1    2.50    1.90
   8   4   1    2.80    2.00
   6  -5  -1   23.00    3.20
   6  -5  -1   31.20    3.00
   6  -5  -1   35.70    4.20
  -6   5   1   27.60    3.00
  -6   5   1   30.20    3.00
   5  -5  -1   33.20    4.80
   5  -5  -1   40.90    5.90
   5  -5  -1   26.70    3.10
   5  -5  -1   26.40    3.50
  -5   5   1   41.80    4.40
  -5   5   1   28.40    2.60
  -5   5   1   40.40    3.10
  -5   5   1   35.30    3.70
   4  -5  -1  126.09    8.10
   4  -5  -1  118.69    7.40
   4  -5  -1  128.09    7.50
   4  -5  -1  123.69    8.00
   4  -5  -1  131.99    7.50
   4  -5  -1  123.49    6.70
   4  -5  -1  127.79    7.10
   4  -5  -1  114.69    9.00
  -4   5   1  127.29    6.00
  -4   5   1  117.39    6.80
  -4   5   1  121.89    5.90
  -4   5   1  119.79    9.00
  -4   5   1  128.19    6.90
   3  -5  -1  239.28   11.10
   3  -5  -1  233.48   10.70
   3  -5  -1  228.48   11.30
   3  -5  -1  236.58   10.80
   3  -5  -1  247.48   10.60
   3  -5  -1  243.18   12.00
   3  -5  -1  235.58   11.60
   3  -5  -1  246.28   12.70
  -3   5   1  223.28    9.50
  -3   5   1  246.78   10.90
   2  -5  -1  249.08   13.30
   2  -5  -1  268.37   12.90
   2  -5  -1  272.47   12.50
   2  -5  -1  281.47   12.50
   2  -5  -1  277.87   12.80
   2  -5  -1  270.27   11.70
   2  -5  -1  279.57   11.70
   2  -5  -1  283.17   12.00
   2  -5  -1  279.57   11.80
  -2   5   1  274.87   13.00
  -2   5   1  276.37   10.50
   1  -5  -1  179.48    9.00
   1  -5  -1  186.78   10.20
   1  -5  -1  196.18    8.50
   1  -5  -1  180.68    9.40
   1  -5  -1  187.28    8.30
   1  -5  -1  184.08    9.00
   1  -5  -1  177.68    8.70
   1  -5  -1  185.18    9.30
  -1   5   1  193.28    9.30
  -1   5   1  182.58    7.50
   0  -5  -1   82.49    5.10
   0  -5  -1   81.19    4.40
   0  -5  -1   69.59    4.70
   0   5   1   78.59    5.10
  -1  -5  -1    5.10    1.70
   1   5   1    0.20    1.30
   1   5   1    2.90    1.80
  -2  -5  -1    5.30    1.60
  -2  -5  -1    2.70    1.50
   2   5   1    5.10    1.70
   2   5   1    4.10    1.90
   2   5   1    3.90    0.80
  -3  -5  -1   15.70    2.50
  -3  -5  -1   10.80    3.00
  -3  -5  -1   11.00    2.30
  -3  -5  -1    9.90    2.10
  -3  -5  -1    9.60    2.30
  -3  -5  -1    9.30    2.10
  -3  -5  -1   10.20    3.30
  -3  -5  -1    7.40    2.50
  -3  -5  -1   10.30    2.60
   3   5   1    9.40    1.40
   3   5   1   13.20    3.20
  -4  -5  -1    2.90    2.80
  -4  -5  -1    0.80    1.90
  -4  -5  -1   -0.90    2.10
  -4  -5  -1    0.50    2.20
  -4  -5  -1   -1.40    1.70
  -4  -5  -1   -1.10    1.90
  -4  -5  -1   -1.60    2.00
  -4  -5  -1    1.30    2.40
  -4  -5  -1   -0.60    3.00
  -4  -5  -1    3.80    3.10
   4   5   1    0.80    1.10
   4   5   1    2.40    2.40
  -5  -5  -1   57.59    5.80
  -5  -5  -1   55.59    4.90
  -5  -5  -1   53.89    5.40
  -5  -5  -1   53.29    4.60
  -5  -5  -1   48.10    4.80
  -5  -5  -1   42.50    5.40
  -5  -5  -1   59.19    5.70
  -5  -5  -1   55.19    4.80
  -5  -5  -1   50.99    4.90
   5   5   1   56.79    4.10
   5   5   1   57.99    3.50
   5   5   1   57.59    3.60
  -6  -5  -1   99.39    7.20
  -6  -5  -1   95.79    7.40
  -6  -5  -1   96.39    6.50
  -6  -5  -1   89.69    7.90
  -6  -5  -1   93.29    6.90
  -6  -5  -1   88.29    6.30
  -6  -5  -1  108.09    7.30
  -6  -5  -1  109.79    6.80
   6   5   1  114.39    5.20
   6   5   1  105.09    5.90
   6   5   1  103.49    6.20
   6   5   1  105.69    6.10
   6   5   1  100.49    5.30
  -7  -5  -1   28.50    3.90
  -7  -5  -1   24.10    3.30
  -7  -5  -1   28.80    3.80
  -7  -5  -1   28.10    3.60
  -7  -5  -1   26.70    4.20
   7   5   1   29.20    3.20
   7   5   1   28.00    3.10
   7   5   1   30.00    2.50
   8   5   1   -2.10    2.30
   5  -6  -1   39.70    3.50
   5  -6  -1   32.40    4.10
   5  -6  -1   38.00    4.70
   5  -6  -1   41.70    3.70
  -5   6   1   41.00    3.90
  -5   6   1   39.20    3.30
  -5   6   1   37.70    2.90
   4  -6  -1   28.30    4.00
   4  -6  -1   28.20    5.60
   4  -6  -1   24.30    4.10
   4  -6  -1   33.20    3.60
   4  -6  -1   30.20    3.80
   4  -6  -1   29.40    3.60
   4  -6  -1   18.50    4.20
  -4   6   1   25.00    3.10
  -4   6   1   32.80    2.90
  -4   6   1   35.60    3.00
   3  -6  -1  208.38   11.90
   3  -6  -1  210.38   10.30
   3  -6  -1  200.78   11.40
   3  -6  -1  212.18   10.70
   3  -6  -1  219.18   10.20
   3  -6  -1  210.28   10.00
   3  -6  -1  207.88   11.30
   3  -6  -1  216.58   10.00
  -3   6   1  202.88    8.70
   2  -6  -1   13.60    2.70
   2  -6  -1   10.80    2.30
   2  -6  -1   17.50    3.60
   2  -6  -1   16.20    3.80
   2  -6  -1   13.90    3.80
   2  -6  -1   12.90    2.80
   2  -6  -1   13.80    4.00
   2  -6  -1   15.50    3.00
  -2   6   1   17.00    1.60
  -2   6   1   14.10    2.60
   1  -6  -1   31.30    4.30
   1  -6  -1   42.50    4.10
   1  -6  -1   42.90    3.90
   1  -6  -1   38.50    3.60
   1  -6  -1   38.50    4.00
   1  -6  -1   31.60    3.20
   1  -6  -1   39.50    4.20
   1  -6  -1   35.30    4.30
   1  -6  -1   46.50    5.10
  -1   6   1   42.70    3.40
  -1   6   1   38.30    4.20
   0  -6  -1  119.29    6.20
   0  -6  -1  113.19    7.10
   0  -6  -1  114.89    7.20
   0  -6  -1  125.89    7.10
   0  -6  -1  121.99    6.20
   0  -6  -1  122.69    6.90
   0  -6  -1  118.69    6.90
   0  -6  -1  117.49    6.40
   0   6   1  114.99    6.80
  -1  -6  -1   98.19    6.30
  -1  -6  -1   93.59    5.60
  -1  -6  -1   94.39    6.30
  -1  -6  -1   94.69    6.00
  -1  -6  -1   95.59    5.70
  -1  -6  -1  102.09    5.50
  -1  -6  -1  100.49    6.40
  -1  -6  -1   94.39    6.20
  -1  -6  -1   95.19    5.50
   1   6   1  100.59    6.00
  -2  -6  -1    7.80    3.10
  -2  -6  -1    5.40    2.80
  -2  -6  -1    2.50    2.20
  -2  -6  -1    4.70    2.30
  -2  -6  -1    4.10    1.90
  -2  -6  -1    5.70    3.20
  -2  -6  -1    1.90    2.70
   2   6   1    6.80    2.50
  -3  -6  -1    2.20    2.60
  -3  -6  -1   -0.30    1.90
  -3  -6  -1    5.60    3.00
  -3  -6  -1    2.90    2.30
  -3  -6  -1    2.60    2.20
  -3  -6  -1    3.90    3.00
   3   6   1    6.30    2.70
  -4  -6  -1   18.30    3.80
  -4  -6  -1   26.30    4.80
  -4  -6  -1   13.50    2.90
  -4  -6  -1   16.70    3.70
  -4  -6  -1   17.00    3.30
  -4  -6  -1   18.30    3.40
  -4  -6  -1   26.30    4.60
  -4  -6  -1   16.80    3.00
   4   6   1   18.60    1.80
  -5  -6  -1  121.79    8.60
  -5  -6  -1  118.39    7.80
  -5  -6  -1  111.09    7.10
  -5  -6  -1  119.19    7.40
  -5  -6  -1  125.39    8.40
  -5  -6  -1  126.29    7.20
  -5  -6  -1  116.19    7.80
  -5  -6  -1  120.69    7.60
   5   6   1  115.69    5.70
   5   6   1  120.49    5.70
  -6  -6  -1    5.60    3.10
  -6  -6  -1    4.40    2.80
  -6  -6  -1    5.20    3.10
  -6  -6  -1    7.60    3.50
  -6  -6  -1    8.20    4.40
  -6  -6  -1    2.20    2.80
  -6  -6  -1    5.80    3.80
   6   6   1    4.60    2.30
   6   6   1    5.60    1.70
   6   6   1    4.00    1.80
   6   6   1    3.70    2.50
  -7  -6  -1    2.10    3.10
  -7  -6  -1    0.20    2.20
   7   6   1    1.80    1.90
   7   6   1    0.20    2.80
   7   6   1    1.20    1.30
   7   6   1    0.50    1.80
   4  -7  -1    3.80    2.30
   4  -7  -1    5.00    3.50
   4  -7  -1    5.30    2.30
   4  -7  -1    4.30    3.20
   4  -7  -1    3.70    2.80
  -4   7   1    2.90    1.60
   3  -7  -1    3.40    2.90
   3  -7  -1    3.20    3.00
   3  -7  -1    3.40    3.50
   3  -7  -1    2.90    2.40
   3  -7  -1    2.40    4.40
   3  -7  -1   -1.60    3.40
  -3   7   1    4.20    1.50
  -3   7   1    3.90    1.60
  -3   7   1    2.30    2.10
   2  -7  -1    1.60    3.20
   2  -7  -1    1.00    3.70
   2  -7  -1    1.00    2.80
   2  -7  -1   -1.40    2.90
   2  -7  -1    1.80    3.60
   2  -7  -1    0.40    2.60
  -2   7   1    0.30    1.20
   1  -7  -1   11.60    3.30
   1  -7  -1   12.80    3.90
   1  -7  -1   14.60    3.00
   1  -7  -1   10.70    4.60
   1  -7  -1   13.40    3.60
   1  -7  -1   17.30    4.00
   1  -7  -1   13.10    2.90
  -1   7   1   19.50    2.80
   0  -7  -1    7.30    3.10
   0  -7  -1    6.90    3.00
   0  -7  -1    9.20    2.40
   0  -7  -1    3.80    3.20
   0  -7  -1    5.80    3.00
   0  -7  -1    7.30    2.90
  -1  -7  -1    1.70    2.60
  -1  -7  -1    1.30    2.80
  -1  -7  -1    0.00    3.00
  -1  -7  -1   -1.60    1.90
  -1  -7  -1    5.10    3.00
  -1  -7  -1   -1.10    2.60
  -1  -7  -1   -1.30    2.10
  -2  -7  -1   35.60    3.50
  -2  -7  -1   36.90    3.90
  -2  -7  -1   38.80    4.80
  -2  -7  -1   40.90    4.20
  -2  -7  -1   31.50    4.30
  -2  -7  -1   30.00    4.50
  -3  -7  -1    5.70    3.60
  -3  -7  -1    2.10    3.50
  -3  -7  -1    2.90    3.50
  -3  -7  -1    4.10    2.80
  -3  -7  -1    3.50    2.70
  -4  -7  -1   55.79    6.60
  -4  -7  -1   40.20    4.20
  -4  -7  -1   38.60    5.00
  -4  -7  -1   39.30    4.60
  -4  -7  -1   57.19    6.10
   4   7   1   45.80    2.90
  -5  -7  -1    8.50    4.60
  -5  -7  -1   17.40    4.00
  -5  -7  -1   12.90    3.30
  -5  -7  -1   21.70    3.90
  -5  -7  -1    8.70    3.90
  -5  -7  -1    9.70    3.10
   5   7   1   13.20    2.00
   5   7   1   14.80    1.90
  -6  -7  -1    1.90    2.50
  -6  -7  -1   10.20    3.70
  -6  -7  -1    4.70    3.90
  -6  -7  -1    7.10    2.90
  -6  -7  -1    6.70    3.30
   6   7   1    5.80    1.70
   6   7   1    3.60    1.60
  -7  -7  -1    0.60    2.30
   7   7   1   -1.10    2.10
   7   7   1    2.00    1.10
   3  -8  -1   12.40    3.00
   3  -8  -1   22.30    3.80
   3  -8  -1   16.40    3.00
   3  -8  -1   19.20    2.70
   3  -8  -1   29.80    3.40
  -3   8   1   20.10    1.90
   2  -8  -1   63.99    6.80
   2  -8  -1   62.69    6.20
   2  -8  -1   70.59    5.70
   2  -8  -1   68.59    5.60
   2  -8  -1   64.69    5.10
   1  -8  -1   13.60    3.50
   1  -8  -1   17.30    4.30
   1  -8  -1   10.50    3.20
   1  -8  -1   15.60    4.20
   1  -8  -1   13.30    3.10
   0  -8  -1   15.50    3.60
   0  -8  -1   13.10    4.00
   0  -8  -1   17.20    3.80
   0  -8  -1   11.20    3.50
   0  -8  -1   18.20    3.50
   0  -8  -1   17.10    3.30
  -1  -8  -1    0.80    3.30
  -1  -8  -1   -1.90    3.20
  -1  -8  -1    0.00    2.80
  -1  -8  -1    2.00    2.50
  -1  -8  -1    2.50    2.80
  -2  -8  -1    4.10    2.80
  -2  -8  -1    0.70    3.40
  -2  -8  -1   -4.60    2.80
  -2  -8  -1    2.60    3.50
  -2  -8  -1    1.10    3.20
  -2  -8  -1    1.10    3.00
  -3  -8  -1   30.00    5.30
  -3  -8  -1   22.50    3.80
  -3  -8  -1   30.80    4.00
  -3  -8  -1   18.30    4.30
  -3  -8  -1   29.30    4.70
  -4  -8  -1  171.38   10.60
  -4  -8  -1  170.38    9.80
  -4  -8  -1  174.08    9.90
  -4  -8  -1  162.38    8.80
  -4  -8  -1  177.78    9.30
   4   8   1  157.48    6.90
  -5  -8  -1   20.40    3.70
  -5  -8  -1   21.90    4.70
  -5  -8  -1   19.00    4.10
  -5  -8  -1   21.50    3.60
   5   8   1   20.70    2.00
   5   8   1   23.60    2.10
  -6  -8  -1   -0.90    3.20
  -6  -8  -1   -4.10    2.10
  -6  -8  -1    3.90    2.70
  -6  -8  -1   -4.00    1.90
   6   8   1    2.10    1.20
   6   8   1   -3.60    1.90
   2  -9  -1   11.30    3.50
   2  -9  -1   15.40    2.30
   2  -9  -1   15.50    2.60
   2  -9  -1   16.80    3.20
   2  -9  -1    7.20    2.30
   1  -9  -1  123.49    6.60
   1  -9  -1  131.79    6.60
   1  -9  -1  131.19    7.40
   1  -9  -1  120.29    7.60
   1  -9  -1  114.79    7.60
   0  -9  -1   89.89    6.30
   0  -9  -1   77.29    6.40
   0  -9  -1   83.09    5.80
   0  -9  -1   86.99    5.40
  -1  -9  -1    1.20    2.30
  -1  -9  -1   -2.50    2.50
  -1  -9  -1    0.60    2.90
  -1  -9  -1    0.00    2.70
  -2  -9  -1    1.90    2.90
  -2  -9  -1    5.80    3.00
  -2  -9  -1    4.90    2.80
  -2  -9  -1    5.50    3.60
  -3  -9  -1   32.00    4.70
  -3  -9  -1   31.70    3.90
  -3  -9  -1   31.00    4.10
  -3  -9  -1   31.40    4.40
  -3  -9  -1   34.50    4.00
  -4  -9  -1   25.90    3.50
  -4  -9  -1   22.20    4.30
  -4  -9  -1   15.80    3.80
  -4  -9  -1   11.40    3.00
  -5  -9  -1    2.10    2.10
  -5  -9  -1    1.30    3.20
  -5  -9  -1    1.60    2.60
  -5  -9  -1   -1.30    2.40
  -4  -9   2   -1.00    1.90
  -3  -9   2    6.40    2.70
  -3  -9   2    5.70    3.00
  -3  -9   2    1.90    2.40
  -3  -9   2    8.70    2.90
  -2  -9   2    1.30    2.80
  -2  -9   2   -2.50    2.60
  -2  -9   2   -0.90    2.90
  -2  -9   2    0.70    2.20
  -2  -9   2    1.00    2.80
  -1  -9   2   66.79    5.60
  -1  -9   2   76.09    5.10
  -1  -9   2   70.29    5.70
  -1  -9   2   67.39    6.10
   0  -9   2    1.50    2.90
   0  -9   2    4.00    2.90
   0  -9   2    5.00    2.40
   0  -9   2    1.90    2.60
   0  -9   2    2.80    3.00
   1  -9   2    0.20    2.10
   1  -9   2    1.10    2.30
   1  -9   2    4.70    2.80
   1  -9   2    6.40    2.90
   1  -9   2    3.10    2.50
   2  -9   2   12.70    2.60
   2  -9   2    6.60    2.20
   2  -9   2   10.10    2.20
   5   8  -2   18.90    1.70
  -5  -8   2   13.50    2.80
  -5  -8   2   18.40    3.10
  -5  -8   2   13.30    2.60
  -5  -8   2   12.60    2.50
   4   8  -2  101.69    4.90
   4   8  -2   99.69    4.70
  -4  -8   2  102.89    6.80
  -4  -8   2  100.49    7.10
  -4  -8   2  104.69    8.50
  -4  -8   2  110.39    7.10
  -4  -8   2   91.19    6.70
   3   8  -2    2.70    1.50
  -3  -8   2    7.40    4.50
  -3  -8   2    8.80    3.20
  -3  -8   2    3.40    3.50
  -3  -8   2    6.10    2.80
  -3  -8   2    7.30    3.60
  -3  -8   2    6.60    3.50
   2   8  -2   13.20    4.40
   2   8  -2   28.80    2.40
  -2  -8   2   43.90    4.90
  -2  -8   2   27.00    4.50
  -2  -8   2   31.40    4.30
  -2  -8   2   38.20    5.30
  -2  -8   2   39.90    4.20
  -1  -8   2  300.17   13.20
  -1  -8   2  307.97   14.30
  -1  -8   2  293.47   14.20
  -1  -8   2  284.67   13.70
  -1  -8   2  294.47   13.50
   0   8  -2   76.79    4.00
   0  -8   2   84.99    6.10
   0  -8   2   93.49    6.80
   0  -8   2   81.99    7.20
   0  -8   2   83.59    6.80
   0  -8   2   97.99    7.30
  -1   8  -2  136.39    6.10
   1  -8   2  152.78    9.10
   1  -8   2  158.48    8.90
   1  -8   2  146.09    8.00
   1  -8   2  157.58    7.90
   1  -8   2  134.59    8.30
   1  -8   2  150.68    8.60
  -2   8  -2  139.49    6.20
  -2   8  -2  123.29    5.60
   2  -8   2  132.99    7.40
   2  -8   2  127.69    7.80
   2  -8   2  123.09    7.40
   2  -8   2  123.39    6.90
   2  -8   2  128.89    8.30
  -3   8  -2    0.10    2.00
  -3   8  -2   -1.10    1.20
   3  -8   2    1.70    2.20
   3  -8   2    2.10    2.90
   3  -8   2   -1.20    2.10
   3  -8   2   -1.90    2.50
   3  -8   2   -3.20    2.30
   6   7  -2  186.68    7.60
   6   7  -2  195.38    8.80
  -6  -7   2  177.68    8.80
  -6  -7   2  207.48    8.80
   5   7  -2   -2.00    2.40
   5   7  -2    0.30    1.50
   5   7  -2   -3.30    1.70
  -5  -7   2    4.70    5.00
  -5  -7   2    2.80    3.20
  -5  -7   2   -1.60    3.10
  -5  -7   2    0.70    3.00
  -5  -7   2    0.50    3.10
   4   7  -2   -1.20    1.50
   4   7  -2   -1.70    1.70
   4   7  -2   -1.80    3.30
  -4  -7   2    5.40    3.60
  -4  -7   2   -2.20    2.50
  -4  -7   2    1.30    3.50
  -4  -7   2    5.50    4.50
  -4  -7   2   -2.90    3.20
  -4  -7   2    0.80    3.30
   3   7  -2    0.80    1.50
   3   7  -2    1.80    2.70
  -3  -7   2    1.40    4.00
  -3  -7   2   -1.10    3.40
  -3  -7   2    1.20    2.60
  -3  -7   2    0.20    3.60
  -3  -7   2    7.50    3.90
  -3  -7   2    1.30    2.70
  -3  -7   2   -1.80    3.00
   2   7  -2   68.19    5.50
   2   7  -2   63.19    3.50
   2   7  -2   71.59    5.40
  -2  -7   2   75.09    6.60
  -2  -7   2   67.79    5.60
  -2  -7   2   71.09    6.30
  -2  -7   2   63.69    6.40
  -2  -7   2   72.79    5.90
  -2  -7   2   64.59    6.70
   1   7  -2   21.60    3.30
  -1  -7   2   20.70    3.50
  -1  -7   2   24.50    4.50
  -1  -7   2   23.70    4.60
  -1  -7   2   27.30    4.00
  -1  -7   2   26.90    4.10
  -1  -7   2   25.70    4.10
   0  -7   2  169.48   10.00
   0  -7   2  166.78    8.80
   0  -7   2  156.68    9.20
   0  -7   2  177.68    9.90
   0  -7   2  175.98    9.10
   0  -7   2  156.08    9.20
  -1   7  -2   80.59    4.20
  -1   7  -2   88.19    6.10
   1  -7   2   99.19    7.10
   1  -7   2   88.79    6.60
   1  -7   2   95.89    7.30
   1  -7   2   90.59    7.30
   1  -7   2   89.59    6.30
   1  -7   2  100.19    7.40
  -2   7  -2   71.99    5.70
  -2   7  -2   82.69    5.10
  -2   7  -2   82.69    4.10
   2  -7   2   87.19    7.00
   2  -7   2   75.79    6.40
   2  -7   2   68.69    5.60
   2  -7   2   91.09    6.60
   2  -7   2   92.59    6.90
   2  -7   2   69.49    6.60
   2  -7   2   80.49    5.60
  -3   7  -2  125.79    5.80
  -3   7  -2  119.89    5.60
   3  -7   2  128.19    7.30
   3  -7   2  122.49    8.20
   3  -7   2  120.29    7.60
   3  -7   2  121.69    8.20
   3  -7   2  115.29    6.90
   3  -7   2  123.69    7.40
   3  -7   2  128.49    7.80
  -4   7  -2   29.90    2.40
  -4   7  -2   26.20    2.30
  -4   7  -2   18.30    2.80
   4  -7   2   19.10    2.80
   4  -7   2   21.50    3.30
   4  -7   2   20.10    3.10
   4  -7   2   23.50    4.10
   4  -7   2   16.50    3.40
   6   6  -2   16.00    3.30
   6   6  -2    9.40    2.40
   6   6  -2   12.80    1.80
   6   6  -2    4.60    2.50
  -6  -6   2   10.80    3.30
  -6  -6   2   11.10    3.20
  -6  -6   2    9.60    2.90
   5   6  -2   26.80    2.50
   5   6  -2   35.00    4.50
   5   6  -2   29.40    2.80
  -5  -6   2   28.70    4.70
  -5  -6   2   34.30    6.10
  -5  -6   2   32.10    4.40
  -5  -6   2   31.90    4.60
  -5  -6   2   22.30    3.30
  -5  -6   2   27.50    4.10
  -5  -6   2   23.20    3.90
   4   6  -2    0.50    1.60
   4   6  -2    0.60    1.50
   4   6  -2   -5.60    2.50
  -4  -6   2   -2.60    3.30
  -4  -6   2   -0.30    3.30
  -4  -6   2   -0.10    2.90
  -4  -6   2    4.70    3.30
  -4  -6   2   -3.00    2.90
  -4  -6   2    5.80    3.40
  -4  -6   2    0.50    4.30
  -4  -6   2    0.40    2.70
   3   6  -2   36.30    2.60
   3   6  -2   36.00    4.00
   3   6  -2   36.60    4.10
  -3  -6   2   39.60    4.40
  -3  -6   2   38.90    4.80
  -3  -6   2   37.20    3.90
  -3  -6   2   35.20    5.20
  -3  -6   2   42.70    5.20
  -3  -6   2   29.50    3.90
  -3  -6   2   34.30    4.20
  -3  -6   2   38.90    3.90
   2   6  -2    7.10    2.80
   2   6  -2    7.00    4.10
   2   6  -2    7.90    2.90
   2   6  -2    6.20    1.10
  -2  -6   2    5.30    3.40
  -2  -6   2    8.20    2.50
  -2  -6   2    6.60    3.00
  -2  -6   2    9.00    3.40
  -2  -6   2    4.50    2.70
  -2  -6   2    7.30    2.70
  -2  -6   2    6.40    2.50
   1   6  -2  429.16   17.60
   1   6  -2  396.06   18.30
  -1  -6   2  421.46   17.60
  -1  -6   2  445.66   18.40
  -1  -6   2  453.15   18.10
  -1  -6   2  425.66   17.40
  -1  -6   2  420.76   17.60
  -1  -6   2  427.06   18.40
  -1  -6   2  417.66   18.10
   0   6  -2  111.99    6.20
   0   6  -2  111.99    7.30
   0  -6   2   96.29    6.50
   0  -6   2  109.59    6.70
   0  -6   2  106.89    6.60
   0  -6   2  110.79    6.50
   0  -6   2  111.59    7.20
   0  -6   2  114.09    6.70
   0  -6   2  107.99    6.80
   0  -6   2  108.89    7.10
   0  -6   2  106.89    6.20
  -1   6  -2   10.70    2.20
  -1   6  -2    9.90    2.10
  -1   6  -2    8.20    1.70
   1  -6   2   10.00    3.80
   1  -6   2    9.00    3.50
   1  -6   2   10.90    3.10
   1  -6   2   13.80    2.70
   1  -6   2    9.20    3.30
   1  -6   2   12.00    2.70
   1  -6   2    6.50    2.80
  -2   6  -2   71.39    4.90
  -2   6  -2   73.89    3.70
  -2   6  -2   73.79    4.80
   2  -6   2   67.59    6.10
   2  -6   2   68.59    6.20
   2  -6   2   77.69    6.00
   2  -6   2   76.29    5.70
   2  -6   2   78.29    5.50
   2  -6   2   82.69    6.10
   2  -6   2   77.09    5.20
   2  -6   2   74.69    6.10
   2  -6   2   78.09    5.50
  -3   6  -2   99.59    4.90
  -3   6  -2   90.39    5.90
  -3   6  -2   91.39    5.70
  -3   6  -2  105.79    5.10
   3  -6   2  105.09    7.00
   3  -6   2   98.79    7.70
   3  -6   2   98.89    6.00
   3  -6   2  107.79    6.90
   3  -6   2  108.79    7.30
   3  -6   2  105.09    6.80
   3  -6   2  113.19    7.80
  -4   6  -2  173.28    9.00
  -4   6  -2  174.38    8.70
  -4   6  -2  181.08    7.60
  -4   6  -2  164.08    8.30
   4  -6   2  167.18    9.10
   4  -6   2  184.18    8.90
   4  -6   2  159.68    8.30
   4  -6   2  167.58    8.60
   4  -6   2  176.88    9.20
   4  -6   2  189.38   10.30
   4  -6   2  173.58    9.80
  -5   6  -2   67.39    4.80
  -5   6  -2   69.89    4.60
   5  -6   2   72.69    5.40
   5  -6   2   64.99    4.80
   5  -6   2   68.09    5.10
   5  -6   2   70.19    6.10
   7   5  -2  117.99    6.50
  -7  -5   2  100.59    5.70
  -7  -5   2  112.79    6.10
  -7  -5   2   99.69    6.10
   6   5  -2   99.29    6.90
   6   5  -2   95.89    4.60
   6   5  -2   90.09    5.70
  -6  -5   2   82.99    6.50
  -6  -5   2   91.09    6.30
  -6  -5   2   86.69    5.20
  -6  -5   2   95.19    7.00
  -6  -5   2   90.29    5.70
   5   5  -2   20.90    2.50
   5   5  -2   15.10    2.20
   5   5  -2   15.00    2.80
   5   5  -2   13.90    3.00
  -5  -5   2   18.30    3.60
  -5  -5   2   17.40    3.90
  -5  -5   2   16.50    2.90
  -5  -5   2   22.30    5.30
  -5  -5   2   13.10    3.20
  -5  -5   2   20.70    4.30
  -5  -5   2   15.10    3.10
  -5  -5   2   12.70    3.40
   4   5  -2    3.90    1.70
   4   5  -2   -1.30    2.30
   4   5  -2    0.50    2.40
   4   5  -2   -1.90    1.90
   4   5  -2    1.90    1.50
  -4  -5   2    0.20    2.80
  -4  -5   2   -0.30    2.20
  -4  -5   2    2.30    2.40
  -4  -5   2    3.90    2.50
  -4  -5   2    0.00    3.20
  -4  -5   2   -0.90    1.80
  -4  -5   2    0.10    3.50
  -4  -5   2   -0.90    2.40
  -4  -5   2    1.60    2.80
  -4  -5   2    1.10    2.40
   3   5  -2  429.66   16.80
   3   5  -2  412.46   16.90
   3   5  -2  378.56   17.50
   3   5  -2  412.06   15.80
  -3  -5   2  417.86   17.00
  -3  -5   2  410.26   17.00
  -3  -5   2  429.56   17.40
  -3  -5   2  418.06   17.80
  -3  -5   2  407.56   17.60
  -3  -5   2  423.36   17.20
  -3  -5   2  407.06   17.30
  -3  -5   2  427.66   18.50
   2   5  -2   82.69    5.90
   2   5  -2   80.39    3.70
   2   5  -2   92.39    5.40
  -2  -5   2   88.39    5.30
  -2  -5   2   89.99    5.50
  -2  -5   2   84.29    5.40
  -2  -5   2   89.69    6.40
  -2  -5   2   79.59    5.70
  -2  -5   2   88.49    6.40
  -2  -5   2   89.69    5.30
  -2  -5   2   87.99    5.20
   1   5  -2  344.77   15.10
   1   5  -2  368.66   14.40
   1   5  -2  346.47   13.60
  -1  -5   2  343.87   14.30
  -1  -5   2  362.06   15.10
  -1  -5   2  347.47   15.00
  -1  -5   2  359.66   14.40
  -1  -5   2  338.27   14.60
  -1  -5   2  329.47   14.30
   0   5  -2   72.59    3.80
   0   5  -2   78.39    4.00
   0   5  -2   83.49    5.40
   0  -5   2   78.69    5.60
   0  -5   2   79.49    5.40
   0  -5   2   80.19    5.20
   0  -5   2   77.99    4.80
   0  -5   2   71.39    4.40
   0  -5   2   67.69    5.30
   0  -5   2   62.49    5.00
  -1   5  -2   61.89    3.80
  -1   5  -2   65.79    3.80
  -1   5  -2   65.99    4.70
   1  -5   2   62.89    4.30
   1  -5   2   61.69    4.10
   1  -5   2   59.49    4.70
   1  -5   2   64.29    4.90
   1  -5   2   61.29    5.30
   1  -5   2   62.29    5.40
   1  -5   2   74.89    5.80
   1  -5   2   61.69    4.50
  -2   5  -2   11.20    2.70
  -2   5  -2    9.70    1.30
  -2   5  -2   12.50    2.10
  -2   5  -2   15.60    2.40
   2  -5   2    9.30    3.40
   2  -5   2   16.50    3.30
   2  -5   2   13.70    2.50
   2  -5   2   18.00    3.20
   2  -5   2   10.80    2.30
   2  -5   2    9.60    3.10
   2  -5   2    8.10    3.00
   2  -5   2   13.90    2.50
   2  -5   2   14.20    2.60
  -3   5  -2   44.70    3.00
  -3   5  -2   53.89    3.30
  -3   5  -2   52.99    4.00
  -3   5  -2   54.79    4.10
   3  -5   2   49.00    4.70
   3  -5   2   47.30    5.20
   3  -5   2   53.89    4.40
   3  -5   2   52.19    4.30
   3  -5   2   51.49    4.40
   3  -5   2   61.49    6.00
   3  -5   2   59.79    5.00
   3  -5   2   50.09    4.80
   3  -5   2   53.79    4.60
  -4   5  -2   32.30    3.60
  -4   5  -2   44.20    4.30
  -4   5  -2   40.30    3.80
  -4   5  -2   31.50    2.80
  -4   5  -2   35.30    3.00
  -4   5  -2   43.50    3.80
   4  -5   2   28.50    3.80
   4  -5   2   37.40    5.10
   4  -5   2   29.50    3.30
   4  -5   2   24.60    3.80
   4  -5   2   40.60    5.10
   4  -5   2   34.00    4.00
   4  -5   2   37.80    4.10
   4  -5   2   34.70    3.90
  -5   5  -2   50.19    4.20
  -5   5  -2   54.89    4.60
  -5   5  -2   53.59    3.60
  -5   5  -2   46.30    3.70
  -5   5  -2   49.70    4.70
   5  -5   2   43.30    4.90
   5  -5   2   44.30    4.20
   5  -5   2   48.30    4.40
   5  -5   2   60.49    5.70
  -6   5  -2    5.30    2.20
  -6   5  -2    2.90    2.40
  -6   5  -2   -1.00    2.10
   6  -5   2    0.50    2.30
   6  -5   2   -0.60    1.90
   6  -5   2    0.30    2.60
   7   4  -2   27.00    2.90
   7   4  -2   24.90    2.60
   7   4  -2   32.90    3.80
  -7  -4   2   29.20    3.20
  -7  -4   2   23.40    3.10
  -7  -4   2   24.10    3.10
  -7  -4   2   28.10    3.50
  -7  -4   2   26.80    3.50
   6   4  -2  162.08    7.00
   6   4  -2  144.99    7.70
   6   4  -2  182.98    9.50
   6   4  -2  150.28    7.80
   6   4  -2  173.78    8.20
  -6  -4   2  159.88    8.80
  -6  -4   2  167.88    8.50
  -6  -4   2  164.78    8.40
  -6  -4   2  148.99    7.80
  -6  -4   2  156.98    9.10
  -6  -4   2  162.28    8.60
  -6  -4   2  171.18    8.90
   5   4  -2  203.18    9.70
   5   4  -2  226.68    9.00
   5   4  -2  216.58    9.10
   5   4  -2  207.78    9.60
   5   4  -2  208.38    9.70
  -5  -4   2  216.28   12.00
  -5  -4   2  211.48   10.40
  -5  -4   2  200.78   10.10
  -5  -4   2  214.68    9.90
  -5  -4   2  237.58   10.70
  -5  -4   2  222.88   10.40
  -5  -4   2  207.98   11.20
  -5  -4   2  209.88   10.80
   4   4  -2  148.99    6.20
   4   4  -2  142.69    7.30
   4   4  -2  151.48    7.20
   4   4  -2  139.39    6.20
   4   4  -2  132.59    8.50
   4   4  -2  129.19    6.70
   4   4  -2  124.79    7.80
  -4  -4   2  128.19    7.10
  -4  -4   2  138.09    7.30
  -4  -4   2  136.99    7.50
  -4  -4   2  149.39    8.00
  -4  -4   2  144.09    7.60
  -4  -4   2  154.98    7.10
  -4  -4   2  122.49    7.60
  -4  -4   2  140.39    7.30
  -4  -4   2  145.79    8.40
  -4  -4   2  145.99    8.70
   3   4  -2   18.90    3.10
   3   4  -2   21.10    2.40
   3   4  -2   19.80    1.70
   3   4  -2   21.50    2.90
   3   4  -2   23.40    2.70
  -3  -4   2   20.40    2.80
  -3  -4   2   25.90    3.50
  -3  -4   2   20.10    2.90
  -3  -4   2   29.10    4.10
  -3  -4   2   23.70    3.00
  -3  -4   2   17.90    2.20
  -3  -4   2   21.20    2.30
  -3  -4   2   21.10    2.70
  -3  -4   2   22.30    3.30
  -3  -4   2   26.20    3.40
  -3  -4   2   19.00    2.70
   2   4  -2   48.20    3.20
   2   4  -2   47.10    2.30
   2   4  -2   46.80    4.00
   2   4  -2   49.70    3.50
   2   4  -2   48.20    3.50
  -2  -4   2   44.40    2.70
  -2  -4   2   46.60    3.10
   1   4  -2  284.57   11.00
   1   4  -2  284.87   12.00
   1   4  -2  267.67   11.00
  -1  -4   2  254.27   10.60
  -1  -4   2  290.37   12.20
  -1  -4   2  272.97   10.90
   0   4  -2   17.10    1.70
   0   4  -2   22.10    1.90
   0   4  -2   17.30    1.70
   0   4  -2   22.90    2.50
   0  -4   2   22.30    3.10
  -1   4  -2  184.38    7.70
  -1   4  -2  191.78    7.70
  -1   4  -2  179.08    8.40
  -1   4  -2  184.58    7.60
   1  -4   2  167.48    7.70
   1  -4   2  176.28    8.70
   1  -4   2  182.48    8.80
  -2   4  -2   58.79    2.90
  -2   4  -2   64.39    4.70
  -2   4  -2   64.09    3.80
  -2   4  -2   64.19    3.80
  -2   4  -2   66.09    3.90
   2  -4   2   60.49    4.60
   2  -4   2   59.49    4.70
  -3   4  -2  294.47   12.40
  -3   4  -2  311.27   12.70
  -3   4  -2  306.17   13.80
  -3   4  -2  321.47   11.90
  -3   4  -2  312.77   11.80
  -3   4  -2  323.87   12.70
  -3   4  -2  270.77   13.00
   3  -4   2  308.87   12.80
   3  -4   2  311.07   12.80
   3  -4   2  302.77   13.50
   3  -4   2  301.37   13.80
   3  -4   2  306.07   13.30
   3  -4   2  307.27   12.80
   3  -4   2  291.77   12.50
   3  -4   2  296.37   13.00
   3  -4   2  290.77   12.40
  -4   4  -2   13.00    2.50
  -4   4  -2   15.20    2.10
  -4   4  -2   14.80    2.70
  -4   4  -2   14.60    2.50
  -4   4  -2   12.50    2.40
  -4   4  -2   13.00    1.80
   4  -4   2   15.70    2.80
   4  -4   2   11.50    3.50
   4  -4   2   18.00    3.00
   4  -4   2   15.20    2.60
   4  -4   2   14.00    2.60
   4  -4   2   12.30    2.50
   4  -4   2   15.50    3.40
   4  -4   2   12.40    2.30
  -5   4  -2  757.22   27.40
  -5   4  -2  684.53   28.10
  -5   4  -2  751.52   28.60
  -5   4  -2  698.63   28.10
  -5   4  -2  702.03   27.50
   5  -4   2  723.73   28.10
   5  -4   2  752.92   29.50
   5  -4   2  709.13   29.30
   5  -4   2  735.93   28.80
   5  -4   2  742.53   28.70
  -6   4  -2   15.50    3.50
  -6   4  -2   21.70    3.00
  -6   4  -2   14.00    3.20
   6  -4   2   12.20    2.80
   6  -4   2   19.00    3.80
   6  -4   2   18.40    4.40
   6  -4   2   14.90    2.50
   6  -4   2   15.60    3.00
  -7   4  -2   -0.40    1.70
  -7   4  -2   -0.70    1.90
   7  -4   2    1.10    1.90
   7   3  -2   13.00    2.40
   7   3  -2   18.70    3.60
   7   3  -2   15.60    2.70
  -7  -3   2   16.10    2.60
  -7  -3   2   14.50    2.60
  -7  -3   2   11.10    2.80
  -7  -3   2   12.50    3.20
   6   3  -2   91.39    5.80
   6   3  -2   84.69    5.60
   6   3  -2   94.39    7.10
   6   3  -2   89.59    5.50
  -6  -3   2   85.59    6.80
  -6  -3   2   83.69    6.10
  -6  -3   2   89.79    5.60
  -6  -3   2   97.19    6.10
  -6  -3   2   91.39    6.10
  -6  -3   2  103.19    6.90
   5   3  -2  418.66   16.70
   5   3  -2  419.66   15.90
   5   3  -2  419.16   17.60
   5   3  -2  410.96   16.60
   5   3  -2  403.56   15.90
   5   3  -2  407.76   16.60
   5   3  -2  388.66   16.70
  -5  -3   2  413.76   16.70
  -5  -3   2  393.96   16.60
  -5  -3   2  418.96   17.20
  -5  -3   2  409.76   17.30
  -5  -3   2  425.26   17.10
  -5  -3   2  379.96   18.30
  -5  -3   2  417.66   17.50
  -5  -3   2  405.86   17.50
  -5  -3   2  408.86   17.70
   4   3  -2   11.90    2.80
   4   3  -2   12.00    2.30
   4   3  -2   19.30    1.90
   4   3  -2   16.30    2.40
   4   3  -2   13.60    2.90
   4   3  -2   16.00    1.80
   4   3  -2   16.40    2.60
   4   3  -2   15.60    2.20
   4   3  -2   15.60    2.90
  -4  -3   2   13.90    2.60
  -4  -3   2   22.20    2.60
  -4  -3   2   17.80    3.00
  -4  -3   2   18.70    2.90
  -4  -3   2   19.30    2.40
  -4  -3   2   17.40    2.70
  -4  -3   2   20.00    2.80
  -4  -3   2   15.10    3.50
  -4  -3   2   17.00    3.20
  -4  -3   2   22.00    2.80
   3   3  -2  552.74   21.50
   3   3  -2  571.94   21.50
   3   3  -2  526.95   21.60
   3   3  -2  546.55   20.80
   3   3  -2  565.04   22.10
  -3  -3   2  564.94   21.50
  -3  -3   2  570.24   21.20
  -3  -3   2  551.44   21.30
  -3  -3   2  558.14   21.30
   2   3  -2  124.29    6.20
   2   3  -2  117.19    5.60
   2   3  -2  132.39    5.80
   2   3  -2  128.89    5.70
  -2  -3   2  113.49    5.10
  -2  -3   2  120.49    5.70
  -2  -3   2  108.89    5.20
  -2  -3   2  118.79    5.40
  -2  -3   2  119.19    5.20
   1   3  -2  171.98    7.20
   1   3  -2  178.38    7.70
   1   3  -2  160.08    6.70
   1   3  -2  160.78    6.90
   1   3  -2  167.38    7.00
  -1  -3   2  172.28    7.20
  -1  -3   2  166.98    7.70
  -1  -3   2  162.88    6.60
  -1  -3   2  167.18    6.90
   0   3  -2  808.72   28.50
   0   3  -2  778.82   28.80
   0   3  -2  757.12   28.30
   0   3  -2  714.33   28.30
   0  -3   2  771.82   28.60
   0  -3   2  784.32   29.30
   0  -3   2  772.82   28.00
   0  -3   2  732.73   28.50
  -1   3  -2    2.50    1.70
  -1   3  -2    1.70    1.10
  -1   3  -2    1.30    1.10
  -1   3  -2    2.00    1.20
   1  -3   2    1.10    1.50
   1  -3   2    2.00    1.10
   1  -3   2    1.20    0.90
   1  -3   2    2.00    1.80
  -2   3  -2  104.79    5.00
  -2   3  -2  100.69    4.90
  -2   3  -2  105.99    5.80
  -2   3  -2   97.79    4.30
  -2   3  -2  111.89    5.00
   2  -3   2  104.09    4.50
   2  -3   2   95.09    4.70
   2  -3   2  107.79    5.80
   2  -3   2  108.19    6.00
  -3   3  -2  200.18    7.70
  -3   3  -2  196.98    9.30
  -3   3  -2  193.18    8.40
  -3   3  -2  190.58    8.70
  -3   3  -2  197.38    8.40
   3  -3   2  190.38    9.70
   3  -3   2  182.88    9.30
  -4   3  -2  107.49    5.80
  -4   3  -2  114.89    5.80
  -4   3  -2  111.59    5.20
  -4   3  -2  109.89    6.60
  -4   3  -2  112.89    5.10
  -4   3  -2  115.69    5.80
  -4   3  -2  109.19    5.70
   4  -3   2  109.89    6.10
   4  -3   2  107.69    5.80
   4  -3   2  111.59    6.20
   4  -3   2  102.59    5.90
   4  -3   2  110.69    6.90
   4  -3   2  110.89    6.00
  -5   3  -2    2.30    1.90
  -5   3  -2    3.00    2.00
  -5   3  -2    3.80    1.50
  -5   3  -2    1.70    2.20
  -5   3  -2   -0.10    2.10
  -5   3  -2    1.30    3.00
   5  -3   2    2.60    2.20
   5  -3   2    4.90    2.50
   5  -3   2    4.80    2.30
  -6   3  -2   82.39    5.80
  -6   3  -2   74.69    5.30
  -6   3  -2   66.19    4.90
  -6   3  -2   68.19    5.40
   6  -3   2   70.69    5.40
   6  -3   2   66.89    5.40
   6  -3   2   74.59    5.30
   6  -3   2   70.69    6.50
  -7   3  -2    1.10    2.40
  -7   3  -2   -0.40    2.10
  -7   3  -2    3.30    2.50
   7  -3   2   -0.90    1.90
   7  -3   2    0.30    2.40
   7  -3   2   -4.80    2.00
   7  -3   2    4.20    3.20
   7  -3   2   -1.40    1.60
   7   2  -2  158.78    7.80
   7   2  -2  161.98    8.50
   7   2  -2  171.08    8.10
  -7  -2   2  165.18    8.90
  -7  -2   2  149.29    7.80
  -7  -2   2  170.78    8.40
  -7  -2   2  156.88    7.90
   6   2  -2    2.30    2.40
   6   2  -2    3.00    2.50
   6   2  -2   -0.30    2.20
   6   2  -2    4.10    3.40
  -6  -2   2   -0.10    3.20
  -6  -2   2   -0.50    2.40
  -6  -2   2    1.40    2.10
  -6  -2   2    1.40    2.30
  -6  -2   2   -3.60    3.30
  -6  -2   2    3.80    2.70
   5   2  -2    1.70    2.80
   5   2  -2    0.30    1.40
   5   2  -2    0.90    1.80
   5   2  -2    1.10    1.90
   5   2  -2   -1.30    2.00
   5   2  -2    1.80    2.10
  -5  -2   2   -2.30    2.30
  -5  -2   2    1.80    1.70
  -5  -2   2    0.00    1.90
  -5  -2   2    1.50    2.20
  -5  -2   2    0.80    1.80
  -5  -2   2    2.50    2.10
  -5  -2   2   -0.30    2.10
  -5  -2   2    1.20    3.00
   4   2  -2   33.90    2.90
   4   2  -2   26.40    3.30
   4   2  -2   34.30    2.90
   4   2  -2   29.40    2.30
   4   2  -2   26.10    2.80
   4   2  -2   31.10    4.80
   4   2  -2   31.20    2.80
   4   2  -2   30.10    2.40
  -4  -2   2   36.90    3.60
  -4  -2   2   27.60    3.10
  -4  -2   2   29.70    3.10
  -4  -2   2   33.70    3.10
  -4  -2   2   25.00    3.00
  -4  -2   2   33.30    3.30
  -4  -2   2   29.20    2.80
  -4  -2   2   30.90    2.70
   3   2  -2   79.59    4.70
   3   2  -2   82.79    4.40
   3   2  -2   84.79    4.40
   3   2  -2   82.79    3.80
   3   2  -2   83.29    4.90
  -3  -2   2   88.29    4.20
  -3  -2   2   82.89    4.20
  -3  -2   2   75.89    4.20
  -3  -2   2   87.99    4.20
  -3  -2   2   85.59    4.60
   2   2  -2   87.59    4.40
   2   2  -2   83.69    4.20
   2   2  -2   89.19    4.30
   2   2  -2   82.89    4.70
  -2  -2   2   86.49    4.00
  -2  -2   2   85.29    4.30
  -2  -2   2   87.79    4.10
  -2  -2   2   88.99    4.30
  -2  -2   2   93.19    4.10
  -2  -2   2   86.69    4.00
   1   2  -2  602.84   23.70
   1   2  -2  600.14   23.40
   1   2  -2  655.53   24.20
   1   2  -2  642.34   23.80
   1   2  -2  656.43   23.80
  -1  -2   2  661.33   23.50
  -1  -2   2  636.44   23.90
  -1  -2   2  655.03   23.80
  -1  -2   2  677.13   24.30
  -1  -2   2  644.84   23.70
  -1  -2   2  587.24   23.60
  -1  -2   2  628.34   23.50
   0   2  -2  211.28    8.20
   0   2  -2  219.68    8.40
   0   2  -2  218.98    8.30
   0   2  -2  208.18    8.10
   0  -2   2  209.18    8.10
   0  -2   2  207.78    7.80
   0  -2   2  212.18    8.80
   0  -2   2  192.88    8.00
  -1   2  -2  211.28    8.70
  -1   2  -2  222.78    8.70
  -1   2  -2  244.58    8.90
  -1   2  -2  202.18    8.20
  -1   2  -2  220.98    8.70
  -1   2  -2  228.78    9.20
   1  -2   2  244.18    9.40
   1  -2   2  226.48    8.60
   1  -2   2  189.98    8.60
   1  -2   2  233.08    9.30
   1  -2   2  236.98    9.50
  -2   2  -2 1335.37   47.70
  -2   2  -2 1327.77   47.70
  -2   2  -2 1287.67   47.90
  -2   2  -2 1328.07   48.30
   2  -2   2 1252.27   47.40
   2  -2   2 1198.88   47.60
   2  -2   2 1288.17   48.10
   2  -2   2 1305.27   48.50
   2  -2   2 1327.47   48.40
  -3   2  -2  335.77   13.90
  -3   2  -2  337.37   13.20
  -3   2  -2  340.87   13.20
  -3   2  -2  328.37   12.70
  -3   2  -2  337.57   13.50
   3  -2   2  318.97   12.70
   3  -2   2  325.37   13.50
   3  -2   2  344.87   14.40
   3  -2   2  330.57   14.00
   3  -2   2  336.07   13.10
  -4   2  -2   57.69    3.20
  -4   2  -2   59.09    4.40
  -4   2  -2   56.49    3.60
  -4   2  -2   62.49    3.70
  -4   2  -2   54.69    3.70
  -4   2  -2   63.59    4.10
  -4   2  -2   56.19    3.80
   4  -2   2   63.29    3.90
   4  -2   2   57.69    4.90
   4  -2   2   51.49    3.70
   4  -2   2   56.29    4.30
   4  -2   2   59.89    3.60
   4  -2   2   61.19    4.10
   4  -2   2   60.19    4.20
  -5   2  -2    5.10    2.10
  -5   2  -2    5.00    2.30
  -5   2  -2    6.30    2.10
  -5   2  -2    1.40    2.40
  -5   2  -2    3.50    2.00
  -5   2  -2    3.80    2.40
   5  -2   2    3.50    2.20
   5  -2   2    2.40    1.90
   5  -2   2    0.80    2.10
   5  -2   2    3.40    2.00
  -6   2  -2  351.86   15.30
  -6   2  -2  378.36   15.80
  -6   2  -2  344.47   15.40
  -6   2  -2  374.86   15.50
   6  -2   2  366.46   15.70
   6  -2   2  372.46   15.70
   6  -2   2  357.46   15.50
  -7   2  -2   -4.60    2.10
  -7   2  -2    2.00    2.50
  -7   2  -2    0.90    2.10
  -7   2  -2    2.70    2.40
   7  -2   2   -0.40    2.10
   7  -2   2    0.10    2.30
   7  -2   2    1.10    2.70
   8  -2   2   88.49    5.70
   7   1  -2   46.80    4.60
   7   1  -2   54.99    4.50
   7   1  -2   47.50    4.40
  -7  -1   2   70.29    5.90
  -7  -1   2   52.99    4.70
  -7  -1   2   52.09    4.60
   6   1  -2  501.15   20.70
   6   1  -2  510.35   20.20
   6   1  -2  497.75   20.00
   6   1  -2  471.45   20.70
   6   1  -2  508.75   19.90
  -6  -1   2  511.05   20.10
  -6  -1   2  504.35   21.20
  -6  -1   2  506.85   20.20
  -6  -1   2  527.45   20.80
  -6  -1   2  448.16   20.00
  -6  -1   2  494.25   20.30
   5   1  -2   12.10    3.30
   5   1  -2    9.00    2.30
   5   1  -2   14.80    2.70
   5   1  -2   12.10    3.00
   5   1  -2    9.30    2.30
   5   1  -2   14.80    3.30
   5   1  -2   14.40    2.40
  -5  -1   2   10.70    2.50
  -5  -1   2   14.60    3.40
  -5  -1   2    9.30    2.20
  -5  -1   2   10.10    2.20
  -5  -1   2    6.60    2.50
  -5  -1   2   11.30    2.70
  -5  -1   2   11.60    2.70
   4   1  -2  220.68    9.30
   4   1  -2  220.78    9.20
   4   1  -2  189.48   11.70
   4   1  -2  217.88    9.90
   4   1  -2  202.48    9.30
  -4  -1   2  224.98    9.20
  -4  -1   2  225.18    9.80
  -4  -1   2  222.68   10.30
  -4  -1   2  222.98    9.30
  -4  -1   2  218.68    9.30
  -4  -1   2  205.58    9.60
  -4  -1   2  217.48    9.50
   3   1  -2  504.65   20.20
   3   1  -2  499.75   20.10
   3   1  -2  513.05   19.80
   3   1  -2  503.35   19.70
  -3  -1   2  529.75   20.10
  -3  -1   2  523.95   19.60
  -3  -1   2  521.25   19.70
  -3  -1   2  527.65   19.70
   2   1  -2   46.50    3.20
   2   1  -2   48.20    2.70
   2   1  -2   43.70    2.60
   2   1  -2   46.60    3.00
  -2  -1   2   46.60    2.70
  -2  -1   2   40.00    2.50
  -2  -1   2   49.00    2.80
  -2  -1   2   43.50    2.50
  -2  -1   2   44.50    2.80
  -2  -1   2   44.30    2.40
   1   1  -2   20.80    2.20
   1   1  -2   21.80    1.80
   1   1  -2   26.70    2.00
   1   1  -2   19.00    1.80
  -1  -1   2   22.00    1.80
  -1  -1   2   24.60    1.50
  -1  -1   2   25.60    1.80
   0   1  -2  802.02   29.40
   0   1  -2  792.82   29.50
   0   1  -2  764.62   29.20
   0   1  -2  837.02   29.40
   0   1  -2  778.52   29.40
   0  -1   2  773.12   29.20
   0  -1   2  758.32   29.30
   0  -1   2  808.92   29.70
   0  -1   2  849.32   29.60
   0  -1   2  800.12   29.10
  -1   1  -2  391.06   14.90
  -1   1  -2  365.56   14.60
  -1   1  -2  390.46   14.50
  -1   1  -2  386.66   14.70
   1  -1   2  378.36   14.40
   1  -1   2  390.66   14.90
   1  -1   2  412.46   14.80
   1  -1   2  389.26   15.00
  -2   1  -2   64.19    3.10
  -2   1  -2   65.89    3.70
  -2   1  -2   66.59    3.50
  -2   1  -2   58.69    3.30
  -2   1  -2   63.19    3.10
  -2   1  -2   62.19    2.70
   2  -1   2   64.99    3.30
   2  -1   2   66.99    3.00
   2  -1   2   69.99    3.60
   2  -1   2   66.09    3.60
  -3   1  -2  312.87   12.60
  -3   1  -2  319.87   12.80
  -3   1  -2  294.17   11.80
  -3   1  -2  287.67   12.30
  -3   1  -2  327.47   12.20
  -3   1  -2  327.37   12.20
   3  -1   2  320.57   12.00
   3  -1   2  318.37   12.90
   3  -1   2  300.87   12.20
   3  -1   2  320.57   12.80
   3  -1   2  316.37   12.10
  -4   1  -2  197.08    8.20
  -4   1  -2  194.38    8.90
  -4   1  -2  190.58    7.80
  -4   1  -2  195.68    8.10
   4  -1   2  203.68    8.20
   4  -1   2  185.28    9.00
  -5   1  -2   10.90    2.80
  -5   1  -2   14.20    2.70
  -5   1  -2   12.70    2.60
  -5   1  -2   15.60    2.70
  -5   1  -2   12.30    2.30
  -5   1  -2   10.50    2.80
   5  -1   2   12.80    2.40
   5  -1   2   13.10    2.30
   5  -1   2   13.20    2.10
   5  -1   2   10.90    2.20
   5  -1   2   16.80    2.90
   5  -1   2    9.90    2.10
  -6   1  -2   29.50    3.80
  -6   1  -2   21.20    3.80
  -6   1  -2   22.70    3.40
  -6   1  -2   26.90    3.40
  -6   1  -2   24.30    3.30
   6  -1   2   20.10    3.10
   6  -1   2   25.40    3.00
   6  -1   2   26.80    3.90
   6  -1   2   25.40    3.00
   6  -1   2   23.10    4.00
  -7   1  -2   -0.30    2.40
  -7   1  -2    2.20    2.60
  -7   1  -2    1.80    2.30
  -7   1  -2    1.50    2.90
  -7   1  -2    2.30    3.50
   7  -1   2    1.40    2.00
   7  -1   2    3.90    2.70
   7  -1   2    2.10    2.20
  -8   1  -2    1.00    2.50
  -8   1  -2    3.60    2.10
  -8   1  -2    3.70    2.30
   8  -1   2    0.20    1.60
   8  -1   2    3.80    2.30
   7   0  -2   27.70    3.40
   7   0  -2   17.00    3.30
  -7   0   2   28.40    3.10
  -7   0   2   21.40    3.80
  -7   0   2   22.50    3.20
  -7   0   2   23.70    3.30
   6   0  -2   77.79    5.10
   6   0  -2   80.89    5.30
   6   0  -2   70.89    6.00
   6   0  -2   81.49    5.60
  -6   0   2   71.69    6.60
  -6   0   2   83.49    5.80
  -6   0   2   79.69    5.80
  -6   0   2   76.09    5.90
  -6   0   2   80.89    5.10
   5   0  -2   13.70    2.60
   5   0  -2   17.50    2.50
   5   0  -2   16.50    2.60
   5   0  -2   16.00    3.10
   5   0  -2   14.10    2.60
   5   0  -2   16.10    3.10
  -5   0   2   19.00    2.90
  -5   0   2   15.30    2.50
  -5   0   2   16.90    3.20
  -5   0   2   17.80    2.80
  -5   0   2   18.40    3.40
  -5   0   2   22.80    3.00
   4   0  -2   17.30    2.20
   4   0  -2   21.90    3.00
   4   0  -2   18.10    2.30
   4   0  -2   20.50    2.40
  -4   0   2   19.20    2.20
  -4   0   2   21.20    2.20
  -4   0   2   17.40    2.30
  -4   0   2   22.60    3.10
  -4   0   2   19.50    2.60
   3   0  -2  560.34   21.80
   3   0  -2  575.64   21.40
   3   0  -2  562.54   21.30
  -3   0   2  547.55   21.30
  -3   0   2  583.24   21.30
  -3   0   2  532.05   21.20
  -3   0   2  562.94   21.70
   2   0  -2   81.49    3.70
   2   0  -2   84.99    3.80
   2   0  -2   82.19    4.10
   2   0  -2   72.79    4.00
  -2   0   2   77.09    3.70
  -2   0   2   75.49    3.60
  -2   0   2   75.49    3.90
  -2   0   2   80.79    3.70
  -2   0   2   82.69    4.00
   1   0  -2  838.02   32.50
   1   0  -2  880.21   32.80
   1   0  -2  906.51   32.70
   1   0  -2  932.21   32.90
  -1   0   2  871.01   32.60
  -1   0   2  926.41   32.80
  -1   0   2  916.51   32.80
  -1   0   2  835.02   33.60
   0   0  -2   19.10    1.50
   0   0  -2   24.90    1.90
   0   0  -2   21.50    1.40
   0   0  -2   20.40    1.50
   0   0  -2   22.10    1.70
   0   0   2   20.80    1.70
   0   0   2   22.20    1.60
   0   0   2   20.70    1.40
   0   0   2   21.80    1.30
   0   0   2   24.10    1.40
   0   0   2   23.20    1.60
  -1   0  -2   80.79    3.70
  -1   0  -2   85.09    3.70
  -1   0  -2   85.49    3.20
  -1   0  -2   79.99    3.50
  -1   0  -2   77.79    3.40
  -1   0  -2   81.19    3.30
   1   0   2   80.99    3.40
   1   0   2   83.19    3.60
   1   0   2   80.59    3.20
   1   0   2   88.09    3.90
   1   0   2   81.79    3.60
   1   0   2   86.69    3.30
  -2   0  -2  106.79    4.80
  -2   0  -2  111.29    4.30
  -2   0  -2   99.79    4.30
  -2   0  -2  103.09    4.40
  -2   0  -2  109.99    4.80
   2   0   2  107.69    4.90
   2   0   2  107.49    4.70
   2   0   2  105.39    4.40
   2   0   2  107.79    4.60
   2   0   2  101.49    4.30
  -3   0  -2    0.20    0.90
  -3   0  -2   -0.10    0.90
  -3   0  -2    0.50    1.10
  -3   0  -2    0.90    0.90
  -3   0  -2    0.30    0.90
  -3   0  -2   -0.20    0.80
  -3   0  -2    0.10    1.20
   3   0   2    0.00    1.20
   3   0   2    0.60    0.90
   3   0   2    0.00    0.80
   3   0   2    0.70    0.90
   3   0   2    1.20    1.20
   3   0   2    0.50    1.20
   3   0   2    1.20    1.00
  -4   0  -2  213.38    8.40
  -4   0  -2  209.48    8.30
  -4   0  -2  209.88    8.50
  -4   0  -2  211.98    8.40
  -4   0  -2  201.98    8.30
  -4   0  -2  204.18    9.00
   4   0   2  198.08    9.20
   4   0   2  218.08    8.50
   4   0   2  197.18    9.10
   4   0   2  207.28    8.50
   4   0   2  209.18    8.40
   4   0   2  202.18    8.30
  -5   0  -2  115.99    6.60
  -5   0  -2  117.99    6.00
  -5   0  -2  121.09    5.60
  -5   0  -2  111.69    6.40
  -5   0  -2  116.39    5.60
  -5   0  -2  113.99    6.20
   5   0   2  116.19    6.40
   5   0   2  121.89    5.80
   5   0   2  105.49    5.70
   5   0   2  116.89    5.50
   5   0   2  119.09    5.90
   5   0   2  117.49    6.20
  -6   0  -2  334.57   14.30
  -6   0  -2  319.57   13.60
  -6   0  -2  316.87   13.90
  -6   0  -2  337.67   13.90
  -6   0  -2  290.17   15.10
  -6   0  -2  319.37   14.30
   6   0   2  316.57   14.00
   6   0   2  320.27   13.50
   6   0   2  321.47   13.80
   6   0   2  312.77   13.40
  -7   0  -2   19.20    3.50
  -7   0  -2   13.10    2.80
  -7   0  -2   15.60    3.10
  -7   0  -2   19.10    3.70
  -7   0  -2   14.60    2.90
   7   0   2    8.60    2.50
   7   0   2   11.40    2.60
   7   0   2   13.50    3.20
   7   0   2   11.60    2.80
  -8   0  -2   75.69    4.80
  -8   0  -2   74.89    5.00
  -8   0  -2   74.39    5.40
   8   0   2   70.39    4.50
   8   0   2   66.59    4.90
   7  -1  -2    3.30    2.20
   7  -1  -2    6.30    2.80
  -7   1   2    5.60    2.50
  -7   1   2    2.40    2.30
  -7   1   2    4.50    3.40
  -7   1   2    8.20    2.50
   6  -1  -2   54.89    5.20
   6  -1  -2   50.89    4.30
   6  -1  -2   37.80    3.90
  -6   1   2   46.70    4.30
  -6   1   2   53.59    4.80
  -6   1   2   49.00    5.40
  -6   1   2   51.89    4.90
  -6   1   2   43.70    3.80
   5  -1  -2  227.18   10.50
   5  -1  -2  212.18    9.90
   5  -1  -2  231.98   10.20
   5  -1  -2  212.38   10.10
   5  -1  -2  239.68   10.00
  -5   1   2  220.78   10.20
  -5   1   2  215.38   10.70
  -5   1   2  220.08    9.90
  -5   1   2  213.88    9.70
  -5   1   2  231.98   12.40
  -5   1   2  219.48   10.20
   4  -1  -2    7.90    1.90
   4  -1  -2    8.70    1.90
   4  -1  -2   10.20    1.90
   4  -1  -2    5.70    2.30
   4  -1  -2   12.40    2.70
  -4   1   2    6.60    1.90
  -4   1   2    8.50    1.60
  -4   1   2    9.90    2.70
  -4   1   2    8.70    2.20
  -4   1   2    9.90    1.70
  -4   1   2   11.50    2.10
  -4   1   2    9.70    1.90
   3  -1  -2  818.92   29.80
   3  -1  -2  810.42   30.20
   3  -1  -2  829.92   29.70
  -3   1   2  810.02   29.60
  -3   1   2  762.32   29.30
  -3   1   2  741.83   29.40
  -3   1   2  809.22   29.70
  -3   1   2  757.22   30.10
  -3   1   2  803.92   30.10
  -3   1   2  772.22   30.10
   2  -1  -2  516.25   18.60
   2  -1  -2  466.95   18.60
   2  -1  -2  498.15   18.60
   2  -1  -2  466.05   18.70
   2  -1  -2  507.05   19.00
  -2   1   2  483.35   18.80
  -2   1   2  495.55   18.90
  -2   1   2  505.15   18.60
  -2   1   2  496.25   18.60
   1  -1  -2   37.90    2.30
   1  -1  -2   37.30    2.00
   1  -1  -2   37.90    2.30
   1  -1  -2   37.30    1.60
  -1   1   2   40.50    2.40
  -1   1   2   34.00    2.30
  -1   1   2   36.40    2.30
  -1   1   2   36.00    2.00
   0  -1  -2   46.10    2.20
   0  -1  -2   48.30    2.40
   0  -1  -2   44.20    2.20
   0  -1  -2   45.30    2.10
   0   1   2   46.10    2.20
   0   1   2   43.50    2.40
   0   1   2   46.00    2.00
   0   1   2   44.30    2.20
   0   1   2   48.00    2.30
  -1  -1  -2 1301.47   49.00
  -1  -1  -2 1265.27   48.80
  -1  -1  -2 1385.36   48.70
  -1  -1  -2 1327.67   48.80
   1   1   2 1306.97   48.70
   1   1   2 1370.46   49.20
   1   1   2 1303.87   48.60
   1   1   2 1399.06   48.80
   1   1   2 1379.76   48.90
  -2  -1  -2   39.30    2.10
  -2  -1  -2   40.50    2.40
  -2  -1  -2   36.90    2.00
  -2  -1  -2   39.40    2.40
   2   1   2   38.80    1.90
   2   1   2   37.20    1.80
   2   1   2   38.30    2.00
   2   1   2   39.40    2.40
   2   1   2   38.20    2.30
   2   1   2   39.70    2.70
  -3  -1  -2  270.87   10.60
  -3  -1  -2  273.87   10.60
  -3  -1  -2  273.97   10.50
  -3  -1  -2  279.07   10.60
  -3  -1  -2  280.37   10.90
   3   1   2  262.17   10.60
   3   1   2  267.07   10.90
   3   1   2  269.07   10.80
   3   1   2  258.67   10.40
   3   1   2  284.77   10.60
   3   1   2  289.27   11.50
  -4  -1  -2    7.90    1.50
  -4  -1  -2    4.60    1.30
  -4  -1  -2    7.50    1.50
   4   1   2    6.90    1.30
   4   1   2    6.90    1.30
   4   1   2    7.30    1.40
   4   1   2    7.70    1.90
   4   1   2    4.80    1.60
   4   1   2    7.30    1.20
   4   1   2    5.00    1.20
   4   1   2    8.50    1.70
  -5  -1  -2   52.19    4.10
  -5  -1  -2   53.89    4.30
  -5  -1  -2   54.59    3.50
  -5  -1  -2   55.89    4.30
  -5  -1  -2   57.09    3.70
  -5  -1  -2   53.99    3.80
  -5  -1  -2   55.59    3.70
   5   1   2   58.99    3.60
   5   1   2   56.19    3.20
   5   1   2   59.09    3.70
   5   1   2   53.19    3.80
   5   1   2   54.29    3.50
   5   1   2   54.19    3.90
   5   1   2   48.00    3.40
  -6  -1  -2  289.77   13.00
  -6  -1  -2  284.67   12.60
  -6  -1  -2  290.57   12.70
  -6  -1  -2  265.07   12.10
  -6  -1  -2  286.47   12.50
  -6  -1  -2  275.67   12.90
  -6  -1  -2  275.27   12.00
   6   1   2  287.17   12.80
   6   1   2  289.47   12.20
   6   1   2  283.47   12.40
   6   1   2  291.97   12.20
  -7  -1  -2   63.99    4.40
  -7  -1  -2   68.29    5.30
  -7  -1  -2   65.19    5.00
  -7  -1  -2   78.09    6.10
  -7  -1  -2   68.79    5.60
  -7  -1  -2   64.49    5.50
   7   1   2   64.29    4.90
   7   1   2   71.89    5.10
   7   1   2   54.89    5.20
   7   1   2   62.99    4.90
  -8  -1  -2   18.00    3.10
  -8  -1  -2   21.20    3.10
  -8  -1  -2   23.90    3.60
   8   1   2   23.60    3.50
   8   1   2   25.30    2.90
   8   1   2   13.20    2.70
   7  -2  -2    7.00    2.20
   7  -2  -2    4.50    2.50
   7  -2  -2    6.80    3.20
  -7   2   2    6.00    2.40
  -7   2   2    6.20    2.40
   6  -2  -2  194.68    9.00
   6  -2  -2  197.38    9.50
   6  -2  -2  188.88    9.00
   6  -2  -2  184.78    9.20
  -6   2   2  175.68    9.10
  -6   2   2  196.08    9.40
  -6   2   2  183.98    9.50
   5  -2  -2  379.06   15.40
   5  -2  -2  374.56   15.50
   5  -2  -2  388.86   15.80
   5  -2  -2  363.56   15.50
   5  -2  -2  379.46   15.70
  -5   2   2  357.36   15.10
  -5   2   2  363.16   15.50
  -5   2   2  371.46   15.20
  -5   2   2  389.16   15.80
  -5   2   2  341.67   14.40
  -5   2   2  373.66   15.90
   4  -2  -2    6.50    1.80
   4  -2  -2    9.40    2.20
   4  -2  -2    6.10    2.00
   4  -2  -2    5.40    1.80
   4  -2  -2    6.20    1.90
   4  -2  -2    6.80    2.00
   4  -2  -2    7.40    2.20
  -4   2   2    8.30    1.80
  -4   2   2    8.20    2.50
  -4   2   2    8.70    1.80
  -4   2   2    7.50    1.60
  -4   2   2    6.30    2.10
  -4   2   2    5.00    2.70
  -4   2   2    9.70    2.30
  -4   2   2   10.70    1.70
  -4   2   2    7.20    1.90
   3  -2  -2   49.40    3.10
   3  -2  -2   45.80    3.00
   3  -2  -2   43.80    4.00
  -3   2   2   48.10    3.80
  -3   2   2   47.10    3.00
  -3   2   2   43.10    3.00
  -3   2   2   42.30    2.60
  -3   2   2   42.30    3.30
  -3   2   2   47.70    3.50
   2  -2  -2   39.30    2.90
   2  -2  -2   36.40    2.30
   2  -2  -2   38.60    3.50
   2  -2  -2   39.30    2.50
   2  -2  -2   38.20    2.40
  -2   2   2   34.80    2.40
  -2   2   2   38.90    2.80
  -2   2   2   36.40    2.80
  -2   2   2   38.80    2.40
   1  -2  -2  353.06   13.60
   1  -2  -2  362.86   13.80
   1  -2  -2  333.07   13.30
   1  -2  -2  333.07   13.20
   1  -2  -2  337.47   13.00
   1  -2  -2  345.97   13.10
  -1   2   2  350.16   13.10
  -1   2   2  365.06   13.50
  -1   2   2  360.96   13.20
  -1   2   2  331.67   13.10
  -1   2   2  329.67   13.20
   0  -2  -2 1031.00   36.90
   0   2   2  952.90   36.60
   0   2   2 1027.30   36.80
   0   2   2  856.31   36.50
   0   2   2 1048.70   36.40
   0   2   2 1013.50   36.60
   0   2   2 1033.60   36.40
  -1  -2  -2 9466.05  344.37
   1   2   2 9999.00  347.77
   1   2   2 8616.44  344.77
   1   2   2 9753.72  344.67
   1   2   2 9531.15  344.57
  -2  -2  -2 5943.31  221.78
  -2  -2  -2 5487.85  221.68
  -2  -2  -2 6276.57  221.48
  -2  -2  -2 6127.19  221.68
  -2  -2  -2 6482.25  221.68
   2   2   2 5872.81  221.68
   2   2   2 6599.14  222.08
   2   2   2 6116.39  221.68
   2   2   2 6349.46  222.38
   2   2   2 6022.90  221.48
   2   2   2 5876.71  221.38
  -3  -2  -2  138.19    5.60
  -3  -2  -2  132.69    5.60
  -3  -2  -2  133.29    5.80
  -3  -2  -2  127.99    5.90
   3   2   2  127.59    5.60
   3   2   2  143.49    5.70
   3   2   2  135.09    6.60
   3   2   2  126.19    5.40
   3   2   2  136.69    5.90
  -4  -2  -2  137.49    6.30
  -4  -2  -2  120.39    5.70
  -4  -2  -2  134.29    6.00
   4   2   2  133.99    5.80
   4   2   2  125.99    5.90
   4   2   2  131.89    6.90
   4   2   2  131.19    5.50
   4   2   2  129.89    6.20
   4   2   2  122.59    5.60
  -5  -2  -2   10.90    2.20
  -5  -2  -2   13.00    2.50
  -5  -2  -2   18.50    3.10
  -5  -2  -2   12.90    2.70
  -5  -2  -2   14.00    2.40
  -5  -2  -2   12.50    2.40
  -5  -2  -2   17.90    3.00
  -5  -2  -2   15.40    2.30
   5   2   2    6.40    2.00
   5   2   2   11.70    1.80
   5   2   2   13.90    2.20
   5   2   2   13.80    1.60
   5   2   2   16.30    1.80
   5   2   2    9.80    1.80
  -6  -2  -2   69.49    4.50
  -6  -2  -2   64.99    5.50
  -6  -2  -2   71.49    5.10
  -6  -2  -2   67.49    5.20
  -6  -2  -2   72.79    5.30
  -6  -2  -2   71.19    5.50
   6   2   2   69.09    3.80
   6   2   2   69.39    4.90
   6   2   2   71.49    4.90
  -7  -2  -2   34.40    3.50
  -7  -2  -2   35.30    4.20
  -7  -2  -2   35.80    4.30
  -7  -2  -2   25.50    3.50
  -7  -2  -2   30.60    3.90
  -7  -2  -2   30.80    4.30
   7   2   2   38.40    4.00
   7   2   2   29.10    3.40
  -8  -2  -2  146.59    7.90
  -8  -2  -2  151.78    7.70
  -8  -2  -2  155.38    7.80
  -8  -2  -2  150.98    8.20
   8   2   2  150.38    7.30
   8   2   2  150.08    7.20
   7  -3  -2   32.80    3.10
  -7   3   2   26.10    2.80
  -7   3   2   27.50    2.80
   6  -3  -2   25.70    3.20
   6  -3  -2   19.80    3.10
   6  -3  -2   26.90    4.90
   6  -3  -2   28.40    3.20
  -6   3   2   25.10    3.70
  -6   3   2   21.40    3.30
   5  -3  -2    0.20    2.30
   5  -3  -2    3.70    2.50
   5  -3  -2   -2.40    2.00
   5  -3  -2    2.00    2.10
   5  -3  -2    2.90    2.60
  -5   3   2    3.00    2.60
  -5   3   2    8.20    3.10
  -5   3   2    6.20    2.80
  -5   3   2    4.40    1.80
   4  -3  -2   11.80    2.30
   4  -3  -2    7.80    2.00
   4  -3  -2   10.30    3.10
   4  -3  -2   12.00    2.40
   4  -3  -2   10.30    2.20
   4  -3  -2   12.60    2.50
   4  -3  -2   13.30    2.50
  -4   3   2   11.60    2.00
  -4   3   2    8.80    1.80
  -4   3   2   10.30    2.30
  -4   3   2   12.60    2.80
  -4   3   2   14.70    2.00
  -4   3   2   12.10    1.80
  -4   3   2   12.30    2.20
   3  -3  -2  456.55   18.10
   3  -3  -2  454.25   17.80
   3  -3  -2  479.55   19.10
   3  -3  -2  470.75   17.90
   3  -3  -2  483.45   18.10
   3  -3  -2  431.56   18.10
   3  -3  -2  429.66   18.10
   3  -3  -2  465.55   18.00
  -3   3   2  451.95   17.70
  -3   3   2  419.46   18.10
  -3   3   2  446.66   18.10
  -3   3   2  459.55   17.60
  -3   3   2  478.25   17.30
  -3   3   2  441.36   18.90
   2  -3  -2   23.50    3.20
   2  -3  -2   24.50    2.10
   2  -3  -2   28.60    2.50
  -2   3   2   21.20    2.00
  -2   3   2   23.20    2.30
  -2   3   2   20.60    1.60
  -2   3   2   23.50    2.10
  -2   3   2   25.20    2.50
   1  -3  -2  304.87   12.20
   1  -3  -2  309.07   12.80
   1  -3  -2  288.97   11.90
   1  -3  -2  302.47   11.80
  -1   3   2  322.87   11.80
  -1   3   2  289.07   11.80
  -1   3   2  310.37   11.80
  -1   3   2  316.47   12.20
   0  -3  -2   16.80    2.20
   0  -3  -2   12.10    1.70
   0   3   2   13.20    1.20
   0   3   2   15.30    1.60
   0   3   2   14.50    1.90
   0   3   2   12.10    1.20
  -1  -3  -2  454.45   16.90
  -1  -3  -2  429.56   17.10
   1   3   2  476.25   16.60
   1   3   2  446.26   17.60
   1   3   2  442.36   16.60
  -2  -3  -2   24.90    2.20
  -2  -3  -2   28.30    2.10
   2   3   2   24.00    1.60
   2   3   2   26.50    1.90
   2   3   2   23.50    1.70
   2   3   2   24.50    3.00
   2   3   2   27.00    1.80
  -3  -3  -2  314.17   12.60
  -3  -3  -2  308.87   12.30
   3   3   2  307.37   12.20
   3   3   2  313.57   13.40
   3   3   2  327.07   12.40
  -4  -3  -2  448.56   18.30
  -4  -3  -2  520.75   18.90
  -4  -3  -2  463.35   18.40
   4   3   2  444.16   18.60
   4   3   2  482.15   19.80
   4   3   2  482.25   17.90
   4   3   2  484.05   18.40
  -5  -3  -2   35.50    3.60
  -5  -3  -2   37.50    4.10
  -5  -3  -2   37.80    3.60
  -5  -3  -2   41.80    3.90
  -5  -3  -2   41.10    4.20
  -5  -3  -2   38.30    3.10
  -5  -3  -2   40.60    4.00
  -5  -3  -2   43.60    3.90
   5   3   2   35.30    2.70
   5   3   2   37.80    4.10
   5   3   2   37.10    2.70
   5   3   2   36.70    3.00
   5   3   2   39.40    3.30
   5   3   2   36.00    3.20
  -6  -3  -2   12.00    2.50
  -6  -3  -2   17.40    3.50
  -6  -3  -2   13.80    3.20
  -6  -3  -2    8.50    2.70
  -6  -3  -2    9.80    3.00
  -6  -3  -2   13.50    3.10
  -6  -3  -2   15.80    3.40
   6   3   2   12.50    2.40
   6   3   2   14.40    2.00
   6   3   2   14.80    2.80
   6   3   2   14.20    2.00
   6   3   2   18.00    2.70
   6   3   2   13.50    2.20
  -7  -3  -2    6.80    3.10
  -7  -3  -2    7.90    2.90
  -7  -3  -2    6.10    3.10
  -7  -3  -2    4.00    2.60
  -7  -3  -2    1.80    2.50
   7   3   2    2.90    2.30
   7   3   2    9.20    2.70
  -8  -3  -2    2.40    2.40
  -8  -3  -2    0.70    2.30
  -8  -3  -2    2.70    2.40
  -8  -3  -2   -1.20    2.60
  -8  -3  -2    1.80    2.10
   8   3   2    1.00    2.20
   8   3   2   -0.30    2.00
   6  -4  -2    4.80    3.50
   6  -4  -2    2.50    1.90
   6  -4  -2    4.30    2.10
  -6   4   2    2.90    2.60
  -6   4   2    4.30    2.60
   5  -4  -2   15.30    2.80
   5  -4  -2   19.30    5.10
   5  -4  -2   10.70    2.50
   5  -4  -2   17.90    3.70
   5  -4  -2   13.20    2.70
  -5   4   2   15.10    3.40
  -5   4   2   15.70    2.20
  -5   4   2   16.10    3.00
   4  -4  -2    9.40    2.60
   4  -4  -2    8.90    3.20
   4  -4  -2    7.70    2.20
   4  -4  -2    3.40    2.10
   4  -4  -2    7.50    2.30
   4  -4  -2    8.20    2.50
   4  -4  -2    7.70    2.30
   4  -4  -2    6.70    4.70
  -4   4   2    7.60    1.80
  -4   4   2    7.80    2.20
  -4   4   2    3.60    2.40
   3  -4  -2  187.28    8.90
   3  -4  -2  188.78    8.70
   3  -4  -2  170.88    8.30
   3  -4  -2  196.98    8.80
   3  -4  -2  190.68    9.80
   3  -4  -2  181.78    9.40
   3  -4  -2  197.58    8.70
   3  -4  -2  199.98    9.10
   3  -4  -2  210.98    8.70
   3  -4  -2  203.78   10.70
   3  -4  -2  188.18    9.60
  -3   4   2  194.18   10.00
  -3   4   2  175.88    8.50
  -3   4   2  201.58    8.00
  -3   4   2  192.68    7.90
   2  -4  -2    9.10    2.00
   2  -4  -2    8.60    1.90
   2  -4  -2    8.40    1.80
   2  -4  -2    7.10    2.60
   2  -4  -2   10.80    4.90
   2  -4  -2    7.30    2.20
  -2   4   2   10.80    1.70
  -2   4   2    8.40    1.00
  -2   4   2    9.20    2.50
  -2   4   2    9.00    1.60
  -2   4   2    9.60    1.60
  -2   4   2    8.50    1.90
   1  -4  -2    7.10    1.80
   1  -4  -2    5.40    2.00
  -1   4   2    5.50    1.10
  -1   4   2    4.40    1.30
  -1   4   2    5.10    1.30
  -1   4   2    4.60    1.50
   0  -4  -2  269.37   11.80
   0  -4  -2  278.97   11.30
   0   4   2  270.27   11.20
   0   4   2  285.67   10.40
   0   4   2  262.67   11.30
   0   4   2  291.87   10.50
  -1  -4  -2   39.60    2.90
   1   4   2   39.10    1.70
   1   4   2   35.60    3.10
   1   4   2   40.00    1.70
  -2  -4  -2  396.86   15.10
  -2  -4  -2  385.36   15.40
   2   4   2  379.56   15.20
   2   4   2  371.46   15.70
   2   4   2  411.76   14.70
   2   4   2  401.46   16.30
   2   4   2  385.66   14.70
  -3  -4  -2   18.30    2.40
  -3  -4  -2   20.70    2.30
   3   4   2   19.50    3.00
   3   4   2   18.50    1.90
  -4  -4  -2   12.60    3.30
  -4  -4  -2    8.90    2.30
  -4  -4  -2    9.20    2.30
  -4  -4  -2   10.10    2.40
  -4  -4  -2   10.60    2.60
  -4  -4  -2   11.80    2.20
  -4  -4  -2   12.40    2.40
  -4  -4  -2   10.50    3.00
  -4  -4  -2   18.00    3.50
  -4  -4  -2    9.90    2.70
   4   4   2    8.80    1.20
   4   4   2   11.40    1.90
   4   4   2    9.30    1.80
   4   4   2   10.70    2.70
  -5  -4  -2  200.38    9.60
  -5  -4  -2  212.78    9.50
  -5  -4  -2  175.08   10.10
  -5  -4  -2  197.18    9.80
  -5  -4  -2  212.78   10.80
  -5  -4  -2  192.58    9.30
  -5  -4  -2  182.68    8.80
  -5  -4  -2  187.78    9.50
  -5  -4  -2  178.38    9.60
  -5  -4  -2  185.18    9.20
  -5  -4  -2  205.58   10.60
   5   4   2  198.38    8.10
   5   4   2  186.78    8.60
   5   4   2  191.18   10.40
   5   4   2  190.78    8.60
   5   4   2  183.98    8.00
  -6  -4  -2   10.90    3.40
  -6  -4  -2    6.10    3.00
  -6  -4  -2   10.60    3.10
  -6  -4  -2    6.80    3.40
  -6  -4  -2    9.70    2.80
  -6  -4  -2    8.80    2.80
  -6  -4  -2    4.90    4.20
   6   4   2    7.40    2.30
   6   4   2    8.10    1.90
   6   4   2   13.70    2.90
   6   4   2    9.40    2.00
   6   4   2    6.60    2.20
   6   4   2    7.00    1.90
  -7  -4  -2   17.60    4.30
  -7  -4  -2   16.50    3.30
  -7  -4  -2   15.10    3.70
  -7  -4  -2   10.50    3.00
  -7  -4  -2   21.60    3.30
   7   4   2   12.90    1.90
   7   4   2   17.50    2.90
   7   4   2   15.60    2.90
  -8  -4  -2   15.60    3.20
  -8  -4  -2   21.80    2.90
  -8  -4  -2   21.10    2.90
  -8  -4  -2   24.40    2.60
  -8  -4  -2   23.10    3.00
   8   4   2   18.80    2.50
   8   4   2   29.30    2.80
   6  -5  -2   11.00    3.10
  -6   5   2    8.00    2.10
  -6   5   2    7.00    2.30
   5  -5  -2   53.99    6.00
   5  -5  -2   57.19    5.70
   5  -5  -2   48.90    4.40
  -5   5   2   51.89    3.60
  -5   5   2   52.69    4.80
  -5   5   2   57.69    5.10
  -5   5   2   44.60    3.60
   4  -5  -2   91.09    5.80
   4  -5  -2   85.59    5.80
   4  -5  -2   89.79    6.70
   4  -5  -2   74.79    5.90
   4  -5  -2   93.99    7.30
   4  -5  -2   90.09    7.50
  -4   5   2   90.59    4.90
  -4   5   2   83.89    5.70
   3  -5  -2  483.35   19.30
   3  -5  -2  486.45   20.70
   3  -5  -2  479.05   19.60
   3  -5  -2  477.15   21.10
   3  -5  -2  475.25   20.40
   3  -5  -2  468.45   20.20
   3  -5  -2  483.35   19.90
   3  -5  -2  492.25   19.40
  -3   5   2  463.95   19.50
  -3   5   2  498.35   18.50
  -3   5   2  475.05   18.40
   2  -5  -2  612.74   24.00
   2  -5  -2  580.34   23.70
   2  -5  -2  629.64   25.10
   2  -5  -2  612.64   24.80
   2  -5  -2  613.84   24.20
   2  -5  -2  622.14   23.90
   2  -5  -2  614.74   24.70
   2  -5  -2  606.44   25.30
  -2   5   2  603.14   22.80
  -2   5   2  623.04   25.50
   1  -5  -2  419.96   17.00
   1  -5  -2  426.16   16.70
   1  -5  -2  417.26   17.40
   1  -5  -2  420.26   17.70
   1  -5  -2  428.16   16.80
   1  -5  -2  428.66   17.50
   1  -5  -2  350.86   19.60
   1  -5  -2  448.16   17.00
   1  -5  -2  405.56   17.80
   1  -5  -2  426.76   17.10
  -1   5   2  435.16   18.10
  -1   5   2  408.96   16.00
   0  -5  -2    5.10    1.90
   0  -5  -2    7.50    2.10
   0   5   2    5.10    1.30
   0   5   2    5.10    1.60
   0   5   2    6.80    0.70
   0   5   2    8.10    0.80
  -1  -5  -2   41.40    3.20
   1   5   2   37.10    3.30
  -2  -5  -2  344.67   13.70
  -2  -5  -2  339.67   13.40
   2   5   2  335.77   14.80
   2   5   2  328.77   12.50
  -3  -5  -2  167.88    8.30
  -3  -5  -2  168.58    7.70
  -3  -5  -2  166.88    8.40
  -3  -5  -2  158.98    8.60
  -3  -5  -2  166.98    8.20
  -3  -5  -2  159.78    9.00
  -3  -5  -2  162.88    8.00
  -3  -5  -2  169.98    7.90
  -3  -5  -2  159.28    8.80
   3   5   2  158.88    6.80
   3   5   2  174.88    9.00
  -4  -5  -2   25.20    4.30
  -4  -5  -2   30.00    3.90
  -4  -5  -2   16.80    2.80
  -4  -5  -2   21.50    3.80
  -4  -5  -2   16.10    2.80
  -4  -5  -2   17.80    2.90
  -4  -5  -2   21.00    3.00
  -4  -5  -2   16.50    3.20
  -4  -5  -2   23.10    4.00
   4   5   2   20.90    1.90
   4   5   2   20.70    2.50
   4   5   2   19.40    3.40
  -5  -5  -2   -0.20    2.70
  -5  -5  -2    1.80    2.30
  -5  -5  -2    2.80    3.90
  -5  -5  -2    1.60    3.00
  -5  -5  -2    4.00    3.30
  -5  -5  -2    4.20    3.80
  -5  -5  -2    0.20    2.40
  -5  -5  -2    0.40    2.40
  -5  -5  -2    3.10    2.40
   5   5   2    0.20    1.50
   5   5   2    3.10    1.80
   5   5   2    1.90    1.40
  -6  -5  -2  106.39    7.70
  -6  -5  -2  106.89    8.20
  -6  -5  -2  122.19    8.50
  -6  -5  -2  117.69    7.70
  -6  -5  -2  108.69    6.90
  -6  -5  -2  108.09    6.90
   6   5   2  113.19    6.60
   6   5   2  114.49    5.60
   6   5   2  118.19    5.60
   6   5   2  101.69    6.10
   6   5   2  114.29    6.40
  -7  -5  -2   51.79    4.70
  -7  -5  -2   48.70    5.10
  -7  -5  -2   34.70    4.00
  -7  -5  -2   30.50    4.50
  -7  -5  -2   36.70    4.20
   7   5   2   38.30    3.60
   7   5   2   41.70    3.10
   7   5   2   54.69    4.00
  -8  -5  -2   14.20    2.80
  -8  -5  -2   30.00    4.30
   8   5   2   22.80    2.40
   8   5   2   24.00    2.30
   5  -6  -2   87.49    5.90
   5  -6  -2   76.09    6.20
  -5   6   2   86.29    4.30
  -5   6   2   74.09    4.90
  -5   6   2   87.09    5.30
   4  -6  -2  128.09    8.30
   4  -6  -2  120.69    6.80
   4  -6  -2  108.49    7.20
   4  -6  -2  116.99    7.70
   4  -6  -2  119.79    7.00
   4  -6  -2  131.49    9.10
  -4   6   2  125.49    5.80
  -4   6   2  127.79    6.00
   3  -6  -2   60.99    6.70
   3  -6  -2   65.19    6.40
   3  -6  -2   68.59    5.00
   3  -6  -2   65.89    6.50
   3  -6  -2   62.39    5.00
   3  -6  -2   68.09    5.40
   3  -6  -2   64.49    5.80
  -3   6   2   61.59    3.90
  -3   6   2   63.89    3.90
   2  -6  -2    3.30    3.40
   2  -6  -2    4.50    3.20
   2  -6  -2    4.10    2.80
   2  -6  -2    5.90    3.70
   2  -6  -2    3.80    2.50
   2  -6  -2    4.70    2.10
   2  -6  -2    2.80    2.40
  -2   6   2    4.00    2.10
  -2   6   2    4.40    1.30
   1  -6  -2   20.90    2.80
   1  -6  -2   17.00    2.50
   1  -6  -2   21.10    3.30
   1  -6  -2   24.80    4.10
   1  -6  -2   19.80    3.40
   1  -6  -2   22.50    4.00
   1  -6  -2   22.60    3.80
   1  -6  -2   21.50    2.80
  -1   6   2   13.10    2.90
   0  -6  -2    0.20    1.70
   0  -6  -2    3.10    2.20
   0  -6  -2    0.70    2.20
   0  -6  -2    1.80    2.50
   0  -6  -2    0.30    2.10
   0  -6  -2    2.80    2.90
   0  -6  -2    1.50    2.10
   0   6   2    2.40    2.10
  -1  -6  -2   42.10    4.20
  -1  -6  -2   31.30    4.10
  -1  -6  -2   45.30    4.80
  -1  -6  -2   38.50    3.50
  -1  -6  -2   39.20    3.30
  -1  -6  -2   32.20    4.10
  -1  -6  -2   40.50    3.70
  -1  -6  -2   29.80    3.60
  -1  -6  -2   36.80    4.10
  -1  -6  -2   41.60    3.80
  -1  -6  -2   38.20    4.10
  -2  -6  -2   69.99    5.80
  -2  -6  -2   70.09    5.40
  -2  -6  -2   67.29    5.50
  -2  -6  -2   69.49    5.60
  -2  -6  -2   73.59    4.90
  -2  -6  -2   66.29    4.50
  -2  -6  -2   66.69    4.60
   2   6   2   73.29    5.40
  -3  -6  -2    3.70    2.30
  -3  -6  -2    4.80    2.00
  -3  -6  -2    6.30    3.10
  -3  -6  -2    8.90    3.00
  -3  -6  -2    4.40    2.20
  -3  -6  -2    8.50    3.30
  -3  -6  -2    5.80    3.10
   3   6   2    5.20    2.40
  -4  -6  -2    9.50    2.80
  -4  -6  -2    6.30    3.40
  -4  -6  -2   11.30    3.90
  -4  -6  -2    6.60    3.10
  -4  -6  -2   13.10    2.90
  -4  -6  -2    4.20    3.40
  -4  -6  -2   10.40    2.90
  -4  -6  -2    6.80    2.50
  -4  -6  -2    7.70    2.90
   4   6   2   12.50    1.50
   4   6   2    9.00    2.20
  -5  -6  -2    0.40    3.40
  -5  -6  -2   -4.70    3.70
  -5  -6  -2   -3.30    2.20
  -5  -6  -2    2.60    3.00
  -5  -6  -2    5.90    4.10
  -5  -6  -2    0.50    2.70
  -5  -6  -2   -0.40    3.30
  -5  -6  -2   -0.10    2.40
  -5  -6  -2    1.00    2.30
   5   6   2   -0.90    1.40
   5   6   2    2.50    2.00
   5   6   2   -1.10    1.40
  -6  -6  -2   98.29    6.80
  -6  -6  -2   83.29    6.20
  -6  -6  -2   84.79    7.10
  -6  -6  -2   88.19    6.90
  -6  -6  -2   86.79    6.20
  -6  -6  -2   87.29    7.70
  -6  -6  -2   84.19    6.40
   6   6   2   89.89    4.80
   6   6   2   92.89    4.70
   6   6   2   93.59    5.80
   6   6   2   91.29    5.50
  -7  -6  -2    1.10    2.50
  -7  -6  -2    3.70    2.60
  -7  -6  -2    4.40    2.40
  -7  -6  -2    4.50    3.30
   7   6   2    4.80    2.20
   7   6   2    5.10    2.00
   7   6   2    3.10    1.40
   4  -7  -2    8.90    2.40
   4  -7  -2    9.60    2.60
   4  -7  -2   16.50    3.80
   4  -7  -2   22.20    2.70
   4  -7  -2   18.30    3.50
  -4   7   2   21.40    2.00
  -4   7   2   18.70    3.00
   3  -7  -2   27.60    5.60
   3  -7  -2   21.20    3.80
   3  -7  -2   31.20    3.60
   3  -7  -2   26.70    4.70
   3  -7  -2   26.50    4.40
   3  -7  -2   26.20    3.70
  -3   7   2   27.60    2.50
  -3   7   2   28.90    2.50
   2  -7  -2   26.60    4.30
   2  -7  -2   25.20    4.90
   2  -7  -2   24.60    3.50
   2  -7  -2   24.70    4.70
   2  -7  -2   27.80    5.60
   2  -7  -2   26.40    3.50
   1  -7  -2   15.30    4.00
   1  -7  -2   17.80    4.10
   1  -7  -2   14.50    3.00
   1  -7  -2   14.80    4.50
   1  -7  -2   12.30    3.00
   1  -7  -2   10.40    3.40
  -1   7   2   15.40    2.60
   0  -7  -2   15.40    3.80
   0  -7  -2   14.80    3.00
   0  -7  -2   21.10    3.90
   0  -7  -2   15.40    3.60
   0  -7  -2   16.10    3.00
   0  -7  -2   17.20    2.80
   0  -7  -2   18.40    4.20
   0   7   2   14.00    2.20
  -1  -7  -2    9.20    3.20
  -1  -7  -2    7.30    2.60
  -1  -7  -2    9.00    3.20
  -1  -7  -2    5.60    3.20
  -1  -7  -2    5.30    3.40
  -1  -7  -2    8.00    2.20
  -1  -7  -2    8.30    2.80
  -1  -7  -2    6.10    2.60
  -1  -7  -2    5.00    2.60
  -1  -7  -2    1.50    3.00
  -1  -7  -2    5.20    3.20
  -2  -7  -2    2.50    3.20
  -2  -7  -2    0.00    3.10
  -2  -7  -2   -0.60    2.00
  -2  -7  -2    4.30    3.00
  -2  -7  -2    3.40    2.60
  -2  -7  -2   -1.20    2.50
  -2  -7  -2   -3.20    2.80
  -3  -7  -2   52.39    6.70
  -3  -7  -2   59.39    5.80
  -3  -7  -2   56.09    6.30
  -3  -7  -2   58.69    5.70
  -3  -7  -2   57.49    5.00
   3   7   2   57.09    4.00
  -4  -7  -2  326.47   15.60
  -4  -7  -2  303.97   14.50
  -4  -7  -2  294.07   14.00
  -4  -7  -2  302.67   14.70
   4   7   2  299.37   11.80
  -5  -7  -2   -0.40    3.50
  -5  -7  -2    5.80    3.90
  -5  -7  -2   -2.20    3.20
  -5  -7  -2   -2.00    2.80
  -5  -7  -2    5.90    3.10
   5   7   2    4.50    2.60
   5   7   2    2.90    1.50
  -6  -7  -2   -2.20    2.60
  -6  -7  -2    2.10    2.60
  -6  -7  -2    3.20    3.80
  -6  -7  -2   -0.10    3.10
  -6  -7  -2    4.70    3.40
   6   7   2   -1.00    1.90
   6   7   2    2.20    1.50
   6   7   2    1.70    1.60
  -7  -7  -2    3.80    2.70
  -7  -7  -2    3.10    2.90
   7   7   2    3.50    1.20
   3  -8  -2   75.89    4.70
   3  -8  -2   62.69    5.50
   3  -8  -2   74.19    5.60
   3  -8  -2   77.59    5.40
   3  -8  -2   74.39    6.10
   2  -8  -2    3.20    2.80
   2  -8  -2    2.80    2.60
   2  -8  -2    0.40    3.80
   2  -8  -2    7.90    2.80
   2  -8  -2    2.70    2.90
   2  -8  -2    6.10    4.00
  -2   8   2    3.70    1.20
   1  -8  -2   47.30    5.10
   1  -8  -2   33.70    3.80
   1  -8  -2   41.20    5.40
   1  -8  -2   37.70    5.10
   1  -8  -2   44.40    4.30
   1  -8  -2   43.30    5.70
   0  -8  -2    3.30    3.50
   0  -8  -2    8.10    3.90
   0  -8  -2    7.20    3.00
   0  -8  -2    5.10    2.70
   0  -8  -2    9.60    3.50
   0  -8  -2    8.50    6.80
  -1  -8  -2  117.79    7.80
  -1  -8  -2  112.49    7.20
  -1  -8  -2  103.69    6.30
  -1  -8  -2  105.19    8.20
  -1  -8  -2  117.89    6.80
  -1  -8  -2  104.79    7.60
  -2  -8  -2    5.50    2.80
  -2  -8  -2    5.40    3.60
  -2  -8  -2   12.70    3.60
  -2  -8  -2   11.50    3.70
  -2  -8  -2   14.20    3.90
  -3  -8  -2   37.10    4.30
  -3  -8  -2   44.10    5.90
  -3  -8  -2   31.40    4.80
  -3  -8  -2   19.70    4.10
  -4  -8  -2  129.59    8.40
  -4  -8  -2  128.19    8.50
  -4  -8  -2  131.99    9.30
  -4  -8  -2  146.39    8.20
   4   8   2  131.79    5.70
  -5  -8  -2    1.90    2.80
  -5  -8  -2    2.00    3.10
  -5  -8  -2   -2.80    3.80
  -5  -8  -2   -0.10    3.20
   5   8   2    2.60    1.30
  -6  -8  -2    5.20    2.50
  -6  -8  -2   12.00    2.60
  -6  -8  -2   14.30    3.30
  -6  -8  -2    8.30    3.40
   6   8   2   14.50    1.60
   2  -9  -2   -1.80    2.80
   2  -9  -2   -0.60    2.00
   2  -9  -2    0.60    2.30
   2  -9  -2   -0.40    1.70
   1  -9  -2   12.70    2.60
   1  -9  -2   16.00    3.80
   1  -9  -2   13.60    2.50
   1  -9  -2    9.70    2.90
   1  -9  -2   15.00    4.00
   0  -9  -2   26.50    3.80
   0  -9  -2   25.50    3.20
   0  -9  -2   26.30    3.30
   0  -9  -2   23.80    4.10
   0  -9  -2   30.10    4.40
  -1  -9  -2   -0.80    3.60
  -1  -9  -2    0.60    2.30
  -2  -9  -2    4.70    3.90
  -2  -9  -2   15.60    3.90
  -2  -9  -2   10.10    3.00
  -3  -9  -2   96.09    7.20
  -3  -9  -2   98.39    6.50
  -3  -9  -2   94.99    7.20
  -4  -9  -2    6.40    3.70
  -4  -9  -2    2.60    2.60
  -4  -9  -2    1.90    3.60
  -4  -9  -2    2.90    2.60
  -5  -9  -2    8.50    2.90
  -5  -9  -2    6.80    2.20
  -5  -9  -2   10.80    2.80
  -5  -9  -2   10.80    3.50
  -3  -9   3    3.90    2.30
  -3  -9   3   -1.40    2.30
  -3  -9   3    0.50    2.20
  -3  -9   3    0.80    2.10
  -2  -9   3   23.90    3.30
  -2  -9   3   17.50    2.90
  -2  -9   3   27.30    3.60
  -2  -9   3   26.20    2.80
  -1  -9   3   80.99    5.90
  -1  -9   3   84.29    5.10
  -1  -9   3   74.89    5.50
   0  -9   3   10.10    2.80
   0  -9   3    6.30    2.40
   0  -9   3    9.80    2.90
   0  -9   3    8.90    2.40
   0  -9   3    8.00    2.90
  -1   9  -3    3.50    1.20
   1  -9   3    2.50    2.10
   1  -9   3    4.50    2.20
   1  -9   3    5.20    2.30
   1  -9   3    2.00    2.30
   4   8  -3   11.00    1.70
  -4  -8   3   11.20    2.80
  -4  -8   3   17.80    3.50
  -4  -8   3   17.20    3.40
  -4  -8   3    9.10    3.10
   3   8  -3    2.30    1.60
   3   8  -3   -1.00    1.30
  -3  -8   3    6.80    3.20
  -3  -8   3   -3.00    3.00
  -3  -8   3   -0.70    3.30
  -3  -8   3   -1.20    4.40
  -3  -8   3    0.10    3.30
  -3  -8   3   -3.00    2.60
   2   8  -3    1.90    1.50
  -2  -8   3   -2.30    3.20
  -2  -8   3    3.40    3.40
  -2  -8   3    0.40    2.90
  -2  -8   3    4.60    3.40
  -2  -8   3    3.60    3.40
   1   8  -3    0.60    1.40
  -1  -8   3    1.80    3.50
  -1  -8   3   -2.40    2.60
  -1  -8   3    4.90    3.20
  -1  -8   3   -1.10    3.50
  -1  -8   3   -1.10    3.10
  -1  -8   3    0.20    3.10
   0   8  -3  224.08    9.40
   0  -8   3  236.28   11.40
   0  -8   3  233.88   10.80
   0  -8   3  249.28   12.10
   0  -8   3  247.08   12.00
   0  -8   3  235.08   11.80
  -1   8  -3    6.10    1.30
   1  -8   3    6.10    2.70
   1  -8   3    4.70    3.40
   1  -8   3   11.60    3.40
   1  -8   3    2.90    3.30
   1  -8   3    8.30    3.20
   1  -8   3    5.80    3.40
  -2   8  -3    0.80    1.10
  -2   8  -3    0.80    1.20
  -2   8  -3   -1.60    1.90
   2  -8   3    1.50    2.40
   2  -8   3   -0.50    2.60
   2  -8   3   -0.40    2.70
   2  -8   3   -4.00    2.30
   2  -8   3    5.30    3.60
  -3   8  -3    0.80    1.30
   3  -8   3    1.10    2.20
   3  -8   3   -0.40    2.40
   3  -8   3   -0.50    1.90
   3  -8   3    0.60    2.10
   5   7  -3   19.40    1.90
   5   7  -3   14.50    2.70
  -5  -7   3   15.70    3.20
  -5  -7   3   17.50    3.20
  -5  -7   3   16.40    2.70
  -5  -7   3   12.40    2.90
   4   7  -3    6.70    1.90
   4   7  -3    5.40    1.70
  -4  -7   3    5.20    3.20
  -4  -7   3    7.40    2.90
  -4  -7   3    4.20    3.60
  -4  -7   3   24.30    5.60
  -4  -7   3    5.40    2.70
  -4  -7   3    6.00    3.40
  -4  -7   3    8.50    3.70
   3   7  -3   95.49    5.10
   3   7  -3  110.09    6.60
   3   7  -3  112.69    5.30
  -3  -7   3  103.29    8.70
  -3  -7   3  114.49    8.10
  -3  -7   3  112.89    7.70
  -3  -7   3  108.09    7.00
  -3  -7   3  109.29    7.40
  -3  -7   3  107.19    7.70
  -3  -7   3  102.99    6.50
   2   7  -3    3.40    2.90
   2   7  -3    1.90    1.50
  -2  -7   3    0.80    2.70
  -2  -7   3    2.60    3.50
  -2  -7   3    1.30    3.70
  -2  -7   3    4.30    3.10
  -2  -7   3   -1.10    3.40
  -2  -7   3    2.90    3.80
   1   7  -3    5.50    1.40
  -1  -7   3    7.00    3.30
  -1  -7   3    7.10    4.00
  -1  -7   3    7.80    3.40
  -1  -7   3    9.10    3.30
  -1  -7   3   11.50    3.70
  -1  -7   3    3.90    3.80
  -1  -7   3   10.80    3.20
   0   7  -3    0.90    1.30
   0  -7   3    0.70    3.90
   0  -7   3   -0.90    3.00
   0  -7   3    0.90    2.70
   0  -7   3    0.50    3.10
   0  -7   3    2.00    3.70
   0  -7   3    1.20    3.30
  -1   7  -3   66.09    5.50
  -1   7  -3   62.69    3.60
   1  -7   3   74.29    5.90
   1  -7   3   64.19    6.40
   1  -7   3   65.39    5.40
   1  -7   3   70.39    6.20
   1  -7   3   64.99    5.60
   1  -7   3   67.29    6.00
   1  -7   3   69.99    6.20
  -2   7  -3    0.30    1.30
  -2   7  -3    1.50    2.40
  -2   7  -3   -1.90    1.70
  -2   7  -3    1.50    1.30
   2  -7   3   -0.10    3.50
   2  -7   3   -1.00    2.70
   2  -7   3   -2.40    3.30
   2  -7   3   -3.20    2.50
   2  -7   3   -0.80    2.90
   2  -7   3    1.10    3.00
  -3   7  -3   11.80    1.80
  -3   7  -3    6.10    2.30
  -3   7  -3   14.00    2.00
   3  -7   3   11.80    3.70
   3  -7   3    7.60    2.60
   3  -7   3    9.00    2.90
   3  -7   3   10.10    3.10
   3  -7   3   11.30    4.00
   3  -7   3   10.70    3.00
   3  -7   3   11.40    3.50
  -4   7  -3    7.00    2.50
  -4   7  -3    5.20    1.70
   4  -7   3    4.90    2.50
   4  -7   3    3.00    3.10
   4  -7   3    5.80    2.90
   4  -7   3    3.40    2.70
   4  -7   3    0.90    2.10
   4  -7   3    2.20    2.00
   6   6  -3  117.49    6.60
   6   6  -3  112.79    5.00
  -6  -6   3  104.39    6.30
  -6  -6   3  123.69    6.60
  -6  -6   3  115.49    6.30
   5   6  -3   15.30    2.20
   5   6  -3   14.20    2.00
   5   6  -3   11.10    3.10
   5   6  -3   13.40    2.60
  -5  -6   3    9.50    3.00
  -5  -6   3   14.20    3.50
  -5  -6   3   13.40    3.50
  -5  -6   3   16.00    3.80
  -5  -6   3    8.40    2.70
  -5  -6   3   20.50    5.10
   4   6  -3   53.29    5.10
   4   6  -3   50.89    3.80
   4   6  -3   48.20    3.40
   4   6  -3   39.30    4.00
  -4  -6   3   43.40    4.70
  -4  -6   3   37.40    4.20
  -4  -6   3   36.10    4.10
  -4  -6   3   46.80    5.20
  -4  -6   3   52.79    5.40
  -4  -6   3   49.50    5.30
  -4  -6   3   58.79    7.00
  -4  -6   3   43.10    4.70
   3   6  -3   41.80    4.10
   3   6  -3   39.10    3.10
   3   6  -3   32.20    3.90
   3   6  -3   44.20    3.30
  -3  -6   3   43.10    4.60
  -3  -6   3   37.00    4.50
  -3  -6   3   49.80    5.10
  -3  -6   3   44.90    4.40
  -3  -6   3   36.60    4.00
  -3  -6   3   40.90    5.70
  -3  -6   3   49.10    5.20
   2   6  -3   17.60    3.40
   2   6  -3   16.20    1.80
   2   6  -3   20.00    3.40
  -2  -6   3   11.30    2.80
  -2  -6   3   19.10    3.80
  -2  -6   3   18.30    4.40
  -2  -6   3   13.60    3.00
  -2  -6   3   21.30    4.20
  -2  -6   3   15.50    4.00
  -2  -6   3   16.00    3.30
   1   6  -3    1.90    2.70
   1   6  -3    0.10    1.10
  -1  -6   3    8.50    3.40
  -1  -6   3    4.50    2.40
  -1  -6   3    0.40    2.20
  -1  -6   3    5.60    2.80
  -1  -6   3    3.80    2.50
  -1  -6   3    4.60    3.00
  -1  -6   3    2.30    2.90
  -1  -6   3    2.00    2.60
   0   6  -3  545.05   21.50
   0   6  -3  525.45   20.10
   0  -6   3  565.44   21.60
   0  -6   3  532.05   22.40
   0  -6   3  509.05   22.20
   0  -6   3  523.25   21.70
   0  -6   3  547.35   22.40
   0  -6   3  538.45   21.90
   0  -6   3  567.44   22.50
   0  -6   3  501.65   21.70
  -1   6  -3    4.70    1.70
  -1   6  -3    5.80    1.30
  -1   6  -3    3.40    2.60
   1  -6   3    4.50    3.10
   1  -6   3    2.00    2.70
   1  -6   3    9.90    2.80
   1  -6   3    5.70    2.70
   1  -6   3   -0.10    2.60
   1  -6   3    4.80    3.40
   1  -6   3    5.50    2.70
   1  -6   3    6.60    3.50
  -2   6  -3  111.09    6.80
  -2   6  -3  117.69    5.10
  -2   6  -3  101.29    5.90
  -2   6  -3  102.59    6.00
   2  -6   3  104.49    7.40
   2  -6   3  112.19    7.10
   2  -6   3  116.89    6.80
   2  -6   3  107.39    6.40
   2  -6   3  105.39    7.30
   2  -6   3  125.79    7.60
   2  -6   3  117.29    6.80
   2  -6   3  110.59    7.30
   2  -6   3  113.39    7.80
  -3   6  -3   18.40    2.20
  -3   6  -3   21.90    3.50
  -3   6  -3   18.40    2.00
  -3   6  -3   26.60    3.10
   3  -6   3   22.10    3.30
   3  -6   3   27.30    3.40
   3  -6   3   22.90    3.70
   3  -6   3   25.90    4.50
   3  -6   3   23.20    3.90
   3  -6   3   22.50    3.40
   3  -6   3   23.60    4.50
   3  -6   3   20.00    3.70
  -4   6  -3    9.20    2.30
  -4   6  -3    5.80    1.70
  -4   6  -3    9.00    2.80
  -4   6  -3    5.90    2.30
   4  -6   3    8.10    2.80
   4  -6   3    6.20    3.40
   4  -6   3    9.80    3.90
   4  -6   3    6.60    2.70
   4  -6   3    2.50    2.90
   4  -6   3    3.10    2.30
  -5   6  -3   25.60    3.20
  -5   6  -3   22.70    2.70
  -5   6  -3   25.20    2.30
   5  -6   3   22.80    4.10
   5  -6   3   21.60    3.30
   5  -6   3   25.50    3.00
   5  -6   3   25.10    3.70
   7   5  -3   12.20    2.20
   6   5  -3    8.50    1.70
   6   5  -3    4.30    2.50
   6   5  -3   10.90    3.50
  -6  -5   3    3.70    2.40
  -6  -5   3    6.60    2.70
  -6  -5   3   12.30    3.30
  -6  -5   3    6.10    2.80
   5   5  -3  437.46   16.60
   5   5  -3  421.76   16.70
   5   5  -3  427.66   18.40
   5   5  -3  436.26   17.40
  -5  -5   3  388.46   17.10
  -5  -5   3  454.05   19.90
  -5  -5   3  420.36   17.90
  -5  -5   3  436.66   18.20
  -5  -5   3  425.76   18.50
   4   5  -3   97.89    6.10
   4   5  -3   99.79    5.90
   4   5  -3  111.59    5.50
   4   5  -3  104.29    6.20
   4   5  -3   96.49    7.10
   4   5  -3  103.89    5.20
  -4  -5   3  110.49    7.00
  -4  -5   3   98.19    7.10
  -4  -5   3  109.09    6.60
  -4  -5   3  116.49    7.10
  -4  -5   3  123.39    8.60
  -4  -5   3  112.29    7.80
  -4  -5   3  106.39    7.10
  -4  -5   3  100.89    5.90
  -4  -5   3   99.59    6.50
   3   5  -3  437.06   17.40
   3   5  -3  447.16   18.60
   3   5  -3  482.15   17.60
   3   5  -3  475.45   18.60
  -3  -5   3  451.15   19.10
  -3  -5   3  462.35   18.80
  -3  -5   3  427.06   19.30
  -3  -5   3  463.65   18.80
  -3  -5   3  455.05   20.30
  -3  -5   3  456.45   18.80
  -3  -5   3  455.05   19.60
  -3  -5   3  476.05   19.20
   2   5  -3    8.00    2.60
   2   5  -3    5.60    2.50
   2   5  -3    8.40    1.30
   2   5  -3    8.80    2.70
  -2  -5   3    6.60    2.30
  -2  -5   3    8.20    2.40
  -2  -5   3    8.00    3.30
  -2  -5   3   11.60    3.20
  -2  -5   3    7.10    2.90
  -2  -5   3    7.40    2.30
  -2  -5   3    7.70    2.50
  -2  -5   3    8.60    2.60
   1   5  -3  151.78    8.00
   1   5  -3  142.19    5.80
   1   5  -3  149.49    7.30
  -1  -5   3  132.29    7.80
  -1  -5   3  139.89    7.50
  -1  -5   3  140.19    7.60
  -1  -5   3  137.39    7.30
  -1  -5   3  149.59    8.10
  -1  -5   3  146.99    7.30
  -1  -5   3  152.88    8.10
  -1  -5   3  151.88    7.90
  -1  -5   3  145.49    7.20
   0   5  -3  192.68    7.60
   0   5  -3  200.38    9.80
   0   5  -3  193.88    8.90
   0  -5   3  200.58    8.90
   0  -5   3  198.18    9.60
   0  -5   3  190.88    9.10
   0  -5   3  200.38    9.60
   0  -5   3  188.18    9.20
   0  -5   3  187.18    9.50
   0  -5   3  189.38    9.40
   0  -5   3  192.98    9.00
   0  -5   3  191.28    8.70
  -1   5  -3    1.40    1.00
  -1   5  -3    2.20    1.70
  -1   5  -3    0.30    1.20
  -1   5  -3    1.60    1.90
  -1   5  -3    0.30    1.30
   1  -5   3   -0.30    2.80
   1  -5   3    1.60    2.50
   1  -5   3   -0.20    2.00
   1  -5   3    1.30    2.20
   1  -5   3    0.50    1.80
   1  -5   3    2.40    1.90
   1  -5   3    1.30    2.10
   1  -5   3    3.80    2.80
  -2   5  -3    0.50    1.50
  -2   5  -3    2.30    1.90
  -2   5  -3    0.60    1.60
  -2   5  -3    2.20    1.10
   2  -5   3    2.70    2.20
   2  -5   3    0.40    1.90
   2  -5   3   -1.00    2.70
   2  -5   3    3.50    2.00
   2  -5   3    6.40    2.50
   2  -5   3   -0.70    2.30
   2  -5   3   -1.20    2.80
   2  -5   3    0.80    2.30
   2  -5   3    0.30    2.50
  -3   5  -3  228.88   10.00
  -3   5  -3  207.38    8.90
  -3   5  -3  224.78    9.00
  -3   5  -3  216.08    9.90
  -3   5  -3  222.08   10.70
   3  -5   3  225.98   10.50
   3  -5   3  213.58   11.10
   3  -5   3  209.48   10.20
   3  -5   3  214.98   10.90
   3  -5   3  202.28    9.70
   3  -5   3  220.48   10.40
   3  -5   3  218.78   11.00
   3  -5   3  225.58   11.60
  -4   5  -3  167.08    8.80
  -4   5  -3  175.78    7.60
  -4   5  -3  180.38    8.50
  -4   5  -3  165.68    8.20
  -4   5  -3  175.38    7.40
  -4   5  -3  158.08    8.30
   4  -5   3  158.28    8.80
   4  -5   3  160.58    8.10
   4  -5   3  172.58    9.70
   4  -5   3  151.28    7.50
   4  -5   3  175.88    8.90
   4  -5   3  172.48    8.60
   4  -5   3  171.68    8.60
   4  -5   3  172.78    9.90
   4  -5   3  168.18    9.00
  -5   5  -3   57.79    5.20
  -5   5  -3   63.29    3.90
  -5   5  -3   58.79    3.90
  -5   5  -3   72.89    6.20
  -5   5  -3   55.59    4.60
   5  -5   3   65.29    5.10
   5  -5   3   63.69    5.30
   5  -5   3   59.99    6.30
   5  -5   3   55.89    5.40
  -6   5  -3   71.39    4.50
  -6   5  -3   64.19    4.60
  -6   5  -3   54.49    4.40
   6  -5   3   61.19    5.40
   6  -5   3   58.79    4.60
   6  -5   3   63.39    4.40
   7   4  -3   15.00    3.10
   7   4  -3   16.50    2.40
  -7  -4   3   13.60    2.80
  -7  -4   3   10.70    2.00
  -7  -4   3   17.50    2.50
  -7  -4   3    9.40    2.30
   6   4  -3   65.19    5.20
   6   4  -3   66.39    6.30
  -6  -4   3   66.69    5.90
  -6  -4   3   68.29    6.70
  -6  -4   3   75.39    5.50
  -6  -4   3   65.99    5.30
  -6  -4   3   58.59    5.40
  -6  -4   3   70.69    5.40
   5   4  -3  148.39    6.90
   5   4  -3  160.48    9.10
   5   4  -3  146.59    7.70
   5   4  -3  157.68    6.80
   5   4  -3  143.09    7.70
  -5  -4   3  146.69    8.10
  -5  -4   3  155.08    8.10
  -5  -4   3  156.88    8.50
  -5  -4   3  140.89    9.70
  -5  -4   3  141.19    7.50
  -5  -4   3  143.29    8.20
  -5  -4   3  149.49    8.70
  -5  -4   3  145.19    8.00
   4   4  -3    6.70    2.70
   4   4  -3    3.10    1.90
   4   4  -3    3.80    1.80
   4   4  -3    6.90    2.70
   4   4  -3    5.80    1.60
  -4  -4   3    8.00    2.70
  -4  -4   3    2.00    2.60
  -4  -4   3    1.70    1.90
  -4  -4   3    4.50    2.40
  -4  -4   3    3.70    3.20
  -4  -4   3    7.90    4.40
  -4  -4   3    6.50    2.50
  -4  -4   3    8.60    2.60
  -4  -4   3    8.30    2.80
   3   4  -3  131.49    5.90
   3   4  -3  136.19    6.60
   3   4  -3  144.49    6.90
   3   4  -3  146.09    6.00
   3   4  -3  145.79    7.20
   3   4  -3  137.89    7.80
  -3  -4   3  134.69    7.90
  -3  -4   3  134.69    7.10
  -3  -4   3  135.89    6.50
  -3  -4   3  130.79    7.40
  -3  -4   3  146.19    8.40
  -3  -4   3  145.99    7.00
  -3  -4   3  140.99    7.20
  -3  -4   3  140.39    7.20
  -3  -4   3  147.29    7.30
  -3  -4   3  130.19    7.20
  -3  -4   3  131.09    6.90
   2   4  -3   50.69    2.80
   2   4  -3   64.09    4.90
   2   4  -3   53.49    3.80
   2   4  -3   62.19    4.30
   2   4  -3   60.59    4.00
  -2  -4   3   71.59    5.80
  -2  -4   3   56.89    4.10
  -2  -4   3   50.29    4.10
  -2  -4   3   51.29    4.50
  -2  -4   3   56.79    4.10
  -2  -4   3   62.09    3.80
   1   4  -3   -0.90    1.20
   1   4  -3    1.50    2.20
   1   4  -3    0.40    0.70
   1   4  -3    0.50    1.20
   1   4  -3   -2.10    1.70
  -1  -4   3   -0.10    1.10
  -1  -4   3    1.20    1.60
  -1  -4   3    0.40    1.40
   0   4  -3  481.45   19.00
   0   4  -3  513.05   20.00
   0   4  -3  512.75   19.20
   0   4  -3  481.65   18.70
   0   4  -3  498.05   19.30
   0   4  -3  473.15   18.20
   0   4  -3  458.25   18.60
   0  -4   3  521.65   19.30
   0  -4   3  511.45   20.30
   0  -4   3  479.05   19.00
  -1   4  -3  176.58    7.60
  -1   4  -3  170.58    6.90
  -1   4  -3  183.28    7.80
  -1   4  -3  177.38    7.50
  -1   4  -3  176.48    8.30
   1  -4   3  172.38    8.80
   1  -4   3  179.68    7.80
  -2   4  -3    4.90    1.60
  -2   4  -3    3.40    1.00
  -2   4  -3   10.70    2.50
  -2   4  -3    9.10    1.80
  -2   4  -3    7.20    1.70
   2  -4   3    7.30    2.20
   2  -4   3    4.70    1.80
   2  -4   3    8.70    1.70
   2  -4   3    6.90    2.00
   2  -4   3    7.50    2.60
   2  -4   3    6.30    2.50
   2  -4   3    8.30    2.20
   2  -4   3    8.50    2.20
   2  -4   3    5.20    2.20
  -3   4  -3    8.60    1.80
  -3   4  -3   10.50    2.10
  -3   4  -3    6.00    1.20
  -3   4  -3    9.50    1.90
  -3   4  -3    7.30    1.30
  -3   4  -3    9.80    2.60
   3  -4   3    7.70    1.90
   3  -4   3   12.70    3.00
   3  -4   3    9.90    2.70
   3  -4   3   15.10    3.60
   3  -4   3   12.30    2.20
   3  -4   3    8.90    2.00
   3  -4   3    6.50    2.30
   3  -4   3    6.50    2.10
   3  -4   3   13.50    2.70
  -4   4  -3   20.40    3.40
  -4   4  -3   28.00    3.30
  -4   4  -3   21.00    2.90
  -4   4  -3   22.80    3.00
  -4   4  -3   22.60    2.40
  -4   4  -3   20.40    2.10
  -4   4  -3   22.40    3.00
   4  -4   3   27.90    3.50
   4  -4   3   25.50    3.30
   4  -4   3   28.80    4.70
   4  -4   3   26.30    3.20
   4  -4   3   22.10    3.20
   4  -4   3   21.60    2.90
   4  -4   3   21.50    3.50
  -5   4  -3   33.80    3.80
  -5   4  -3   37.40    4.00
  -5   4  -3   27.30    2.70
  -5   4  -3   42.20    4.50
  -5   4  -3   40.90    3.80
  -5   4  -3   43.10    4.20
  -5   4  -3   41.30    3.30
   5  -4   3   41.40    5.20
   5  -4   3   42.70    3.80
   5  -4   3   37.30    4.80
   5  -4   3   34.20    4.00
   5  -4   3   37.90    4.20
   5  -4   3   31.30    4.00
  -6   4  -3   47.30    4.40
  -6   4  -3   48.90    4.40
  -6   4  -3   54.19    4.50
  -6   4  -3   46.00    4.20
   6  -4   3   40.60    3.80
   6  -4   3   49.50    4.60
   6  -4   3   50.99    5.10
   6  -4   3   50.69    4.60
  -7   4  -3    3.10    2.10
  -7   4  -3    3.20    1.90
   7  -4   3    3.40    2.20
   7  -4   3    5.80    2.00
   7  -4   3    1.50    2.10
   7   3  -3   18.50    2.40
   7   3  -3   23.10    2.90
   7   3  -3   23.70    3.40
  -7  -3   3   17.30    3.20
  -7  -3   3   15.20    2.40
  -7  -3   3   19.80    2.80
  -7  -3   3   18.70    3.30
   6   3  -3  212.08   10.20
   6   3  -3  242.88   10.60
   6   3  -3  221.18   10.20
   6   3  -3  250.97   11.80
  -6  -3   3  220.48   10.20
  -6  -3   3  236.48   11.10
  -6  -3   3  234.38   11.30
  -6  -3   3  226.58   10.70
   5   3  -3   66.59    6.20
   5   3  -3   48.10    4.40
   5   3  -3   56.29    4.40
   5   3  -3   59.39    4.40
   5   3  -3   57.59    4.30
   5   3  -3   56.39    3.60
  -5  -3   3   68.39    5.90
  -5  -3   3   55.89    4.50
  -5  -3   3   58.89    4.30
  -5  -3   3   58.19    5.60
  -5  -3   3   57.09    4.90
  -5  -3   3   51.19    4.80
  -5  -3   3   54.59    5.00
   4   3  -3   48.40    3.80
   4   3  -3   49.00    3.10
   4   3  -3   39.90    3.70
   4   3  -3   48.10    4.10
   4   3  -3   48.10    4.60
   4   3  -3   51.29    3.30
   4   3  -3   34.30    4.10
   4   3  -3   46.80    4.60
  -4  -3   3   50.19    4.20
  -4  -3   3   44.50    3.60
  -4  -3   3   48.30    4.70
  -4  -3   3   38.80    5.30
  -4  -3   3   46.90    4.20
  -4  -3   3   45.80    4.10
  -4  -3   3   59.19    5.00
  -4  -3   3   43.40    3.70
  -4  -3   3   43.90    4.20
   3   3  -3   -0.50    1.90
   3   3  -3   -1.10    1.50
   3   3  -3    0.10    1.10
   3   3  -3    0.30    1.70
   3   3  -3   -0.30    1.70
  -3  -3   3   -2.80    2.80
  -3  -3   3   -1.70    1.40
  -3  -3   3    1.20    1.80
  -3  -3   3   -0.40    1.80
  -3  -3   3    0.80    1.50
  -3  -3   3    0.70    1.80
  -3  -3   3   -0.30    1.50
  -3  -3   3    0.60    1.40
   2   3  -3   38.00    3.60
   2   3  -3   39.00    3.10
   2   3  -3   33.60    3.00
   2   3  -3   34.10    2.10
   2   3  -3   41.80    3.20
  -2  -3   3   35.10    2.50
  -2  -3   3   37.20    2.70
  -2  -3   3   33.20    2.90
  -2  -3   3   35.70    2.30
  -2  -3   3   34.70    2.40
   1   3  -3   50.59    3.20
   1   3  -3   44.50    2.90
   1   3  -3   50.09    3.40
   1   3  -3   49.40    3.80
  -1  -3   3   49.70    3.20
  -1  -3   3   47.40    3.50
  -1  -3   3   47.10    2.80
  -1  -3   3   45.60    2.40
   0   3  -3  773.12   28.50
   0   3  -3  737.03   27.90
   0   3  -3  736.23   27.80
   0   3  -3  701.73   27.40
   0   3  -3  743.73   27.90
   0   3  -3  727.23   27.40
   0  -3   3  770.12   28.60
   0  -3   3  740.13   27.80
   0  -3   3  734.33   27.90
  -1   3  -3   20.00    2.00
  -1   3  -3   16.80    2.50
  -1   3  -3   12.90    1.70
  -1   3  -3   14.70    1.70
   1  -3   3   11.90    2.20
   1  -3   3   11.60    2.00
   1  -3   3   11.20    1.50
   1  -3   3   10.80    1.70
  -2   3  -3    0.60    1.30
  -2   3  -3    0.50    1.20
  -2   3  -3    0.60    1.30
  -2   3  -3    0.80    0.90
  -2   3  -3    0.10    1.50
   2  -3   3   -0.70    1.20
   2  -3   3    0.00    1.50
   2  -3   3    0.60    1.10
   2  -3   3    0.50    1.60
  -3   3  -3  124.89    6.50
  -3   3  -3  130.89    6.10
  -3   3  -3  134.89    5.50
  -3   3  -3  134.89    7.20
  -3   3  -3  132.19    6.20
   3  -3   3  120.99    7.00
   3  -3   3  128.89    8.60
   3  -3   3  124.79    7.50
   3  -3   3  126.89    6.80
   3  -3   3  127.69    6.70
   3  -3   3  153.28    8.30
  -4   3  -3  225.68    9.70
  -4   3  -3  225.38    9.50
  -4   3  -3  224.08    8.90
  -4   3  -3  210.88   10.60
  -4   3  -3  221.38    9.50
  -4   3  -3  212.38   10.10
  -4   3  -3  217.38    8.70
  -4   3  -3  211.88    9.60
   4  -3   3  212.08    9.70
   4  -3   3  206.38   10.60
   4  -3   3  198.38    9.60
   4  -3   3  225.38   10.10
   4  -3   3  201.28    9.50
   4  -3   3  212.48    9.80
  -5   3  -3   39.00    4.00
  -5   3  -3   47.40    4.10
  -5   3  -3   44.80    4.20
  -5   3  -3   43.60    4.60
  -5   3  -3   44.60    4.10
  -5   3  -3   39.70    4.10
  -5   3  -3   43.50    4.50
  -5   3  -3   43.00    4.60
  -5   3  -3   39.10    3.30
   5  -3   3   50.79    4.30
   5  -3   3   36.50    4.00
   5  -3   3   42.70    5.20
   5  -3   3   45.80    4.30
   5  -3   3   35.30    3.80
  -6   3  -3   58.59    5.00
  -6   3  -3   46.60    4.30
  -6   3  -3   53.19    4.70
  -6   3  -3   40.80    3.80
  -6   3  -3   48.80    4.40
   6  -3   3   44.00    4.30
   6  -3   3   47.80    5.20
   6  -3   3   51.29    4.50
   6  -3   3   52.39    4.90
  -7   3  -3   38.50    3.70
  -7   3  -3   49.90    4.30
  -7   3  -3   53.29    4.20
   7  -3   3   49.30    3.90
   7  -3   3   40.70    3.80
   7  -3   3   48.40    4.60
   7  -3   3   31.90    4.00
   7  -3   3   50.79    4.20
   7   2  -3   11.00    2.40
   7   2  -3    5.50    2.40
   7   2  -3    6.10    2.50
  -7  -2   3    4.10    2.30
  -7  -2   3   11.10    3.30
  -7  -2   3    7.30    2.30
   6   2  -3    2.30    2.50
   6   2  -3   -1.30    2.10
   6   2  -3    2.20    2.30
   6   2  -3    4.30    3.50
  -6  -2   3   -1.40    2.30
  -6  -2   3    2.50    2.60
  -6  -2   3    1.30    2.20
  -6  -2   3    1.70    3.40
  -6  -2   3    2.00    2.30
   5   2  -3    7.10    2.50
   5   2  -3   11.00    2.40
   5   2  -3   12.10    3.50
   5   2  -3    5.70    2.50
   5   2  -3    9.60    2.60
  -5  -2   3    9.20    2.70
  -5  -2   3    7.60    2.40
  -5  -2   3    9.50    2.20
  -5  -2   3    9.00    2.30
  -5  -2   3    9.30    3.20
  -5  -2   3    7.50    2.80
   4   2  -3   -2.80    2.10
   4   2  -3    1.20    1.50
   4   2  -3   -0.50    2.20
   4   2  -3   -0.70    1.70
   4   2  -3    3.90    1.70
   4   2  -3    0.30    1.30
   4   2  -3    0.00    1.50
   4   2  -3    0.70    1.90
  -4  -2   3   -1.50    1.80
  -4  -2   3   -8.50    3.10
  -4  -2   3   -1.30    1.80
  -4  -2   3   -2.20    1.40
  -4  -2   3    0.90    2.10
  -4  -2   3    0.40    1.80
  -4  -2   3    1.60    2.20
  -4  -2   3    0.50    1.50
  -4  -2   3   -0.40    1.60
   3   2  -3  144.99    6.00
   3   2  -3  121.59    6.80
   3   2  -3  142.09    6.60
   3   2  -3  147.29    6.60
   3   2  -3  143.49    7.30
  -3  -2   3  135.49    6.40
  -3  -2   3  143.19    6.90
  -3  -2   3  142.49    6.60
  -3  -2   3  146.79    6.40
  -3  -2   3  149.79    6.40
   2   2  -3  926.81   35.50
   2   2  -3  917.61   35.10
   2   2  -3  948.01   35.80
   2   2  -3  977.10   36.10
   2   2  -3  980.70   35.70
  -2  -2   3  940.91   35.50
  -2  -2   3  928.41   35.30
  -2  -2   3  961.90   35.30
  -2  -2   3  970.40   35.70
  -2  -2   3  972.80   35.40
  -2  -2   3  966.50   35.80
   1   2  -3  632.04   23.50
   1   2  -3  627.04   23.00
   1   2  -3  563.44   22.80
   1   2  -3  630.44   23.10
   1   2  -3  594.74   22.70
   1   2  -3  577.04   22.70
  -1  -2   3  615.94   23.10
  -1  -2   3  614.84   22.80
  -1  -2   3  592.34   22.80
  -1  -2   3  624.34   22.60
  -1  -2   3  630.34   23.40
  -1  -2   3  616.34   23.00
  -1  -2   3  604.34   22.50
   0   2  -3  520.55   20.80
   0   2  -3  548.45   20.50
   0   2  -3  577.74   20.80
   0   2  -3  588.94   20.90
   0   2  -3  557.54   21.10
   0   2  -3  568.84   20.80
   0  -2   3  577.04   20.60
   0  -2   3  557.24   21.20
   0  -2   3  492.15   20.50
   0  -2   3  544.05   20.80
   0  -2   3  538.75   20.80
   0  -2   3  533.95   20.20
  -1   2  -3 1296.17   47.80
  -1   2  -3 1312.47   47.50
  -1   2  -3 1278.07   47.50
  -1   2  -3 1295.77   47.80
  -1   2  -3 1340.07   48.10
   1  -2   3 1310.97   48.30
   1  -2   3 1231.68   47.70
   1  -2   3 1281.67   47.50
  -2   2  -3  641.54   24.80
  -2   2  -3  630.74   24.50
  -2   2  -3  669.63   25.20
  -2   2  -3  646.14   24.50
   2  -2   3  651.33   24.60
   2  -2   3  658.83   25.50
   2  -2   3  669.73   25.30
   2  -2   3  661.63   24.40
   2  -2   3  649.04   25.20
  -3   2  -3 1352.46   48.90
  -3   2  -3 1278.47   49.30
  -3   2  -3 1351.46   48.90
  -3   2  -3 1282.67   48.40
  -3   2  -3 1358.96   49.80
   3  -2   3 1312.27   49.60
   3  -2   3 1339.17   50.19
   3  -2   3 1346.07   48.60
   3  -2   3 1305.47   49.70
   3  -2   3 1271.77   48.90
  -4   2  -3  453.65   19.00
  -4   2  -3  480.25   18.00
  -4   2  -3  503.25   18.60
  -4   2  -3  494.45   18.70
  -4   2  -3  480.05   18.00
  -4   2  -3  455.25   18.60
  -4   2  -3  484.55   19.60
  -4   2  -3  478.05   18.70
   4  -2   3  488.35   19.10
   4  -2   3  469.35   19.10
   4  -2   3  455.45   20.30
   4  -2   3  467.15   18.90
   4  -2   3  485.25   19.20
   4  -2   3  441.66   18.50
  -5   2  -3  104.59    5.70
  -5   2  -3   96.79    4.90
  -5   2  -3  104.09    6.20
  -5   2  -3  102.39    6.00
  -5   2  -3   95.89    7.80
  -5   2  -3  102.69    5.70
  -5   2  -3  101.69    6.30
  -5   2  -3  107.69    6.10
   5  -2   3   93.39    6.10
   5  -2   3  108.49    6.20
   5  -2   3   94.79    5.90
  -6   2  -3   30.00    4.00
  -6   2  -3   27.40    4.00
  -6   2  -3   31.80    3.90
  -6   2  -3   28.60    3.40
  -6   2  -3   26.80    3.80
   6  -2   3   31.00    3.70
   6  -2   3   32.80    3.90
   6  -2   3   38.10    4.40
  -7   2  -3    0.50    2.40
  -7   2  -3    0.30    2.30
  -7   2  -3    1.60    2.30
   7  -2   3    1.50    2.80
   7  -2   3   -0.30    2.20
   7  -2   3   -2.10    1.90
   7  -2   3   -0.30    2.20
  -8   2  -3   -1.70    1.90
   8  -2   3   -1.30    2.00
   7   1  -3   10.00    2.50
   7   1  -3    6.70    3.00
   7   1  -3    7.80    2.50
  -7  -1   3    9.00    3.30
  -7  -1   3    6.50    2.20
  -7  -1   3    5.80    2.40
   6   1  -3    4.40    3.30
   6   1  -3    5.30    3.10
   6   1  -3    4.50    2.70
   6   1  -3    4.50    2.40
   6   1  -3    5.20    2.50
  -6  -1   3    6.80    2.30
  -6  -1   3    3.80    3.50
  -6  -1   3    1.20    2.40
  -6  -1   3    3.50    2.70
   5   1  -3  120.89    6.50
   5   1  -3  119.79    6.20
   5   1  -3  114.09    7.40
   5   1  -3  108.99    6.30
   5   1  -3  110.39    6.10
   5   1  -3  110.19    6.80
  -5  -1   3  118.99    6.20
  -5  -1   3  115.89    6.60
  -5  -1   3  114.39    6.20
  -5  -1   3  115.29    7.20
  -5  -1   3  111.39    6.00
  -5  -1   3  105.59    6.40
  -5  -1   3  122.29    6.80
   4   1  -3  135.89    7.30
   4   1  -3  135.09    7.50
   4   1  -3  146.29    6.80
   4   1  -3  149.29    7.00
   4   1  -3  137.19    6.70
   4   1  -3  130.79    7.30
   4   1  -3  145.69    6.80
  -4  -1   3  149.79    6.80
  -4  -1   3  150.78    6.90
  -4  -1   3  140.99    7.30
  -4  -1   3  133.39    7.10
  -4  -1   3  136.79    7.50
  -4  -1   3  141.39    7.10
  -4  -1   3  143.39    7.00
  -4  -1   3  142.79    6.80
  -4  -1   3  147.49    6.70
   3   1  -3  106.19    5.20
   3   1  -3  108.99    5.80
   3   1  -3  104.69    5.00
   3   1  -3  108.99    5.30
  -3  -1   3  109.39    5.30
  -3  -1   3  111.69    5.10
  -3  -1   3  107.29    5.10
  -3  -1   3  108.79    5.40
  -3  -1   3  111.19    5.60
   2   1  -3  617.34   23.70
   2   1  -3  626.44   24.20
   2   1  -3  631.94   24.10
   2   1  -3  643.94   23.80
   2   1  -3  582.24   23.50
  -2  -1   3  651.03   24.00
  -2  -1   3  627.84   23.60
  -2  -1   3  636.54   23.80
  -2  -1   3  627.44   23.90
  -2  -1   3  664.03   23.60
   1   1  -3  537.55   22.50
   1   1  -3  613.14   22.60
   1   1  -3  614.14   22.40
   1   1  -3  577.24   22.00
   1   1  -3  633.34   22.70
   1   1  -3  590.54   22.30
  -1  -1   3  590.64   22.50
  -1  -1   3  590.74   22.40
  -1  -1   3  624.94   22.40
  -1  -1   3  594.64   22.30
  -1  -1   3  610.44   22.20
   0   1  -3  661.43   23.60
   0   1  -3  610.94   23.20
   0   1  -3  650.23   23.60
   0   1  -3  600.54   23.50
   0   1  -3  608.34   23.40
   0   1  -3  634.24   23.60
   0  -1   3  628.84   23.30
   0  -1   3  614.44   23.40
   0  -1   3  636.44   23.20
   0  -1   3  613.34   23.10
   0  -1   3  632.44   23.90
   0  -1   3  669.33   23.70
  -1   1  -3  146.59    6.10
  -1   1  -3  124.49    5.80
  -1   1  -3  143.19    5.90
  -1   1  -3  137.79    5.60
   1  -1   3  141.59    5.80
   1  -1   3  147.49    6.20
   1  -1   3  138.59    5.60
   1  -1   3  141.19    6.20
   1  -1   3  129.49    5.20
  -2   1  -3  204.38    8.20
  -2   1  -3  206.58    8.50
  -2   1  -3  212.28    8.80
  -2   1  -3  208.68    8.30
  -2   1  -3  197.38    8.30
  -2   1  -3  196.98    7.60
   2  -1   3  210.68    8.10
   2  -1   3  209.78    8.40
   2  -1   3  211.78    8.50
   2  -1   3  205.38    8.40
   2  -1   3  220.98    9.00
  -3   1  -3   97.49    4.50
  -3   1  -3   92.29    4.80
  -3   1  -3   93.49    4.40
  -3   1  -3   91.49    5.10
   3  -1   3   90.39    4.20
   3  -1   3   97.69    5.20
   3  -1   3   93.99    4.30
   3  -1   3   90.09    4.40
   3  -1   3   94.59    4.90
  -4   1  -3    0.20    1.20
  -4   1  -3    1.60    1.90
  -4   1  -3    0.80    1.40
  -4   1  -3    0.00    1.30
   4  -1   3    0.10    1.10
   4  -1   3   -0.70    1.40
   4  -1   3    1.00    1.30
   4  -1   3   -0.40    1.20
  -5   1  -3    2.10    2.20
  -5   1  -3    0.10    2.10
  -5   1  -3    0.70    1.60
  -5   1  -3    3.10    2.00
  -5   1  -3    0.90    2.10
  -5   1  -3   -0.10    1.60
  -5   1  -3   -1.30    1.70
  -5   1  -3    2.50    2.10
   5  -1   3    0.20    1.70
   5  -1   3   -0.40    1.50
   5  -1   3    1.50    1.90
   5  -1   3    0.50    1.70
   5  -1   3    2.00    2.20
  -6   1  -3   40.20    4.50
  -6   1  -3   29.00    3.40
  -6   1  -3   39.10    4.50
  -6   1  -3   41.70    4.30
  -6   1  -3   42.40    4.30
   6  -1   3   33.00    3.80
   6  -1   3   38.60    4.30
   6  -1   3   33.30    3.60
   6  -1   3   31.30    3.70
  -7   1  -3    0.10    2.80
  -7   1  -3   -1.20    3.20
  -7   1  -3    2.30    2.50
  -7   1  -3   -0.50    2.50
  -7   1  -3    0.50    2.40
   7  -1   3   -0.60    2.60
   7  -1   3    3.10    2.50
  -8   1  -3    2.40    1.80
  -8   1  -3    0.50    1.80
  -8   1  -3    2.00    2.20
  -8   1  -3    1.10    2.30
   8  -1   3    0.80    1.90
   8  -1   3    0.90    1.70
   7   0  -3    1.90    2.70
   7   0  -3    1.70    2.20
  -7   0   3    1.10    2.00
  -7   0   3    3.00    2.80
  -7   0   3    1.40    2.20
   6   0  -3    6.20    2.20
   6   0  -3    6.90    2.70
   6   0  -3    5.40    2.60
   6   0  -3   10.80    3.40
   6   0  -3    9.20    3.00
  -6   0   3   12.90    2.60
  -6   0   3    8.40    2.80
  -6   0   3   13.70    3.90
  -6   0   3    9.80    2.90
  -6   0   3   10.60    2.90
   5   0  -3    9.80    3.20
   5   0  -3    9.60    2.40
   5   0  -3    8.60    2.50
   5   0  -3    7.90    3.00
   5   0  -3    6.10    2.50
   5   0  -3    9.10    2.40
  -5   0   3    9.60    2.40
  -5   0   3    5.30    2.40
  -5   0   3    5.50    3.20
  -5   0   3    9.00    3.00
  -5   0   3    7.90    2.60
  -5   0   3    7.20    2.10
   4   0  -3   20.50    2.50
   4   0  -3   25.10    2.80
   4   0  -3   20.50    2.50
   4   0  -3   24.50    3.20
   4   0  -3   23.00    3.10
   4   0  -3   15.90    2.90
   4   0  -3   21.20    2.60
  -4   0   3   25.90    2.90
  -4   0   3   17.50    2.60
  -4   0   3   21.20    3.30
  -4   0   3   22.20    2.70
  -4   0   3   23.90    2.50
  -4   0   3   24.90    3.10
  -4   0   3   19.00    2.30
  -4   0   3   21.20    2.50
   3   0  -3 1111.29   39.70
   3   0  -3 1087.99   39.80
   3   0  -3  992.90   39.50
   3   0  -3 1100.29   40.30
  -3   0   3 1077.39   39.70
  -3   0   3 1074.79   40.10
  -3   0   3 1078.39   39.60
  -3   0   3 1065.89   39.60
  -3   0   3  991.00   39.60
   2   0  -3  110.99    5.50
   2   0  -3  119.79    5.10
   2   0  -3  122.39    5.20
   2   0  -3  123.39    5.70
   2   0  -3  111.89    5.10
  -2   0   3  115.89    5.10
  -2   0   3  119.89    5.40
  -2   0   3  106.19    5.10
  -2   0   3  121.79    5.10
  -2   0   3  114.89    5.40
  -2   0   3  113.99    5.10
   1   0  -3  238.88    9.40
   1   0  -3  244.38    9.70
   1   0  -3  254.77    9.90
   1   0  -3  244.48   10.00
  -1   0   3  250.57    9.90
  -1   0   3  261.27    9.90
  -1   0   3  256.87    9.60
   0   0  -3  483.55   17.90
   0   0  -3  478.15   18.10
   0   0  -3  450.75   17.80
   0   0  -3  505.35   18.20
   0   0  -3  473.35   18.00
   0   0   3  486.65   17.90
   0   0   3  483.75   17.80
   0   0   3  497.35   18.20
   0   0   3  450.15   17.70
   0   0   3  479.95   18.00
   0   0   3  502.25   17.90
  -1   0  -3   10.10    1.00
  -1   0  -3   12.20    1.50
  -1   0  -3   12.30    1.60
  -1   0  -3   12.10    1.20
   1   0   3   13.60    1.80
   1   0   3   10.00    0.80
   1   0   3   11.50    1.40
   1   0   3   13.90    1.30
  -2   0  -3   80.59    3.20
  -2   0  -3   81.09    3.60
  -2   0  -3   84.59    4.20
  -2   0  -3   78.29    3.60
  -2   0  -3   80.49    4.00
   2   0   3   82.09    3.50
   2   0   3   76.99    3.50
   2   0   3   80.89    4.20
   2   0   3   83.99    3.90
   2   0   3   76.39    3.70
  -3   0  -3  267.17   11.70
  -3   0  -3  310.57   11.80
  -3   0  -3  310.67   11.50
  -3   0  -3  314.67   12.40
  -3   0  -3  318.77   11.80
  -3   0  -3  289.57   11.60
  -3   0  -3  305.37   12.30
   3   0   3  304.27   11.90
   3   0   3  317.47   12.10
   3   0   3  308.97   12.20
   3   0   3  321.57   12.60
   3   0   3  290.37   11.60
   3   0   3  283.77   11.80
   3   0   3  324.27   11.80
  -4   0  -3   19.70    1.90
  -4   0  -3   17.70    2.40
  -4   0  -3   20.90    2.00
  -4   0  -3   19.40    1.90
   4   0   3   20.70    1.90
   4   0   3   23.00    2.20
   4   0   3   21.50    2.00
   4   0   3   21.70    2.80
  -5   0  -3  239.18   10.60
  -5   0  -3  233.48   10.80
  -5   0  -3  247.38   11.00
  -5   0  -3  239.28   10.40
  -5   0  -3  231.68   10.20
   5   0   3  247.68   10.60
   5   0   3  242.18   10.60
   5   0   3  236.38   10.20
   5   0   3  229.28   10.10
   5   0   3  245.98   10.80
  -6   0  -3   41.60    4.60
  -6   0  -3   47.90    4.60
  -6   0  -3   46.20    4.00
  -6   0  -3   52.29    4.70
  -6   0  -3   50.39    4.50
  -6   0  -3   49.20    4.80
   6   0   3   50.29    4.40
   6   0   3   61.19    4.50
   6   0   3   44.10    4.30
   6   0   3   47.40    4.00
  -7   0  -3  285.97   13.10
  -7   0  -3  287.57   12.70
  -7   0  -3  277.47   12.10
  -7   0  -3  289.57   12.50
  -7   0  -3  272.97   12.70
   7   0   3  274.67   12.60
   7   0   3  255.27   11.70
   7   0   3  277.17   12.30
   7   0   3  263.27   11.80
  -8   0  -3    1.00    2.20
  -8   0  -3    2.60    2.10
  -8   0  -3    0.60    2.30
   8   0   3    3.30    2.20
   8   0   3    1.70    1.90
   7  -1  -3    5.20    2.90
   7  -1  -3    5.70    2.30
   7  -1  -3    8.20    2.80
  -7   1   3    7.20    2.30
  -7   1   3    2.50    2.10
   6  -1  -3  317.87   14.10
   6  -1  -3  352.46   14.60
   6  -1  -3  348.77   14.90
  -6   1   3  318.37   14.30
  -6   1   3  328.97   15.60
  -6   1   3  343.27   14.60
  -6   1   3  356.36   14.90
   5  -1  -3  149.59    8.10
   5  -1  -3  148.79    7.50
   5  -1  -3  146.79    7.60
   5  -1  -3  161.18    7.90
  -5   1   3  151.58    7.90
  -5   1   3  157.58    8.30
  -5   1   3  157.28    7.60
  -5   1   3  156.78    7.90
  -5   1   3  137.59   11.50
  -5   1   3  146.19    7.30
   4  -1  -3  149.29    7.20
   4  -1  -3  140.69    7.80
   4  -1  -3  163.78    7.30
   4  -1  -3  155.18    8.10
   4  -1  -3  135.29    7.00
   4  -1  -3  160.68    7.20
   4  -1  -3  144.09    7.50
  -4   1   3  149.09    8.10
  -4   1   3  150.68    7.60
  -4   1   3  142.59    7.40
  -4   1   3  159.68    7.80
  -4   1   3  160.08    7.00
  -4   1   3  138.69    6.50
  -4   1   3  162.28    7.20
   3  -1  -3   86.19    4.30
   3  -1  -3   87.09    4.40
   3  -1  -3   88.19    5.00
  -3   1   3   81.99    4.10
  -3   1   3   89.39    4.80
  -3   1   3   84.89    4.30
  -3   1   3   85.29    4.30
  -3   1   3   80.79    4.70
  -3   1   3   73.69    3.90
   2  -1  -3  376.86   13.90
   2  -1  -3  359.96   13.80
   2  -1  -3  372.96   14.30
   2  -1  -3  355.76   13.90
  -2   1   3  351.06   13.80
  -2   1   3  352.96   14.10
  -2   1   3  359.46   14.20
  -2   1   3  357.96   13.80
  -2   1   3  333.27   13.70
   1  -1  -3  339.37   12.50
   1  -1  -3  314.27   12.70
   1  -1  -3  347.17   12.80
   1  -1  -3  324.47   12.70
  -1   1   3  302.57   12.80
  -1   1   3  318.47   12.50
  -1   1   3  340.97   12.80
  -1   1   3  351.26   12.80
  -1   1   3  324.37   12.50
   0  -1  -3  285.07   10.40
   0  -1  -3  283.27   10.50
   0  -1  -3  257.47   10.60
   0  -1  -3  279.87   10.30
   0   1   3  256.67   10.20
   0   1   3  280.37   10.70
   0   1   3  268.57   10.50
   0   1   3  302.77   10.70
   0   1   3  264.37   10.70
   0   1   3  272.67   10.60
  -1  -1  -3  237.98    9.40
  -1  -1  -3  233.48    9.00
  -1  -1  -3  221.48    9.10
   1   1   3  242.08    9.40
   1   1   3  234.78    9.20
   1   1   3  240.28    8.90
  -2  -1  -3 1442.76   55.09
  -2  -1  -3 1502.45   55.49
  -2  -1  -3 1499.35   55.39
  -2  -1  -3 1554.14   54.99
   2   1   3 1523.45   55.29
   2   1   3 1411.16   55.29
   2   1   3 1589.24   55.79
   2   1   3 1520.55   55.09
   2   1   3 1555.54   55.29
   2   1   3 1478.45   54.79
  -3  -1  -3   42.30    3.00
  -3  -1  -3   42.00    2.70
  -3  -1  -3   43.90    2.40
  -3  -1  -3   42.50    2.40
  -3  -1  -3   42.60    2.40
  -3  -1  -3   41.10    2.40
   3   1   3   44.50    2.70
   3   1   3   40.40    2.40
   3   1   3   44.90    2.50
   3   1   3   45.00    3.40
   3   1   3   39.80    2.10
   3   1   3   43.90    3.00
  -4  -1  -3  190.48    7.80
  -4  -1  -3  185.58    7.60
  -4  -1  -3  178.68    7.60
  -4  -1  -3  188.08    8.20
  -4  -1  -3  181.78    8.20
  -4  -1  -3  199.88    8.60
   4   1   3  188.98    7.70
   4   1   3  193.98    8.10
   4   1   3  173.18    8.20
   4   1   3  192.78    8.90
   4   1   3  179.18    7.40
  -5  -1  -3  142.19    7.10
  -5  -1  -3  137.79    7.30
  -5  -1  -3  138.59    7.40
  -5  -1  -3  149.99    7.20
  -5  -1  -3  143.39    7.00
  -5  -1  -3  143.49    6.60
   5   1   3  141.69    6.00
   5   1   3  142.19    6.70
   5   1   3  134.89    7.60
   5   1   3  145.89    6.80
   5   1   3  146.49    6.80
   5   1   3  140.59    7.10
   5   1   3  144.99    6.40
  -6  -1  -3  111.99    6.60
  -6  -1  -3  111.59    6.60
  -6  -1  -3  113.89    6.90
  -6  -1  -3  105.29    6.50
  -6  -1  -3  105.09    5.70
  -6  -1  -3  106.19    5.90
  -6  -1  -3  111.69    7.00
   6   1   3  103.09    6.50
   6   1   3  118.59    6.10
   6   1   3  104.39    6.40
   6   1   3  114.99    6.10
  -7  -1  -3   28.60    4.00
  -7  -1  -3   30.30    3.80
  -7  -1  -3   32.90    4.00
  -7  -1  -3   31.20    4.10
  -7  -1  -3   32.00    3.90
   7   1   3   27.70    3.90
   7   1   3   35.50    3.70
   7   1   3   37.60    3.70
   7   1   3   23.00    3.30
  -8  -1  -3   -1.50    2.40
  -8  -1  -3   -0.80    2.20
  -8  -1  -3   -0.30    2.30
  -8  -1  -3    2.60    3.00
   8   1   3    3.40    2.50
   8   1   3   -1.10    1.80
   8   1   3   -0.20    1.90
   7  -2  -3   56.29    3.90
   7  -2  -3   59.69    4.20
  -7   2   3   51.39    4.00
  -7   2   3   58.09    4.10
   6  -2  -3   -2.80    3.90
   6  -2  -3    0.10    2.70
   6  -2  -3    0.20    2.30
  -6   2   3    2.60    2.70
  -6   2   3    0.50    2.70
   5  -2  -3  177.98    8.80
   5  -2  -3  165.28    8.60
   5  -2  -3  183.88    9.00
   5  -2  -3  172.58    8.50
   5  -2  -3  178.78    8.70
  -5   2   3  183.48    9.00
  -5   2   3  178.78    8.50
  -5   2   3  169.08    8.20
  -5   2   3  187.38    9.30
   4  -2  -3   10.90    2.30
   4  -2  -3   17.60    2.90
   4  -2  -3   15.60    2.70
   4  -2  -3   14.90    2.60
   4  -2  -3   16.60    2.40
  -4   2   3   14.40    2.70
  -4   2   3   10.90    2.00
  -4   2   3   19.60    3.50
  -4   2   3   11.10    1.80
  -4   2   3   13.20    1.90
  -4   2   3   11.40    2.50
  -4   2   3   11.20    2.20
   3  -2  -3   18.20    2.90
   3  -2  -3   12.70    2.10
   3  -2  -3   12.60    2.00
   3  -2  -3   11.10    2.80
  -3   2   3   13.40    1.60
  -3   2   3   13.30    2.50
  -3   2   3   14.40    2.50
  -3   2   3   13.80    2.00
  -3   2   3   11.20    1.90
  -3   2   3   12.80    2.30
   2  -2  -3  128.09    5.60
   2  -2  -3  130.29    5.70
   2  -2  -3  131.39    6.80
   2  -2  -3  129.89    6.20
  -2   2   3  124.89    6.00
  -2   2   3  118.79    5.20
  -2   2   3  126.99    5.90
  -2   2   3  113.39    5.30
  -2   2   3  125.69    5.50
  -2   2   3  122.39    5.60
   1  -2  -3  101.59    4.50
   1  -2  -3  106.69    4.50
   1  -2  -3  107.89    4.90
   1  -2  -3  108.39    5.50
   1  -2  -3  103.59    4.90
   1  -2  -3   99.29    4.90
  -1   2   3  106.79    4.60
  -1   2   3  103.29    4.70
  -1   2   3  109.19    5.10
  -1   2   3  107.49    4.80
   0  -2  -3  106.09    4.70
   0  -2  -3  101.69    4.30
   0  -2  -3  102.09    4.80
   0  -2  -3  117.59    4.60
   0  -2  -3  110.69    4.90
   0   2   3  114.39    5.00
   0   2   3  116.99    4.60
   0   2   3   99.49    4.20
   0   2   3  109.49    4.70
   0   2   3  102.39    4.30
   0   2   3  102.89    4.50
  -1  -2  -3  150.58    6.00
  -1  -2  -3  151.08    6.50
   1   2   3  143.09    5.90
   1   2   3  148.49    6.10
   1   2   3  153.88    6.50
  -2  -2  -3  294.67   12.60
  -2  -2  -3  326.37   12.90
  -2  -2  -3  348.57   12.60
  -2  -2  -3  350.36   13.00
  -2  -2  -3  324.87   12.60
   2   2   3  334.87   12.60
   2   2   3  347.17   13.40
   2   2   3  323.27   12.80
   2   2   3  320.67   12.40
   2   2   3  353.76   12.80
  -3  -2  -3  462.45   18.30
  -3  -2  -3  481.35   18.10
  -3  -2  -3  425.06   17.80
  -3  -2  -3  481.45   18.30
  -3  -2  -3  455.95   17.80
  -3  -2  -3  487.25   18.00
   3   2   3  473.25   18.30
   3   2   3  498.15   18.00
   3   2   3  503.65   18.30
   3   2   3  487.45   19.00
  -4  -2  -3  415.66   15.80
  -4  -2  -3  385.96   15.60
  -4  -2  -3  410.16   16.10
   4   2   3  387.06   16.10
   4   2   3  395.46   15.40
   4   2   3  421.26   15.80
   4   2   3  419.76   16.10
   4   2   3  406.96   17.00
  -5  -2  -3  333.37   14.80
  -5  -2  -3  355.76   14.80
  -5  -2  -3  376.66   14.40
  -5  -2  -3  367.56   14.90
  -5  -2  -3  348.07   14.60
  -5  -2  -3  372.66   15.00
  -5  -2  -3  339.97   15.10
   5   2   3  357.36   13.80
   5   2   3  341.47   15.60
   5   2   3  362.36   14.10
   5   2   3  342.07   14.60
   5   2   3  379.16   14.70
   5   2   3  335.17   14.30
   5   2   3  357.66   13.80
  -6  -2  -3  161.18    8.60
  -6  -2  -3  166.18    8.50
  -6  -2  -3  167.38    8.80
  -6  -2  -3  174.68    8.80
  -6  -2  -3  162.98    7.80
  -6  -2  -3  174.78    8.50
  -6  -2  -3  165.78    8.90
   6   2   3  165.38    8.20
   6   2   3  161.38    7.00
   6   2   3  156.78    9.30
   6   2   3  172.18    8.20
   6   2   3  161.98    8.00
   6   2   3  160.68    8.00
  -7  -2  -3   16.80    3.50
  -7  -2  -3   15.70    3.30
  -7  -2  -3   10.90    3.20
  -7  -2  -3    9.80    2.80
  -7  -2  -3   14.70    3.20
   7   2   3   13.10    2.90
   7   2   3   17.80    2.80
  -8  -2  -3    1.20    2.30
  -8  -2  -3    1.10    2.30
  -8  -2  -3   -1.00    2.40
  -8  -2  -3   -1.70    2.10
   8   2   3    1.20    2.00
   8   2   3   -1.00    2.00
   6  -3  -3    4.60    3.60
   6  -3  -3    1.90    2.10
   6  -3  -3    1.80    2.50
   6  -3  -3    4.60    2.10
  -6   3   3    2.40    2.60
  -6   3   3    3.80    2.70
   5  -3  -3   62.89    4.70
   5  -3  -3   60.89    5.00
   5  -3  -3   61.79    4.90
   5  -3  -3   62.49    4.70
   5  -3  -3   62.19    6.30
  -5   3   3   66.09    5.40
  -5   3   3   55.89    4.20
  -5   3   3   54.19    3.90
  -5   3   3   56.99    4.90
   4  -3  -3   92.99    5.70
   4  -3  -3   92.99    5.60
   4  -3  -3  100.39    6.00
   4  -3  -3   97.29    5.50
   4  -3  -3   99.69    5.50
   4  -3  -3   94.69    5.90
  -4   3   3   98.79    5.50
  -4   3   3   95.19    5.10
  -4   3   3   94.39    5.30
  -4   3   3   97.09    5.70
  -4   3   3   93.59    4.90
  -4   3   3   97.99    6.30
  -4   3   3   86.49    5.20
   3  -3  -3  195.58    8.40
   3  -3  -3  201.18    8.30
   3  -3  -3  181.68    8.30
   3  -3  -3  179.08    8.40
   3  -3  -3  184.38    8.20
   3  -3  -3  179.68    8.80
   3  -3  -3  168.58    8.90
   3  -3  -3  186.58    8.50
   3  -3  -3  179.58    8.50
  -3   3   3  187.58    7.70
  -3   3   3  180.48    8.90
  -3   3   3  185.48    8.20
  -3   3   3  176.98    8.30
  -3   3   3  180.58    8.70
  -3   3   3  188.28    8.10
  -3   3   3  183.48    9.40
   2  -3  -3   79.39    5.40
   2  -3  -3   83.89    4.30
   2  -3  -3   82.19    4.40
  -2   3   3   88.09    4.30
  -2   3   3   83.49    4.30
  -2   3   3   79.09    4.40
  -2   3   3   87.19    3.80
  -2   3   3   83.99    4.70
   1  -3  -3   66.89    3.40
   1  -3  -3   70.69    4.60
   1  -3  -3   75.49    4.10
   1  -3  -3   70.69    3.50
  -1   3   3   73.79    4.10
  -1   3   3   71.09    3.70
  -1   3   3   71.29    3.70
  -1   3   3   73.79    3.70
   0  -3  -3  337.57   13.50
   0  -3  -3  331.87   13.30
   0   3   3  335.27   13.40
   0   3   3  368.26   12.90
   0   3   3  315.77   12.90
   0   3   3  337.67   12.90
  -1  -3  -3  370.66   14.70
  -1  -3  -3  384.06   14.70
  -1  -3  -3  378.76   14.90
  -1  -3  -3  387.86   15.00
   1   3   3  421.66   14.60
   1   3   3  389.66   15.20
   1   3   3  377.36   14.50
   1   3   3  383.96   14.60
  -2  -3  -3   16.40    2.00
  -2  -3  -3   18.40    1.90
  -2  -3  -3   17.80    1.60
   2   3   3   21.90    2.70
   2   3   3   19.40    1.70
   2   3   3   21.50    1.90
   2   3   3   18.80    1.70
  -3  -3  -3  389.36   15.50
  -3  -3  -3  399.06   15.90
   3   3   3  404.66   16.70
   3   3   3  405.96   15.50
   3   3   3  413.26   15.60
  -4  -3  -3   69.79    4.40
   4   3   3   69.59    4.90
   4   3   3   71.59    3.80
   4   3   3   67.39    3.40
   4   3   3   65.59    4.00
  -5  -3  -3    4.80    2.30
  -5  -3  -3    7.30    2.20
  -5  -3  -3    3.80    2.50
  -5  -3  -3    6.40    3.80
  -5  -3  -3    6.40    1.80
  -5  -3  -3    2.60    2.10
  -5  -3  -3    6.30    2.30
  -5  -3  -3    4.30    2.10
  -5  -3  -3    5.20    2.30
   5   3   3    4.70    1.70
   5   3   3    5.90    1.40
   5   3   3    6.70    1.80
   5   3   3    4.70    1.50
   5   3   3    5.30    2.30
   5   3   3    3.40    2.00
  -6  -3  -3    9.50    2.60
  -6  -3  -3   15.00    3.40
  -6  -3  -3   11.40    3.10
  -6  -3  -3    9.40    3.10
  -6  -3  -3   10.20    2.80
  -6  -3  -3   12.00    2.90
  -6  -3  -3    9.60    2.70
   6   3   3   16.50    2.10
   6   3   3    9.50    2.40
   6   3   3   10.40    2.60
   6   3   3   13.70    2.70
   6   3   3   13.20    2.20
   6   3   3   12.20    1.90
  -7  -3  -3   21.70    3.70
  -7  -3  -3   25.80    3.80
  -7  -3  -3   32.30    4.20
  -7  -3  -3   22.80    3.60
  -7  -3  -3   25.90    3.80
  -7  -3  -3   25.90    4.40
   7   3   3   25.70    3.40
   7   3   3   22.20    3.10
  -8  -3  -3    5.50    2.10
  -8  -3  -3    8.50    2.70
  -8  -3  -3   10.20    2.60
  -8  -3  -3    5.80    3.10
  -8  -3  -3    7.10    2.60
   8   3   3    7.40    2.20
   8   3   3    7.40    2.20
   6  -4  -3   -2.20    1.70
   6  -4  -3   -2.00    3.10
   6  -4  -3   -0.30    1.70
   6  -4  -3   -1.50    1.60
  -6   4   3    0.80    2.20
  -6   4   3   -1.20    2.30
   5  -4  -3   66.99    5.00
   5  -4  -3   55.59    4.50
   5  -4  -3   59.49    6.50
   5  -4  -3   62.09    4.90
  -5   4   3   63.79    4.10
  -5   4   3   65.29    5.20
  -5   4   3   60.79    5.40
   4  -4  -3   74.39    4.90
   4  -4  -3   71.29    5.50
   4  -4  -3   72.69    5.20
   4  -4  -3   74.99    5.10
   4  -4  -3   77.29    6.80
   4  -4  -3   68.59    6.10
   4  -4  -3   76.79    5.20
   4  -4  -3   71.29    5.30
  -4   4   3   73.69    5.30
  -4   4   3   72.09    4.50
  -4   4   3   78.59    6.10
  -4   4   3   77.39    4.40
  -4   4   3   67.59    4.90
   3  -4  -3  171.18    7.60
   3  -4  -3  161.98    7.90
   3  -4  -3  164.58    9.20
   3  -4  -3  164.08    7.50
   3  -4  -3  157.08    8.50
   3  -4  -3  148.69    8.40
   3  -4  -3  159.88    8.00
   3  -4  -3  155.98    7.50
   3  -4  -3  157.38    7.70
   3  -4  -3  162.08    8.30
   3  -4  -3  148.89    7.20
  -3   4   3  161.68    7.30
  -3   4   3  143.99    7.10
  -3   4   3  162.88    8.90
  -3   4   3  162.48    6.90
  -3   4   3  150.78    7.60
  -3   4   3  145.19    9.80
  -3   4   3  148.19    6.80
   2  -4  -3  169.58    8.30
   2  -4  -3  173.58    8.90
   2  -4  -3  170.08    8.80
   2  -4  -3  177.68    8.10
   2  -4  -3  180.38    7.90
   2  -4  -3  166.48    8.00
   2  -4  -3  186.48    8.30
   2  -4  -3  173.68    8.70
   2  -4  -3  177.38    7.80
   2  -4  -3  174.78    9.40
  -2   4   3  178.88    7.10
  -2   4   3  176.28    7.90
  -2   4   3  173.68    8.20
  -2   4   3  177.08    7.70
  -2   4   3  178.48    7.70
   1  -4  -3    0.20    1.70
   1  -4  -3    0.10    1.10
   1  -4  -3    1.70    1.80
  -1   4   3    2.00    1.50
  -1   4   3    0.40    1.10
  -1   4   3   -0.40    1.10
  -1   4   3    0.50    1.00
   0  -4  -3   80.39    4.80
   0  -4  -3   80.59    4.40
   0   4   3   84.69    3.70
   0   4   3   81.39    4.60
  -1  -4  -3  575.94   22.10
   1   4   3  557.54   21.50
   1   4   3  604.94   21.30
   1   4   3  558.54   22.30
   1   4   3  583.34   21.30
  -2  -4  -3  438.06   17.40
  -2  -4  -3  462.35   17.10
   2   4   3  435.46   18.00
   2   4   3  440.06   17.00
   2   4   3  445.86   16.70
  -3  -4  -3 1868.71   68.39
  -3  -4  -3 1792.12   67.99
   3   4   3 1865.41   67.99
   3   4   3 1831.62   69.39
   3   4   3 1879.91   67.89
  -4  -4  -3    6.10    2.10
  -4  -4  -3    6.40    2.10
  -4  -4  -3    3.80    3.20
  -4  -4  -3    8.90    3.10
  -4  -4  -3    7.10    2.40
  -4  -4  -3    6.50    2.70
  -4  -4  -3    8.50    2.20
  -4  -4  -3    4.10    2.00
  -4  -4  -3    4.30    2.10
   4   4   3    7.60    2.40
   4   4   3    3.50    1.60
   4   4   3    5.40    1.50
   4   4   3    7.10    1.30
  -5  -4  -3   38.20    5.10
  -5  -4  -3   37.30    4.10
  -5  -4  -3   37.20    4.00
  -5  -4  -3   29.50    3.80
  -5  -4  -3   29.70    4.20
  -5  -4  -3   25.80    3.20
  -5  -4  -3   37.90    3.50
  -5  -4  -3   35.20    3.70
  -5  -4  -3   33.70    3.70
  -5  -4  -3   35.00    4.20
   5   4   3   37.50    3.30
   5   4   3   32.50    2.70
   5   4   3   39.10    3.20
   5   4   3   34.00    4.40
   5   4   3   31.50    2.70
   5   4   3   29.90    3.30
  -6  -4  -3   76.59    5.50
  -6  -4  -3   97.09    6.20
  -6  -4  -3   85.59    6.20
  -6  -4  -3   92.19    6.80
  -6  -4  -3   78.79    6.50
  -6  -4  -3   93.39    6.20
  -6  -4  -3   89.49    7.70
  -6  -4  -3   73.79    5.70
   6   4   3   79.19    4.60
   6   4   3   89.09    4.70
   6   4   3   81.39    4.90
   6   4   3   90.19    5.50
   6   4   3   84.19    5.50
  -7  -4  -3   -1.90    3.80
  -7  -4  -3    1.50    2.60
  -7  -4  -3    0.40    2.50
  -7  -4  -3    0.90    2.50
  -7  -4  -3    0.20    3.10
  -7  -4  -3    5.90    2.70
  -7  -4  -3   -1.40    2.70
   7   4   3    2.60    2.60
   7   4   3    0.80    2.30
   7   4   3    4.40    1.70
  -8  -4  -3    9.00    2.70
  -8  -4  -3    9.90    2.40
  -8  -4  -3    9.80    2.30
  -8  -4  -3   12.40    3.30
  -8  -4  -3   14.10    2.40
   8   4   3   14.30    2.50
   8   4   3   15.30    2.40
   5  -5  -3   55.79    6.10
   5  -5  -3   63.49    5.50
   5  -5  -3   66.49    4.90
  -5   5   3   59.09    5.00
  -5   5   3   55.99    4.80
  -5   5   3   59.29    3.80
   4  -5  -3   47.60    5.00
   4  -5  -3   52.49    4.80
   4  -5  -3   58.19    4.70
   4  -5  -3   53.69    4.60
   4  -5  -3   58.69    5.80
   4  -5  -3   57.99    6.60
  -4   5   3   49.70    3.90
  -4   5   3   49.80    3.70
  -4   5   3   51.39    4.30
  -4   5   3   74.19    5.60
   3  -5  -3  340.97   15.50
   3  -5  -3  341.17   14.80
   3  -5  -3  357.36   14.50
   3  -5  -3  358.46   16.70
   3  -5  -3  335.67   15.60
   3  -5  -3  330.87   14.60
   3  -5  -3  345.17   14.50
   3  -5  -3  351.26   15.80
  -3   5   3  359.56   13.70
  -3   5   3  330.27   13.50
   2  -5  -3   27.70    3.90
   2  -5  -3   28.80    3.90
   2  -5  -3   25.40    2.90
   2  -5  -3   21.80    2.70
   2  -5  -3   25.00    2.90
   2  -5  -3   25.20    4.40
   2  -5  -3   24.20    3.80
   2  -5  -3   25.40    2.90
  -2   5   3   15.20    2.70
  -2   5   3   31.80    4.50
   1  -5  -3  148.79    7.50
   1  -5  -3  172.18    8.60
   1  -5  -3  177.28    8.90
   1  -5  -3  155.18    7.70
   1  -5  -3  174.78    8.20
   1  -5  -3  176.08    8.70
   1  -5  -3  165.58    7.80
   1  -5  -3  161.08    7.60
   1  -5  -3  170.78    9.20
  -1   5   3  163.48    7.40
  -1   5   3  164.68    7.90
  -1   5   3  168.88    7.30
   0  -5  -3  194.48   13.10
   0  -5  -3  237.78   11.30
   0  -5  -3  276.67   10.90
   0   5   3  257.47   10.20
   0   5   3  255.47    9.50
  -1  -5  -3  250.97   10.50
   1   5   3  234.88   10.60
  -2  -5  -3  323.17   13.10
   2   5   3  315.17   13.80
   2   5   3  317.37   12.50
   2   5   3  309.87   11.90
  -3  -5  -3   65.69    5.40
  -3  -5  -3   65.09    4.80
  -3  -5  -3   57.59    4.60
  -3  -5  -3   63.19    4.80
  -3  -5  -3   65.29    5.50
  -3  -5  -3   69.39    4.70
  -3  -5  -3   64.29    4.40
  -3  -5  -3   64.69    5.60
   3   5   3   67.49    5.00
   3   5   3   67.59    3.80
   3   5   3   61.59    3.30
  -4  -5  -3   89.39    5.80
  -4  -5  -3   78.79    6.10
  -4  -5  -3   74.09    6.20
  -4  -5  -3   85.39    6.40
  -4  -5  -3   83.29    5.40
  -4  -5  -3   79.89    5.70
  -4  -5  -3   89.89    5.40
  -4  -5  -3   75.49    5.60
  -4  -5  -3   75.69    5.00
   4   5   3   86.69    4.70
   4   5   3   77.49    6.10
   4   5   3   85.59    3.90
  -5  -5  -3   24.40    4.90
  -5  -5  -3   21.60    4.50
  -5  -5  -3   20.30    3.50
  -5  -5  -3   15.40    2.90
  -5  -5  -3   17.90    4.40
  -5  -5  -3   17.60    3.70
  -5  -5  -3   15.90    3.80
  -5  -5  -3   17.20    3.30
  -5  -5  -3   12.60    2.80
  -5  -5  -3   21.70    3.90
   5   5   3   19.80    2.10
   5   5   3   19.90    2.70
   5   5   3   17.10    1.90
  -6  -5  -3   14.40    3.30
  -6  -5  -3   18.80    3.70
  -6  -5  -3   10.60    4.20
  -6  -5  -3   10.20    3.00
  -6  -5  -3   10.50    3.60
  -6  -5  -3   12.20    4.10
  -6  -5  -3   15.00    3.40
  -6  -5  -3   16.60    3.80
   6   5   3   22.00    2.30
   6   5   3   16.80    2.70
   6   5   3   17.10    2.30
   6   5   3   11.90    2.50
  -7  -5  -3   10.00    2.90
  -7  -5  -3   11.90    2.90
  -7  -5  -3   14.50    3.30
  -7  -5  -3    7.00    3.10
  -7  -5  -3   23.40    4.60
   7   5   3   14.90    2.70
   7   5   3   12.90    1.90
   7   5   3   17.30    2.60
   7   5   3   14.20    2.70
  -8  -5  -3    0.60    2.20
  -8  -5  -3   -0.40    2.30
  -8  -5  -3    1.40    1.90
   8   5   3   -1.90    1.70
   8   5   3    2.40    1.60
   8   5   3   -0.70    2.60
   5  -6  -3   37.70    3.80
   5  -6  -3   23.70    3.80
  -5   6   3   24.40    2.80
  -5   6   3   37.00    3.50
  -5   6   3   36.90    2.60
   4  -6  -3    7.70    3.00
   4  -6  -3    5.50    2.60
   4  -6  -3    9.30    3.70
   4  -6  -3    9.70    2.50
   4  -6  -3    8.60    4.30
  -4   6   3    5.70    2.00
  -4   6   3    6.20    2.90
  -4   6   3    6.20    1.80
   3  -6  -3   41.20    6.20
   3  -6  -3   28.90    4.50
   3  -6  -3   24.90    3.40
   3  -6  -3   32.60    3.80
   3  -6  -3   28.30    3.40
   3  -6  -3   30.90    4.90
   3  -6  -3   31.50    4.40
  -3   6   3   34.80    3.10
  -3   6   3   43.00    3.10
   2  -6  -3   95.99    6.20
   2  -6  -3  108.69    7.80
   2  -6  -3  110.59    8.20
   2  -6  -3  108.49    7.40
   2  -6  -3  104.99    6.20
   2  -6  -3  108.59    7.60
   2  -6  -3  110.99    6.50
  -2   6   3  104.79    4.90
   1  -6  -3    3.10    2.60
   1  -6  -3    2.80    2.90
   1  -6  -3    4.30    2.20
   1  -6  -3    2.30    2.70
   1  -6  -3    2.90    2.00
   1  -6  -3    4.60    3.10
   1  -6  -3    5.60    3.40
   0  -6  -3   29.50    3.50
   0  -6  -3   26.90    4.40
   0  -6  -3   32.90    3.10
   0  -6  -3   31.60    4.20
   0  -6  -3   25.40    3.80
   0  -6  -3   38.80    4.30
   0   6   3   23.80    3.50
  -1  -6  -3   12.60    2.90
  -1  -6  -3   11.00    2.50
  -1  -6  -3    7.90    2.80
  -1  -6  -3   12.10    2.40
  -1  -6  -3   13.90    3.80
  -1  -6  -3    8.00    2.90
  -1  -6  -3    7.80    2.70
   1   6   3   13.50    2.40
  -2  -6  -3   38.20    3.90
  -2  -6  -3   39.40    3.80
  -2  -6  -3   44.70    5.10
  -2  -6  -3   41.40    4.80
  -2  -6  -3   40.80    4.50
  -2  -6  -3   42.20    4.40
   2   6   3   45.80    4.60
   2   6   3   42.90    3.00
  -3  -6  -3    2.00    2.90
  -3  -6  -3   -0.70    2.20
  -3  -6  -3    0.90    2.70
  -3  -6  -3    1.40    2.00
  -3  -6  -3    0.20    2.10
  -3  -6  -3    1.70    2.50
  -3  -6  -3   -0.50    2.80
   3   6   3    3.70    2.20
   3   6   3    1.70    1.50
  -4  -6  -3   19.70    3.30
  -4  -6  -3   22.10    3.80
  -4  -6  -3   21.80    4.00
  -4  -6  -3   26.60    3.70
  -4  -6  -3   26.10    3.60
  -4  -6  -3   21.60    4.30
  -4  -6  -3   23.70    4.00
  -4  -6  -3   23.30    4.30
   4   6   3   30.30    3.20
   4   6   3   25.70    2.00
  -5  -6  -3    5.70    3.90
  -5  -6  -3    4.80    3.80
  -5  -6  -3    3.30    2.80
  -5  -6  -3    1.40    2.50
  -5  -6  -3    5.80    2.90
  -5  -6  -3    9.00    4.20
  -5  -6  -3    4.90    3.40
  -5  -6  -3    6.70    3.30
   5   6   3    5.40    1.70
   5   6   3    7.80    2.10
   5   6   3    4.20    1.60
  -6  -6  -3    6.20    3.50
  -6  -6  -3   11.70    3.20
  -6  -6  -3   -0.40    3.60
  -6  -6  -3    4.40    2.80
  -6  -6  -3    8.90    3.90
  -6  -6  -3   11.80    3.10
  -6  -6  -3    9.20    3.40
   6   6   3   13.10    2.00
   6   6   3    8.00    2.50
   6   6   3    7.40    1.80
  -7  -6  -3    7.50    3.20
  -7  -6  -3   12.80    3.40
  -7  -6  -3    7.00    2.40
  -7  -6  -3   13.30    3.30
   7   6   3    9.30    2.40
   7   6   3    7.90    2.10
   7   6   3   10.10    1.70
   4  -7  -3   30.00    3.80
   4  -7  -3   27.70    4.30
   4  -7  -3   14.80    2.60
  -4   7   3   29.10    2.20
  -4   7   3   24.60    2.90
   3  -7  -3   33.20    4.30
   3  -7  -3   33.70    4.70
   3  -7  -3   33.90    3.40
   3  -7  -3   34.00    4.80
   3  -7  -3   40.40    6.00
  -3   7   3   32.30    3.00
   2  -7  -3  165.48    8.60
   2  -7  -3  164.98    8.70
   2  -7  -3  179.48   10.40
   2  -7  -3  182.48   10.40
   2  -7  -3  173.58    9.70
   2  -7  -3  183.68   11.10
  -2   7   3  178.18    7.50
   1  -7  -3   13.10    4.30
   1  -7  -3   10.50    2.90
   1  -7  -3    9.80    3.70
   1  -7  -3   13.60    3.00
   1  -7  -3   11.50    3.50
   1  -7  -3   12.70    4.80
   0  -7  -3   66.79    6.10
   0  -7  -3   71.89    5.80
   0  -7  -3   63.49    5.30
   0  -7  -3   62.79    6.60
   0  -7  -3   68.09    7.00
   0  -7  -3   61.49    4.90
  -1  -7  -3  330.47   14.80
  -1  -7  -3  347.87   15.30
  -1  -7  -3  307.17   15.10
  -1  -7  -3  334.07   14.50
  -1  -7  -3  350.46   15.60
  -1  -7  -3  322.87   13.80
  -1  -7  -3  341.87   15.80
  -2  -7  -3   73.99    6.30
  -2  -7  -3   75.39    6.50
  -2  -7  -3   73.89    6.50
  -2  -7  -3   75.89    5.40
  -2  -7  -3   78.19    6.80
  -2  -7  -3   78.99    5.40
  -3  -7  -3   59.19    6.20
  -3  -7  -3   63.69    5.20
  -3  -7  -3   55.99    5.20
  -3  -7  -3   64.39    5.90
  -3  -7  -3   60.49    6.40
  -3  -7  -3   65.29    6.10
   3   7   3   59.39    4.00
  -4  -7  -3   35.40    5.30
  -4  -7  -3   32.90    5.30
  -4  -7  -3   30.30    3.90
  -4  -7  -3   34.60    4.20
  -4  -7  -3   28.00    4.70
  -4  -7  -3   27.30    4.40
   4   7   3   29.90    2.40
  -5  -7  -3    0.10    3.20
  -5  -7  -3   -1.30    3.80
  -5  -7  -3    1.20    3.70
  -5  -7  -3    4.10    4.20
  -5  -7  -3    2.00    2.70
   5   7   3   -0.20    2.00
   5   7   3    1.70    1.40
  -6  -7  -3    6.60    3.90
  -6  -7  -3    8.20    2.90
  -6  -7  -3    7.70    3.20
  -6  -7  -3    6.70    3.60
   6   7   3    3.00    2.10
   6   7   3    7.40    1.70
   6   7   3    6.60    1.70
  -7  -7  -3   83.49    5.40
  -7  -7  -3   77.39    5.50
   7   7   3   77.89    3.70
   7   7   3   69.39    4.20
   3  -8  -3    0.60    1.60
   3  -8  -3    1.30    2.80
   3  -8  -3    0.00    2.90
   3  -8  -3    0.50    2.40
   3  -8  -3   -4.40    2.00
  -3   8   3    1.20    1.20
   2  -8  -3   34.30    5.00
   2  -8  -3   37.80    4.60
   2  -8  -3   25.80    3.50
   2  -8  -3   28.50    3.30
   2  -8  -3   23.30    5.00
   2  -8  -3   27.80    4.30
  -2   8   3   30.20    2.30
   1  -8  -3  160.28    9.60
   1  -8  -3  162.98    9.20
   1  -8  -3  163.48    9.90
   1  -8  -3  155.28    8.00
   1  -8  -3  148.69    9.80
   0  -8  -3  -10.20    2.80
   0  -8  -3   -0.40    3.40
   0  -8  -3   -1.90    3.00
   0  -8  -3   -1.70    2.50
   0  -8  -3   -0.30    3.60
   0  -8  -3    0.40    3.80
  -1  -8  -3  134.89    8.50
  -1  -8  -3  117.19    8.20
  -1  -8  -3  138.89    9.00
  -1  -8  -3  144.59    8.80
  -1  -8  -3  143.69    8.20
  -2  -8  -3   13.90    3.20
  -2  -8  -3   12.20    3.60
  -2  -8  -3   18.00    4.20
  -2  -8  -3    9.30    3.50
  -3  -8  -3    0.30    3.50
  -3  -8  -3    0.30    2.70
  -3  -8  -3   -0.20    3.50
  -3  -8  -3    0.50    3.40
  -3  -8  -3   -0.10    3.10
  -4  -8  -3   42.50    5.80
  -4  -8  -3   30.00    4.40
  -4  -8  -3   36.00    4.50
  -4  -8  -3   27.70    4.60
   4   8   3   26.20    4.30
  -5  -8  -3    3.70    3.40
  -5  -8  -3    1.20    2.50
  -5  -8  -3    1.60    3.60
  -5  -8  -3    6.10    3.20
   5   8   3    2.00    1.20
  -6  -8  -3   20.10    3.70
  -6  -8  -3   29.80    3.70
  -6  -8  -3   24.90    3.40
  -6  -8  -3   20.50    2.90
   6   8   3   26.60    2.20
   2  -9  -3    3.60    1.90
   2  -9  -3    9.40    3.90
   2  -9  -3    1.50    2.10
   2  -9  -3    2.80    2.10
   1  -9  -3   10.40    2.90
   1  -9  -3    5.00    2.10
   1  -9  -3    5.50    3.10
   1  -9  -3    5.60    3.50
   0  -9  -3   30.30    4.40
   0  -9  -3   27.50    3.10
   0  -9  -3   32.90    4.30
   0  -9  -3   23.20    4.30
  -1  -9  -3   26.50    5.20
  -1  -9  -3   34.40    4.60
  -3  -9  -3   16.90    3.30
  -3  -9  -3   21.20    4.20
  -3  -9  -3   21.70    4.40
  -4  -9  -3    0.80    3.30
  -4  -9  -3    2.10    3.20
  -4  -9  -3   -0.70    2.50
  -5  -9  -3   15.50    2.60
  -5  -9  -3   20.90    3.60
  -5  -9  -3   19.30    3.90
  -2  -9   4   -0.10    2.70
  -2  -9   4   -0.20    2.70
  -2  -9   4   -0.30    2.50
   1   9  -4   10.70    1.80
  -1  -9   4   13.40    2.30
  -1  -9   4    8.40    2.20
  -1  -9   4   12.90    2.90
  -1  -9   4    9.90    2.50
   0  -9   4    7.70    2.20
   0  -9   4    8.50    2.10
   0  -9   4    6.00    2.40
   0  -9   4    6.10    2.40
   4   8  -4   18.20    1.70
   4   8  -4   13.50    2.80
  -4  -8   4   16.80    3.10
  -4  -8   4   12.40    2.40
  -4  -8   4   10.10    2.30
   3   8  -4   -0.50    1.50
   3   8  -4   -1.40    1.30
   3   8  -4   -1.20    2.30
  -3  -8   4    0.20    2.80
  -3  -8   4    1.70    2.80
  -3  -8   4   -0.50    2.90
  -3  -8   4    0.30    2.30
  -3  -8   4   -4.60    2.30
   2   8  -4   11.30    1.80
   2   8  -4    6.80    1.60
  -2  -8   4   11.10    3.60
  -2  -8   4    5.20    3.20
  -2  -8   4   12.70    3.30
  -2  -8   4    5.50    2.90
  -2  -8   4    8.80    3.20
   1   8  -4   36.20    2.80
   1   8  -4   42.40    3.00
  -1  -8   4   46.80    5.10
  -1  -8   4   53.59    5.40
  -1  -8   4   41.20    5.00
  -1  -8   4   37.80    4.30
  -1  -8   4   40.70    4.40
  -1  -8   4   41.90    4.30
   0   8  -4   12.50    1.80
   0   8  -4   13.40    1.70
   0  -8   4   13.90    3.90
   0  -8   4   15.30    3.10
   0  -8   4   18.10    3.40
   0  -8   4   13.10    3.70
   0  -8   4   13.60    3.70
  -1   8  -4    6.00    1.30
  -1   8  -4    6.90    1.40
   1  -8   4    4.20    2.80
   1  -8   4    3.50    2.90
   1  -8   4    8.00    3.30
   1  -8   4    5.40    3.30
   1  -8   4    7.80    3.20
   1  -8   4    8.30    2.80
  -2   8  -4    1.80    1.30
  -2   8  -4   -0.80    2.00
  -2   8  -4    0.90    1.30
   2  -8   4    0.80    2.30
   2  -8   4    2.50    2.70
   2  -8   4   -0.60    2.30
   2  -8   4    1.00    3.10
   2  -8   4    5.40    2.60
  -3   8  -4   27.70    2.20
   3  -8   4   24.70    2.90
   3  -8   4   31.80    2.90
   3  -8   4   16.40    2.90
   3  -8   4   26.10    3.30
   5   7  -4    0.70    2.60
   5   7  -4   -0.90    1.30
  -5  -7   4   -0.60    1.80
  -5  -7   4    1.70    2.20
  -5  -7   4   -0.50    2.80
  -5  -7   4   -8.70    2.70
   4   7  -4    1.30    1.70
   4   7  -4    0.90    1.80
  -4  -7   4    5.40    2.70
  -4  -7   4   -0.60    2.60
  -4  -7   4    3.80    3.10
  -4  -7   4    2.20    2.60
  -4  -7   4   -3.30    2.80
  -4  -7   4    6.50    3.30
   3   7  -4    2.60    1.60
   3   7  -4    6.70    2.00
  -3  -7   4    5.30    3.10
  -3  -7   4    6.50    3.00
  -3  -7   4    9.60    4.90
  -3  -7   4    3.40    3.50
  -3  -7   4   -2.70    3.10
  -3  -7   4   -1.70    2.70
  -3  -7   4    2.50    3.60
   2   7  -4   30.50    2.60
   2   7  -4   38.30    3.20
   2   7  -4   36.80    4.20
  -2  -7   4   39.90    4.80
  -2  -7   4   33.90    5.70
  -2  -7   4   45.00    4.70
  -2  -7   4   45.90    5.10
  -2  -7   4   30.20    4.80
  -2  -7   4   33.10    4.20
   1   7  -4    6.20    1.80
   1   7  -4    6.50    3.10
  -1  -7   4    9.60    3.60
  -1  -7   4    4.60    3.80
  -1  -7   4    4.10    3.10
  -1  -7   4    8.90    3.30
  -1  -7   4   10.80    4.30
  -1  -7   4   10.60    3.60
  -1  -7   4    6.80    3.50
   0   7  -4  507.05   19.50
   0  -7   4  510.15   21.10
   0  -7   4  477.85   21.00
   0  -7   4  517.15   21.90
   0  -7   4  540.65   22.00
   0  -7   4  521.15   21.10
   0  -7   4  515.55   22.10
  -1   7  -4    6.50    2.80
  -1   7  -4    2.70    1.50
   1  -7   4    6.40    3.30
   1  -7   4    2.90    2.80
   1  -7   4    4.30    3.50
   1  -7   4    8.80    3.80
   1  -7   4    6.70    3.40
   1  -7   4    2.10    3.60
   1  -7   4    3.80    2.80
  -2   7  -4    2.40    1.40
  -2   7  -4    3.40    1.50
  -2   7  -4    4.80    2.80
   2  -7   4    4.50    3.50
   2  -7   4    7.70    2.80
   2  -7   4    5.00    3.00
   2  -7   4    2.60    3.70
   2  -7   4    6.20    3.20
   2  -7   4    4.60    3.10
   2  -7   4    8.10    3.40
  -3   7  -4    0.20    1.50
  -3   7  -4    0.70    2.00
  -3   7  -4    0.50    1.40
   3  -7   4    1.40    3.10
   3  -7   4   -1.10    2.50
   3  -7   4    1.10    2.70
   3  -7   4    2.40    3.00
   3  -7   4    1.70    2.60
  -4   7  -4   14.20    2.50
  -4   7  -4   13.40    2.30
  -4   7  -4   15.80    1.90
   4  -7   4   19.30    2.90
   4  -7   4   25.10    3.60
   4  -7   4   19.20    3.30
   4  -7   4   20.30    2.70
   4  -7   4   13.90    2.50
  -6  -6   4    4.40    2.00
   5   6  -4   63.69    4.10
   5   6  -4   73.99    4.10
   5   6  -4   75.29    4.60
   5   6  -4   73.39    5.50
  -5  -6   4   76.29    5.10
  -5  -6   4   70.09    5.50
  -5  -6   4   79.79    5.40
   4   6  -4  280.97   11.10
   4   6  -4  251.07   12.40
   4   6  -4  238.28   11.40
   4   6  -4  272.17   10.90
  -4  -6   4  253.17   12.60
  -4  -6   4  270.67   12.70
  -4  -6   4  268.67   12.20
  -4  -6   4  274.37   12.30
  -4  -6   4  290.87   14.50
  -4  -6   4  259.87   12.70
  -4  -6   4  280.37   12.30
   3   6  -4   31.90    2.60
   3   6  -4   34.10    2.80
   3   6  -4   38.10    4.20
  -3  -6   4   32.50    4.20
  -3  -6   4   29.40    4.50
  -3  -6   4   41.20    6.20
  -3  -6   4   30.90    3.70
  -3  -6   4   33.90    4.70
  -3  -6   4   33.40    4.50
  -3  -6   4   36.40    4.40
   2   6  -4   27.20    3.90
   2   6  -4   19.30    2.00
   2   6  -4   20.20    2.20
   2   6  -4   23.30    3.80
  -2  -6   4   26.50    4.40
  -2  -6   4   26.30    4.20
  -2  -6   4   18.00    3.60
  -2  -6   4   28.10    4.40
  -2  -6   4   17.50    3.20
  -2  -6   4   20.30    4.70
  -2  -6   4   15.40    3.30
   1   6  -4    5.30    1.60
   1   6  -4    6.00    2.90
  -1  -6   4    5.20    3.40
  -1  -6   4    8.90    3.40
  -1  -6   4    3.80    3.40
  -1  -6   4    6.30    3.80
  -1  -6   4    6.80    3.20
  -1  -6   4    5.40    2.90
  -1  -6   4    8.10    2.70
  -1  -6   4    6.50    2.70
   0   6  -4   11.10    1.80
   0   6  -4   12.60    3.30
   0   6  -4   13.90    3.10
   0  -6   4   10.10    3.40
   0  -6   4    6.70    3.00
   0  -6   4   14.20    3.00
   0  -6   4   15.60    3.30
   0  -6   4    7.60    2.90
   0  -6   4   12.00    3.90
   0  -6   4   12.30    3.70
  -1   6  -4  224.98   11.10
  -1   6  -4  237.78    9.70
   1  -6   4  235.28   12.00
   1  -6   4  243.78   12.20
   1  -6   4  240.48   11.20
   1  -6   4  257.77   12.30
   1  -6   4  223.88   12.20
   1  -6   4  253.57   11.80
   1  -6   4  240.98   11.20
   1  -6   4  238.38   11.10
  -2   6  -4  304.47   13.80
  -2   6  -4  311.97   13.00
  -2   6  -4  273.17   12.90
  -2   6  -4  305.07   12.20
  -2   6  -4  297.87   12.20
   2  -6   4  321.67   14.30
   2  -6   4  313.67   14.60
   2  -6   4  315.47   13.70
   2  -6   4  303.57   13.50
   2  -6   4  327.17   14.30
   2  -6   4  322.77   15.00
   2  -6   4  302.97   13.40
  -3   6  -4   88.99    6.20
  -3   6  -4   87.09    4.70
  -3   6  -4   77.09    5.10
  -3   6  -4   90.99    4.50
  -3   6  -4   78.19    6.20
   3  -6   4   91.99    6.30
   3  -6   4   79.09    5.90
   3  -6   4   80.19    7.30
   3  -6   4   90.69    6.90
   3  -6   4   86.19    6.60
   3  -6   4   84.09    5.60
   3  -6   4   88.39    6.80
   3  -6   4   90.59    6.00
  -4   6  -4   73.39    4.80
  -4   6  -4   73.89    5.10
  -4   6  -4   76.29    4.20
   4  -6   4   71.39    5.70
   4  -6   4   69.49    5.70
   4  -6   4   85.99    6.70
   4  -6   4   81.89    6.80
   4  -6   4   82.99    5.80
  -5   6  -4    3.10    1.60
  -5   6  -4    0.40    2.20
  -5   6  -4    5.80    1.90
  -5   6  -4    4.90    2.00
   5  -6   4    4.50    2.40
   5  -6   4    7.10    3.20
   5  -6   4    2.10    2.60
   6   5  -4   -1.50    2.70
   6   5  -4    0.50    2.70
   6   5  -4    2.20    2.10
  -6  -5   4    1.90    2.10
  -6  -5   4   -1.90    2.30
  -6  -5   4    0.30    2.20
   5   5  -4   66.79    6.10
   5   5  -4   66.29    4.80
   5   5  -4   57.49    3.70
   5   5  -4   60.29    6.10
   5   5  -4   46.90    4.00
  -5  -5   4   57.29    4.90
  -5  -5   4   57.79    4.40
  -5  -5   4   50.09    5.30
  -5  -5   4   63.59    5.10
  -5  -5   4   60.19    5.40
  -5  -5   4   60.59    5.10
   4   5  -4  199.08   10.40
   4   5  -4  188.58    9.40
   4   5  -4  195.38    9.30
   4   5  -4  202.78    8.50
   4   5  -4  207.48    8.70
  -4  -5   4  223.78   12.30
  -4  -5   4  203.58   10.30
  -4  -5   4  202.48    9.90
  -4  -5   4  213.98   10.00
  -4  -5   4  180.48    9.10
  -4  -5   4  193.48   10.50
  -4  -5   4  196.58   10.00
  -4  -5   4  182.08   10.20
   3   5  -4   58.19    3.60
   3   5  -4   54.39    4.40
   3   5  -4   61.69    4.70
   3   5  -4   54.59    5.60
   3   5  -4   65.69    4.00
   3   5  -4   55.79    4.80
  -3  -5   4   71.39    7.10
  -3  -5   4   47.80    4.60
  -3  -5   4   49.90    5.10
  -3  -5   4   62.89    5.60
  -3  -5   4   56.19    4.40
  -3  -5   4   53.89    5.30
  -3  -5   4   61.09    5.00
  -3  -5   4   61.29    5.30
  -3  -5   4   59.99    5.50
   2   5  -4   11.70    3.00
   2   5  -4    8.70    1.70
   2   5  -4    6.30    4.80
   2   5  -4    7.40    2.70
   2   5  -4    4.30    1.40
  -2  -5   4    5.10    2.30
  -2  -5   4    7.70    2.90
  -2  -5   4    6.80    3.60
  -2  -5   4   11.00    3.00
  -2  -5   4    6.40    2.50
  -2  -5   4    5.40    2.90
  -2  -5   4    7.90    2.80
  -2  -5   4    7.60    2.60
   1   5  -4  203.38    9.50
   1   5  -4  192.48    7.80
   1   5  -4  187.58   10.00
  -1  -5   4  162.28    9.80
  -1  -5   4  194.18    9.50
  -1  -5   4  191.58    9.60
  -1  -5   4  201.78    9.40
  -1  -5   4  185.58    9.00
  -1  -5   4  195.18   10.00
  -1  -5   4  190.08    9.70
  -1  -5   4  199.68    9.10
  -1  -5   4  205.48   10.10
   0   5  -4    3.20    2.50
   0   5  -4    1.70    1.10
   0   5  -4    1.90    2.10
   0  -5   4    1.50    2.70
   0  -5   4    3.90    2.30
   0  -5   4    2.80    2.80
   0  -5   4   -0.40    2.40
   0  -5   4    0.80    2.60
   0  -5   4    0.00    1.80
   0  -5   4    0.10    2.00
   0  -5   4    0.90    2.20
   0  -5   4    4.30    2.60
  -1   5  -4   88.99    4.10
  -1   5  -4   94.09    5.70
  -1   5  -4   81.09    4.60
  -1   5  -4   84.49    4.70
  -1   5  -4   83.39    6.40
   1  -5   4   81.49    5.40
   1  -5   4   89.29    6.30
   1  -5   4   79.09    6.10
   1  -5   4   73.09    5.70
   1  -5   4   90.59    5.30
   1  -5   4   86.69    6.50
   1  -5   4   84.19    6.00
   1  -5   4   87.99    5.40
   1  -5   4   84.39    5.90
  -2   5  -4   80.69    5.40
  -2   5  -4   76.39    4.00
  -2   5  -4   76.29    4.00
  -2   5  -4   73.99    4.70
  -2   5  -4   64.69    5.70
  -2   5  -4   71.79    4.70
   2  -5   4   79.49    5.30
   2  -5   4   73.99    5.20
   2  -5   4   84.59    6.80
   2  -5   4   82.69    6.30
   2  -5   4   85.39    6.00
   2  -5   4   80.39    5.80
   2  -5   4   78.59    6.30
   2  -5   4   76.79    5.00
   2  -5   4   72.09    5.20
  -3   5  -4   40.40    3.60
  -3   5  -4   32.40    3.50
  -3   5  -4   31.50    2.90
  -3   5  -4   27.30    3.00
  -3   5  -4   33.70    2.70
  -3   5  -4   40.40    4.30
   3  -5   4   33.70    3.70
   3  -5   4   33.70    3.30
   3  -5   4   40.70    4.90
   3  -5   4   44.00    5.00
   3  -5   4   37.90    4.10
   3  -5   4   38.40    4.10
   3  -5   4   39.80    5.00
   3  -5   4   39.10    3.70
   3  -5   4   34.00    5.00
  -4   5  -4    8.60    2.50
  -4   5  -4   10.50    3.10
  -4   5  -4    8.80    2.10
  -4   5  -4   12.70    2.70
  -4   5  -4    6.80    2.60
  -4   5  -4    7.20    1.70
  -4   5  -4   10.40    2.80
   4  -5   4    9.00    1.90
   4  -5   4   12.60    3.90
   4  -5   4   12.70    3.90
   4  -5   4   11.30    3.10
   4  -5   4   10.30    3.00
   4  -5   4   11.40    2.90
   4  -5   4   11.20    3.10
  -5   5  -4    7.20    2.70
  -5   5  -4    3.80    2.60
  -5   5  -4    7.50    3.10
  -5   5  -4    5.90    1.90
   5  -5   4   -0.20    3.40
   5  -5   4    7.00    2.60
   5  -5   4    9.80    2.80
   5  -5   4    6.00    2.70
   5  -5   4    1.30    2.90
  -6   5  -4    4.60    2.40
  -6   5  -4   13.30    2.70
  -6   5  -4    7.20    2.10
  -6   5  -4   13.80    2.30
   6  -5   4    7.40    2.20
   6  -5   4    9.70    2.30
   6  -5   4   13.00    3.30
   7   4  -4    4.90    1.80
   6   4  -4   29.10    4.00
   6   4  -4   44.30    3.80
   6   4  -4   35.10    4.30
  -6  -4   4   27.30    3.50
  -6  -4   4   30.60    3.60
  -6  -4   4   24.60    3.40
  -6  -4   4   29.90    3.70
   5   4  -4    5.90    3.60
   5   4  -4    3.00    2.30
   5   4  -4    3.60    1.80
   5   4  -4    3.30    2.50
  -5  -4   4    4.20    2.20
  -5  -4   4    5.70    3.00
  -5  -4   4    2.90    2.60
  -5  -4   4    5.00    2.70
  -5  -4   4    2.20    3.10
   4   4  -4    3.20    2.40
   4   4  -4    5.80    1.80
   4   4  -4    8.00    3.30
   4   4  -4    4.10    1.90
   4   4  -4    2.40    2.40
   4   4  -4    3.40    2.50
  -4  -4   4   14.30    5.10
  -4  -4   4    0.80    2.60
  -4  -4   4    4.50    3.10
  -4  -4   4   -0.10    2.60
  -4  -4   4    3.80    2.50
  -4  -4   4    5.60    3.20
  -4  -4   4    2.30    3.20
   3   4  -4   20.00    2.20
   3   4  -4   15.90    3.30
   3   4  -4   16.90    1.90
   3   4  -4   18.20    3.10
   3   4  -4   18.30    3.40
   3   4  -4   17.30    2.90
   3   4  -4   19.00    2.80
  -3  -4   4   17.00    3.10
  -3  -4   4   18.70    3.30
  -3  -4   4   18.80    3.00
  -3  -4   4   18.70    2.90
  -3  -4   4   24.70    3.20
  -3  -4   4   23.60    4.60
  -3  -4   4   22.90    3.20
  -3  -4   4   21.00    3.40
   2   4  -4   18.20    3.30
   2   4  -4   22.40    3.00
   2   4  -4   14.90    2.40
   2   4  -4   17.10    2.90
   2   4  -4   13.30    1.60
   2   4  -4   16.70    1.70
  -2  -4   4   18.70    2.60
  -2  -4   4   20.10    2.70
  -2  -4   4   16.60    2.70
  -2  -4   4   18.90    4.00
  -2  -4   4   15.80    3.20
  -2  -4   4   16.40    3.00
  -2  -4   4   20.70    3.00
  -2  -4   4   14.40    3.00
  -2  -4   4   13.50    2.60
  -2  -4   4   15.10    2.90
   1   4  -4   -0.20    2.30
   1   4  -4   -1.20    1.40
   1   4  -4    0.30    1.40
   1   4  -4   -1.60    2.00
   1   4  -4   -0.30    1.00
  -1  -4   4    0.10    1.30
  -1  -4   4   -0.10    1.90
  -1  -4   4   -0.40    1.60
  -1  -4   4   -1.70    1.40
  -1  -4   4    0.00    2.00
  -1  -4   4    1.00    1.60
  -1  -4   4    1.50    2.50
  -1  -4   4    2.10    1.70
   0   4  -4    8.00    2.60
   0   4  -4    4.50    1.70
   0   4  -4    4.20    1.60
   0   4  -4    4.20    1.00
   0  -4   4    2.60    1.50
   0  -4   4    5.00    1.80
   0  -4   4    7.20    2.30
  -1   4  -4   59.19    3.50
  -1   4  -4   57.89    3.00
  -1   4  -4   54.89    4.10
  -1   4  -4   56.89    3.50
  -1   4  -4   59.09    4.70
  -1   4  -4   61.49    3.90
  -1   4  -4   63.79    4.10
   1  -4   4   58.99    4.60
   1  -4   4   54.99    4.50
   1  -4   4   60.49    3.90
   1  -4   4   57.89    4.50
   1  -4   4   47.30    4.50
   1  -4   4   55.39    4.80
  -2   4  -4  195.28    9.70
  -2   4  -4  209.18    8.90
  -2   4  -4  211.58    9.50
  -2   4  -4  181.38    9.00
  -2   4  -4  214.58    8.90
  -2   4  -4  194.58    8.10
  -2   4  -4  212.68    8.20
   2  -4   4  204.58    9.50
   2  -4   4  198.38    9.30
   2  -4   4  198.78    9.80
   2  -4   4  198.48    9.70
   2  -4   4  199.78   10.00
   2  -4   4  194.08    8.80
   2  -4   4  196.68    9.30
   2  -4   4  194.98    8.90
   2  -4   4  214.18    9.20
   2  -4   4  212.28    9.80
   2  -4   4  193.18    9.10
  -3   4  -4   61.59    4.50
  -3   4  -4   56.29    3.20
  -3   4  -4   57.79    5.00
  -3   4  -4   57.59    4.20
  -3   4  -4   55.29    3.30
  -3   4  -4   51.79    3.90
  -3   4  -4   56.99    4.00
   3  -4   4   56.09    4.00
   3  -4   4   52.49    4.70
   3  -4   4   58.89    4.60
   3  -4   4   53.79    4.10
   3  -4   4   56.59    5.10
   3  -4   4   58.29    5.30
   3  -4   4   53.49    4.40
   3  -4   4   55.39    4.50
  -4   4  -4   72.89    4.80
  -4   4  -4   72.19    4.00
  -4   4  -4   65.49    5.20
  -4   4  -4   67.79    4.20
  -4   4  -4   68.89    4.90
  -4   4  -4   64.59    4.90
  -4   4  -4   66.59    4.90
  -4   4  -4   71.89    5.40
   4  -4   4   73.39    4.80
   4  -4   4   74.19    6.00
   4  -4   4   71.59    5.30
   4  -4   4   74.79    5.30
   4  -4   4   70.69    5.30
   4  -4   4   72.19    6.50
   4  -4   4   69.59    5.40
  -5   4  -4   43.00    4.50
  -5   4  -4   38.10    4.10
  -5   4  -4   33.40    4.10
  -5   4  -4   38.10    4.20
  -5   4  -4   35.20    3.60
  -5   4  -4   35.30    2.90
  -5   4  -4   45.50    4.30
   5  -4   4   37.20    4.80
   5  -4   4   38.90    4.00
   5  -4   4   32.60    5.00
   5  -4   4   39.50    4.20
   5  -4   4   28.20    3.30
   5  -4   4   34.50    4.00
   5  -4   4   46.70    4.20
  -6   4  -4   20.70    3.10
  -6   4  -4   22.20    3.40
  -6   4  -4   20.30    3.30
  -6   4  -4   27.40    3.20
   6  -4   4   15.50    3.00
   6  -4   4   27.20    4.40
   6  -4   4   21.80    2.80
   6  -4   4   24.90    3.20
  -7   4  -4    5.90    2.00
  -7   4  -4    6.70    2.10
   7  -4   4    5.80    2.10
   7  -4   4    4.50    2.40
   7  -4   4    5.50    2.80
   7   3  -4   10.10    2.50
   7   3  -4    5.10    2.10
  -7  -3   4    0.20    1.90
  -7  -3   4    3.80    2.10
  -7  -3   4    3.20    1.70
  -7  -3   4    3.20    2.20
   6   3  -4   61.09    4.40
   6   3  -4   66.29    6.40
   6   3  -4   64.69    5.00
  -6  -3   4   67.59    5.70
  -6  -3   4   69.99    5.20
  -6  -3   4   61.99    5.70
  -6  -3   4   69.79    5.30
   5   3  -4   10.30    3.00
   5   3  -4   10.10    2.60
   5   3  -4   12.30    2.10
   5   3  -4   11.60    3.70
  -5  -3   4   11.00    3.10
  -5  -3   4   13.10    2.70
  -5  -3   4   15.80    3.20
  -5  -3   4   19.10    3.90
  -5  -3   4   11.80    2.90
   4   3  -4  322.87   14.10
   4   3  -4  312.97   13.20
   4   3  -4  311.87   12.20
   4   3  -4  308.07   13.40
   4   3  -4  308.37   12.30
   4   3  -4  302.37   13.00
  -4  -3   4  322.77   13.40
  -4  -3   4  310.07   13.80
  -4  -3   4  299.77   13.50
  -4  -3   4  300.87   12.90
  -4  -3   4  307.27   13.50
  -4  -3   4  303.17   12.80
  -4  -3   4  297.37   13.30
  -4  -3   4  301.47   14.80
   3   3  -4   28.20    2.80
   3   3  -4   32.30    2.60
   3   3  -4   28.60    3.20
   3   3  -4   39.10    4.10
   3   3  -4   23.50    3.40
   3   3  -4   26.60    3.00
   3   3  -4   30.60    2.40
  -3  -3   4   34.40    3.60
  -3  -3   4   29.80    3.10
  -3  -3   4   26.90    3.10
  -3  -3   4   27.70    3.50
  -3  -3   4   27.80    2.70
  -3  -3   4   27.50    3.00
  -3  -3   4   27.40    2.90
  -3  -3   4   26.10    2.50
  -3  -3   4   27.70    4.70
   2   3  -4  250.87   11.30
   2   3  -4  244.48   10.50
   2   3  -4  237.48   10.80
   2   3  -4  249.28    9.70
   2   3  -4  254.37   10.60
  -2  -3   4  251.57   10.50
  -2  -3   4  246.38   10.80
   1   3  -4  423.76   16.30
   1   3  -4  411.16   15.40
   1   3  -4  382.56   16.00
   1   3  -4  390.26   16.20
   1   3  -4  430.76   16.90
  -1  -3   4  428.96   16.40
  -1  -3   4  430.06   16.30
  -1  -3   4  428.86   16.00
  -1  -3   4  366.36   16.60
   0   3  -4  947.91   34.80
   0   3  -4  944.01   34.20
   0   3  -4  926.51   35.30
   0   3  -4  870.51   34.10
   0   3  -4  942.71   34.70
   0   3  -4  903.01   33.90
   0   3  -4  938.21   34.70
   0  -3   4  940.81   34.80
   0  -3   4  930.41   35.40
   0  -3   4  932.81   34.70
   0  -3   4  883.81   34.30
  -1   3  -4  135.19    5.70
  -1   3  -4  135.49    6.50
  -1   3  -4  141.09    6.10
  -1   3  -4  137.19    6.80
  -1   3  -4  149.09    6.60
  -1   3  -4  132.09    6.00
   1  -3   4  131.79    6.20
   1  -3   4  142.29    6.10
   1  -3   4  140.99    6.50
   1  -3   4  139.19    7.10
  -2   3  -4    0.00    1.40
  -2   3  -4    1.20    1.80
  -2   3  -4   -1.10    1.30
  -2   3  -4   -0.70    1.50
  -2   3  -4   -0.10    1.30
  -2   3  -4   -1.00    0.80
   2  -3   4    1.00    1.50
   2  -3   4    0.00    1.70
   2  -3   4   -0.70    1.20
  -3   3  -4  354.36   13.60
  -3   3  -4  369.36   14.70
  -3   3  -4  373.36   14.30
  -3   3  -4  339.37   14.20
  -3   3  -4  373.76   14.40
  -3   3  -4  339.67   13.50
  -3   3  -4  365.06   15.30
   3  -3   4  348.27   14.30
   3  -3   4  319.17   14.60
   3  -3   4  358.06   13.90
   3  -3   4  358.46   14.80
   3  -3   4  357.76   14.50
   3  -3   4  340.47   14.70
   3  -3   4  357.66   15.00
   3  -3   4  328.67   14.50
  -4   3  -4    9.20    2.40
  -4   3  -4   10.50    2.60
  -4   3  -4   17.40    3.50
  -4   3  -4   15.00    2.40
  -4   3  -4   10.70    1.60
  -4   3  -4   12.80    1.90
  -4   3  -4   16.00    2.70
  -4   3  -4    8.60    2.10
  -4   3  -4    9.30    2.60
   4  -3   4    9.00    2.30
   4  -3   4    9.20    3.10
   4  -3   4    7.00    2.50
   4  -3   4   10.50    2.50
   4  -3   4   10.60    2.50
   4  -3   4   11.90    2.50
  -5   3  -4   20.90    3.10
  -5   3  -4   25.60    3.90
  -5   3  -4   24.60    3.20
  -5   3  -4   20.70    2.40
  -5   3  -4   22.70    3.30
  -5   3  -4   17.00    2.90
  -5   3  -4   21.20    3.50
  -5   3  -4   21.60    3.50
   5  -3   4   26.80    3.50
   5  -3   4   21.60    3.10
   5  -3   4   20.40    4.10
   5  -3   4   21.10    3.30
   5  -3   4   24.00    3.60
  -6   3  -4  174.68    9.00
  -6   3  -4  182.38    8.80
  -6   3  -4  154.88    8.70
  -6   3  -4  173.68    8.40
  -6   3  -4  171.88    9.10
   6  -3   4  189.58    9.30
   6  -3   4  175.88    8.70
   6  -3   4  174.48    9.00
  -7   3  -4    4.10    2.30
  -7   3  -4    1.30    2.20
  -7   3  -4    3.50    2.60
   7  -3   4    1.40    2.20
   7  -3   4    1.40    2.00
   7  -3   4    1.00    2.60
   7  -3   4    1.90    2.00
   7   2  -4    3.10    1.70
   7   2  -4    1.50    1.90
   7   2  -4    1.40    2.10
  -7  -2   4    4.90    1.90
  -7  -2   4    3.10    2.30
  -7  -2   4    1.40    2.00
  -7  -2   4   -0.50    2.40
   6   2  -4  106.99    6.40
   6   2  -4   98.99    8.00
   6   2  -4  104.09    7.60
   6   2  -4  107.09    6.10
  -6  -2   4   99.49    6.40
  -6  -2   4  110.69    6.60
  -6  -2   4  113.49    7.40
   5   2  -4   34.50    3.60
   5   2  -4   33.60    3.50
   5   2  -4   32.10    3.60
   5   2  -4   29.20    3.50
   5   2  -4   33.80    4.50
  -5  -2   4   26.60    3.10
  -5  -2   4   34.90    3.50
  -5  -2   4   30.20    3.80
  -5  -2   4   31.50    3.70
  -5  -2   4   38.60    3.90
  -5  -2   4   44.50    5.20
   4   2  -4    6.30    1.80
   4   2  -4    8.40    2.20
   4   2  -4    9.60    2.50
   4   2  -4    9.10    2.20
   4   2  -4    9.90    1.70
   4   2  -4   10.90    2.90
   4   2  -4    7.10    2.60
  -4  -2   4   10.50    2.50
  -4  -2   4   11.90    2.60
  -4  -2   4    9.50    2.40
  -4  -2   4    8.90    2.30
  -4  -2   4    8.10    2.90
  -4  -2   4   11.10    2.30
  -4  -2   4   12.40    2.60
  -4  -2   4   13.00    2.80
   3   2  -4  356.36   15.80
   3   2  -4  364.76   15.10
   3   2  -4  379.46   16.00
   3   2  -4  389.36   15.30
   3   2  -4  368.46   14.50
   3   2  -4  383.56   15.40
   3   2  -4  382.96   14.60
  -3  -2   4  394.66   15.10
  -3  -2   4  378.76   15.60
  -3  -2   4  448.16   16.60
  -3  -2   4  376.96   15.10
  -3  -2   4  377.46   15.50
  -3  -2   4  351.56   16.40
  -3  -2   4  360.46   15.00
  -3  -2   4  406.26   15.50
  -3  -2   4  376.46   15.80
  -3  -2   4  397.26   15.70
  -3  -2   4  359.46   15.30
   2   2  -4   92.79    4.80
   2   2  -4   99.69    5.70
   2   2  -4  105.69    5.60
   2   2  -4  102.59    5.20
   2   2  -4  102.69    4.60
   2   2  -4  114.29    5.30
  -2  -2   4  104.69    5.20
  -2  -2   4  101.79    5.30
  -2  -2   4  105.29    4.80
  -2  -2   4  108.39    5.10
  -2  -2   4  100.89    4.80
   1   2  -4  293.67   11.70
   1   2  -4  293.87   12.00
   1   2  -4  278.07   11.60
   1   2  -4  316.57   11.90
   1   2  -4  311.67   12.40
  -1  -2   4  287.07   11.20
  -1  -2   4  305.27   12.00
  -1  -2   4  298.87   11.80
  -1  -2   4  283.27   11.20
  -1  -2   4  274.47   12.00
  -1  -2   4  295.57   11.50
  -1  -2   4  285.67   11.60
   0   2  -4  721.23   27.00
   0   2  -4  660.63   26.40
   0   2  -4  733.13   26.80
   0   2  -4  740.03   26.80
   0   2  -4  714.23   26.40
   0   2  -4  726.13   27.20
   0   2  -4  724.33   26.90
   0  -2   4  705.63   26.50
   0  -2   4  691.23   26.50
   0  -2   4  745.13   27.30
   0  -2   4  690.03   26.80
   0  -2   4  695.03   26.80
  -1   2  -4  375.26   15.20
  -1   2  -4  407.76   14.90
  -1   2  -4  383.96   14.80
  -1   2  -4  395.96   15.30
  -1   2  -4  400.96   15.50
   1  -2   4  401.66   14.90
   1  -2   4  391.86   15.90
   1  -2   4  365.46   15.00
   1  -2   4  391.26   15.10
   1  -2   4  369.96   15.60
  -2   2  -4  246.18    9.90
  -2   2  -4  226.58   10.10
  -2   2  -4  225.38    9.30
  -2   2  -4  236.08   10.10
  -2   2  -4  241.58    9.80
  -2   2  -4  244.98   10.60
   2  -2   4  252.37   10.00
   2  -2   4  248.28   10.80
   2  -2   4  239.78   10.80
   2  -2   4  258.97    9.70
  -3   2  -4   18.60    2.30
  -3   2  -4   19.20    2.20
  -3   2  -4   16.50    2.10
  -3   2  -4   20.20    2.50
  -3   2  -4   18.80    1.70
  -3   2  -4   19.00    2.80
   3  -2   4   28.20    3.60
   3  -2   4   17.50    2.80
   3  -2   4   18.40    2.10
   3  -2   4   20.30    2.90
   3  -2   4   18.30    2.00
  -4   2  -4  140.49    7.50
  -4   2  -4  149.99    7.90
  -4   2  -4  154.38    7.00
  -4   2  -4  142.59    6.90
  -4   2  -4  146.09    6.20
  -4   2  -4  147.19    7.10
  -4   2  -4  140.89    6.30
  -4   2  -4  147.59    6.90
  -4   2  -4  144.99    7.00
   4  -2   4  150.18    7.30
   4  -2   4  148.79    7.30
   4  -2   4  137.49    7.50
   4  -2   4  139.09    7.20
  -5   2  -4   33.80    3.90
  -5   2  -4   47.50    3.80
  -5   2  -4   31.90    3.60
  -5   2  -4   33.60    2.80
  -5   2  -4   38.90    4.00
  -5   2  -4   37.50    3.60
  -5   2  -4   35.30    3.90
   5  -2   4   34.30    3.80
   5  -2   4   40.60    4.30
   5  -2   4   34.50    3.60
  -6   2  -4  142.09    7.60
  -6   2  -4  123.49    7.70
  -6   2  -4  118.49    7.20
  -6   2  -4  142.19    7.90
  -6   2  -4  129.59    6.90
   6  -2   4  146.19    7.80
   6  -2   4  140.69    7.70
   6  -2   4  132.59    7.70
  -7   2  -4  106.29    6.20
  -7   2  -4  101.39    6.30
  -7   2  -4  110.29    6.30
   7  -2   4   98.19    6.80
   7  -2   4   94.59    6.10
   7  -2   4  103.99    6.20
   7  -2   4  104.39    6.20
   8  -2   4    2.10    2.30
   7   1  -4   49.40    4.40
   7   1  -4   44.90    3.90
   7   1  -4   49.30    3.80
  -7  -1   4   56.69    4.70
  -7  -1   4   45.50    3.70
   6   1  -4    0.80    2.30
   6   1  -4    0.00    3.10
   6   1  -4   -0.40    2.60
   6   1  -4   -2.70    2.40
   6   1  -4    0.50    1.90
  -6  -1   4    0.20    2.00
  -6  -1   4    0.00    3.30
  -6  -1   4    4.10    2.50
  -6  -1   4    1.10    2.50
   5   1  -4    3.90    3.30
   5   1  -4   -1.70    2.40
   5   1  -4    1.20    2.30
   5   1  -4    2.40    2.30
   5   1  -4    5.40    2.30
   5   1  -4   -3.10    2.60
  -5  -1   4   -2.70    2.90
  -5  -1   4    3.90    2.60
  -5  -1   4    1.60    2.50
  -5  -1   4    0.60    2.00
  -5  -1   4    1.20    2.00
  -5  -1   4    3.20    2.00
  -5  -1   4    5.30    2.60
   4   1  -4    0.10    1.70
   4   1  -4    1.10    1.60
   4   1  -4    0.80    1.80
   4   1  -4    4.80    2.70
   4   1  -4   -0.80    2.00
   4   1  -4    1.60    1.80
   4   1  -4    5.00    2.70
  -4  -1   4    3.40    1.70
  -4  -1   4    1.70    1.80
  -4  -1   4    0.70    1.70
  -4  -1   4   -2.30    2.30
  -4  -1   4    2.80    2.10
  -4  -1   4    0.60    2.00
  -4  -1   4    1.30    1.70
  -4  -1   4    4.30    2.10
   3   1  -4  157.08    7.20
   3   1  -4  155.58    7.10
   3   1  -4  151.28    7.80
  -3  -1   4  157.68    7.20
  -3  -1   4  159.28    7.00
  -3  -1   4  156.28    7.00
  -3  -1   4  151.38    7.40
  -3  -1   4  154.28    7.30
  -3  -1   4  164.58    8.00
   2   1  -4    3.30    1.90
   2   1  -4    2.70    1.70
   2   1  -4    3.70    1.40
   2   1  -4    6.90    1.80
   2   1  -4    5.40    1.50
  -2  -1   4    4.50    1.40
  -2  -1   4    3.50    1.60
  -2  -1   4    5.10    1.40
  -2  -1   4    2.60    1.20
  -2  -1   4    3.10    1.20
   1   1  -4 1713.63   63.79
   1   1  -4 1713.33   64.09
   1   1  -4 1708.63   63.39
   1   1  -4 1822.32   64.19
   1   1  -4 1821.32   63.79
   1   1  -4 1797.72   63.79
  -1  -1   4 1683.93   63.69
  -1  -1   4 1793.02   63.79
  -1  -1   4 1758.32   63.49
  -1  -1   4 1652.73   63.49
  -1  -1   4 1675.73   63.69
  -1  -1   4 1709.93   63.89
   0   1  -4   15.40    1.80
   0   1  -4   13.40    1.40
   0   1  -4   13.80    1.80
   0   1  -4   14.20    2.00
   0   1  -4   14.60    1.40
   0   1  -4   14.00    1.60
   0   1  -4   15.50    1.70
   0  -1   4   18.60    2.30
   0  -1   4   17.30    1.90
   0  -1   4   20.80    1.70
   0  -1   4   15.40    1.70
   0  -1   4   24.40    1.70
   0  -1   4   16.50    1.70
   0  -1   4   17.50    1.70
   0  -1   4   13.90    1.20
   0  -1   4   17.80    1.50
  -1   1  -4  185.88    7.70
  -1   1  -4  189.28    7.80
  -1   1  -4  172.08    7.50
  -1   1  -4  174.68    7.40
  -1   1  -4  179.28    7.20
  -1   1  -4  181.48    7.30
   1  -1   4  190.38    7.90
   1  -1   4  169.78    6.80
   1  -1   4  180.98    7.40
   1  -1   4  188.78    8.10
   1  -1   4  184.98    7.20
   1  -1   4  175.38    7.40
   1  -1   4  169.78    7.40
  -2   1  -4  526.85   20.70
  -2   1  -4  560.04   20.80
  -2   1  -4  533.75   20.90
  -2   1  -4  551.14   21.30
  -2   1  -4  547.95   21.20
   2  -1   4  544.25   21.60
   2  -1   4  514.15   20.70
   2  -1   4  554.04   20.90
   2  -1   4  581.04   20.70
   2  -1   4  584.94   21.70
  -3   1  -4  195.88    8.40
  -3   1  -4  204.68    8.30
  -3   1  -4  204.28    8.40
  -3   1  -4  200.78    8.80
  -3   1  -4  200.88    9.10
   3  -1   4  197.68    9.10
   3  -1   4  196.58    8.40
   3  -1   4  203.78    8.10
   3  -1   4  194.18   10.00
  -4   1  -4    9.10    1.70
  -4   1  -4    9.30    1.80
  -4   1  -4   12.80    2.40
  -4   1  -4   12.40    2.10
  -4   1  -4   10.90    2.00
  -4   1  -4    9.80    2.50
   4  -1   4   12.50    2.60
   4  -1   4   10.60    1.70
   4  -1   4   10.40    2.30
   4  -1   4   10.60    1.90
  -5   1  -4    1.70    2.20
  -5   1  -4   -2.60    1.50
  -5   1  -4    0.90    2.20
  -5   1  -4   -1.30    1.80
  -5   1  -4   -0.80    2.10
  -5   1  -4    0.20    2.00
  -5   1  -4   -2.70    1.70
  -5   1  -4    2.40    1.80
   5  -1   4   -2.20    1.60
   5  -1   4   -1.00    1.90
   5  -1   4   -0.40    1.90
   5  -1   4    1.60    1.90
  -6   1  -4    0.00    2.50
  -6   1  -4   -3.30    2.30
  -6   1  -4    1.10    2.60
  -6   1  -4   -0.60    2.40
  -6   1  -4    1.80    2.90
   6  -1   4    3.40    2.40
   6  -1   4    0.60    2.50
   6  -1   4    2.30    2.60
   6  -1   4    0.50    2.10
  -7   1  -4   -0.60    2.10
  -7   1  -4    1.40    2.70
  -7   1  -4   -0.60    2.60
  -7   1  -4    0.00    2.40
  -7   1  -4    0.60    2.80
   7  -1   4    4.40    2.60
   7  -1   4    1.50    2.50
   7  -1   4   -1.00    2.10
  -8   1  -4    4.70    2.30
  -8   1  -4    9.70    2.30
  -8   1  -4    7.20    2.30
  -8   1  -4    6.80    2.50
   8  -1   4    4.80    1.90
   8  -1   4    7.90    2.40
   7   0  -4    6.90    2.30
   7   0  -4    6.40    2.20
  -7   0   4    6.60    2.30
  -7   0   4    1.50    2.30
   6   0  -4   31.60    3.70
   6   0  -4   25.50    4.00
   6   0  -4   25.30    3.50
   6   0  -4   25.10    3.20
   6   0  -4   21.60    3.40
  -6   0   4   30.00    4.60
  -6   0   4   26.40    3.30
  -6   0   4   25.40    3.60
  -6   0   4   31.50    3.60
   5   0  -4  264.97   11.40
   5   0  -4  244.88   11.90
   5   0  -4  259.77   12.00
   5   0  -4  248.28   11.20
   5   0  -4  239.38   11.30
   5   0  -4  263.67   11.20
  -5   0   4  265.37   11.30
  -5   0   4  253.97   11.70
  -5   0   4  241.68   11.50
  -5   0   4  239.98   11.00
  -5   0   4  250.27   12.50
   4   0  -4   34.80    3.90
   4   0  -4   29.20    3.10
   4   0  -4   20.50    3.20
   4   0  -4   20.90    3.40
   4   0  -4   20.70    2.70
   4   0  -4   24.90    2.80
   4   0  -4   22.40    2.80
  -4   0   4   31.90    3.10
  -4   0   4   34.30    4.30
  -4   0   4   28.60    2.90
  -4   0   4   23.60    2.60
  -4   0   4   27.40    3.40
  -4   0   4   27.30    3.50
  -4   0   4   28.50    3.30
  -4   0   4   36.50    4.40
   3   0  -4  121.19    5.90
   3   0  -4  116.89    6.40
   3   0  -4  121.49    5.80
   3   0  -4  126.29    5.80
  -3   0   4  118.59    6.10
  -3   0   4  119.39    5.60
  -3   0   4  118.29    5.80
  -3   0   4  127.39    5.80
  -3   0   4  118.99    5.70
   2   0  -4  180.48    7.60
   2   0  -4  185.28    8.10
   2   0  -4  191.68    7.70
   2   0  -4  177.28    7.70
  -2   0   4  186.28    7.60
  -2   0   4  185.48    7.60
  -2   0   4  183.78    8.00
  -2   0   4  180.08    7.70
  -2   0   4  173.98    7.70
   1   0  -4   87.59    4.60
   1   0  -4   98.09    4.60
   1   0  -4   89.59    4.40
   1   0  -4   88.69    4.10
   1   0  -4   97.09    4.30
   1   0  -4   91.69    4.20
  -1   0   4   90.89    4.20
  -1   0   4   93.89    4.50
  -1   0   4   95.99    4.60
  -1   0   4   94.79    4.30
  -1   0   4   95.29    4.50
  -1   0   4   97.09    4.10
   0   0  -4 1125.49   43.00
   0   0  -4 1171.28   43.30
   0   0  -4 1227.48   43.50
   0   0  -4 1221.98   43.10
   0   0  -4 1150.48   43.20
   0   0  -4 1143.49   43.50
   0   0  -4 1184.98   43.30
   0   0   4 1182.18   43.00
   0   0   4 1213.08   43.20
   0   0   4 1231.18   43.60
   0   0   4 1164.48   43.10
   0   0   4 1139.59   43.10
   0   0   4 1115.39   43.00
   0   0   4 1190.88   43.40
   0   0   4 1150.18   43.30
  -1   0  -4   62.19    3.00
  -1   0  -4   58.69    2.80
  -1   0  -4   65.89    3.60
  -1   0  -4   62.89    3.30
  -1   0  -4   57.69    2.80
  -1   0  -4   66.19    3.10
  -1   0  -4   61.59    3.40
  -1   0  -4   62.59    3.00
   1   0   4   70.49    3.50
   1   0   4   59.99    3.10
   1   0   4   61.79    3.20
   1   0   4   65.59    2.90
   1   0   4   63.99    3.00
   1   0   4   63.09    3.60
  -2   0  -4    1.90    1.20
  -2   0  -4    1.50    1.00
  -2   0  -4    1.10    1.40
  -2   0  -4    1.70    1.10
  -2   0  -4    1.70    1.10
   2   0   4    2.30    1.60
   2   0   4    2.60    1.00
   2   0   4    1.40    1.00
   2   0   4    3.70    1.10
  -3   0  -4    0.60    1.00
  -3   0  -4    1.10    1.10
  -3   0  -4    1.00    1.40
  -3   0  -4    3.50    1.40
  -3   0  -4    1.00    1.70
   3   0   4    2.00    1.30
   3   0   4    1.90    1.10
   3   0   4    1.10    1.70
   3   0   4    1.90    1.10
   3   0   4    1.60    1.10
  -4   0  -4  468.05   18.60
  -4   0  -4  477.95   17.90
  -4   0  -4  462.35   17.80
   4   0   4  446.86   17.70
   4   0   4  458.15   18.00
   4   0   4  467.75   19.00
  -5   0  -4  189.28    8.60
  -5   0  -4  185.28    9.10
  -5   0  -4  185.98    9.10
  -5   0  -4  188.58    8.80
  -5   0  -4  180.08    8.40
  -5   0  -4  198.48    8.90
  -5   0  -4  180.18    8.20
  -5   0  -4  188.78    8.10
   5   0   4  183.98    8.40
   5   0   4  194.38    8.50
   5   0   4  184.38    8.90
   5   0   4  183.28    9.50
   5   0   4  202.28    9.00
   5   0   4  178.28    8.00
   5   0   4  191.28    9.00
  -6   0  -4   37.80    4.50
  -6   0  -4   34.90    4.40
  -6   0  -4   34.90    4.00
  -6   0  -4   47.00    4.50
  -6   0  -4   37.40    4.10
   6   0   4   40.50    3.60
   6   0   4   30.00    3.80
   6   0   4   37.00    3.80
   6   0   4   37.10    4.40
  -7   0  -4  305.67   13.80
  -7   0  -4  301.07   13.50
  -7   0  -4  312.27   13.50
  -7   0  -4  289.07   13.80
  -7   0  -4  313.67   13.40
  -7   0  -4  284.77   12.80
   7   0   4  299.97   13.60
   7   0   4  286.47   12.70
   7   0   4  315.07   13.40
  -8   0  -4    2.50    2.40
  -8   0  -4    0.40    2.10
  -8   0  -4    2.70    2.30
   8   0   4    4.00    2.10
   8   0   4    2.30    2.20
   7  -1  -4    0.40    2.00
   7  -1  -4    2.60    1.80
  -7   1   4    1.20    1.70
   6  -1  -4   50.59    4.90
   6  -1  -4   39.50    3.90
   6  -1  -4   61.39    5.80
  -6   1   4   53.79    4.60
  -6   1   4   57.59    8.40
  -6   1   4   50.69    4.70
   5  -1  -4  104.19    6.00
   5  -1  -4  120.99    6.70
   5  -1  -4  109.79    7.00
   5  -1  -4   96.39    6.00
   5  -1  -4  105.59    6.90
  -5   1   4  112.29    6.90
  -5   1   4  112.89    6.90
  -5   1   4  108.39    5.90
  -5   1   4  107.49    6.00
   4  -1  -4  104.39    5.70
   4  -1  -4   98.69    6.40
   4  -1  -4   89.79    6.40
   4  -1  -4  105.79    5.80
   4  -1  -4  106.89    5.80
   4  -1  -4   81.29    7.00
   4  -1  -4  104.19    6.10
  -4   1   4  107.19    6.40
  -4   1   4  102.59    5.90
  -4   1   4   98.99    6.10
  -4   1   4  111.39    5.70
  -4   1   4   97.99    7.00
  -4   1   4  107.89    5.60
   3  -1  -4  382.26   16.00
   3  -1  -4  389.86   15.40
   3  -1  -4  402.26   15.40
   3  -1  -4  360.56   15.40
  -3   1   4  343.67   15.80
  -3   1   4  399.96   15.30
  -3   1   4  390.56   15.80
  -3   1   4  385.16   15.20
  -3   1   4  403.16   16.00
  -3   1   4  382.06   15.70
  -3   1   4  399.66   15.40
   2  -1  -4   67.49    4.00
   2  -1  -4   66.19    4.10
   2  -1  -4   65.09    3.60
   2  -1  -4   66.39    3.50
  -2   1   4   65.69    4.00
  -2   1   4   62.99    3.60
  -2   1   4   75.09    3.70
  -2   1   4   62.59    3.40
  -2   1   4   72.79    3.70
  -2   1   4   69.59    4.20
  -2   1   4   69.29    3.60
   1  -1  -4  252.47   10.10
   1  -1  -4  235.98   10.00
   1  -1  -4  262.07    9.90
   1  -1  -4  260.37   10.20
   1  -1  -4  240.18    9.90
   1  -1  -4  246.38    9.80
  -1   1   4  265.67    9.90
  -1   1   4  268.87   10.30
  -1   1   4  247.08    9.90
  -1   1   4  255.77   10.00
  -1   1   4  266.57   10.30
  -1   1   4  231.28   10.00
   0  -1  -4   96.69    4.00
   0  -1  -4  100.19    4.30
   0  -1  -4   86.59    4.40
   0  -1  -4   97.29    4.30
   0  -1  -4  100.39    4.30
   0  -1  -4   97.99    4.50
   0   1   4   93.29    4.50
   0   1   4  106.39    4.60
   0   1   4   95.39    4.20
   0   1   4  103.79    4.60
   0   1   4   93.29    4.00
   0   1   4   99.79    4.50
   0   1   4   92.29    4.40
   0   1   4   99.19    4.30
  -1  -1  -4    4.70    1.10
  -1  -1  -4    4.80    1.30
  -1  -1  -4    2.60    1.10
  -1  -1  -4    5.50    0.50
  -1  -1  -4    4.70    1.10
  -1  -1  -4    5.60    1.60
   1   1   4    4.70    1.20
   1   1   4    6.30    1.40
   1   1   4    5.40    1.30
   1   1   4    5.50    1.40
   1   1   4    5.80    1.30
   1   1   4    4.50    1.10
   1   1   4    4.70    1.00
  -2  -1  -4  452.75   17.90
  -2  -1  -4  517.45   18.50
  -2  -1  -4  431.76   18.10
  -2  -1  -4  470.55   17.60
  -2  -1  -4  483.65   17.90
  -2  -1  -4  496.05   17.90
   2   1   4  466.25   18.00
   2   1   4  476.65   18.60
   2   1   4  475.55   18.10
   2   1   4  481.45   17.80
   2   1   4  464.45   18.10
  -3  -1  -4  548.45   20.70
  -3  -1  -4  546.15   20.10
  -3  -1  -4  518.25   19.80
  -3  -1  -4  512.85   20.00
  -3  -1  -4  502.55   20.20
   3   1   4  516.95   20.40
   3   1   4  555.94   20.10
   3   1   4  531.65   20.30
   3   1   4  548.05   21.10
  -4  -1  -4   66.39    3.70
  -4  -1  -4   72.59    4.20
  -4  -1  -4   65.59    4.30
  -4  -1  -4   69.99    4.10
  -4  -1  -4   66.89    3.60
   4   1   4   71.39    4.80
   4   1   4   64.49    3.30
   4   1   4   71.49    3.60
   4   1   4   73.39    4.00
  -5  -1  -4  324.67   13.70
  -5  -1  -4  330.87   14.10
  -5  -1  -4  352.26   14.20
  -5  -1  -4  344.47   14.00
  -5  -1  -4  304.37   14.00
  -5  -1  -4  345.27   14.60
  -5  -1  -4  341.17   14.50
   5   1   4  364.36   14.00
   5   1   4  327.47   14.90
   5   1   4  351.76   13.50
   5   1   4  324.37   13.00
   5   1   4  342.07   13.90
   5   1   4  338.47   14.10
   5   1   4  345.57   14.20
  -6  -1  -4    2.20    2.40
  -6  -1  -4    0.00    2.20
  -6  -1  -4   -0.40    2.30
  -6  -1  -4    1.70    2.40
  -6  -1  -4    1.90    2.50
   6   1   4    0.10    2.20
   6   1   4    0.20    1.90
   6   1   4   -1.30    2.10
   6   1   4   -1.40    1.90
  -7  -1  -4   24.90    4.00
  -7  -1  -4   16.20    3.30
  -7  -1  -4   17.20    3.20
  -7  -1  -4   19.80    3.80
  -7  -1  -4   16.20    3.20
   7   1   4   17.40    2.70
   7   1   4   23.50    3.40
   7   1   4   19.70    3.40
   7   1   4   17.10    2.90
  -8  -1  -4   34.20    3.60
  -8  -1  -4   44.90    4.40
  -8  -1  -4   54.29    4.30
  -8  -1  -4   42.60    4.10
   8   1   4   56.99    4.60
   8   1   4   39.70    3.70
   8   1   4   45.90    3.60
   8   1   4   40.40    3.40
   6  -2  -4   15.20    3.80
   6  -2  -4   19.60    3.10
   6  -2  -4   18.20    3.20
  -6   2   4   16.70    3.20
  -6   2   4   18.30    3.30
   5  -2  -4   13.70    2.70
   5  -2  -4   25.60    5.20
   5  -2  -4   11.80    2.90
   5  -2  -4   21.80    3.70
  -5   2   4   10.80    3.10
  -5   2   4   13.90    3.20
  -5   2   4   13.30    2.50
  -5   2   4   11.70    4.00
   4  -2  -4  134.79    7.00
   4  -2  -4  136.39    7.40
   4  -2  -4  134.49    6.90
   4  -2  -4  142.99    7.10
   4  -2  -4  140.99    6.90
   4  -2  -4  127.99    7.50
  -4   2   4  132.99    7.50
  -4   2   4  135.29    6.30
  -4   2   4  142.59    6.90
  -4   2   4  138.09    6.80
  -4   2   4  121.89    7.20
   3  -2  -4   35.10    3.20
   3  -2  -4   36.00    3.10
   3  -2  -4   38.40    3.40
   3  -2  -4   40.00    3.90
   3  -2  -4   43.40    4.20
   3  -2  -4   38.70    4.00
   3  -2  -4   35.00    3.20
   3  -2  -4   36.10    2.90
   3  -2  -4   31.30    3.00
  -3   2   4   34.10    3.50
  -3   2   4   37.70    3.30
  -3   2   4   38.80    3.10
  -3   2   4   36.00    3.10
  -3   2   4   41.70    2.90
  -3   2   4   49.00    4.00
  -3   2   4   38.00    2.80
   2  -2  -4  250.37   10.50
   2  -2  -4  250.67   10.60
   2  -2  -4  245.68   11.40
   2  -2  -4  243.88   10.10
   2  -2  -4  247.38   10.10
  -2   2   4  249.28    9.80
  -2   2   4  248.38   10.60
  -2   2   4  254.47   10.20
  -2   2   4  256.87   10.60
  -2   2   4  253.47   10.10
  -2   2   4  231.08    9.90
   1  -2  -4  147.09    6.50
   1  -2  -4  149.49    6.50
   1  -2  -4  138.79    6.50
   1  -2  -4  154.48    7.20
   1  -2  -4  150.78    6.10
   1  -2  -4  143.79    6.10
  -1   2   4  148.89    6.30
  -1   2   4  147.49    6.30
  -1   2   4  140.19    6.10
  -1   2   4  152.68    6.60
  -1   2   4  150.48    6.70
  -1   2   4  130.59    6.10
   0  -2  -4  278.97   10.70
   0  -2  -4  278.57   10.70
   0  -2  -4  280.07   10.50
   0  -2  -4  255.17   10.20
   0  -2  -4  278.27   10.80
   0   2   4  278.47   10.50
   0   2   4  254.57   10.10
   0   2   4  254.57   10.50
   0   2   4  273.67   10.90
   0   2   4  254.07   10.50
   0   2   4  260.87   10.50
   0   2   4  283.97   10.60
  -1  -2  -4 2571.74   97.69
  -1  -2  -4 2591.94   97.39
  -1  -2  -4 2663.53   97.79
  -1  -2  -4 2765.02   97.69
  -1  -2  -4 2757.52   97.69
   1   2   4 2813.72   97.79
   1   2   4 2642.14   97.89
   1   2   4 2775.72   98.19
   1   2   4 2686.13   97.49
   1   2   4 2548.25   97.69
   1   2   4 2656.83   97.89
  -2  -2  -4    0.40    1.00
  -2  -2  -4   -0.10    1.00
  -2  -2  -4    0.40    1.30
  -2  -2  -4    1.30    1.10
  -2  -2  -4   -0.50    1.30
   2   2   4    0.80    1.00
   2   2   4    0.60    1.10
   2   2   4    0.30    1.40
   2   2   4    0.30    1.00
  -3  -2  -4   64.09    3.80
  -3  -2  -4   65.79    3.30
  -3  -2  -4   60.09    3.30
  -3  -2  -4   61.79    3.30
  -3  -2  -4   61.39    3.90
   3   2   4   66.69    3.40
   3   2   4   63.19    3.60
   3   2   4   67.29    3.70
   3   2   4   67.79    4.50
   3   2   4   62.09    3.00
  -4  -2  -4   22.40    2.90
  -4  -2  -4   22.30    2.40
  -4  -2  -4   24.60    2.10
  -4  -2  -4   22.90    2.60
   4   2   4   23.50    2.60
   4   2   4   26.60    3.50
   4   2   4   23.30    2.00
   4   2   4   27.80    2.40
   4   2   4   23.50    2.40
  -5  -2  -4    7.70    2.20
  -5  -2  -4    8.10    2.40
  -5  -2  -4    8.50    2.10
  -5  -2  -4    5.60    2.30
  -5  -2  -4    8.00    2.30
  -5  -2  -4    8.30    2.40
   5   2   4    9.80    1.80
   5   2   4    7.70    1.90
   5   2   4    7.80    1.50
   5   2   4    7.60    1.90
   5   2   4    9.50    2.30
   5   2   4    9.00    2.50
   5   2   4    7.60    1.50
  -6  -2  -4  179.58    8.70
  -6  -2  -4  166.08    8.60
  -6  -2  -4  167.08    8.60
  -6  -2  -4  180.28    9.30
  -6  -2  -4  166.48    8.90
  -6  -2  -4  171.98    8.60
   6   2   4  162.68    8.10
   6   2   4  167.88    8.20
   6   2   4  164.78    7.20
   6   2   4  163.88    7.70
   6   2   4  166.08    8.40
   6   2   4  181.38    8.20
  -7  -2  -4  155.38    8.50
  -7  -2  -4  147.09    8.20
  -7  -2  -4  167.88    9.10
  -7  -2  -4  160.88    8.70
  -7  -2  -4  152.88    8.70
  -7  -2  -4  162.08    8.40
   7   2   4  157.28    8.00
   7   2   4  162.58    8.10
   7   2   4  156.18    8.00
  -8  -2  -4   51.59    4.60
  -8  -2  -4   57.19    4.50
  -8  -2  -4   56.79    4.90
  -8  -2  -4   57.79    5.00
   8   2   4   61.39    4.30
   8   2   4   57.59    4.30
   6  -3  -4   19.90    3.00
   6  -3  -4    9.50    3.40
   6  -3  -4   12.60    2.50
  -6   3   4   12.60    2.80
  -6   3   4   16.60    2.90
   5  -3  -4   43.70    5.80
   5  -3  -4   36.70    3.90
   5  -3  -4   48.60    4.20
   5  -3  -4   35.60    3.60
   5  -3  -4   43.20    4.20
  -5   3   4   39.40    3.70
  -5   3   4   38.60    4.10
  -5   3   4   42.80    4.40
   4  -3  -4    3.00    2.30
   4  -3  -4    1.30    1.80
   4  -3  -4   -0.40    2.20
   4  -3  -4    1.10    4.00
   4  -3  -4   -0.60    2.10
   4  -3  -4    1.60    2.40
  -4   3   4    0.80    1.80
  -4   3   4   -2.50    1.80
  -4   3   4   -0.30    1.70
  -4   3   4    0.60    2.90
  -4   3   4   -0.60    2.10
  -4   3   4    0.90    1.80
   3  -3  -4   27.90    3.10
   3  -3  -4   23.70    3.10
   3  -3  -4   25.80    4.40
   3  -3  -4   24.20    2.90
   3  -3  -4   25.50    2.80
   3  -3  -4   25.60    2.70
   3  -3  -4   16.30    2.50
   3  -3  -4   27.40    3.70
  -3   3   4   22.80    2.30
  -3   3   4   27.50    3.40
  -3   3   4   23.30    2.80
  -3   3   4   25.90    2.80
  -3   3   4   25.90    2.30
  -3   3   4   27.70    3.90
  -3   3   4   29.00    3.10
  -3   3   4   26.70    3.50
   2  -3  -4   31.20    2.50
   2  -3  -4   32.10    2.60
   2  -3  -4   28.60    3.70
  -2   3   4   30.60    3.10
  -2   3   4   33.40    2.60
  -2   3   4   30.50    2.60
  -2   3   4   27.30    2.80
  -2   3   4   30.00    2.20
   1  -3  -4  517.75   19.80
   1  -3  -4  539.65   20.40
   1  -3  -4  539.75   21.00
   1  -3  -4  510.55   19.70
  -1   3   4  540.45   20.10
  -1   3   4  495.65   19.80
  -1   3   4  533.55   20.10
  -1   3   4  511.75   20.40
  -1   3   4  502.15   19.40
  -1   3   4  541.75   20.00
   0  -3  -4    5.80    1.80
   0  -3  -4    5.20    1.60
   0  -3  -4    6.30    1.60
   0   3   4    6.30    1.20
   0   3   4    6.50    1.40
   0   3   4    7.10    1.80
   0   3   4    5.90    1.40
   0   3   4    7.40    1.30
  -1  -3  -4  882.31   32.00
  -1  -3  -4  825.52   32.00
  -1  -3  -4  841.42   32.00
  -1  -3  -4  854.51   32.20
   1   3   4  826.02   31.90
   1   3   4  937.91   32.00
   1   3   4  855.81   31.70
   1   3   4  865.51   32.40
  -2  -3  -4   19.90    2.10
  -2  -3  -4   14.70    1.60
  -2  -3  -4   14.70    2.00
   2   3   4   18.40    1.80
   2   3   4   13.80    1.70
   2   3   4   16.50    1.70
   2   3   4   16.50    2.40
  -3  -3  -4    2.00    1.30
  -3  -3  -4    0.90    1.00
  -3  -3  -4    1.40    1.60
  -3  -3  -4   -0.30    1.00
   3   3   4    0.30    1.10
   3   3   4   -1.20    1.20
   3   3   4   -0.30    0.80
   3   3   4   -0.40    1.20
   3   3   4    1.20    1.80
  -4  -3  -4   -0.20    1.40
  -4  -3  -4    0.10    2.90
  -4  -3  -4   -0.60    1.70
   4   3   4    0.30    1.30
   4   3   4    1.60    1.10
   4   3   4    2.20    2.00
   4   3   4   -0.10    1.20
   4   3   4    1.60    1.30
  -5  -3  -4   22.00    3.10
  -5  -3  -4   21.70    3.10
  -5  -3  -4   22.40    3.10
  -5  -3  -4   20.80    3.30
  -5  -3  -4   29.70    4.50
  -5  -3  -4   20.50    2.80
  -5  -3  -4   18.80    2.70
  -5  -3  -4   24.00    3.00
   5   3   4   19.80    2.80
   5   3   4   27.30    3.00
   5   3   4   17.40    2.00
   5   3   4   26.30    2.70
   5   3   4   20.50    3.50
   5   3   4   25.80    2.80
   5   3   4   19.10    2.00
  -6  -3  -4   11.90    2.80
  -6  -3  -4   18.80    3.80
  -6  -3  -4   16.30    3.10
  -6  -3  -4   21.70    3.50
  -6  -3  -4   21.20    4.10
  -6  -3  -4   21.30    3.50
  -6  -3  -4   19.70    3.50
   6   3   4   19.30    2.80
   6   3   4   15.60    2.70
   6   3   4   14.90    2.70
   6   3   4   14.80    2.00
   6   3   4   18.10    2.60
   6   3   4   21.20    2.30
  -7  -3  -4  135.29    7.50
  -7  -3  -4  115.59    7.30
  -7  -3  -4  127.19    7.40
  -7  -3  -4  132.89    7.50
  -7  -3  -4  125.59    7.90
  -7  -3  -4  130.79    8.10
   7   3   4  124.99    6.90
   7   3   4  129.39    7.10
  -8  -3  -4   12.60    2.90
  -8  -3  -4    7.20    3.20
  -8  -3  -4   11.80    2.50
  -8  -3  -4   10.40    2.80
  -8  -3  -4   14.40    2.90
   8   3   4   14.00    2.60
   8   3   4    8.40    2.30
   6  -4  -4    2.10    2.70
   6  -4  -4    3.90    2.00
  -6   4   4    1.90    2.10
  -6   4   4    0.60    2.10
   5  -4  -4   19.00    2.90
   5  -4  -4   23.20    3.00
   5  -4  -4   42.80    5.60
   5  -4  -4   31.70    3.50
  -5   4   4   24.30    2.40
  -5   4   4   28.50    3.80
  -5   4   4   34.00    4.10
   4  -4  -4  147.89    7.70
   4  -4  -4  129.39    7.00
   4  -4  -4  140.09    7.10
   4  -4  -4  142.59    9.00
   4  -4  -4  127.29    7.80
   4  -4  -4  151.98    7.50
   4  -4  -4  133.59    9.20
  -4   4   4  129.99    6.90
  -4   4   4  138.69    7.90
  -4   4   4  136.49    6.60
  -4   4   4  146.69    7.50
  -4   4   4  140.19    6.70
   3  -4  -4  156.18    7.50
   3  -4  -4  169.08    7.70
   3  -4  -4  157.58    8.10
   3  -4  -4  154.58    8.40
   3  -4  -4  171.58    8.20
   3  -4  -4  159.98    9.70
   3  -4  -4  159.38    8.80
   3  -4  -4  149.09    8.80
   3  -4  -4  165.58    7.70
  -3   4   4  160.28    8.30
  -3   4   4  158.18    7.00
  -3   4   4  151.78    7.50
  -3   4   4  151.18    7.50
  -3   4   4  160.58    7.10
  -3   4   4  162.18    7.90
   2  -4  -4   24.20    2.70
   2  -4  -4   25.10    2.90
   2  -4  -4   25.60    3.60
   2  -4  -4   33.80    3.80
   2  -4  -4   37.00    3.60
   2  -4  -4   19.80    2.50
   2  -4  -4   32.00    2.80
   2  -4  -4   35.80    4.00
   2  -4  -4   28.60    4.30
   2  -4  -4   28.50    2.70
  -2   4   4   28.80    2.30
  -2   4   4   24.90    2.50
  -2   4   4   20.50    2.80
  -2   4   4   26.80    2.70
   1  -4  -4  336.07   13.70
   1  -4  -4  298.87   12.80
   1  -4  -4  323.57   14.30
  -1   4   4  332.97   13.80
  -1   4   4  354.06   13.20
  -1   4   4  345.37   13.30
  -1   4   4  321.47   12.40
  -1   4   4  324.67   13.10
   0  -4  -4   -0.80    1.70
   0  -4  -4    0.50    1.40
   0   4   4    0.10    1.40
   0   4   4    1.10    1.70
   0   4   4    0.40    1.00
   0   4   4    1.00    0.90
  -1  -4  -4   12.50    2.10
   1   4   4   10.10    1.80
   1   4   4   13.10    2.50
   1   4   4   12.70    1.40
   1   4   4   11.40    1.30
  -2  -4  -4 1751.22   64.19
   2   4   4 1648.94   64.59
   2   4   4 1841.42   63.59
   2   4   4 1687.93   63.59
  -3  -4  -4 1981.90   74.19
  -3  -4  -4 2091.79   74.69
   3   4   4 2038.70   75.59
   3   4   4 1881.21   73.49
   3   4   4 2040.30   74.19
   3   4   4 2080.59   74.19
  -4  -4  -4  202.38    9.80
  -4  -4  -4  213.88    9.40
  -4  -4  -4  202.68    9.90
  -4  -4  -4  198.48    9.20
  -4  -4  -4  186.08   10.20
  -4  -4  -4  216.38   10.50
  -4  -4  -4  201.98    9.50
  -4  -4  -4  198.28    9.40
  -4  -4  -4  192.98    9.60
  -4  -4  -4  186.18    9.00
   4   4   4  210.98    8.20
   4   4   4  208.88    9.20
   4   4   4  204.78   10.20
   4   4   4  206.68    8.70
  -5  -4  -4    7.60    3.00
  -5  -4  -4    3.70    2.30
  -5  -4  -4    5.00    3.00
  -5  -4  -4    4.30    2.40
  -5  -4  -4    8.70    2.30
  -5  -4  -4    7.10    2.50
  -5  -4  -4    7.90    2.70
  -5  -4  -4    3.50    2.40
  -5  -4  -4   10.80    3.90
   5   4   4    6.90    2.20
   5   4   4    7.50    2.10
   5   4   4    8.30    1.60
   5   4   4    5.60    3.20
   5   4   4    5.90    1.60
   5   4   4    6.40    2.20
  -6  -4  -4   35.60    4.60
  -6  -4  -4   41.10    4.40
  -6  -4  -4   38.20    4.70
  -6  -4  -4   43.70    4.50
  -6  -4  -4   49.70    4.30
  -6  -4  -4   21.90    3.30
  -6  -4  -4   35.70    4.10
   6   4   4   35.30    3.20
   6   4   4   37.50    3.00
   6   4   4   38.20    3.90
   6   4   4   36.10    3.50
   6   4   4   46.10    3.80
  -7  -4  -4    7.10    3.10
  -7  -4  -4    7.70    2.60
  -7  -4  -4    5.90    3.00
  -7  -4  -4    9.70    4.30
  -7  -4  -4    7.10    2.90
  -7  -4  -4    1.90    2.90
  -7  -4  -4    4.90    2.70
   7   4   4    5.40    2.50
   7   4   4    8.80    1.80
   7   4   4   10.10    2.70
   7   4   4    9.80    2.50
  -8  -4  -4   58.49    5.30
  -8  -4  -4   72.79    4.80
  -8  -4  -4   52.59    4.30
  -8  -4  -4   63.09    4.20
  -8  -4  -4   71.69    5.40
   8   4   4   71.59    4.50
   8   4   4   64.59    4.40
   5  -5  -4   -0.40    1.80
   5  -5  -4    0.80    3.10
  -5   5   4    1.70    1.50
  -5   5   4   -2.00    2.30
  -5   5   4    2.10    2.20
   4  -5  -4   79.79    7.20
   4  -5  -4   70.39    5.80
   4  -5  -4   76.89    5.30
   4  -5  -4   82.19    5.60
   4  -5  -4   83.29    5.30
   4  -5  -4   77.69    6.50
  -4   5   4   74.39    4.80
  -4   5   4   78.69    4.50
  -4   5   4   69.49    5.50
  -4   5   4   82.49    5.90
   3  -5  -4   83.99    6.40
   3  -5  -4   87.89    5.70
   3  -5  -4   86.09    5.70
   3  -5  -4   77.59    6.60
   3  -5  -4   96.79    5.90
   3  -5  -4   84.19    6.90
   3  -5  -4   87.09    7.70
  -3   5   4   88.09    4.80
  -3   5   4   82.79    6.40
  -3   5   4   81.09    6.10
  -3   5   4   88.79    4.70
   2  -5  -4    8.10    2.20
   2  -5  -4   10.00    3.40
   2  -5  -4    9.60    3.30
   2  -5  -4   10.80    2.50
   2  -5  -4   13.20    2.60
   2  -5  -4   10.60    3.80
   2  -5  -4   11.30    2.40
   2  -5  -4   15.00    3.40
  -2   5   4    7.60    2.00
  -2   5   4   12.20    1.70
  -2   5   4   11.20    2.30
   1  -5  -4    2.50    2.30
   1  -5  -4   -0.10    2.40
   1  -5  -4    2.30    2.30
   1  -5  -4   -1.00    1.60
   1  -5  -4    3.30    1.90
   1  -5  -4    2.00    3.00
   1  -5  -4   -0.70    2.30
  -1   5   4    3.70    1.70
  -1   5   4    3.80    1.60
  -1   5   4    1.10    1.90
   0  -5  -4  106.49    5.90
   0  -5  -4  107.89    6.30
   0  -5  -4  102.59    6.00
   0  -5  -4   94.79    5.30
   0  -5  -4   99.09    6.40
   0  -5  -4  107.09    7.00
   0   5   4  102.99    5.10
   0   5   4   99.49    4.50
   0   5   4   88.09    5.40
  -1  -5  -4   84.09    5.70
  -1  -5  -4   85.29    5.10
  -1  -5  -4   75.99    7.90
  -1  -5  -4   79.39    6.60
   1   5   4   86.19    5.10
   1   5   4   80.59    3.60
  -2  -5  -4   35.90    3.70
  -2  -5  -4   32.00    4.20
  -2  -5  -4   34.50    4.40
  -2  -5  -4   34.80    4.10
  -2  -5  -4   32.90    3.30
   2   5   4   30.80    1.90
   2   5   4   30.60    3.30
   2   5   4   31.10    2.40
  -3  -5  -4  164.88    8.90
  -3  -5  -4  161.58    7.80
  -3  -5  -4  161.78    9.00
  -3  -5  -4  158.88    8.10
  -3  -5  -4  156.08    8.10
  -3  -5  -4  153.78    7.80
  -3  -5  -4  123.29    8.00
  -3  -5  -4  152.48    7.70
  -3  -5  -4  160.18    8.40
   3   5   4  169.38    7.10
   3   5   4  157.08    8.50
  -4  -5  -4   11.80    3.70
  -4  -5  -4   14.60    3.00
  -4  -5  -4   16.00    3.70
  -4  -5  -4   12.20    3.80
  -4  -5  -4   20.80    3.20
  -4  -5  -4   17.90    3.80
  -4  -5  -4   19.20    3.00
  -4  -5  -4   10.90    3.20
  -4  -5  -4   16.30    2.90
   4   5   4   12.20    1.50
   4   5   4   20.20    3.60
   4   5   4   15.80    2.30
  -5  -5  -4   44.70    4.40
  -5  -5  -4   44.10    4.50
  -5  -5  -4   44.90    5.00
  -5  -5  -4   31.50    3.90
  -5  -5  -4   43.20    4.80
  -5  -5  -4   39.40    5.40
  -5  -5  -4   46.00    5.40
  -5  -5  -4   40.20    5.20
  -5  -5  -4   37.20    4.00
   5   5   4   41.10    3.80
   5   5   4   43.30    3.10
   5   5   4   39.00    3.30
   5   5   4   38.40    3.10
  -6  -5  -4    1.30    3.30
  -6  -5  -4    1.60    3.00
  -6  -5  -4    3.20    2.90
  -6  -5  -4    2.20    4.30
  -6  -5  -4    4.30    3.00
  -6  -5  -4    1.10    2.50
  -6  -5  -4   -1.90    3.80
   6   5   4    2.10    1.70
   6   5   4    3.60    2.20
   6   5   4    3.10    1.70
   6   5   4    2.30    2.10
  -7  -5  -4   27.70    4.00
  -7  -5  -4   16.60    3.20
  -7  -5  -4   22.20    3.90
  -7  -5  -4   26.80    4.60
   7   5   4   27.60    2.40
   7   5   4   29.50    3.10
   7   5   4   27.10    3.40
   7   5   4   22.80    2.30
  -8  -5  -4   13.60    2.80
  -8  -5  -4   29.00    3.40
  -8  -5  -4   15.30    2.70
   8   5   4   22.00    2.40
   8   5   4   29.60    2.50
   5  -6  -4   10.00    3.10
   4  -6  -4    3.90    4.00
   4  -6  -4    2.60    2.40
   4  -6  -4    5.80    3.20
  -4   6   4    8.40    1.90
  -4   6   4    3.40    2.40
  -4   6   4    5.20    1.90
   3  -6  -4   -2.20    2.10
   3  -6  -4   -2.00    4.00
   3  -6  -4    1.30    3.50
   3  -6  -4    0.50    3.00
   3  -6  -4    0.80    2.20
   3  -6  -4   -0.30    2.90
  -3   6   4    0.50    1.60
  -3   6   4    1.80    2.90
  -3   6   4    0.10    1.80
   2  -6  -4   80.49    5.60
   2  -6  -4   77.49    6.90
   2  -6  -4   70.79    5.40
   2  -6  -4   81.59    6.60
   2  -6  -4   81.09    7.70
   2  -6  -4   71.49    6.50
  -2   6   4   77.39    4.20
   1  -6  -4   65.89    4.80
   1  -6  -4   50.09    6.00
   1  -6  -4   63.89    6.30
   1  -6  -4   64.69    5.50
   1  -6  -4   64.69    4.60
   1  -6  -4   75.79    5.90
   1  -6  -4   71.79    6.10
  -1   6   4   56.89    4.10
  -1   6   4   63.99    3.20
   0  -6  -4   26.10    3.50
   0  -6  -4   24.30    2.80
   0  -6  -4   23.70    3.70
   0  -6  -4   28.10    4.20
   0  -6  -4   28.30    4.20
   0  -6  -4   22.40    4.40
   0   6   4   21.60    2.50
  -1  -6  -4   26.20    3.50
  -1  -6  -4   24.50    3.30
  -1  -6  -4   23.00    3.70
  -1  -6  -4   21.20    4.10
  -1  -6  -4   25.40    3.80
  -1  -6  -4   21.20    3.80
   1   6   4   25.30    3.40
  -2  -6  -4   60.89    5.30
  -2  -6  -4   64.69    6.00
  -2  -6  -4   70.89    5.70
  -2  -6  -4   67.69    4.90
  -2  -6  -4   60.39    5.50
  -2  -6  -4   64.99    4.70
  -2  -6  -4   72.59    5.90
   2   6   4   63.69    4.80
  -3  -6  -4   59.39    5.10
  -3  -6  -4   61.59    6.40
  -3  -6  -4   61.09    4.80
  -3  -6  -4   60.59    5.80
  -3  -6  -4   60.79    4.80
  -3  -6  -4   51.09    5.40
  -3  -6  -4   55.09    5.20
   3   6   4   64.29    3.90
   3   6   4   64.79    5.30
  -4  -6  -4    6.30    3.20
  -4  -6  -4    5.60    2.80
  -4  -6  -4   10.50    3.60
  -4  -6  -4    3.00    2.70
  -4  -6  -4    6.50    2.50
  -4  -6  -4    5.50    3.70
  -4  -6  -4    5.30    2.80
  -4  -6  -4    9.30    3.90
   4   6   4    6.50    1.30
   4   6   4    7.20    2.00
  -5  -6  -4   10.70    4.00
  -5  -6  -4    7.20    3.30
  -5  -6  -4    9.10    3.00
  -5  -6  -4   10.20    3.10
  -5  -6  -4   13.20    4.50
  -5  -6  -4    6.40    3.40
  -5  -6  -4    3.60    3.70
   5   6   4    5.80    2.00
   5   6   4    7.80    2.30
   5   6   4    9.40    1.80
   5   6   4   10.40    1.80
  -6  -6  -4    2.00    3.40
  -6  -6  -4    1.60    2.60
  -6  -6  -4    2.00    3.90
  -6  -6  -4    4.30    2.60
  -6  -6  -4    1.80    2.70
  -6  -6  -4    4.40    3.10
  -6  -6  -4    4.80    3.30
   6   6   4    5.70    2.40
   6   6   4    0.90    1.60
   6   6   4    1.90    1.70
  -7  -6  -4   79.19    6.40
  -7  -6  -4   90.89    6.50
  -7  -6  -4   87.89    5.50
  -7  -6  -4   91.69    6.60
   7   6   4   93.69    5.00
   7   6   4   85.29    4.40
   7   6   4   86.49    5.30
   7   6   4   88.39    4.40
   4  -7  -4   99.89    6.00
   4  -7  -4   96.59    6.50
  -4   7   4   92.59    4.60
   3  -7  -4   43.80    5.70
   3  -7  -4   25.50    4.10
   3  -7  -4   26.80    3.90
   3  -7  -4   37.30    3.40
   3  -7  -4   28.10    4.50
  -3   7   4   35.20    2.70
  -3   7   4   30.00    2.70
   2  -7  -4  240.48   12.00
   2  -7  -4  231.68   12.40
   2  -7  -4  241.68   10.80
   2  -7  -4  231.78   12.30
   2  -7  -4  249.28   13.30
  -2   7   4  237.38    9.80
   1  -7  -4    8.50    4.10
   1  -7  -4   12.40    4.00
   1  -7  -4   12.00    4.90
   1  -7  -4    9.50    2.70
   1  -7  -4   14.40    3.70
  -1   7   4   11.20    1.50
   0  -7  -4  157.48    8.90
   0  -7  -4  169.68    9.70
   0  -7  -4  160.18   10.40
   0  -7  -4  171.98    9.90
   0  -7  -4  150.48    7.70
   0  -7  -4  150.58    8.50
  -1  -7  -4  121.19    8.30
  -1  -7  -4  114.89    7.80
  -1  -7  -4  116.79    8.00
  -1  -7  -4  113.49    7.40
  -1  -7  -4  126.49    8.70
  -1  -7  -4  129.19    7.40
  -2  -7  -4   -0.30    2.10
  -2  -7  -4    0.60    3.00
  -2  -7  -4    3.50    3.70
  -2  -7  -4    1.20    2.80
  -2  -7  -4    5.10    2.70
  -2  -7  -4    0.70    3.40
  -3  -7  -4   -1.20    3.10
  -3  -7  -4    1.50    3.10
  -3  -7  -4    3.00    3.40
  -3  -7  -4   -0.40    2.30
  -3  -7  -4    2.10    2.70
  -3  -7  -4   -1.30    3.80
   3   7   4    0.00    1.70
  -4  -7  -4   69.19    6.40
  -4  -7  -4   80.19    6.20
  -4  -7  -4   85.89    7.50
  -4  -7  -4   72.59    6.70
  -4  -7  -4   76.19    7.30
  -4  -7  -4   76.59    5.90
   4   7   4   79.39    5.30
   4   7   4   69.69    3.80
  -5  -7  -4    5.80    4.30
  -5  -7  -4    4.10    3.60
  -5  -7  -4    6.30    3.00
  -5  -7  -4    0.20    3.50
  -5  -7  -4   -0.50    3.20
  -5  -7  -4    3.50    2.70
   5   7   4    5.20    1.60
   5   7   4    2.90    2.00
  -6  -7  -4   17.10    3.80
  -6  -7  -4   15.00    3.80
  -6  -7  -4   18.90    4.30
  -6  -7  -4   20.60    3.80
   6   7   4   23.30    2.20
   6   7   4   16.70    2.00
  -7  -7  -4   48.20    4.40
  -7  -7  -4   55.19    4.90
   7   7   4   58.99    3.00
   7   7   4   51.89    3.70
   3  -8  -4    1.10    2.60
   3  -8  -4    1.20    2.00
   3  -8  -4    3.70    2.80
   3  -8  -4    1.00    2.30
   3  -8  -4   -0.20    1.30
  -3   8   4    1.80    1.20
   2  -8  -4    9.00    2.50
   2  -8  -4    6.50    3.20
   2  -8  -4    7.50    2.90
   2  -8  -4    9.10    3.80
   2  -8  -4    7.70    3.90
  -2   8   4    7.60    1.60
  -2   8   4    9.10    1.60
   1  -8  -4   17.80    3.10
   1  -8  -4   12.30    4.90
   1  -8  -4    9.70    3.70
   1  -8  -4   14.00    3.40
   1  -8  -4   16.10    4.30
  -1   8   4   15.20    1.60
   0  -8  -4    3.80    4.20
   0  -8  -4    2.30    3.00
   0  -8  -4    5.90    4.10
   0  -8  -4    6.60    3.70
   0  -8  -4    5.30    2.60
   0  -8  -4   -3.70    3.20
  -1  -8  -4   15.30    4.30
  -1  -8  -4   16.50    3.50
  -1  -8  -4   23.40    5.00
  -1  -8  -4    8.40    3.30
  -1  -8  -4   21.20    4.40
  -2  -8  -4    8.60    4.20
  -2  -8  -4    3.20    3.40
  -2  -8  -4    2.50    3.70
  -2  -8  -4    1.30    2.40
  -2  -8  -4   -0.70    2.60
  -3  -8  -4   17.40    4.60
  -3  -8  -4   15.50    4.20
  -3  -8  -4   13.80    3.20
  -3  -8  -4   16.00    4.40
  -3  -8  -4   12.00    3.10
  -4  -8  -4    1.70    3.70
  -4  -8  -4    0.60    3.60
  -4  -8  -4    6.90    2.90
  -4  -8  -4    2.50    4.00
  -5  -8  -4    1.40    2.80
  -5  -8  -4    7.90    3.80
  -5  -8  -4    4.10    3.70
  -5  -8  -4    7.40    3.60
  -5  -8  -4    5.60    2.80
   5   8   4    6.40    1.40
  -6  -8  -4    2.20    3.00
  -6  -8  -4    1.50    2.90
  -6  -8  -4    1.10    2.10
  -6  -8  -4    0.80    2.20
   6   8   4    0.00    1.60
   6   8   4    2.90    1.30
   1  -9  -4    8.40    2.90
   1  -9  -4   10.70    3.00
   1  -9  -4   10.40    2.90
   1  -9  -4   12.70    2.30
   1  -9  -4   12.10    3.50
   0  -9  -4   56.39    5.60
   0  -9  -4   66.69    5.90
   0  -9  -4   65.19    6.40
   0  -9  -4   66.49    5.40
  -1  -9  -4   -3.40    3.10
  -1  -9  -4   -3.60    3.00
  -1  -9  -4   -5.50    3.60
  -2  -9  -4   92.99    6.70
  -2  -9  -4   86.29    8.80
  -3  -9  -4    2.50    2.70
  -3  -9  -4    1.50    3.50
  -3  -9  -4    6.40    3.80
  -4  -9  -4   19.20    4.20
  -4  -9  -4   13.60    3.60
  -4  -9  -4   16.20    3.00
  -5  -9  -4   11.20    2.30
  -5  -9  -4   11.70    3.30
  -5  -9  -4   13.20    3.50
   3   8  -5    6.10    1.30
  -3  -8   5    6.00    2.30
  -3  -8   5    2.60    2.60
  -3  -8   5    2.10    2.30
  -3  -8   5    3.70    2.00
  -3  -8   5    4.20    2.20
   2   8  -5   -2.30    1.20
  -2  -8   5    3.60    2.90
  -2  -8   5   -0.50    2.70
  -2  -8   5   -1.20    2.50
  -2  -8   5    2.70    2.60
  -2  -8   5    5.70    2.50
   1   8  -5    3.60    1.40
   1   8  -5    0.40    1.30
  -1  -8   5    5.30    2.70
  -1  -8   5    4.90    2.80
  -1  -8   5    4.00    3.00
  -1  -8   5    3.20    3.10
  -1  -8   5    1.90    2.90
   0   8  -5    1.70    1.30
   0   8  -5   -0.60    1.20
   0  -8   5    5.50    2.60
   0  -8   5    1.10    3.20
   0  -8   5    3.40    2.90
   0  -8   5    5.20    2.80
   0  -8   5   -2.50    3.00
  -1   8  -5   92.19    4.40
  -1   8  -5   89.59    4.30
   1  -8   5   91.29    6.20
   1  -8   5   87.99    6.50
   1  -8   5  100.49    5.70
   1  -8   5   93.69    5.70
   1  -8   5   88.29    6.10
  -2   8  -5   30.70    2.30
  -2   8  -5   16.80    2.60
   2  -8   5   33.40    3.70
   2  -8   5   25.60    3.30
   2  -8   5   32.40    3.10
   2  -8   5   25.50    3.70
   2  -8   5   30.00    2.90
   4   7  -5   11.60    1.80
   4   7  -5   11.90    3.10
  -4  -7   5   15.80    2.60
  -4  -7   5   11.30    2.70
  -4  -7   5    8.10    3.60
  -4  -7   5    6.80    2.80
   3   7  -5  271.87   12.60
   3   7  -5  279.87   11.20
   3   7  -5  287.07   11.00
  -3  -7   5  281.07   12.30
  -3  -7   5  273.57   12.30
  -3  -7   5  247.78   12.30
  -3  -7   5  286.27   12.70
  -3  -7   5  259.17   12.60
   2   7  -5  178.28    7.90
   2   7  -5  187.68    8.00
   2   7  -5  168.38    9.30
  -2  -7   5  185.38    9.50
  -2  -7   5  181.58    9.90
  -2  -7   5  194.78   10.30
  -2  -7   5  173.28    9.70
  -2  -7   5  202.78    9.70
   1   7  -5   52.09    3.50
   1   7  -5   50.79    4.60
   1   7  -5   54.29    3.60
  -1  -7   5   59.99    5.10
  -1  -7   5   50.79    4.70
  -1  -7   5   46.40    5.40
  -1  -7   5   63.69    5.90
  -1  -7   5   47.80    4.80
  -1  -7   5   40.70    4.90
  -1  -7   5   56.59    5.50
   0   7  -5  156.68    7.20
   0   7  -5  172.78    7.40
   0  -7   5  165.68    9.10
   0  -7   5  170.78    9.10
   0  -7   5  174.18    9.60
   0  -7   5  171.88    9.10
   0  -7   5  173.38   10.00
   0  -7   5  177.48   10.10
   0  -7   5  176.48    9.50
  -1   7  -5   21.50    2.10
  -1   7  -5   20.10    2.10
  -1   7  -5   20.20    3.40
   1  -7   5   16.60    3.30
   1  -7   5   23.50    4.40
   1  -7   5   20.50    3.90
   1  -7   5   22.30    4.50
   1  -7   5   23.40    3.70
   1  -7   5   23.50    4.10
   1  -7   5   16.50    3.30
  -2   7  -5    3.20    1.50
  -2   7  -5    6.10    1.60
   2  -7   5    4.50    3.80
   2  -7   5    9.20    2.90
   2  -7   5    5.90    2.90
   2  -7   5    7.30    3.10
   2  -7   5    4.80    3.30
   2  -7   5    8.60    2.80
  -3   7  -5   60.69    3.50
  -3   7  -5   62.39    3.40
  -3   7  -5   54.79    4.30
  -3   7  -5   52.79    4.70
   3  -7   5   59.59    5.20
   3  -7   5   50.59    5.70
   3  -7   5   56.19    4.80
   3  -7   5   56.39    4.40
   3  -7   5   54.29    4.60
  -4   7  -5   56.19    3.20
   4  -7   5   58.89    4.70
   4  -7   5   46.30    4.70
   5   6  -5    0.50    1.80
   5   6  -5    1.00    2.80
   5   6  -5   -0.60    1.20
   5   6  -5   -0.90    1.90
  -5  -6   5    0.40    2.10
  -5  -6   5    1.80    3.00
  -5  -6   5   -0.90    2.00
   4   6  -5   66.49    3.90
   4   6  -5   58.29    4.00
  -4  -6   5   61.39    5.40
  -4  -6   5   62.79    5.10
  -4  -6   5   65.39    5.60
  -4  -6   5   62.59    5.40
  -4  -6   5   62.19    6.40
   3   6  -5   82.59    4.50
   3   6  -5   79.09    4.80
   3   6  -5   59.39    6.40
   3   6  -5   76.69    5.50
  -3  -6   5   79.99    5.90
  -3  -6   5   81.39    6.40
  -3  -6   5   82.19    6.40
  -3  -6   5   86.49    6.40
  -3  -6   5   88.79    6.90
  -3  -6   5   66.89    6.40
   2   6  -5   35.10    4.20
   2   6  -5   28.60    2.70
   2   6  -5   25.90    2.50
  -2  -6   5   25.30    3.80
  -2  -6   5   30.40    4.40
  -2  -6   5   30.50    3.90
  -2  -6   5   28.00    4.00
  -2  -6   5   32.90    4.50
  -2  -6   5   35.70    4.90
  -2  -6   5   22.80    3.50
   1   6  -5   -2.30    1.50
   1   6  -5    2.40    1.80
   1   6  -5   -5.00    4.10
   1   6  -5    2.90    2.90
   1   6  -5    2.50    3.00
  -1  -6   5    1.40    3.10
  -1  -6   5   -3.50    2.60
  -1  -6   5   -0.70    2.80
  -1  -6   5   -4.10    2.80
  -1  -6   5    1.10    2.50
  -1  -6   5   -0.80    3.50
  -1  -6   5   -4.20    3.00
  -1  -6   5    5.40    3.70
   0   6  -5    7.80    1.70
   0   6  -5    3.80    2.70
   0   6  -5    3.40    3.00
   0   6  -5    9.80    1.80
   0  -6   5    2.40    3.60
   0  -6   5    2.30    2.60
   0  -6   5    4.60    3.20
   0  -6   5    7.90    3.70
   0  -6   5   10.00    3.30
   0  -6   5   12.60    4.00
   0  -6   5    3.60    2.80
  -1   6  -5   36.60    3.00
  -1   6  -5   25.30    2.40
  -1   6  -5   32.90    4.00
  -1   6  -5   35.30    4.20
   1  -6   5   29.40    3.80
   1  -6   5   38.60    5.00
   1  -6   5   30.50    3.80
   1  -6   5   37.90    5.10
   1  -6   5   46.40    5.70
   1  -6   5   37.10    4.80
   1  -6   5   35.60    4.10
   1  -6   5   27.80    4.00
  -2   6  -5    6.70    1.60
  -2   6  -5    5.30    2.10
  -2   6  -5    7.80    1.70
  -2   6  -5    8.00    2.90
   2  -6   5    6.60    3.90
   2  -6   5    6.40    2.80
   2  -6   5   14.10    4.10
   2  -6   5   11.20    3.10
   2  -6   5   12.10    3.70
   2  -6   5    9.40    3.10
   2  -6   5    8.30    3.30
  -3   6  -5   14.40    2.00
  -3   6  -5    9.10    2.30
  -3   6  -5    9.60    3.30
  -3   6  -5   15.40    2.10
  -3   6  -5   15.00    3.20
   3  -6   5   16.40    3.00
   3  -6   5   23.80    4.00
   3  -6   5   11.00    2.80
   3  -6   5   14.50    3.50
   3  -6   5   16.70    3.50
   3  -6   5   10.20    2.70
   3  -6   5   16.00    4.10
  -4   6  -5   26.80    3.60
  -4   6  -5   35.80    2.80
  -4   6  -5   35.40    3.80
  -4   6  -5   22.70    2.90
   4  -6   5   31.30    3.70
   4  -6   5   49.30    4.80
   4  -6   5   23.70    3.40
   4  -6   5   24.30    3.20
   4  -6   5   30.50    4.30
   4  -6   5   33.10    3.80
  -5   6  -5    7.60    2.10
  -5   6  -5    3.80    2.10
  -5   6  -5    8.50    1.50
   5  -6   5   11.10    2.90
   5  -6   5    6.70    2.30
   5  -6   5   10.50    2.30
   6   5  -5   33.80    2.70
   6   5  -5   26.30    3.00
  -6  -5   5   23.50    2.60
  -6  -5   5   19.00    2.50
   5   5  -5    3.70    1.60
   5   5  -5    4.50    2.90
   5   5  -5    4.20    2.30
   5   5  -5    2.80    3.30
  -5  -5   5    3.00    2.40
  -5  -5   5    6.10    2.60
  -5  -5   5    0.50    2.60
  -5  -5   5    4.50    2.50
  -5  -5   5    4.00    2.20
   4   5  -5   20.10    2.40
   4   5  -5    7.60    2.60
   4   5  -5   16.60    3.00
   4   5  -5   19.70    3.80
   4   5  -5   14.10    2.40
  -4  -5   5   10.90    3.50
  -4  -5   5   14.90    3.50
  -4  -5   5   15.60    3.50
  -4  -5   5   17.30    2.90
  -4  -5   5   15.40    3.10
  -4  -5   5   16.70    3.30
   3   5  -5   24.30    3.10
   3   5  -5   21.70    2.60
   3   5  -5   24.90    2.40
   3   5  -5   27.80    3.60
   3   5  -5   27.60    5.10
   3   5  -5   21.30    3.40
  -3  -5   5   35.90    5.70
  -3  -5   5   22.60    3.70
  -3  -5   5   21.50    3.00
  -3  -5   5   29.40    3.70
  -3  -5   5   23.00    3.90
  -3  -5   5   25.50    3.70
  -3  -5   5   19.50    4.00
  -3  -5   5   25.30    3.90
   2   5  -5  359.46   14.40
   2   5  -5  367.16   15.10
   2   5  -5  392.76   15.70
   2   5  -5  365.36   15.70
   2   5  -5  396.66   14.60
  -2  -5   5  367.86   15.80
  -2  -5   5  393.16   16.50
  -2  -5   5  368.06   16.60
  -2  -5   5  380.86   16.00
  -2  -5   5  377.96   17.20
  -2  -5   5  362.16   16.10
  -2  -5   5  342.47   15.00
  -2  -5   5  370.46   16.20
  -2  -5   5  388.86   15.80
  -2  -5   5  332.07   16.10
   1   5  -5    2.70    2.70
   1   5  -5   -1.30    2.50
   1   5  -5   -1.20    1.50
   1   5  -5    0.60    1.40
  -1  -5   5   -2.90    3.40
  -1  -5   5   -0.40    2.20
  -1  -5   5    3.00    2.90
  -1  -5   5    3.10    2.90
  -1  -5   5    3.20    2.40
  -1  -5   5    1.80    3.00
  -1  -5   5    2.20    2.90
  -1  -5   5    0.80    2.60
  -1  -5   5   -0.10    2.10
   0   5  -5   12.20    1.80
   0   5  -5   13.50    1.90
   0   5  -5   13.00    2.80
   0   5  -5   16.20    3.30
   0  -5   5    8.50    2.90
   0  -5   5   15.50    3.20
   0  -5   5   18.40    4.70
   0  -5   5   15.50    2.70
   0  -5   5   11.30    2.80
   0  -5   5   15.40    3.90
   0  -5   5   12.50    2.70
   0  -5   5   14.70    3.40
   0  -5   5   16.40    3.70
  -1   5  -5    2.50    1.40
  -1   5  -5    3.50    2.40
  -1   5  -5    3.60    1.50
   1  -5   5    0.30    2.50
   1  -5   5    3.20    2.80
   1  -5   5    2.10    2.50
   1  -5   5    2.00    3.10
   1  -5   5    4.10    3.10
   1  -5   5    1.60    2.70
   1  -5   5    2.70    2.30
   1  -5   5    2.70    2.30
   1  -5   5    1.80    2.60
  -2   5  -5   92.79    6.20
  -2   5  -5   94.69    5.40
  -2   5  -5   95.49    4.60
  -2   5  -5   88.09    5.30
  -2   5  -5   96.79    4.70
  -2   5  -5   89.69    5.30
   2  -5   5   88.79    6.50
   2  -5   5   89.19    6.80
   2  -5   5   94.69    6.10
   2  -5   5   87.99    6.00
   2  -5   5   77.29    5.10
   2  -5   5   90.59    7.10
   2  -5   5   83.09    5.60
   2  -5   5   90.59    5.70
   2  -5   5   92.39    6.50
   2  -5   5  100.39    6.60
  -3   5  -5   91.19    4.70
  -3   5  -5   89.09    5.40
  -3   5  -5   84.69    5.50
  -3   5  -5   97.59    5.60
  -3   5  -5   99.89    6.70
  -3   5  -5   94.59    6.40
  -3   5  -5   91.29    4.80
   3  -5   5   84.69    6.80
   3  -5   5   85.29    6.00
   3  -5   5   92.69    6.20
   3  -5   5   86.39    5.50
   3  -5   5  101.59    7.20
   3  -5   5   93.19    7.60
   3  -5   5   84.59    5.00
   3  -5   5   89.69    6.30
   3  -5   5   85.09    6.60
  -4   5  -5    7.00    2.40
  -4   5  -5    8.40    2.10
  -4   5  -5    9.40    2.80
  -4   5  -5    6.50    2.20
  -4   5  -5    8.70    2.90
  -4   5  -5    4.80    2.90
  -4   5  -5    6.30    1.70
   4  -5   5    7.20    4.00
   4  -5   5    6.70    2.90
   4  -5   5   10.30    2.90
   4  -5   5    9.00    3.60
   4  -5   5    4.30    2.70
   4  -5   5    5.40    1.70
   4  -5   5   11.40    3.10
  -5   5  -5   38.20    3.60
  -5   5  -5   35.30    3.90
  -5   5  -5   40.00    4.10
  -5   5  -5   38.10    3.10
  -5   5  -5   44.20    4.30
   5  -5   5   48.40    4.40
   5  -5   5   43.40    4.90
   5  -5   5   40.50    5.10
  -6   5  -5   10.60    3.50
  -6   5  -5    8.70    2.10
  -6   5  -5   10.20    2.40
   6  -5   5    8.90    2.20
   6  -5   5   13.90    3.00
   6   4  -5  132.89    7.40
   6   4  -5  135.99    6.50
  -6  -4   5  132.19    6.80
  -6  -4   5  123.29    6.70
  -6  -4   5  135.99    7.10
  -6  -4   5  131.59    6.70
   5   4  -5   71.79    6.50
   5   4  -5   78.99    6.60
   5   4  -5   74.79    5.40
  -5  -4   5   71.49    5.70
  -5  -4   5   77.59    5.90
  -5  -4   5   78.49    5.80
  -5  -4   5   79.49    6.20
   4   4  -5    4.70    2.50
   4   4  -5    0.80    2.00
   4   4  -5    3.70    1.90
   4   4  -5    5.50    2.60
   4   4  -5    2.80    3.10
  -4  -4   5    0.10    2.70
  -4  -4   5    0.00    2.60
  -4  -4   5    4.60    3.10
  -4  -4   5    3.00    2.60
   3   4  -5  213.78    9.90
   3   4  -5  230.88    9.30
   3   4  -5  223.78    9.40
   3   4  -5  217.98   10.80
   3   4  -5  212.08   10.40
   3   4  -5  218.48   10.20
  -3  -4   5  212.38   10.80
  -3  -4   5  238.78   12.30
  -3  -4   5  231.98   10.80
  -3  -4   5  232.78   10.60
  -3  -4   5  218.28   10.70
  -3  -4   5  224.18   10.60
  -3  -4   5  222.68   10.30
   2   4  -5    2.00    2.50
   2   4  -5   -1.80    2.50
   2   4  -5   -0.60    1.80
   2   4  -5    0.00    1.30
   2   4  -5    2.80    1.60
   2   4  -5    0.50    2.50
  -2  -4   5    1.10    2.10
  -2  -4   5    2.20    2.20
  -2  -4   5    0.90    2.70
  -2  -4   5    1.60    2.60
  -2  -4   5    1.00    3.50
  -2  -4   5    1.50    2.00
  -2  -4   5    0.90    2.50
  -2  -4   5    2.20    2.20
  -2  -4   5    4.30    2.00
  -2  -4   5   -3.00    2.50
  -2  -4   5    0.50    1.90
   1   4  -5    7.10    2.70
   1   4  -5    8.60    2.50
   1   4  -5    5.90    1.40
   1   4  -5    5.50    1.40
   1   4  -5    5.30    2.10
   1   4  -5    6.90    2.00
   1   4  -5    7.70    2.50
  -1  -4   5    7.50    2.10
  -1  -4   5    7.70    2.70
  -1  -4   5    5.70    2.90
  -1  -4   5    8.10    2.60
  -1  -4   5    6.30    1.80
  -1  -4   5    5.50    3.50
  -1  -4   5    6.60    2.30
  -1  -4   5    5.20    2.20
  -1  -4   5    7.20    2.10
  -1  -4   5    8.30    2.20
  -1  -4   5    8.70    2.60
   0   4  -5    6.30    1.40
   0   4  -5   11.30    2.90
   0   4  -5    3.80    2.50
   0   4  -5    4.30    1.40
   0   4  -5    6.20    2.10
   0   4  -5    8.70    2.50
   0   4  -5    6.90    2.00
   0  -4   5   11.50    2.40
   0  -4   5    8.60    2.20
   0  -4   5    6.60    2.80
   0  -4   5    3.60    1.90
   0  -4   5    5.30    1.90
   0  -4   5    7.00    2.10
   0  -4   5    8.00    2.40
   0  -4   5    2.70    2.40
   0  -4   5    6.20    2.00
   0  -4   5    8.00    2.50
   0  -4   5    8.20    3.00
  -1   4  -5  208.48    8.70
  -1   4  -5  200.98    8.80
  -1   4  -5  207.38    9.30
  -1   4  -5  201.28   10.00
  -1   4  -5  191.38    8.10
  -1   4  -5  200.18    8.10
  -1   4  -5  209.98    8.60
  -1   4  -5  190.98    9.40
   1  -4   5  188.38    9.00
   1  -4   5  195.98    9.70
   1  -4   5  195.48    9.60
   1  -4   5  200.98    9.30
   1  -4   5  215.28   10.10
   1  -4   5  193.38    9.30
   1  -4   5  217.48    9.30
   1  -4   5  196.98    8.90
   1  -4   5  191.88    9.20
   1  -4   5  200.88    9.70
  -2   4  -5  623.94   26.70
  -2   4  -5  713.83   25.20
  -2   4  -5  701.83   26.50
  -2   4  -5  683.13   25.80
  -2   4  -5  673.53   25.80
  -2   4  -5  692.43   25.80
  -2   4  -5  649.34   25.10
  -2   4  -5  643.14   26.00
   2  -4   5  638.74   25.90
   2  -4   5  654.73   27.00
   2  -4   5  681.63   26.60
   2  -4   5  687.13   26.30
   2  -4   5  643.44   25.90
   2  -4   5  684.33   26.40
   2  -4   5  689.03   26.70
   2  -4   5  674.73   26.40
   2  -4   5  672.53   26.70
   2  -4   5  657.23   25.90
  -3   4  -5   38.90    3.00
  -3   4  -5   40.40    4.10
  -3   4  -5   34.50    3.40
  -3   4  -5   46.10    3.70
  -3   4  -5   44.40    3.00
  -3   4  -5   40.90    3.50
   3  -4   5   44.20    4.00
   3  -4   5   39.50    4.20
   3  -4   5   42.80    3.90
   3  -4   5   46.00    4.60
   3  -4   5   41.00    4.50
   3  -4   5   46.30    4.40
   3  -4   5   46.20    5.40
   3  -4   5   43.00    4.00
   3  -4   5   36.20    3.70
  -4   4  -5   45.60    3.90
  -4   4  -5   30.70    3.40
  -4   4  -5   38.00    3.10
  -4   4  -5   39.20    3.80
  -4   4  -5   29.70    3.70
  -4   4  -5   34.30    2.90
  -4   4  -5   35.40    4.30
  -4   4  -5   36.00    3.90
   4  -4   5   28.40    3.40
   4  -4   5   35.10    3.60
   4  -4   5   41.10    4.30
   4  -4   5   46.80    5.80
   4  -4   5   36.40    4.00
   4  -4   5   30.90    3.40
  -5   4  -5   19.70    3.40
  -5   4  -5   17.00    3.10
  -5   4  -5   22.30    3.60
  -5   4  -5   15.20    2.90
  -5   4  -5   26.80    3.30
  -5   4  -5   18.90    3.70
  -5   4  -5   19.90    2.30
   5  -4   5   20.50    4.40
   5  -4   5   21.50    3.30
   5  -4   5   14.00    3.00
   5  -4   5   23.90    3.60
   5  -4   5   21.90    4.40
   5  -4   5   20.60    3.00
  -6   4  -5   10.70    3.10
  -6   4  -5   15.40    2.90
   6  -4   5   14.50    2.90
   6  -4   5   13.50    2.90
   6  -4   5    9.60    2.10
   6  -4   5   12.80    3.80
   6   3  -5    1.90    2.30
   6   3  -5    6.60    3.30
  -6  -3   5    3.70    2.60
  -6  -3   5    3.60    2.20
  -6  -3   5    4.20    2.90
  -6  -3   5    7.70    3.20
   5   3  -5    0.70    2.40
   5   3  -5   -0.70    2.80
   5   3  -5   -0.20    3.00
   5   3  -5    3.50    2.50
  -5  -3   5    4.10    2.60
  -5  -3   5    1.70    2.10
  -5  -3   5   -0.20    2.50
  -5  -3   5   -3.30    2.80
  -5  -3   5    1.80    3.30
   4   3  -5  257.27   11.90
   4   3  -5  277.97   11.80
   4   3  -5  261.27   10.80
   4   3  -5  271.47   11.80
   4   3  -5  273.87   12.90
  -4  -3   5  267.97   12.20
  -4  -3   5  265.17   12.00
  -4  -3   5  265.07   12.60
  -4  -3   5  266.57   12.00
  -4  -3   5  265.67   12.10
  -4  -3   5  253.07   11.40
   3   3  -5  233.08   11.10
   3   3  -5  240.98    9.50
   3   3  -5  212.28   11.10
   3   3  -5  243.48   10.40
   3   3  -5  230.28   10.40
   3   3  -5  240.78   10.30
   3   3  -5  239.98    9.60
  -3  -3   5  230.38   11.10
  -3  -3   5  231.68   10.50
  -3  -3   5  226.18   10.80
  -3  -3   5  242.68   10.70
  -3  -3   5  216.38   10.50
  -3  -3   5  222.28   10.40
  -3  -3   5  232.28   10.60
   2   3  -5  104.69    5.70
   2   3  -5  104.69    6.50
   2   3  -5   96.79    6.20
   2   3  -5  101.59    4.80
   2   3  -5   97.69    5.50
   2   3  -5   98.39    4.80
   2   3  -5  103.29    5.60
  -2  -3   5  102.49    5.80
  -2  -3   5  103.39    5.90
  -2  -3   5  105.29    6.00
  -2  -3   5  110.59    6.40
  -2  -3   5  102.19    5.90
  -2  -3   5   99.29    7.20
  -2  -3   5  109.09    6.00
  -2  -3   5  108.59    5.90
  -2  -3   5  107.89    5.60
   1   3  -5    2.30    1.70
   1   3  -5    1.40    1.70
   1   3  -5   -0.90    1.70
   1   3  -5    2.80    1.20
   1   3  -5    0.20    1.80
   1   3  -5    1.50    2.10
  -1  -3   5    2.00    1.60
  -1  -3   5    1.60    1.40
  -1  -3   5    2.30    1.70
  -1  -3   5    1.50    1.40
   0   3  -5   65.69    4.40
   0   3  -5   68.19    3.40
   0   3  -5   68.49    3.60
   0   3  -5   72.59    4.30
   0   3  -5   71.59    4.20
   0   3  -5   66.09    4.10
   0   3  -5   67.49    4.80
   0  -3   5   70.29    4.30
   0  -3   5   73.39    4.40
   0  -3   5   68.09    4.60
   0  -3   5   62.69    3.70
  -1   3  -5   97.69    5.10
  -1   3  -5   92.29    4.60
  -1   3  -5   78.09    4.90
  -1   3  -5   91.89    4.10
  -1   3  -5   88.79    5.30
  -1   3  -5   89.69    4.60
  -1   3  -5   94.09    5.80
   1  -3   5   94.49    4.90
   1  -3   5   87.19    4.50
   1  -3   5   93.19    5.00
   1  -3   5   89.29    5.50
  -2   3  -5    2.50    1.70
  -2   3  -5    4.10    1.20
  -2   3  -5    2.60    1.90
  -2   3  -5    4.00    1.50
  -2   3  -5    3.60    2.10
  -2   3  -5    3.10    1.60
   2  -3   5    2.80    2.10
   2  -3   5    6.20    2.30
   2  -3   5    5.10    3.30
   2  -3   5    1.00    1.60
   2  -3   5    3.00    2.00
   2  -3   5    2.30    2.30
   2  -3   5    3.30    3.80
   2  -3   5    4.40    1.60
  -3   3  -5    2.50    2.20
  -3   3  -5    0.90    2.00
  -3   3  -5    3.00    1.40
  -3   3  -5    2.10    1.20
  -3   3  -5    3.20    1.80
  -3   3  -5    4.30    1.80
  -3   3  -5    3.70    1.70
   3  -3   5    2.70    2.10
   3  -3   5    3.40    2.30
   3  -3   5    3.70    2.20
   3  -3   5    5.40    2.20
   3  -3   5    1.50    2.20
   3  -3   5    4.00    1.60
   3  -3   5    6.10    2.20
   3  -3   5    2.70    1.90
  -4   3  -5  201.28    8.50
  -4   3  -5  198.88    8.60
  -4   3  -5  210.58    9.40
  -4   3  -5  209.58    9.50
  -4   3  -5  209.98    9.30
  -4   3  -5  201.68    9.30
  -4   3  -5  209.78   10.10
  -4   3  -5  202.48    9.80
   4  -3   5  192.98    9.60
   4  -3   5  211.68   10.00
   4  -3   5  193.58    9.50
   4  -3   5  196.38    9.60
  -5   3  -5   97.79    6.20
  -5   3  -5  106.09    6.50
  -5   3  -5  103.79    6.80
  -5   3  -5  104.89    6.40
  -5   3  -5  108.69    5.20
  -5   3  -5  110.39    6.00
  -5   3  -5   93.59    5.90
  -5   3  -5  110.19    6.60
   5  -3   5  106.19    7.00
   5  -3   5   95.59    6.20
   5  -3   5   97.69    6.40
   5  -3   5  106.89    6.50
   5  -3   5   97.89    7.10
  -6   3  -5   72.59    5.50
  -6   3  -5   64.69    5.50
  -6   3  -5   67.89    5.20
  -6   3  -5   67.09    5.30
   6  -3   5   67.19    5.60
   6  -3   5   66.19    5.10
   6  -3   5   62.19    5.30
  -7   3  -5   19.00    2.80
  -7   3  -5   21.50    2.90
  -7   3  -5   17.60    2.80
   7  -3   5   16.00    2.60
   7  -3   5   20.60    2.80
   7  -3   5   21.90    3.50
   7  -3   5   17.40    2.60
   6   2  -5    2.60    2.30
   6   2  -5    1.80    1.90
   6   2  -5    1.10    2.70
  -6  -2   5   -1.60    2.90
  -6  -2   5    2.70    2.50
   5   2  -5   -1.20    2.30
   5   2  -5   -2.30    2.50
   5   2  -5    0.80    2.10
   5   2  -5    0.30    3.40
  -5  -2   5    0.60    2.00
  -5  -2   5   -0.70    2.40
  -5  -2   5   -1.80    2.40
  -5  -2   5    1.30    2.20
  -5  -2   5    0.50    3.40
   4   2  -5    1.80    2.30
   4   2  -5    2.60    2.10
   4   2  -5    6.20    3.00
   4   2  -5    3.60    2.20
   4   2  -5    4.40    3.00
  -4  -2   5    2.40    2.40
  -4  -2   5    3.80    2.30
  -4  -2   5    4.60    2.00
  -4  -2   5    4.00    2.20
  -4  -2   5    2.20    1.80
  -4  -2   5    6.00    3.00
   3   2  -5  146.09    7.10
   3   2  -5  147.19    8.10
   3   2  -5  159.68    7.20
   3   2  -5  143.09    6.40
   3   2  -5  146.69    8.00
   3   2  -5  155.48    7.30
  -3  -2   5  151.38    8.00
  -3  -2   5  156.58    7.70
  -3  -2   5  154.58    7.00
  -3  -2   5  149.49    6.90
  -3  -2   5  146.89    7.50
  -3  -2   5  153.28    7.90
  -3  -2   5  139.99    7.30
  -3  -2   5  151.48    7.30
  -3  -2   5  134.19    7.30
   2   2  -5  269.97   10.80
   2   2  -5  297.67   11.50
   2   2  -5  285.57   12.20
   2   2  -5  292.67   11.60
   2   2  -5  258.87   11.20
  -2  -2   5  274.17   11.00
  -2  -2   5  264.57   11.00
  -2  -2   5  271.17   11.10
  -2  -2   5  268.57   11.40
  -2  -2   5  269.37   11.50
  -2  -2   5  274.17   11.70
   1   2  -5   52.19    3.00
   1   2  -5   59.49    3.70
   1   2  -5   54.39    3.70
   1   2  -5   56.89    3.60
   1   2  -5   54.09    4.20
   1   2  -5   53.29    4.00
  -1  -2   5   49.90    3.50
  -1  -2   5   51.49    3.60
  -1  -2   5   55.89    3.30
  -1  -2   5   53.29    3.50
   0   2  -5  133.49    6.00
   0   2  -5  144.09    5.90
   0   2  -5  140.09    6.10
   0   2  -5  138.59    6.60
   0   2  -5  152.78    7.20
   0   2  -5  140.09    6.90
   0   2  -5  144.49    6.60
   0   2  -5  141.69    6.50
   0  -2   5  136.49    6.20
   0  -2   5  147.79    6.90
   0  -2   5  148.09    6.20
   0  -2   5  143.79    6.50
   0  -2   5  139.69    6.50
  -1   2  -5   41.60    3.60
  -1   2  -5   46.70    2.60
  -1   2  -5   50.49    3.10
  -1   2  -5   47.60    3.00
  -1   2  -5   49.80    3.70
  -1   2  -5   49.60    3.50
  -1   2  -5   43.50    3.30
   1  -2   5   44.70    3.70
   1  -2   5   40.50    3.40
   1  -2   5   43.80    3.20
   1  -2   5   46.70    3.10
   1  -2   5   42.80    2.80
  -2   2  -5    6.30    1.90
  -2   2  -5    6.10    1.60
  -2   2  -5    7.30    1.20
  -2   2  -5    6.50    1.80
  -2   2  -5    7.30    2.10
  -2   2  -5    7.50    1.60
   2  -2   5    7.70    1.60
   2  -2   5    7.60    1.50
   2  -2   5    4.60    2.10
   2  -2   5    8.70    1.70
   2  -2   5    7.50    2.20
  -3   2  -5   20.60    2.80
  -3   2  -5   23.90    3.30
  -3   2  -5   20.80    2.40
  -3   2  -5   23.00    2.60
  -3   2  -5   18.90    3.60
  -3   2  -5   20.00    1.80
  -3   2  -5   16.50    2.50
   3  -2   5   12.60    2.60
   3  -2   5   16.50    2.80
   3  -2   5   20.60    2.50
   3  -2   5   16.80    3.40
   3  -2   5   18.30    2.10
  -4   2  -5   31.20    3.30
  -4   2  -5   19.50    2.50
  -4   2  -5   27.70    3.20
  -4   2  -5   31.50    3.00
  -4   2  -5   32.00    3.20
  -4   2  -5   29.90    3.70
  -4   2  -5   23.90    3.10
  -4   2  -5   27.40    3.80
  -4   2  -5   27.90    2.20
   4  -2   5   25.20    3.10
   4  -2   5   28.30    3.20
   4  -2   5   20.10    2.30
   4  -2   5   25.80    3.30
   4  -2   5   31.10    3.50
   4  -2   5   22.50    2.70
  -5   2  -5   70.59    5.50
  -5   2  -5   74.09    5.40
  -5   2  -5   76.79    5.40
  -5   2  -5   65.79    4.70
  -5   2  -5   72.59    5.60
  -5   2  -5   74.09    4.80
   5  -2   5   79.39    5.00
   5  -2   5   74.09    5.50
   5  -2   5   71.89    5.40
   5  -2   5   72.39    6.00
   5  -2   5   75.49    5.70
  -6   2  -5    8.90    3.30
  -6   2  -5    2.30    2.30
  -6   2  -5    6.80    2.90
  -6   2  -5    5.60    2.80
  -6   2  -5    5.40    2.90
   6  -2   5    4.70    2.60
   6  -2   5    9.20    3.00
   6  -2   5    3.50    2.80
  -7   2  -5   21.60    3.00
  -7   2  -5   21.50    3.40
  -7   2  -5   22.30    3.30
  -7   2  -5   20.80    3.20
   7  -2   5   20.30    3.10
   7  -2   5   22.60    3.30
   7  -2   5   25.30    3.20
   6   1  -5    2.10    3.00
   6   1  -5    1.00    2.40
   6   1  -5    0.30    2.10
   6   1  -5   -0.20    2.60
  -6  -1   5    3.20    2.60
  -6  -1   5   -2.20    3.10
   5   1  -5  165.28    9.30
   5   1  -5  177.08    8.60
   5   1  -5  171.18    9.80
   5   1  -5  173.88    8.50
   5   1  -5  178.58    8.60
  -5  -1   5  180.28    9.90
  -5  -1   5  165.18    8.30
  -5  -1   5  174.38    9.10
  -5  -1   5  171.18    8.60
  -5  -1   5  178.98    9.70
   4   1  -5    5.50    2.10
   4   1  -5    4.80    2.90
   4   1  -5    5.70    2.40
   4   1  -5    6.10    3.10
   4   1  -5    5.20    2.10
   4   1  -5    4.40    2.20
  -4  -1   5   12.50    3.50
  -4  -1   5    1.20    2.30
  -4  -1   5    1.60    2.80
  -4  -1   5    6.50    2.10
  -4  -1   5    1.60    2.30
  -4  -1   5    7.30    2.20
  -4  -1   5    3.00    2.10
   3   1  -5   -0.20    2.40
   3   1  -5    0.40    1.60
   3   1  -5   -0.20    1.70
   3   1  -5    3.40    1.80
   3   1  -5   -0.20    1.90
   3   1  -5    0.10    1.50
   3   1  -5    0.00    2.20
   3   1  -5   -1.50    2.20
  -3  -1   5    1.00    1.70
  -3  -1   5    0.80    1.50
  -3  -1   5   -1.10    1.30
  -3  -1   5   -1.50    1.90
  -3  -1   5    0.10    1.70
  -3  -1   5    3.50    2.40
  -3  -1   5    0.00    2.60
  -3  -1   5    1.30    1.70
  -3  -1   5    1.80    1.60
   2   1  -5   27.70    2.60
   2   1  -5   24.30    2.60
   2   1  -5   28.90    3.20
   2   1  -5   26.70    2.70
  -2  -1   5   21.30    2.50
  -2  -1   5   26.20    2.40
  -2  -1   5   24.20    2.70
  -2  -1   5   25.70    2.40
  -2  -1   5   27.90    2.40
   1   1  -5  553.24   21.60
   1   1  -5  550.54   21.00
   1   1  -5  520.35   20.70
   1   1  -5  565.74   21.10
   1   1  -5  548.55   21.20
   1   1  -5  571.04   21.60
  -1  -1   5  567.74   21.40
  -1  -1   5  574.74   20.80
  -1  -1   5  554.54   21.10
  -1  -1   5  542.95   21.10
  -1  -1   5  551.44   21.10
  -1  -1   5  544.55   20.80
   0   1  -5  756.12   28.40
   0   1  -5  769.92   28.40
   0   1  -5  732.53   28.50
   0   1  -5  744.13   28.00
   0   1  -5  702.43   27.80
   0   1  -5  750.02   28.20
   0   1  -5  716.63   27.90
   0   1  -5  768.42   27.90
   0  -1   5  743.53   28.10
   0  -1   5  740.03   27.60
   0  -1   5  764.02   27.90
   0  -1   5  790.62   27.90
   0  -1   5  757.92   28.30
   0  -1   5  752.52   28.30
   0  -1   5  733.33   27.90
  -1   1  -5  531.65   21.20
  -1   1  -5  588.54   21.10
  -1   1  -5  536.85   21.30
  -1   1  -5  589.54   21.60
  -1   1  -5  536.95   21.50
  -1   1  -5  554.24   20.90
   1  -1   5  537.15   20.90
   1  -1   5  553.14   21.60
   1  -1   5  558.64   21.20
   1  -1   5  541.45   21.20
   1  -1   5  574.34   22.00
   1  -1   5  572.34   20.90
  -2   1  -5  144.09    6.10
  -2   1  -5  133.29    6.20
  -2   1  -5  140.19    6.70
  -2   1  -5  129.79    6.00
  -2   1  -5  129.49    6.50
   2  -1   5  141.09    7.10
   2  -1   5  134.89    6.80
   2  -1   5  132.89    6.10
   2  -1   5  146.29    6.00
   2  -1   5  137.89    6.20
  -3   1  -5   -1.00    1.40
  -3   1  -5   -0.30    1.80
  -3   1  -5    1.40    1.40
  -3   1  -5    0.70    1.40
   3  -1   5   -1.70    1.70
   3  -1   5    0.50    1.20
   3  -1   5    0.20    1.20
   3  -1   5    0.90    1.20
   3  -1   5   -2.30    1.60
  -4   1  -5   54.99    3.80
  -4   1  -5   62.59    3.80
  -4   1  -5   60.09    4.70
  -4   1  -5   67.59    4.00
  -4   1  -5   58.99    4.10
  -4   1  -5   60.49    4.00
  -4   1  -5   54.09    4.30
  -4   1  -5   54.59    3.90
  -4   1  -5   58.29    4.00
   4  -1   5   61.19    4.70
   4  -1   5   62.29    4.40
   4  -1   5   57.49    4.80
   4  -1   5   55.89    4.50
   4  -1   5   60.59    3.60
   4  -1   5   59.59    3.90
   4  -1   5   67.19    4.60
   4  -1   5   64.09    4.00
  -5   1  -5   68.89    5.10
  -5   1  -5   65.79    5.40
  -5   1  -5   66.69    4.60
  -5   1  -5   62.89    4.60
  -5   1  -5   57.29    5.40
  -5   1  -5   63.39    4.70
  -5   1  -5   67.09    4.60
  -5   1  -5   68.69    4.60
  -5   1  -5   68.49    4.70
   5  -1   5   67.69    5.10
   5  -1   5   65.79    4.90
   5  -1   5   66.79    4.40
   5  -1   5   59.49    4.30
   5  -1   5   73.69    5.50
  -6   1  -5    2.40    2.70
  -6   1  -5    4.80    2.80
  -6   1  -5    1.90    2.50
  -6   1  -5    5.90    3.00
  -6   1  -5   -0.30    2.30
  -6   1  -5    2.10    2.60
   6  -1   5    1.30    2.50
   6  -1   5    3.30    2.60
   6  -1   5    4.40    2.50
   6  -1   5    1.30    2.70
  -7   1  -5    9.20    2.90
  -7   1  -5    6.70    2.40
  -7   1  -5    7.20    3.00
  -7   1  -5    5.30    2.70
  -7   1  -5    5.60    3.10
   7  -1   5    5.90    2.70
   7  -1   5    8.00    2.70
   7  -1   5    9.10    2.90
  -8   1  -5   96.09    5.30
  -8   1  -5   98.59    7.30
  -8   1  -5   94.49    5.40
   8  -1   5   98.59    5.50
   8  -1   5  103.09    5.40
   6   0  -5   41.60    4.20
   6   0  -5   33.30    4.20
   6   0  -5   34.20    3.50
  -6   0   5   41.30    4.80
  -6   0   5   32.40    3.40
  -6   0   5   35.20    3.80
   5   0  -5    4.90    2.60
   5   0  -5    5.10    2.40
   5   0  -5    3.40    2.60
   5   0  -5    4.40    3.20
   5   0  -5    0.10    3.00
  -5   0   5    1.70    3.10
  -5   0   5    2.70    2.60
  -5   0   5    4.00    2.10
  -5   0   5    3.00    2.60
   4   0  -5   67.09    5.20
   4   0  -5   60.09    4.30
   4   0  -5   60.09    4.50
   4   0  -5   60.69    5.60
   4   0  -5   58.29    4.20
   4   0  -5   57.89    4.40
  -4   0   5   62.29    5.00
  -4   0   5   58.99    4.30
  -4   0   5   58.39    4.90
  -4   0   5   57.39    4.00
  -4   0   5   59.09    4.20
  -4   0   5   57.19    5.40
  -4   0   5   60.69    5.50
   3   0  -5  337.97   14.10
   3   0  -5  352.26   13.50
   3   0  -5  327.77   13.50
   3   0  -5  312.27   13.90
   3   0  -5  315.17   13.40
   3   0  -5  344.57   13.50
   3   0  -5  314.87   14.10
   3   0  -5  313.17   13.30
  -3   0   5  325.37   13.70
  -3   0   5  330.97   13.90
  -3   0   5  305.67   13.50
  -3   0   5  326.37   14.30
  -3   0   5  349.07   13.40
  -3   0   5  316.27   13.70
  -3   0   5  348.67   13.40
  -3   0   5  315.47   14.00
  -3   0   5  338.67   13.50
   2   0  -5  405.56   16.20
   2   0  -5  402.36   16.00
   2   0  -5  407.56   16.50
   2   0  -5  409.26   16.10
  -2   0   5  414.26   16.40
  -2   0   5  419.76   16.20
  -2   0   5  395.16   16.20
  -2   0   5  429.86   16.00
  -2   0   5  411.36   16.00
   1   0  -5  676.33   25.50
   1   0  -5  702.33   26.00
   1   0  -5  650.63   25.40
   1   0  -5  724.03   25.80
   1   0  -5  684.73   25.60
  -1   0   5  708.03   25.90
  -1   0   5  663.53   25.50
  -1   0   5  680.83   25.70
  -1   0   5  626.54   25.40
  -1   0   5  701.83   25.50
  -1   0   5  702.83   25.90
  -1   0   5  658.83   26.00
   0   0  -5   33.20    2.60
   0   0  -5   32.80    2.90
   0   0  -5   29.60    2.10
   0   0  -5   29.60    2.30
   0   0  -5   32.00    2.40
   0   0  -5   29.50    2.00
   0   0  -5   29.40    2.10
   0   0  -5   35.10    2.70
   0   0   5   33.20    2.60
   0   0   5   31.80    2.80
   0   0   5   29.90    1.90
   0   0   5   31.10    2.50
   0   0   5   28.90    1.90
   0   0   5   30.30    2.00
   0   0   5   32.70    2.20
   0   0   5   30.50    2.20
   0   0   5   29.30    2.30
   0   0   5   31.00    2.00
  -1   0  -5  271.57   11.20
  -1   0  -5  275.77   11.00
  -1   0  -5  271.97   10.80
  -1   0  -5  283.87   10.80
  -1   0  -5  252.87   10.50
  -1   0  -5  273.27   10.70
  -1   0  -5  279.97   11.40
   1   0   5  291.67   10.70
   1   0   5  270.67   10.80
   1   0   5  263.47   10.50
   1   0   5  272.57   10.70
   1   0   5  276.87   11.10
   1   0   5  263.97   11.10
   1   0   5  283.17   10.90
   1   0   5  291.77   11.60
   1   0   5  285.27   11.00
  -2   0  -5   57.59    3.20
  -2   0  -5   65.19    4.10
  -2   0  -5   53.29    3.60
  -2   0  -5   61.49    3.30
  -2   0  -5   54.69    3.30
   2   0   5   59.29    4.10
   2   0   5   56.29    3.00
   2   0   5   57.79    3.10
   2   0   5   56.99    3.50
   2   0   5   60.29    3.30
   2   0   5   57.29    3.40
  -3   0  -5   32.00    2.50
  -3   0  -5   31.40    2.40
  -3   0  -5   29.60    2.50
  -3   0  -5   32.70    3.30
  -3   0  -5   27.20    2.40
   3   0   5   29.10    3.50
   3   0   5   33.00    2.80
   3   0   5   33.60    2.50
   3   0   5   27.10    2.40
  -4   0  -5   77.89    4.90
  -4   0  -5   84.69    4.40
  -4   0  -5   81.19    4.50
  -4   0  -5   73.19    4.50
  -4   0  -5   85.19    5.20
  -4   0  -5   86.59    4.40
   4   0   5   88.79    4.40
   4   0   5   78.19    5.50
   4   0   5   85.19    5.20
   4   0   5   87.59    4.80
   4   0   5   88.39    5.60
   4   0   5   67.29    4.40
  -5   0  -5   38.10    4.10
  -5   0  -5   33.70    3.40
  -5   0  -5   31.40    3.30
  -5   0  -5   27.00    2.70
  -5   0  -5   32.40    3.30
  -5   0  -5   29.20    3.50
  -5   0  -5   28.20    2.90
  -5   0  -5   24.10    2.70
  -5   0  -5   17.20    3.20
   5   0   5   17.20    3.20
   5   0   5   25.80    2.80
   5   0   5   33.70    3.50
   5   0   5   37.50    3.80
   5   0   5   22.20    2.50
   5   0   5   27.30    2.90
   5   0   5   35.20    3.50
  -6   0  -5   73.29    5.20
  -6   0  -5   71.09    5.20
  -6   0  -5   74.09    6.00
  -6   0  -5   62.09    5.70
  -6   0  -5   69.89    5.10
   6   0   5   66.99    5.50
   6   0   5   69.59    5.00
   6   0   5   71.59    5.50
   6   0   5   77.09    5.50
  -7   0  -5   63.99    5.30
  -7   0  -5   58.69    5.30
  -7   0  -5   66.39    5.70
  -7   0  -5   62.39    4.90
  -7   0  -5   55.39    5.00
   7   0   5   49.40    4.40
   7   0   5   66.99    5.30
   7   0   5   66.19    5.60
   7   0   5   56.09    5.40
  -8   0  -5   67.29    4.80
  -8   0  -5   68.39    5.30
  -8   0  -5   78.09    4.90
  -8   0  -5   75.09    5.00
   8   0   5   73.49    4.70
   8   0   5   72.09    5.00
   6  -1  -5    6.50    3.10
   6  -1  -5    3.10    2.20
  -6   1   5    4.80    2.60
  -6   1   5    8.80    2.70
   5  -1  -5   15.00    3.00
   5  -1  -5   13.50    2.80
   5  -1  -5   21.60    4.00
   5  -1  -5   17.50    3.30
  -5   1   5   20.00    3.40
  -5   1   5   15.70    3.30
  -5   1   5   22.60    3.00
  -5   1   5   19.90    4.00
   4  -1  -5   36.00    4.10
   4  -1  -5   30.60    3.30
   4  -1  -5   29.40    3.80
   4  -1  -5   31.40    3.30
   4  -1  -5   36.30    3.70
  -4   1   5   47.70    5.20
  -4   1   5   40.30    4.30
  -4   1   5   37.50    3.80
  -4   1   5   38.20    3.50
  -4   1   5   37.10    3.30
   3  -1  -5   57.79    4.60
   3  -1  -5   61.29    4.70
   3  -1  -5   58.69    4.10
   3  -1  -5   55.09    3.90
   3  -1  -5   65.39    3.90
   3  -1  -5   59.89    4.50
   3  -1  -5   61.99    3.80
  -3   1   5   55.69    4.50
  -3   1   5   60.09    3.80
  -3   1   5   56.29    4.30
  -3   1   5   59.99    3.40
  -3   1   5   55.99    5.20
  -3   1   5   54.49    4.10
  -3   1   5   63.59    4.00
  -3   1   5   59.69    3.80
   2  -1  -5   10.50    2.20
   2  -1  -5    9.40    1.60
   2  -1  -5    8.50    2.00
   2  -1  -5    8.10    1.60
  -2   1   5    8.70    1.60
  -2   1   5   12.30    2.30
  -2   1   5   12.90    1.90
  -2   1   5    7.80    1.50
  -2   1   5   12.30    1.80
  -2   1   5   12.10    1.90
   1  -1  -5  291.37   11.70
   1  -1  -5  302.27   12.10
   1  -1  -5  297.37   11.70
   1  -1  -5  288.77   11.80
   1  -1  -5  283.47   11.70
   1  -1  -5  301.97   12.10
  -1   1   5  313.87   11.80
  -1   1   5  297.17   11.80
  -1   1   5  307.37   12.20
  -1   1   5  320.37   12.30
  -1   1   5  299.97   11.90
  -1   1   5  294.27   11.90
   0  -1  -5    2.20    1.10
   0  -1  -5    1.90    1.20
   0  -1  -5    2.40    1.20
   0  -1  -5    2.20    1.20
   0  -1  -5    2.70    0.90
   0  -1  -5    5.20    1.40
   0   1   5    2.10    1.30
   0   1   5    2.10    1.00
   0   1   5    2.80    0.90
   0   1   5    2.90    1.20
   0   1   5    3.30    1.30
   0   1   5    4.20    1.20
   0   1   5    3.10    1.10
   0   1   5    6.40    1.60
   0   1   5    1.90    1.30
  -1  -1  -5  112.99    5.20
  -1  -1  -5  109.29    5.30
  -1  -1  -5  119.29    5.20
  -1  -1  -5  120.79    5.80
  -1  -1  -5  121.39    5.30
   1   1   5  116.89    5.30
   1   1   5  125.39    5.80
   1   1   5  116.19    5.40
   1   1   5  121.39    5.00
   1   1   5  125.79    5.50
   1   1   5  114.59    5.20
   1   1   5  121.69    5.50
  -2  -1  -5    9.40    1.50
  -2  -1  -5    9.40    2.00
  -2  -1  -5    8.20    1.50
  -2  -1  -5    7.80    1.40
  -2  -1  -5    9.60    1.60
   2   1   5    9.30    1.70
   2   1   5   11.60    1.50
   2   1   5    9.40    1.60
   2   1   5    8.40    1.40
   2   1   5   10.50    2.30
  -3  -1  -5  132.49    6.00
  -3  -1  -5  135.49    5.90
  -3  -1  -5  107.59    6.00
  -3  -1  -5  132.59    6.60
  -3  -1  -5  130.19    5.90
  -3  -1  -5  135.59    5.50
   3   1   5  135.19    6.10
   3   1   5  126.89    5.50
   3   1   5  134.89    6.10
   3   1   5  145.29    5.80
   3   1   5  128.19    6.20
   3   1   5  141.39    7.00
  -4  -1  -5  105.79    5.20
  -4  -1  -5  100.09    5.80
  -4  -1  -5  103.39    5.00
  -4  -1  -5  111.49    5.40
   4   1   5  107.29    5.30
   4   1   5   98.69    4.60
   4   1   5  102.29    6.30
   4   1   5  102.09    5.00
   4   1   5  102.49    5.30
  -5  -1  -5  106.49    6.30
  -5  -1  -5  106.29    5.70
  -5  -1  -5   98.89    5.40
  -5  -1  -5   99.79    5.70
  -5  -1  -5  109.69    6.20
  -5  -1  -5  113.59    6.40
  -5  -1  -5  113.69    6.10
   5   1   5   94.69    6.70
   5   1   5   82.89    5.10
   5   1   5  110.59    5.30
   5   1   5  109.09    5.80
   5   1   5  108.49    6.10
   5   1   5  100.29    5.50
   5   1   5  109.09    6.10
  -6  -1  -5   79.69    5.90
  -6  -1  -5   68.09    5.80
  -6  -1  -5   74.89    5.30
  -6  -1  -5   75.99    5.40
  -6  -1  -5   70.19    5.00
   6   1   5   73.09    5.00
   6   1   5   76.09    5.50
   6   1   5   71.09    4.60
   6   1   5   75.19    5.50
   6   1   5   77.89    5.50
   6   1   5   74.29    4.70
   6   1   5   82.19    5.10
  -7  -1  -5   -1.40    2.60
  -7  -1  -5    1.60    2.60
  -7  -1  -5   -1.30    2.70
  -7  -1  -5    3.10    2.40
  -7  -1  -5   -1.50    2.40
   7   1   5   -2.60    2.20
   7   1   5    1.10    2.00
   7   1   5    0.00    2.40
   7   1   5    0.50    2.40
  -8  -1  -5    3.40    2.40
  -8  -1  -5   -0.50    2.30
  -8  -1  -5    0.30    2.00
  -8  -1  -5    5.50    2.60
   8   1   5   -1.50    2.20
   8   1   5   -0.80    1.90
   8   1   5    1.50    2.10
   6  -2  -5    3.80    2.60
   6  -2  -5    1.10    2.00
  -6   2   5    3.00    2.40
  -6   2   5    1.60    2.50
   5  -2  -5   91.99    5.90
   5  -2  -5   74.49    5.20
   5  -2  -5   84.29    6.30
   5  -2  -5   88.89    6.80
  -5   2   5   85.09    6.10
  -5   2   5   81.19    6.40
  -5   2   5   83.59    5.20
  -5   2   5   91.89    6.30
   4  -2  -5   15.30    4.40
   4  -2  -5   17.70    3.30
   4  -2  -5   14.50    2.80
   4  -2  -5   16.80    3.50
   4  -2  -5   14.10    2.70
   4  -2  -5   16.70    3.00
  -4   2   5   15.60    2.70
  -4   2   5   14.10    2.40
  -4   2   5   14.60    3.00
  -4   2   5   13.70    3.10
  -4   2   5   19.70    4.70
  -4   2   5   14.30    2.10
   3  -2  -5   62.89    4.80
   3  -2  -5   59.19    5.00
   3  -2  -5   68.99    4.30
   3  -2  -5   62.89    4.50
   3  -2  -5   51.09    4.90
   3  -2  -5   65.99    4.10
   3  -2  -5   61.09    5.20
   3  -2  -5   60.69    4.20
   3  -2  -5   59.09    5.60
  -3   2   5   58.29    3.80
  -3   2   5   68.79    3.90
  -3   2   5   66.89    4.10
  -3   2   5   52.89    4.30
  -3   2   5   60.39    3.90
  -3   2   5   59.49    4.50
  -3   2   5   59.59    4.90
   2  -2  -5   34.50    4.00
   2  -2  -5   39.50    3.40
   2  -2  -5   35.00    2.80
   2  -2  -5   36.70    2.70
   2  -2  -5   34.70    3.50
  -2   2   5   37.30    2.70
  -2   2   5   38.90    3.50
  -2   2   5   40.40    2.90
  -2   2   5   32.70    2.60
  -2   2   5   35.80    3.40
  -2   2   5   36.20    2.90
   1  -2  -5  586.14   21.90
   1  -2  -5  559.24   21.40
   1  -2  -5  557.94   21.40
   1  -2  -5  572.14   22.50
   1  -2  -5  555.34   21.70
   1  -2  -5  570.34   21.80
  -1   2   5  565.84   21.20
  -1   2   5  544.55   21.50
  -1   2   5  582.24   21.60
  -1   2   5  533.75   21.50
  -1   2   5  591.64   22.10
  -1   2   5  560.34   21.90
  -1   2   5  595.34   21.60
   0  -2  -5  833.02   31.60
   0  -2  -5  788.22   31.90
   0  -2  -5  895.31   32.00
   0  -2  -5  883.41   31.80
   0  -2  -5  841.12   31.90
   0   2   5  873.11   31.80
   0   2   5  826.52   31.80
   0   2   5  866.51   32.20
   0   2   5  897.51   32.00
   0   2   5  858.31   31.80
   0   2   5  816.12   31.80
  -1  -2  -5    3.20    1.40
  -1  -2  -5    2.10    1.40
  -1  -2  -5    3.60    1.20
  -1  -2  -5    2.60    1.20
   1   2   5    2.80    1.60
   1   2   5    2.40    1.50
   1   2   5    2.90    1.30
   1   2   5    2.70    1.30
   1   2   5    2.00    1.10
   1   2   5    1.10    0.90
   1   2   5    2.30    1.00
  -2  -2  -5   12.20    1.60
  -2  -2  -5   11.60    1.40
  -2  -2  -5   11.90    2.20
  -2  -2  -5   12.90    1.60
  -2  -2  -5   11.20    1.80
   2   2   5   10.00    1.70
   2   2   5   15.10    1.70
   2   2   5   14.00    2.40
   2   2   5   10.30    1.70
   2   2   5   15.70    1.80
  -3  -2  -5  415.76   17.30
  -3  -2  -5  464.55   18.30
  -3  -2  -5  444.46   17.50
  -3  -2  -5  461.55   17.60
  -3  -2  -5  465.55   17.90
   3   2   5  479.15   18.80
   3   2   5  469.25   17.50
   3   2   5  468.85   17.90
   3   2   5  448.56   17.90
   3   2   5  453.25   17.20
  -4  -2  -5   34.40    3.20
  -4  -2  -5   32.20    3.50
  -4  -2  -5   34.30    2.70
  -4  -2  -5   34.80    2.80
  -4  -2  -5   38.50    3.30
   4   2   5   41.10    3.10
   4   2   5   35.20    2.70
   4   2   5   31.30    3.00
   4   2   5   39.00    4.10
   4   2   5   35.20    2.40
  -5  -2  -5   21.40    2.90
  -5  -2  -5   20.50    3.00
  -5  -2  -5   16.10    2.90
  -5  -2  -5   18.60    2.90
  -5  -2  -5   16.90    2.80
   5   2   5   17.20    2.50
   5   2   5   16.00    3.00
   5   2   5   13.00    2.30
   5   2   5   15.70    1.80
   5   2   5   19.50    1.90
   5   2   5   18.80    2.30
   5   2   5   17.90    2.60
   5   2   5   13.50    2.50
   5   2   5   17.80    2.80
  -6  -2  -5  228.58   10.80
  -6  -2  -5  235.18   11.00
  -6  -2  -5  221.78   10.80
  -6  -2  -5  238.28   11.60
  -6  -2  -5  216.48   10.50
  -6  -2  -5  238.28   11.10
   6   2   5  222.98    9.30
   6   2   5  236.18   10.90
   6   2   5  238.68   10.60
   6   2   5  232.18   10.60
   6   2   5  226.18   10.00
  -7  -2  -5   16.80    3.20
  -7  -2  -5   24.20    3.70
  -7  -2  -5   18.50    3.70
  -7  -2  -5   15.10    2.90
  -7  -2  -5   21.40    3.80
  -7  -2  -5   26.90    3.80
   7   2   5   22.20    3.40
   7   2   5   24.00    3.30
   7   2   5   21.20    3.00
  -8  -2  -5   95.99    5.60
  -8  -2  -5  100.59    6.00
  -8  -2  -5  100.39    6.30
  -8  -2  -5   80.79    5.40
   8   2   5   83.39    5.10
   8   2   5   92.79    5.20
   8   2   5   90.89    5.40
   6  -3  -5    6.50    2.90
   6  -3  -5    2.20    1.80
   6  -3  -5    2.60    1.90
  -6   3   5   -2.20    1.80
  -6   3   5   -0.60    2.10
   5  -3  -5   69.29    5.30
   5  -3  -5   73.09    5.30
   5  -3  -5   62.59    6.30
  -5   3   5   58.69    5.90
  -5   3   5   75.49    5.30
  -5   3   5   68.69    5.50
   4  -3  -5  584.14   23.80
   4  -3  -5  564.34   22.40
   4  -3  -5  482.45   23.90
   4  -3  -5  572.34   22.40
   4  -3  -5  574.44   22.10
   4  -3  -5  557.44   22.30
  -4   3   5  468.95   22.10
  -4   3   5  556.44   21.40
  -4   3   5  576.44   22.60
  -4   3   5  595.24   22.60
  -4   3   5  577.74   22.20
   3  -3  -5   96.99    5.50
   3  -3  -5  103.39    6.10
   3  -3  -5  107.09    5.90
   3  -3  -5   97.89    6.60
   3  -3  -5   91.59    7.00
   3  -3  -5  105.49    6.60
   3  -3  -5  107.69    5.90
   3  -3  -5   96.09    5.70
  -3   3   5  113.49    5.30
  -3   3   5  102.09    6.10
  -3   3   5  110.89    5.70
  -3   3   5  112.19    5.40
  -3   3   5  100.39    5.50
  -3   3   5   96.99    8.20
  -3   3   5   98.79    6.10
   2  -3  -5    1.20    2.00
   2  -3  -5    0.60    1.50
   2  -3  -5    4.30    3.10
   2  -3  -5    1.40    1.60
   2  -3  -5    1.20    1.50
   2  -3  -5    1.70    2.30
   2  -3  -5    0.30    2.30
   2  -3  -5    0.30    1.40
   2  -3  -5    0.80    2.20
   2  -3  -5   -1.60    1.50
  -2   3   5    0.00    2.20
  -2   3   5   -0.70    1.30
  -2   3   5    0.90    1.80
  -2   3   5    0.40    1.40
  -2   3   5    0.20    1.50
  -2   3   5    2.30    1.60
  -2   3   5    3.10    2.00
  -2   3   5    1.40    1.30
   1  -3  -5  601.54   22.50
   1  -3  -5  613.94   22.60
   1  -3  -5  538.25   23.00
   1  -3  -5  553.64   21.90
  -1   3   5  591.24   22.20
  -1   3   5  581.94   21.70
  -1   3   5  590.44   22.80
  -1   3   5  551.04   22.00
  -1   3   5  605.34   22.20
  -1   3   5  566.84   22.30
   0  -3  -5    0.50    1.60
   0  -3  -5    2.70    1.60
   0   3   5    1.50    1.10
   0   3   5    1.70    1.20
   0   3   5    1.30    1.30
   0   3   5    0.60    1.30
   0   3   5    0.10    1.60
   0   3   5    0.30    0.90
  -1  -3  -5  402.66   16.00
  -1  -3  -5  416.36   16.20
  -1  -3  -5  425.76   16.00
   1   3   5  387.46   15.80
   1   3   5  391.46   16.00
   1   3   5  427.16   16.60
   1   3   5  410.06   15.60
   1   3   5  424.96   16.40
   1   3   5  431.66   16.00
  -2  -3  -5   22.80    2.20
  -2  -3  -5   20.60    2.10
  -2  -3  -5   21.80    2.10
  -2  -3  -5   23.20    2.50
   2   3   5   26.90    2.10
   2   3   5   22.40    2.90
   2   3   5   19.50    2.00
   2   3   5   23.10    2.30
   2   3   5   22.80    2.40
  -3  -3  -5  429.86   17.30
  -3  -3  -5  460.65   17.80
  -3  -3  -5  448.86   17.40
  -3  -3  -5  444.46   17.30
   3   3   5  453.55   17.60
   3   3   5  454.65   17.70
   3   3   5  453.75   18.60
   3   3   5  436.76   16.90
   3   3   5  464.85   17.30
  -4  -3  -5   17.30    3.60
  -4  -3  -5   15.40    2.60
  -4  -3  -5   13.60    2.70
  -4  -3  -5   13.60    2.30
  -4  -3  -5   17.20    2.70
  -4  -3  -5   16.40    2.10
  -4  -3  -5   16.30    2.80
  -4  -3  -5   17.80    2.70
  -4  -3  -5   12.20    3.30
   4   3   5   14.60    1.70
   4   3   5   13.80    2.10
   4   3   5   14.20    2.10
   4   3   5   17.10    2.10
   4   3   5   14.20    2.80
  -5  -3  -5   35.20    3.80
  -5  -3  -5   34.10    3.60
  -5  -3  -5   28.60    3.80
  -5  -3  -5   41.80    3.90
  -5  -3  -5   34.10    5.20
  -5  -3  -5   35.80    3.80
  -5  -3  -5   37.30    3.70
   5   3   5   37.40    2.90
   5   3   5   36.80    4.50
   5   3   5   42.00    3.50
   5   3   5   38.60    3.70
   5   3   5   41.90    3.60
   5   3   5   36.10    2.80
   5   3   5   30.60    3.60
  -6  -3  -5   -1.00    2.60
  -6  -3  -5   -0.80    2.20
  -6  -3  -5    1.60    2.60
  -6  -3  -5   -2.50    2.30
  -6  -3  -5   -1.60    2.40
  -6  -3  -5   -2.60    2.80
   6   3   5   -0.60    1.70
   6   3   5    1.40    2.20
   6   3   5    3.30    2.40
   6   3   5    0.80    1.60
   6   3   5    1.50    2.00
   6   3   5    0.80    1.50
   6   3   5    0.60    1.70
  -7  -3  -5   22.30    3.20
  -7  -3  -5   37.70    4.70
  -7  -3  -5   35.60    4.10
  -7  -3  -5   32.90    3.70
  -7  -3  -5   39.00    4.60
  -7  -3  -5   29.20    3.70
  -7  -3  -5   30.90    4.00
   7   3   5   30.80    3.50
   7   3   5   30.50    3.50
   7   3   5   42.00    3.80
  -8  -3  -5    3.00    2.50
  -8  -3  -5    5.40    2.50
  -8  -3  -5    1.90    3.20
  -8  -3  -5    7.60    2.70
   8   3   5    3.40    1.90
   8   3   5    4.90    2.20
   5  -4  -5    2.60    3.80
   5  -4  -5    0.00    2.20
   5  -4  -5    1.40    1.90
  -5   4   5    0.40    2.50
  -5   4   5    0.10    2.90
  -5   4   5    2.50    2.50
   4  -4  -5   12.20    2.50
   4  -4  -5   16.50    4.70
   4  -4  -5   17.70    3.00
   4  -4  -5   17.30    3.30
   4  -4  -5    8.80    3.00
  -4   4   5   16.00    2.40
  -4   4   5   21.70    3.60
  -4   4   5   14.20    2.60
  -4   4   5   18.90    3.30
  -4   4   5   15.80    2.70
   3  -4  -5  217.98   11.30
   3  -4  -5  225.98   10.20
   3  -4  -5  231.08   12.10
   3  -4  -5  250.67   10.60
   3  -4  -5  227.88   10.20
   3  -4  -5  230.18   10.70
   3  -4  -5  221.98   11.30
   3  -4  -5  234.28   10.70
  -3   4   5  229.08   10.60
  -3   4   5  234.38   10.40
  -3   4   5  241.18    9.80
  -3   4   5  231.78   10.80
  -3   4   5  248.68   10.00
  -3   4   5  224.98   10.20
   2  -4  -5   87.39    5.50
   2  -4  -5   83.19    6.00
   2  -4  -5   89.59    5.90
   2  -4  -5   91.69    6.40
   2  -4  -5   89.69    6.70
   2  -4  -5   77.59    5.80
   2  -4  -5   86.59    5.30
   2  -4  -5   86.69    5.00
   2  -4  -5   83.59    4.90
   2  -4  -5   83.89    4.80
  -2   4   5   74.59    5.20
  -2   4   5   93.59    4.50
  -2   4   5   84.59    4.40
  -2   4   5   86.39    5.10
  -2   4   5   88.39    4.80
  -2   4   5   94.49    5.10
   1  -4  -5  333.07   13.90
   1  -4  -5  324.67   14.50
   1  -4  -5  333.87   14.90
   1  -4  -5  318.67   14.50
   1  -4  -5  359.56   14.30
   1  -4  -5  327.07   13.60
   1  -4  -5  337.17   15.20
   1  -4  -5  342.67   14.60
  -1   4   5  352.06   13.70
  -1   4   5  332.87   13.00
  -1   4   5  334.47   14.30
  -1   4   5  360.66   13.80
   0  -4  -5    3.30    1.90
   0   4   5    4.30    1.30
   0   4   5    4.10    1.30
   0   4   5    6.40    2.00
   0   4   5    6.20    1.70
   0   4   5    4.30    0.90
  -1  -4  -5   35.40    2.90
   1   4   5   35.70    2.80
   1   4   5   36.30    3.50
   1   4   5   35.20    2.40
  -2  -4  -5  166.58    7.50
  -2  -4  -5  159.58    6.90
   2   4   5  153.58    6.70
   2   4   5  165.38    6.90
   2   4   5  154.68    7.00
   2   4   5  154.78    7.80
  -3  -4  -5   43.30    4.70
  -3  -4  -5   36.90    4.50
  -3  -4  -5   43.40    3.60
  -3  -4  -5   39.10    2.80
  -3  -4  -5   49.60    4.90
  -3  -4  -5   47.80    4.00
  -3  -4  -5   35.00    3.30
   3   4   5   41.20    2.80
   3   4   5   39.00    2.40
   3   4   5   39.10    3.10
   3   4   5   42.70    4.10
  -4  -4  -5   -3.60    2.80
  -4  -4  -5   -0.60    1.60
  -4  -4  -5    1.60    2.40
  -4  -4  -5   -0.20    1.50
  -4  -4  -5    1.70    3.00
  -4  -4  -5   -2.00    1.80
  -4  -4  -5   -0.20    1.90
  -4  -4  -5   -1.10    1.80
  -4  -4  -5   -0.30    1.90
  -4  -4  -5   -0.60    2.50
   4   4   5   -1.10    1.30
   4   4   5   -0.10    1.40
   4   4   5    1.60    1.90
   4   4   5    0.20    1.10
  -5  -4  -5   -0.30    2.00
  -5  -4  -5    5.10    2.50
  -5  -4  -5    7.90    4.20
  -5  -4  -5    2.00    2.40
  -5  -4  -5    1.70    2.40
  -5  -4  -5    1.60    2.00
  -5  -4  -5    2.60    2.30
  -5  -4  -5   -1.60    2.60
  -5  -4  -5   -1.50    2.80
   5   4   5    3.10    2.00
   5   4   5    5.80    2.10
   5   4   5    1.90    1.40
   5   4   5    4.10    1.60
   5   4   5    3.80    1.80
   5   4   5    0.90    2.40
  -6  -4  -5  101.39    7.30
  -6  -4  -5   86.99    6.40
  -6  -4  -5   88.49    6.90
  -6  -4  -5   84.79    5.60
  -6  -4  -5   99.69    6.60
  -6  -4  -5   94.89    6.30
  -6  -4  -5   90.39    6.00
   6   4   5   80.89    5.10
   6   4   5   92.69    4.90
   6   4   5   94.19    4.90
   6   4   5   82.59    5.80
   6   4   5   85.69    5.50
   6   4   5   89.79    5.80
  -7  -4  -5    0.60    3.00
  -7  -4  -5   -0.10    2.40
  -7  -4  -5    0.70    3.20
  -7  -4  -5   -1.20    3.60
  -7  -4  -5   -0.70    2.40
  -7  -4  -5    3.70    2.80
  -7  -4  -5   -1.90    2.60
   7   4   5   -3.10    1.40
   7   4   5    0.50    2.50
   7   4   5    1.00    2.30
  -8  -4  -5    1.70    2.80
  -8  -4  -5    2.00    1.90
  -8  -4  -5    1.70    1.90
  -8  -4  -5    5.70    2.80
  -8  -4  -5    3.20    2.40
   8   4   5    1.10    1.90
   8   4   5    3.40    2.10
   5  -5  -5   27.00    2.70
   5  -5  -5   21.40    3.70
  -5   5   5   26.10    3.50
  -5   5   5   30.00    3.00
  -5   5   5   21.80    2.70
   4  -5  -5   64.99    4.90
   4  -5  -5   68.69    6.70
   4  -5  -5   54.79    5.20
  -4   5   5   66.99    4.10
  -4   5   5   63.19    5.00
  -4   5   5   59.69    4.40
  -4   5   5   62.49    5.10
   3  -5  -5   14.30    3.80
   3  -5  -5   11.50    2.90
   3  -5  -5   14.30    2.70
   3  -5  -5   18.60    3.70
   3  -5  -5   21.10    5.00
   3  -5  -5   14.00    3.80
  -3   5   5   14.20    3.20
  -3   5   5   14.30    2.80
  -3   5   5    9.70    2.30
  -3   5   5   16.90    2.30
  -3   5   5   15.70    2.40
   2  -5  -5  124.29    8.30
   2  -5  -5  128.69    7.80
   2  -5  -5  133.69    8.20
   2  -5  -5  133.69    7.20
   2  -5  -5  140.09    9.30
   2  -5  -5  125.49    6.80
  -2   5   5  131.69    6.10
  -2   5   5  140.29    7.00
  -2   5   5  124.99    6.70
  -2   5   5  140.09    6.20
   1  -5  -5   64.09    5.10
   1  -5  -5   65.59    5.00
   1  -5  -5   70.79    6.60
   1  -5  -5   61.29    5.40
   1  -5  -5   61.99    5.80
   1  -5  -5   59.49    4.30
   1  -5  -5   51.59    5.60
   1  -5  -5   62.49    4.50
  -1   5   5   60.79    4.10
  -1   5   5   53.79    4.40
  -1   5   5   57.89    3.90
  -1   5   5   59.59    3.20
   0  -5  -5   51.19    4.40
   0  -5  -5   50.89    4.70
   0  -5  -5   47.60    3.60
   0  -5  -5   56.59    5.00
   0  -5  -5   49.99    4.60
   0  -5  -5   54.49    5.90
   0  -5  -5   58.99    4.90
   0  -5  -5   44.40    3.90
   0  -5  -5   53.39    4.40
   0   5   5   52.89    4.10
   0   5   5   58.69    3.70
  -1  -5  -5  165.18    8.30
  -1  -5  -5  162.28    8.80
  -1  -5  -5  176.38    9.40
  -1  -5  -5  167.38    8.20
  -1  -5  -5  169.58    8.90
  -1  -5  -5  124.09    9.40
  -1  -5  -5  179.88    8.20
  -1  -5  -5  177.58    8.90
   1   5   5  162.28    8.30
  -2  -5  -5    2.60    2.10
  -2  -5  -5    1.90    1.80
  -2  -5  -5    1.50    3.00
  -2  -5  -5    1.40    2.40
  -2  -5  -5    0.40    2.10
  -2  -5  -5   -0.50    2.50
  -2  -5  -5    0.90    2.10
  -2  -5  -5    2.70    2.90
   2   5   5    0.00    1.90
   2   5   5    1.90    1.20
   2   5   5   -0.60    1.20
  -3  -5  -5  439.16   18.50
  -3  -5  -5  458.35   18.70
  -3  -5  -5  452.85   19.10
  -3  -5  -5  457.45   19.00
  -3  -5  -5  486.95   18.70
  -3  -5  -5  435.86   18.90
  -3  -5  -5  458.75   19.60
  -3  -5  -5  454.25   19.70
   3   5   5  473.35   18.20
   3   5   5  426.76   17.50
   3   5   5  446.76   17.70
   3   5   5  464.55   19.40
  -4  -5  -5  172.68    9.40
  -4  -5  -5  183.18    9.00
  -4  -5  -5  169.88   10.00
  -4  -5  -5  168.48    9.00
  -4  -5  -5  182.68    9.50
  -4  -5  -5  176.68    9.10
  -4  -5  -5  179.38   10.10
  -4  -5  -5  179.98    8.90
   4   5   5  160.88    9.50
   4   5   5  183.58    8.60
   4   5   5  180.18    8.00
   4   5   5  175.58    7.30
  -5  -5  -5   13.70    3.10
  -5  -5  -5    6.10    4.30
  -5  -5  -5    7.20    2.90
  -5  -5  -5    7.80    3.40
  -5  -5  -5   12.30    3.20
  -5  -5  -5   15.80    4.10
  -5  -5  -5   11.60    3.30
  -5  -5  -5    7.80    3.80
   5   5   5    6.90    1.60
   5   5   5   11.20    2.10
   5   5   5    9.70    1.80
   5   5   5    7.30    2.30
  -6  -5  -5   16.00    3.70
  -6  -5  -5   13.30    3.20
  -6  -5  -5   19.20    3.80
  -6  -5  -5   14.60    4.50
  -6  -5  -5   11.70    3.70
  -6  -5  -5   10.50    3.20
  -6  -5  -5   17.40    3.50
   6   5   5   14.70    2.80
   6   5   5    9.40    2.00
   6   5   5   14.30    2.20
   6   5   5   14.00    2.70
  -7  -5  -5    7.10    3.80
  -7  -5  -5    7.90    2.80
  -7  -5  -5    9.10    3.60
  -7  -5  -5    8.00    3.30
   7   5   5    8.70    1.80
   7   5   5    7.80    2.30
   7   5   5    9.40    2.10
   7   5   5    9.10    2.70
  -8  -5  -5    1.80    2.50
  -8  -5  -5    2.60    2.40
  -8  -5  -5    1.90    2.10
   8   5   5    3.50    1.80
   8   5   5    1.80    1.60
   4  -6  -5   -0.80    2.10
   4  -6  -5   -0.60    3.30
   4  -6  -5    1.40    2.00
   4  -6  -5    2.60    2.80
  -4   6   5    0.60    1.60
   3  -6  -5   52.29    4.70
   3  -6  -5   42.00    4.10
   3  -6  -5   48.70    4.90
   3  -6  -5   53.09    5.60
   3  -6  -5   64.89    6.70
   3  -6  -5   43.00    5.10
  -3   6   5   53.29    3.80
  -3   6   5   47.70    4.00
   2  -6  -5  241.48   11.30
   2  -6  -5  252.87   12.20
   2  -6  -5  241.58   12.50
   2  -6  -5  241.58   10.90
   2  -6  -5  245.68   12.50
   2  -6  -5  243.38   13.30
  -2   6   5  237.68   10.00
  -2   6   5  244.28   10.10
   1  -6  -5    2.80    3.40
   1  -6  -5    5.60    3.10
   1  -6  -5    7.10    3.80
   1  -6  -5   11.90    3.50
   1  -6  -5    4.70    2.60
   1  -6  -5    3.10    4.10
   1  -6  -5    6.30    2.40
  -1   6   5    6.80    1.50
  -1   6   5    1.00    1.80
  -1   6   5    1.40    1.90
   0  -6  -5   80.19    6.40
   0  -6  -5   75.59    6.00
   0  -6  -5   81.39    5.70
   0  -6  -5   74.79    6.00
   0  -6  -5   67.69    4.60
   0  -6  -5   78.89    6.40
   0  -6  -5   68.29    5.80
   0  -6  -5   70.49    4.90
   0  -6  -5   82.19    7.10
   0   6   5   78.59    4.90
   0   6   5   77.39    4.70
  -1  -6  -5    5.20    3.60
  -1  -6  -5    8.60    2.80
  -1  -6  -5    5.80    2.80
  -1  -6  -5    3.70    3.10
  -1  -6  -5    6.40    2.90
  -1  -6  -5    6.90    3.60
   1   6   5    8.00    2.00
   1   6   5    5.50    2.20
  -2  -6  -5    6.80    3.10
  -2  -6  -5    8.00    2.70
  -2  -6  -5    8.20    3.50
  -2  -6  -5    7.80    3.70
  -2  -6  -5    8.90    2.40
  -2  -6  -5    8.30    3.30
   2   6   5    8.90    2.50
   2   6   5    4.90    2.00
  -3  -6  -5  622.54   26.10
  -3  -6  -5  603.14   24.80
  -3  -6  -5  614.44   26.20
  -3  -6  -5  613.74   25.30
  -3  -6  -5  641.34   24.90
  -3  -6  -5  639.74   25.70
  -3  -6  -5  593.74   24.90
   3   6   5  637.94   24.40
  -4  -6  -5  584.24   24.10
  -4  -6  -5  592.54   25.20
  -4  -6  -5  618.64   24.80
  -4  -6  -5  582.34   24.40
  -4  -6  -5  605.74   24.20
  -4  -6  -5  595.84   23.90
  -4  -6  -5  596.84   25.40
   4   6   5  582.34   23.00
   4   6   5  564.54   22.20
   4   6   5  593.64   23.60
  -5  -6  -5    7.10    3.60
  -5  -6  -5    7.70    3.30
  -5  -6  -5    5.30    3.90
  -5  -6  -5    6.80    3.00
  -5  -6  -5   11.30    3.30
  -5  -6  -5   17.00    5.10
  -5  -6  -5    9.90    3.90
  -5  -6  -5   11.20    3.10
   5   6   5   13.70    2.70
   5   6   5   11.40    1.90
   5   6   5   11.90    1.90
  -6  -6  -5   15.00    4.10
  -6  -6  -5   22.30    4.90
  -6  -6  -5   12.90    3.30
  -6  -6  -5    9.90    3.60
  -6  -6  -5   12.20    3.20
  -6  -6  -5   14.60    4.00
  -6  -6  -5    9.30    3.80
   6   6   5   12.80    2.00
   6   6   5   19.00    2.20
   6   6   5   12.00    2.60
  -7  -6  -5   16.40    3.20
  -7  -6  -5   23.30    3.80
  -7  -6  -5   20.20    3.80
   7   6   5   18.90    2.30
   7   6   5   28.10    2.30
   7   6   5   25.90    3.00
   7   6   5   16.60    2.60
   3  -7  -5   -1.30    2.60
   3  -7  -5    1.50    3.80
   3  -7  -5    2.90    2.60
   3  -7  -5   -1.90    3.00
  -3   7   5   -0.80    1.60
  -3   7   5    0.50    1.50
   2  -7  -5   19.90    3.70
   2  -7  -5   22.00    5.30
   2  -7  -5   24.30    4.40
   2  -7  -5   23.60    4.40
   2  -7  -5   23.70    3.10
  -2   7   5   24.20    2.30
  -2   7   5   20.90    2.40
   1  -7  -5   81.59    8.20
   1  -7  -5   94.99    7.70
   1  -7  -5   96.79    7.90
   1  -7  -5   91.99    5.80
   1  -7  -5   97.89    7.20
  -1   7   5   83.89    4.50
   0  -7  -5   10.10    4.40
   0  -7  -5    8.50    2.60
   0  -7  -5    7.80    3.90
   0  -7  -5    3.30    3.10
   0  -7  -5    5.00    3.40
   0  -7  -5    5.80    4.20
  -1  -7  -5   16.60    4.00
  -1  -7  -5   17.80    3.40
  -1  -7  -5   18.60    4.00
  -1  -7  -5   18.60    4.60
  -1  -7  -5   21.80    4.80
  -1  -7  -5   20.10    3.70
   1   7   5   19.40    2.60
  -2  -7  -5   -0.60    3.90
  -2  -7  -5   -0.40    2.70
  -2  -7  -5    0.90    2.30
  -2  -7  -5   -1.50    4.00
  -2  -7  -5    0.10    3.20
  -2  -7  -5   -1.30    3.00
  -3  -7  -5   21.40    5.20
  -3  -7  -5   19.20    4.30
  -3  -7  -5   20.10    3.70
  -3  -7  -5   18.20    4.50
  -3  -7  -5   21.10    3.50
  -3  -7  -5   17.60    3.80
  -4  -7  -5  108.99    8.40
  -4  -7  -5   96.59    7.40
  -4  -7  -5  109.09    8.50
  -4  -7  -5  111.89    7.00
  -4  -7  -5  107.79    7.50
  -4  -7  -5  107.19    7.00
   4   7   5   93.69    4.70
   4   7   5  101.59    6.10
  -5  -7  -5   11.30    4.80
  -5  -7  -5   11.10    3.00
  -5  -7  -5   19.10    4.50
  -5  -7  -5   15.50    4.50
  -5  -7  -5   12.30    3.30
   5   7   5   10.30    2.40
   5   7   5   15.10    2.00
  -6  -7  -5   30.00    4.30
  -6  -7  -5   29.90    4.40
  -6  -7  -5   43.60    4.50
  -6  -7  -5   31.30    3.90
   6   7   5   39.00    2.90
   6   7   5   35.60    3.00
  -7  -7  -5    1.00    2.40
  -7  -7  -5    1.50    2.50
   7   7   5    1.50    1.70
   7   7   5    1.70    1.10
   2  -8  -5   65.49    4.40
   2  -8  -5   61.89    5.80
   2  -8  -5   72.69    5.50
   2  -8  -5   65.29    6.10
   2  -8  -5   60.89    5.50
  -2   8   5   65.69    3.60
   1  -8  -5   40.80    5.00
   1  -8  -5   53.09    4.10
   1  -8  -5   62.99    5.60
   1  -8  -5   60.79    6.50
   1  -8  -5   47.10    5.50
  -1   8   5   44.70    3.10
   0  -8  -5   35.90    5.70
   0  -8  -5   41.20    5.70
   0  -8  -5   30.30    4.90
   0  -8  -5   46.10    5.10
   0  -8  -5   19.50    7.10
  -1  -8  -5   31.50    5.00
  -1  -8  -5   25.00    3.80
  -1  -8  -5   38.80    5.30
  -1  -8  -5   36.90    4.50
  -1  -8  -5   42.10    6.00
  -2  -8  -5   60.59    5.60
  -2  -8  -5   72.89    7.10
  -2  -8  -5   74.79    7.20
  -2  -8  -5   79.79    6.90
  -3  -8  -5    5.30    3.60
  -3  -8  -5   11.00    4.00
  -3  -8  -5    4.70    2.80
  -3  -8  -5    7.00    4.40
  -3  -8  -5   11.70    3.40
  -4  -8  -5   25.10    4.40
  -4  -8  -5   28.40    4.80
  -4  -8  -5   39.40    4.50
  -4  -8  -5   41.00    5.80
   4   8   5   32.90    2.50
  -5  -8  -5   32.90    4.00
  -5  -8  -5   22.10    4.10
  -5  -8  -5   32.60    5.00
  -5  -8  -5   19.80    4.30
   5   8   5   34.70    2.50
  -6  -8  -5    7.80    3.10
  -6  -8  -5    5.90    3.00
  -6  -8  -5    5.90    2.40
   6   8   5    7.90    1.40
   1  -9  -5   43.50    4.20
   1  -9  -5   28.10    3.60
   1  -9  -5   48.50    4.90
   0  -9  -5   17.00    3.00
   0  -9  -5   19.60    4.20
   0  -9  -5   14.90    3.50
   0  -9  -5   22.20    4.00
  -1  -9  -5   28.30    4.40
  -1  -9  -5   36.20    4.80
  -1  -9  -5   26.70    4.20
  -2  -9  -5  120.39    7.90
  -2  -9  -5  132.09    7.90
  -2  -9  -5  124.39    8.00
  -3  -9  -5    2.90    2.70
  -3  -9  -5    3.60    3.50
  -3  -9  -5    0.10    3.30
  -4  -9  -5   38.40    4.80
  -4  -9  -5   27.90    3.40
  -4  -9  -5   25.60    3.80
  -4  -9  -5   17.70    3.80
  -5  -9  -5   -1.80    4.50
  -5  -9  -5    1.00    3.00
  -5  -9  -5    2.60    1.90
   2   8  -6   40.20    3.60
   2   8  -6   43.60    2.50
  -2  -8   6   44.10    3.70
  -2  -8   6   34.00    4.30
  -2  -8   6   38.50    3.50
   1   8  -6    1.20    1.90
   1   8  -6   -0.30    1.20
  -1  -8   6   -0.30    2.00
  -1  -8   6   -1.50    2.30
  -1  -8   6   -1.80    2.40
  -1  -8   6   -0.60    4.00
  -1  -8   6   -1.40    2.10
   0   8  -6    3.00    1.20
   0  -8   6    3.90    2.90
   0  -8   6    3.50    2.30
   0  -8   6    2.40    2.40
   0  -8   6    0.60    2.50
   0  -8   6    2.50    2.20
  -1   8  -6   13.60    1.50
   1  -8   6   16.60    2.50
   1  -8   6   21.20    3.30
   1  -8   6   14.20    2.30
   1  -8   6   18.20    2.80
  -2   8  -6   -0.20    1.00
   2  -8   6   -0.10    2.40
   2  -8   6    3.90    2.40
   4   7  -6    1.70    3.30
   3   7  -6    3.50    1.50
   3   7  -6    0.90    2.40
  -3  -7   6   -2.90    2.30
  -3  -7   6    2.50    2.50
  -3  -7   6    0.50    2.40
   2   7  -6  292.27   11.40
   2   7  -6  289.27   11.50
   2   7  -6  271.97   12.60
  -2  -7   6  284.27   12.50
  -2  -7   6  267.17   12.70
  -2  -7   6  300.77   13.00
  -2  -7   6  287.77   13.10
  -2  -7   6  302.67   12.70
   1   7  -6   -0.70    1.50
   1   7  -6    2.00    1.60
  -1  -7   6    7.00    3.60
  -1  -7   6    2.00    2.90
  -1  -7   6    2.10    2.80
  -1  -7   6    3.60    3.30
  -1  -7   6   -1.10    2.70
  -1  -7   6    3.30    3.10
  -1  -7   6    0.90    2.90
   0   7  -6   15.50    2.10
   0   7  -6   16.00    3.20
   0   7  -6   11.80    1.90
   0  -7   6   17.10    3.50
   0  -7   6   17.10    3.50
   0  -7   6   18.00    4.10
   0  -7   6   15.30    3.10
   0  -7   6   21.50    3.90
   0  -7   6   12.30    3.90
  -1   7  -6   37.00    2.90
  -1   7  -6   37.70    2.90
   1  -7   6   32.50    3.80
   1  -7   6   39.60    5.00
   1  -7   6   27.40    3.90
   1  -7   6   35.90    4.70
   1  -7   6   34.80    3.80
   1  -7   6   32.70    4.80
  -2   7  -6    2.90    1.50
  -2   7  -6    3.50    2.60
  -2   7  -6    1.30    1.40
   2  -7   6    3.40    2.90
   2  -7   6    1.90    2.50
   2  -7   6    1.70    3.30
   2  -7   6    1.50    2.30
   2  -7   6    0.60    2.60
   2  -7   6    2.40    2.60
  -3   7  -6    7.00    2.30
  -3   7  -6   12.10    1.60
  -3   7  -6    7.70    2.20
   3  -7   6   15.00    2.90
   3  -7   6    9.70    2.40
   3  -7   6   13.80    3.50
   4   6  -6   18.30    1.90
   4   6  -6   15.00    2.40
   4   6  -6   23.50    3.70
  -4  -6   6   14.10    2.70
  -4  -6   6   15.50    2.90
  -4  -6   6   14.00    3.00
   3   6  -6   15.00    2.20
   3   6  -6   16.50    2.60
   3   6  -6   19.00    3.80
   3   6  -6   10.20    2.10
  -3  -6   6   16.70    3.80
  -3  -6   6   11.60    2.90
  -3  -6   6   16.70    3.30
  -3  -6   6   18.30    3.50
   2   6  -6   -0.30    1.90
   2   6  -6    1.70    2.10
   2   6  -6    2.10    2.60
   2   6  -6    4.40    3.10
   2   6  -6    1.50    1.80
  -2  -6   6   -2.90    2.90
  -2  -6   6    5.20    3.30
  -2  -6   6    6.90    3.50
  -2  -6   6    1.30    3.00
  -2  -6   6    1.20    2.90
  -2  -6   6    0.50    2.90
  -2  -6   6    0.80    2.60
   1   6  -6  164.38    7.20
   1   6  -6  162.88    7.40
   1   6  -6  166.68    8.60
   1   6  -6  152.28    9.40
  -1  -6   6  170.28    9.30
  -1  -6   6  154.48    9.10
  -1  -6   6  159.58    8.70
  -1  -6   6  172.58    9.00
  -1  -6   6  166.28    9.50
  -1  -6   6  164.78    9.80
  -1  -6   6  151.38    9.10
   0   6  -6    5.70    1.90
   0   6  -6    1.50    1.60
   0  -6   6    3.20    2.70
   0  -6   6    2.40    3.20
   0  -6   6    0.50    2.90
   0  -6   6    2.60    3.30
   0  -6   6    4.50    3.50
   0  -6   6   -0.60    3.00
   0  -6   6    6.60    3.70
  -1   6  -6    1.00    1.60
  -1   6  -6   -0.60    1.50
  -1   6  -6    2.40    2.50
  -1   6  -6    0.40    2.90
   1  -6   6    0.10    3.30
   1  -6   6    0.90    3.20
   1  -6   6   -3.10    2.60
   1  -6   6   -1.20    3.40
   1  -6   6   -0.80    2.60
   1  -6   6   -0.10    2.80
   1  -6   6    3.30    3.60
   1  -6   6   -1.60    2.60
  -2   6  -6    3.00    2.70
  -2   6  -6    3.70    1.60
  -2   6  -6    3.10    1.70
   2  -6   6    6.10    2.80
   2  -6   6    2.30    3.40
   2  -6   6   -1.10    2.50
   2  -6   6    3.10    4.00
   2  -6   6    9.50    3.70
   2  -6   6    5.00    2.90
   2  -6   6    2.90    3.00
  -3   6  -6   -1.30    1.90
  -3   6  -6    2.00    3.00
  -3   6  -6    1.40    1.50
  -3   6  -6    2.50    1.70
   3  -6   6    1.70    2.90
   3  -6   6    1.10    2.80
   3  -6   6   -1.60    3.60
   3  -6   6    1.90    3.00
   3  -6   6   -1.50    2.30
  -4   6  -6    4.90    1.70
  -4   6  -6    3.90    2.40
  -4   6  -6    6.10    2.10
  -4   6  -6    1.60    2.30
   4  -6   6    1.50    2.20
   4  -6   6    2.00    3.00
   4  -6   6    3.20    2.30
   4  -6   6    0.00    2.50
  -5   6  -6    6.70    2.10
   5  -6   6   10.70    2.50
   5   5  -6   -1.90    2.50
   5   5  -6    3.40    2.10
   5   5  -6    3.50    2.20
  -5  -5   6    2.20    2.00
  -5  -5   6    3.70    2.20
  -5  -5   6    2.50    2.10
   4   5  -6   29.40    3.30
   4   5  -6   37.00    2.90
   4   5  -6   50.89    5.10
   4   5  -6   48.10    4.60
  -4  -5   6   41.30    4.10
  -4  -5   6   38.20    3.80
  -4  -5   6   30.40    3.70
  -4  -5   6   32.60    3.30
   3   5  -6   84.09    5.40
   3   5  -6   78.49    4.70
   3   5  -6   81.09    4.80
   3   5  -6   73.09    5.40
   3   5  -6   84.49    6.80
  -3  -5   6   88.69    6.80
  -3  -5   6   82.19    5.90
  -3  -5   6   84.89    5.40
  -3  -5   6   89.99    6.10
  -3  -5   6   88.09    6.50
   2   5  -6   17.50    3.50
   2   5  -6   26.40    2.50
   2   5  -6   14.50    3.40
   2   5  -6   18.30    3.40
   2   5  -6   13.30    2.60
   2   5  -6   16.40    2.40
  -2  -5   6   20.50    3.90
  -2  -5   6   15.80    3.60
  -2  -5   6   16.30    3.40
  -2  -5   6   17.10    3.20
  -2  -5   6    7.90    2.70
  -2  -5   6   13.80    3.90
  -2  -5   6   17.80    2.80
  -2  -5   6   12.90    3.60
   1   5  -6    6.40    2.90
   1   5  -6    6.60    2.90
   1   5  -6    2.50    1.70
   1   5  -6    2.50    2.20
   1   5  -6   10.10    3.20
   1   5  -6    8.30    2.10
  -1  -5   6    4.90    2.60
  -1  -5   6    5.50    3.40
  -1  -5   6    3.50    3.10
  -1  -5   6    6.70    3.40
  -1  -5   6    2.10    2.50
  -1  -5   6    2.30    2.20
  -1  -5   6    7.90    3.40
  -1  -5   6    1.90    2.50
  -1  -5   6    4.90    3.20
   0   5  -6    5.80    3.00
   0   5  -6    1.60    1.50
   0   5  -6    5.70    2.00
   0   5  -6    5.10    1.80
   0   5  -6    3.60    2.80
   0  -5   6    1.90    2.00
   0  -5   6    3.20    3.20
   0  -5   6   -0.50    2.40
   0  -5   6    4.70    3.00
   0  -5   6    1.50    3.00
   0  -5   6    1.60    3.20
   0  -5   6    7.80    3.20
   0  -5   6    0.60    2.60
  -1   5  -6  251.97   11.50
  -1   5  -6  260.87   10.20
  -1   5  -6  244.18   11.30
  -1   5  -6  239.48   10.00
  -1   5  -6  237.88   10.70
   1  -5   6  218.78   10.50
   1  -5   6  256.17   12.50
   1  -5   6  254.97   12.10
   1  -5   6  239.58   11.80
   1  -5   6  232.58   11.00
   1  -5   6  246.68   11.20
   1  -5   6  254.07   12.00
   1  -5   6  243.28   12.40
   1  -5   6  245.98   11.60
  -2   5  -6  411.06   15.70
  -2   5  -6  397.66   16.40
  -2   5  -6  405.06   16.90
  -2   5  -6  371.56   16.30
  -2   5  -6  391.26   16.20
  -2   5  -6  404.16   17.20
  -2   5  -6  418.66   15.70
   2  -5   6  421.36   17.60
   2  -5   6  393.36   18.10
   2  -5   6  401.46   18.00
   2  -5   6  407.46   17.10
   2  -5   6  414.86   17.60
   2  -5   6  378.46   16.10
   2  -5   6  417.66   17.40
   2  -5   6  395.86   16.90
   2  -5   6  386.76   16.40
   2  -5   6  403.86   16.60
  -3   5  -6   18.50    2.70
  -3   5  -6   19.10    3.70
  -3   5  -6   23.10    2.50
  -3   5  -6   24.40    3.00
  -3   5  -6   32.60    4.20
  -3   5  -6   19.20    2.20
   3  -5   6   24.70    3.80
   3  -5   6   25.30    4.10
   3  -5   6   26.20    4.10
   3  -5   6   24.30    2.80
   3  -5   6   20.10    3.40
   3  -5   6   28.60    5.40
   3  -5   6   22.90    3.80
  -4   5  -6  142.19    6.80
  -4   5  -6  155.38    7.60
  -4   5  -6  153.28    6.70
  -4   5  -6  158.58    8.20
  -4   5  -6  157.48    8.50
  -4   5  -6  162.38    7.80
  -4   5  -6  151.58    7.90
   4  -5   6  139.29    8.00
   4  -5   6  139.49    6.90
   4  -5   6  137.39    8.20
   4  -5   6  148.69    9.30
   4  -5   6  144.79    8.50
   4  -5   6  158.28    8.10
  -5   5  -6    0.30    2.50
  -5   5  -6    0.80    2.30
  -5   5  -6    1.10    2.20
  -5   5  -6    1.30    1.50
  -5   5  -6    3.70    2.70
   5  -5   6    0.50    2.20
   5  -5   6    0.10    2.90
   5  -5   6    2.00    2.40
   5  -5   6    0.10    2.70
  -6   5  -6    0.60    2.40
  -6   5  -6    0.40    1.90
   6  -5   6    0.50    2.30
   6   4  -6   49.50    4.60
   6   4  -6   43.70    3.30
  -6  -4   6   40.80    3.80
   5   4  -6   26.00    3.90
   5   4  -6   24.80    3.10
   5   4  -6   18.00    3.30
  -5  -4   6   23.20    3.40
  -5  -4   6   22.60    3.20
  -5  -4   6   18.70    3.00
  -5  -4   6   21.40    3.30
   4   4  -6   48.10    4.60
   4   4  -6   57.39    5.40
   4   4  -6   54.69    4.80
   4   4  -6   60.49    6.30
   4   4  -6   56.09    3.60
  -4  -4   6   50.89    4.90
  -4  -4   6   57.59    5.00
  -4  -4   6   57.99    4.90
  -4  -4   6   57.59    5.10
   3   4  -6  190.58    9.40
   3   4  -6  179.88    8.50
   3   4  -6  180.28   10.00
   3   4  -6  176.78    9.40
   3   4  -6  197.58    8.30
   3   4  -6  199.18    9.20
   3   4  -6  203.18   10.50
  -3  -4   6  190.78    9.90
  -3  -4   6  201.88    9.80
  -3  -4   6  196.78   10.00
  -3  -4   6  200.38    9.60
  -3  -4   6  185.58    9.30
  -3  -4   6  194.48    9.70
  -3  -4   6  196.18    9.40
   2   4  -6  233.38    9.40
   2   4  -6  223.48   10.20
   2   4  -6  212.88   10.20
   2   4  -6  211.78    9.20
   2   4  -6  212.18    9.70
  -2  -4   6  228.88   10.50
  -2  -4   6  223.68   10.70
  -2  -4   6  203.58   10.00
  -2  -4   6  226.58   10.10
  -2  -4   6  229.58   10.90
  -2  -4   6  215.58   10.90
  -2  -4   6  208.38   10.30
  -2  -4   6  226.38   10.50
   1   4  -6   44.90    5.00
   1   4  -6   57.19    4.70
   1   4  -6   46.00    4.40
   1   4  -6   58.89    3.70
   1   4  -6   50.49    4.60
   1   4  -6   48.10    4.30
   1   4  -6   53.09    3.40
   1   4  -6   54.09    3.80
  -1  -4   6   53.99    4.40
  -1  -4   6   47.60    4.40
  -1  -4   6   50.09    5.10
  -1  -4   6   55.29    5.30
  -1  -4   6   52.39    4.40
  -1  -4   6   56.79    4.10
  -1  -4   6   51.69    4.40
  -1  -4   6   52.89    5.30
  -1  -4   6   51.39    4.40
   0   4  -6  348.37   15.60
   0   4  -6  326.57   14.90
   0   4  -6  343.67   14.30
   0   4  -6  370.36   14.90
   0   4  -6  367.56   15.00
   0   4  -6  367.66   13.80
   0   4  -6  345.77   13.70
   0  -4   6  350.76   14.70
   0  -4   6  344.17   14.70
   0  -4   6  363.36   14.90
   0  -4   6  332.97   15.10
   0  -4   6  341.47   15.20
   0  -4   6  345.47   14.80
   0  -4   6  342.97   14.50
   0  -4   6  361.36   15.00
   0  -4   6  348.67   15.40
   0  -4   6  373.46   15.30
   0  -4   6  364.16   14.90
  -1   4  -6   15.90    2.50
  -1   4  -6   16.60    2.50
  -1   4  -6   18.10    2.10
  -1   4  -6   23.30    3.40
  -1   4  -6   20.40    3.00
  -1   4  -6   21.20    2.40
  -1   4  -6   22.90    3.80
  -1   4  -6   16.80    1.90
   1  -4   6   21.00    3.00
   1  -4   6   19.10    3.20
   1  -4   6   20.00    3.20
   1  -4   6   21.30    3.60
   1  -4   6   17.10    3.50
   1  -4   6   18.40    2.90
   1  -4   6   25.30    3.20
   1  -4   6   24.90    3.80
  -2   4  -6  457.85   18.10
  -2   4  -6  450.55   20.20
  -2   4  -6  463.75   17.50
  -2   4  -6  441.56   18.20
  -2   4  -6  437.76   18.10
  -2   4  -6  472.55   17.50
  -2   4  -6  448.26   18.60
  -2   4  -6  419.56   19.10
  -2   4  -6  472.35   18.90
   2  -4   6  444.36   18.30
   2  -4   6  480.25   18.80
   2  -4   6  447.46   18.80
   2  -4   6  455.05   18.40
   2  -4   6  474.95   19.10
   2  -4   6  444.96   18.70
   2  -4   6  454.65   19.50
   2  -4   6  458.85   19.00
  -3   4  -6  112.69    6.30
  -3   4  -6  107.09    6.10
  -3   4  -6  109.19    6.80
  -3   4  -6  115.99    5.60
  -3   4  -6  111.59    6.10
  -3   4  -6  116.49    5.50
   3  -4   6  119.19    6.60
   3  -4   6  108.59    6.90
   3  -4   6  115.89    7.20
   3  -4   6  101.39    7.00
   3  -4   6  110.69    7.00
   3  -4   6  112.29    6.40
   3  -4   6  117.39    7.40
  -4   4  -6   30.40    4.30
  -4   4  -6   24.90    2.60
  -4   4  -6   17.60    3.20
  -4   4  -6   20.00    2.90
  -4   4  -6   21.50    3.00
  -4   4  -6   28.10    3.70
  -4   4  -6   21.60    2.30
   4  -4   6   20.90    3.40
   4  -4   6   21.70    4.60
   4  -4   6   23.10    3.70
   4  -4   6   19.80    3.10
  -5   4  -6  348.87   14.90
  -5   4  -6  329.27   13.90
  -5   4  -6  278.57   14.40
  -5   4  -6  350.06   14.20
  -5   4  -6  338.17   14.30
  -5   4  -6  344.77   14.40
  -5   4  -6  312.07   12.80
   5  -4   6  329.77   15.10
   5  -4   6  316.87   13.90
   5  -4   6  333.27   13.90
   5  -4   6  324.57   15.30
   5  -4   6  339.57   14.60
   5  -4   6  334.17   14.20
  -6   4  -6    3.30    2.50
  -6   4  -6    1.10    2.20
  -6   4  -6    1.30    2.40
   6  -4   6    2.90    3.20
   6  -4   6    3.00    2.30
   6  -4   6    1.20    1.70
   6  -4   6    2.40    2.10
   6  -4   6    3.40    2.40
   6   3  -6    0.80    1.80
   6   3  -6    2.00    2.40
  -6  -3   6   -0.80    2.40
  -6  -3   6    5.50    2.30
  -6  -3   6    4.10    2.30
  -6  -3   6   -1.00    1.90
   5   3  -6   71.29    6.00
   5   3  -6   64.49    5.10
   5   3  -6   75.69    6.30
  -5  -3   6   67.09    5.50
  -5  -3   6   74.79    6.10
  -5  -3   6   70.19    5.70
   4   3  -6   30.60    3.60
   4   3  -6   40.10    5.10
   4   3  -6   29.70    3.60
   4   3  -6   49.20    5.10
  -4  -3   6   27.60    3.40
  -4  -3   6   26.30    3.60
  -4  -3   6   36.00    4.00
  -4  -3   6   43.70    5.00
  -4  -3   6   26.20    3.50
   3   3  -6    3.00    1.70
   3   3  -6    1.90    2.30
   3   3  -6    0.40    2.20
   3   3  -6    6.70    3.20
   3   3  -6    1.40    2.30
   3   3  -6    5.20    3.00
  -3  -3   6    3.70    2.40
  -3  -3   6   -0.50    2.90
  -3  -3   6    5.00    2.60
  -3  -3   6    1.50    2.30
  -3  -3   6    0.00    2.60
  -3  -3   6    2.30    2.30
  -3  -3   6    1.40    2.80
   2   3  -6   60.39    5.10
   2   3  -6   62.99    4.50
   2   3  -6   62.69    4.50
   2   3  -6   60.49    4.40
   2   3  -6   59.99    5.20
   2   3  -6   59.09    3.90
   2   3  -6   65.79    5.20
   2   3  -6   62.09    3.70
  -2  -3   6   59.09    5.30
  -2  -3   6   66.39    4.90
  -2  -3   6   63.39    5.30
  -2  -3   6   61.19    4.50
  -2  -3   6   70.19    4.70
  -2  -3   6   67.69    4.80
  -2  -3   6   61.59    4.70
  -2  -3   6   65.69    5.30
   1   3  -6   87.29    4.30
   1   3  -6   81.79    4.90
   1   3  -6   82.19    4.90
   1   3  -6   88.69    5.00
   1   3  -6   79.79    4.80
   1   3  -6   80.19    5.50
   1   3  -6   79.69    5.50
   1   3  -6   79.79    5.30
   1   3  -6   78.29    4.10
  -1  -3   6   73.29    5.30
  -1  -3   6   83.99    4.80
  -1  -3   6   78.99    5.40
  -1  -3   6   78.89    5.10
  -1  -3   6   78.99    5.00
  -1  -3   6   83.29    5.50
  -1  -3   6   85.29    5.70
   0   3  -6    1.00    1.30
   0   3  -6    1.90    2.00
   0   3  -6    0.00    1.20
   0   3  -6    2.30    1.60
   0   3  -6    1.20    1.80
   0   3  -6   -1.00    2.20
   0   3  -6    3.30    2.00
   0   3  -6    2.00    2.20
   0  -3   6    2.90    1.80
   0  -3   6    2.00    1.70
   0  -3   6    0.60    1.60
   0  -3   6   -0.40    1.30
   0  -3   6    2.00    1.90
   0  -3   6    0.10    2.10
   0  -3   6   -0.20    1.70
   0  -3   6    1.50    2.10
   0  -3   6   -0.50    2.10
   0  -3   6   -2.00    2.00
   0  -3   6   -1.20    2.30
  -1   3  -6  121.09    5.40
  -1   3  -6  132.09    5.40
  -1   3  -6  125.19    7.00
  -1   3  -6  103.89    6.40
  -1   3  -6  119.59    5.70
  -1   3  -6  129.79    6.30
  -1   3  -6  132.29    6.50
  -1   3  -6  113.79    5.70
  -1   3  -6  114.49    5.90
   1  -3   6  116.89    6.10
   1  -3   6  123.39    6.80
   1  -3   6  119.89    6.50
   1  -3   6  124.19    6.30
   1  -3   6  129.39    6.30
   1  -3   6  121.89    5.80
   1  -3   6  118.89    6.40
   1  -3   6  125.99    6.30
   1  -3   6  113.89    6.70
  -2   3  -6  157.08    8.20
  -2   3  -6  147.09    8.00
  -2   3  -6  162.08    6.70
  -2   3  -6  165.98    7.40
  -2   3  -6  153.08    7.90
  -2   3  -6  160.58    6.70
  -2   3  -6  155.68    7.50
  -2   3  -6  163.78    7.90
  -2   3  -6  154.68    8.20
  -2   3  -6  157.88    7.20
   2  -3   6  160.28    7.90
   2  -3   6  157.28    8.40
   2  -3   6  161.18    7.20
   2  -3   6  164.68    7.80
   2  -3   6  159.08    8.10
   2  -3   6  156.28    7.90
   2  -3   6  153.18    7.80
   2  -3   6  146.79    8.00
   2  -3   6  154.58    8.20
  -3   3  -6   40.20    3.50
  -3   3  -6   36.10    3.40
  -3   3  -6   36.90    2.80
  -3   3  -6   39.50    3.00
  -3   3  -6   30.60    4.00
  -3   3  -6   36.90    3.40
  -3   3  -6   39.40    3.90
  -3   3  -6   41.30    3.90
   3  -3   6   42.40    3.30
   3  -3   6   41.20    4.00
   3  -3   6   45.00    4.10
   3  -3   6   44.10    4.60
   3  -3   6   46.50    4.30
   3  -3   6   40.60    3.80
   3  -3   6   39.50    3.80
   3  -3   6   38.10    3.90
  -4   3  -6   26.00    3.40
  -4   3  -6   22.10    3.10
  -4   3  -6   21.90    2.30
  -4   3  -6   20.30    3.20
  -4   3  -6   24.90    3.80
  -4   3  -6   23.40    3.00
  -4   3  -6   21.00    2.90
  -4   3  -6   24.90    3.50
   4  -3   6   22.80    3.50
   4  -3   6   22.10    3.20
   4  -3   6   22.70    3.50
   4  -3   6   21.20    3.20
   4  -3   6   20.30    2.90
  -5   3  -6    7.00    2.60
  -5   3  -6    7.60    2.80
  -5   3  -6    5.20    2.40
  -5   3  -6    6.30    2.90
  -5   3  -6    7.70    2.90
  -5   3  -6    8.20    3.40
   5  -3   6    3.90    2.70
   5  -3   6    6.50    3.50
   5  -3   6    8.50    2.60
   5  -3   6    8.70    2.90
   5  -3   6   11.90    3.30
  -6   3  -6   10.90    3.20
  -6   3  -6    8.40    2.90
  -6   3  -6   10.10    2.90
  -6   3  -6    9.00    3.00
   6  -3   6   10.20    2.90
   6  -3   6    8.20    2.60
   6  -3   6    9.20    2.50
  -7   3  -6   -2.00    2.00
  -7   3  -6   -0.90    2.00
  -7   3  -6    1.20    2.10
  -7   3  -6   -0.10    2.20
   7  -3   6   -0.70    1.70
   7  -3   6   -1.40    1.70
   7  -3   6    1.20    2.20
   7  -3   6    0.80    2.00
   6   2  -6    1.40    2.50
   6   2  -6   -0.70    2.10
  -6  -2   6    2.10    2.10
  -6  -2   6   -1.50    2.40
  -6  -2   6   -1.90    2.40
   5   2  -6    9.20    3.60
   5   2  -6    6.20    2.50
   5   2  -6    2.10    2.70
  -5  -2   6    5.00    3.50
  -5  -2   6    1.80    2.40
  -5  -2   6    4.30    3.60
  -5  -2   6    7.40    2.30
   4   2  -6  117.99    6.70
   4   2  -6  126.59    8.20
   4   2  -6  127.19    7.00
   4   2  -6  127.39    7.70
   4   2  -6  120.59    6.50
  -4  -2   6  114.39    6.10
  -4  -2   6  124.39    8.00
  -4  -2   6  120.69    6.40
  -4  -2   6  121.19    6.80
  -4  -2   6  122.29    7.20
  -4  -2   6   90.89    9.40
   3   2  -6   94.59    6.50
   3   2  -6   90.19    4.60
   3   2  -6   94.19    5.60
   3   2  -6   94.69    6.80
   3   2  -6   98.29    5.90
   3   2  -6  104.59    5.80
  -3  -2   6   99.19    6.20
  -3  -2   6  102.99    6.50
  -3  -2   6   88.49    5.20
  -3  -2   6   96.19    6.50
  -3  -2   6  102.59    5.80
  -3  -2   6   98.79    5.20
  -3  -2   6  104.89    6.20
   2   2  -6   78.09    4.90
   2   2  -6   74.69    4.00
   2   2  -6   73.89    5.50
   2   2  -6   77.89    4.70
   2   2  -6   78.39    5.60
   2   2  -6   67.29    4.30
   2   2  -6   74.99    4.60
   2   2  -6   80.99    4.80
   2   2  -6   78.39    5.80
  -2  -2   6   77.49    4.60
  -2  -2   6   72.99    5.50
  -2  -2   6   82.99    5.40
  -2  -2   6   78.09    6.20
  -2  -2   6   83.09    4.90
  -2  -2   6   74.99    4.80
  -2  -2   6   72.49    5.10
   1   2  -6   20.90    2.10
   1   2  -6   29.50    3.40
   1   2  -6   22.40    2.70
   1   2  -6   26.60    2.90
   1   2  -6   27.00    3.40
   1   2  -6   23.80    2.80
  -1  -2   6   27.40    2.70
  -1  -2   6   25.70    3.40
  -1  -2   6   26.40    2.90
  -1  -2   6   26.80    3.30
  -1  -2   6   26.00    2.70
   0   2  -6    0.40    1.20
   0   2  -6    2.70    1.90
   0   2  -6   -0.60    1.50
   0   2  -6    0.40    1.50
   0   2  -6    1.30    1.20
   0   2  -6   -0.40    1.50
   0   2  -6   -0.70    1.50
   0   2  -6    1.80    1.20
   0   2  -6    3.00    1.80
   0  -2   6    0.70    1.40
   0  -2   6    0.00    1.50
   0  -2   6    1.30    2.10
   0  -2   6   -0.40    1.20
   0  -2   6    0.70    1.30
  -1   2  -6    7.20    2.10
  -1   2  -6    4.80    1.30
  -1   2  -6    4.60    1.70
  -1   2  -6    3.30    1.90
  -1   2  -6    4.10    1.60
  -1   2  -6    3.80    1.40
  -1   2  -6    3.20    1.70
  -1   2  -6    5.50    1.90
   1  -2   6    3.20    1.50
   1  -2   6    3.30    1.50
   1  -2   6    3.20    1.40
   1  -2   6    2.70    1.50
   1  -2   6    6.00    1.90
  -2   2  -6   53.99    3.60
  -2   2  -6   54.59    3.90
  -2   2  -6   56.59    3.40
  -2   2  -6   48.20    2.80
  -2   2  -6   47.70    3.90
  -2   2  -6   49.99    4.20
   2  -2   6   52.19    3.60
   2  -2   6   48.50    3.10
   2  -2   6   47.70    4.20
   2  -2   6   43.80    4.00
   2  -2   6   52.29    4.40
   2  -2   6   49.40    3.50
  -3   2  -6  240.68   10.40
  -3   2  -6  230.98   10.70
  -3   2  -6  251.57   10.30
  -3   2  -6  221.58    9.40
  -3   2  -6  235.88   11.20
  -3   2  -6  231.68   10.50
  -3   2  -6  229.58    9.30
  -3   2  -6  235.28   10.10
  -3   2  -6  247.98   10.10
   3  -2   6  226.48   11.40
   3  -2   6  233.08   10.50
   3  -2   6  207.68   12.50
   3  -2   6  233.28    9.90
   3  -2   6  230.78   10.50
   3  -2   6  251.37   11.70
   3  -2   6  245.38   10.70
   3  -2   6  246.48   10.40
   3  -2   6  226.68   10.70
  -4   2  -6   19.30    3.00
  -4   2  -6    9.90    2.30
  -4   2  -6   15.10    2.70
  -4   2  -6   17.30    1.90
  -4   2  -6   15.40    3.30
  -4   2  -6   15.10    3.10
  -4   2  -6   20.50    3.50
  -4   2  -6   17.20    2.70
  -4   2  -6   16.80    2.60
   4  -2   6    9.20    2.80
   4  -2   6   15.40    2.90
   4  -2   6   17.10    2.30
   4  -2   6   18.30    2.80
   4  -2   6   16.10    2.60
   4  -2   6   22.90    3.20
   4  -2   6   12.50    2.80
  -5   2  -6    4.10    2.80
  -5   2  -6    6.90    2.80
  -5   2  -6    2.90    2.20
  -5   2  -6    2.30    2.80
  -5   2  -6    8.40    2.50
  -5   2  -6    5.60    2.70
   5  -2   6    6.70    2.60
   5  -2   6    8.60    2.60
   5  -2   6    4.20    2.70
   5  -2   6    7.80    3.20
  -6   2  -6  347.97   14.70
  -6   2  -6  343.97   15.40
  -6   2  -6  306.67   14.10
  -6   2  -6  339.47   14.70
  -6   2  -6  351.36   14.80
   6  -2   6  345.87   15.10
   6  -2   6  345.97   14.90
   6  -2   6  358.76   15.10
  -7   2  -6    1.00    2.40
  -7   2  -6    1.30    2.40
  -7   2  -6    2.10    2.40
  -7   2  -6    1.10    2.20
   7  -2   6    0.10    2.20
   7  -2   6   -1.30    2.20
   7  -2   6   -1.00    2.00
   6   1  -6    2.40    2.30
   6   1  -6    0.50    1.80
   6   1  -6    3.50    2.60
   6   1  -6    4.90    2.10
  -6  -1   6    3.70    2.30
  -6  -1   6    1.40    2.80
   5   1  -6  309.87   13.40
   5   1  -6  301.07   14.10
   5   1  -6  303.67   13.30
   5   1  -6  326.87   13.50
   5   1  -6  328.27   14.70
  -5  -1   6  321.67   14.00
  -5  -1   6  307.47   13.30
  -5  -1   6  331.97   14.80
   4   1  -6   66.09    4.60
   4   1  -6   68.39    5.20
   4   1  -6   53.99    4.40
   4   1  -6   61.69    5.80
   4   1  -6   65.09    6.10
   4   1  -6   67.89    4.70
   4   1  -6   63.99    5.60
  -4  -1   6   68.39    5.20
  -4  -1   6   68.79    4.90
  -4  -1   6   58.39    5.60
  -4  -1   6   61.39    5.10
  -4  -1   6   62.09    4.30
  -4  -1   6   64.29    6.30
  -4  -1   6   64.69    4.60
   3   1  -6  182.48    8.50
   3   1  -6  185.88    8.40
   3   1  -6  187.08    8.40
   3   1  -6  192.18    9.60
   3   1  -6  164.88    9.00
   3   1  -6  178.08    9.10
   3   1  -6  185.58    9.20
  -3  -1   6  150.38    8.50
  -3  -1   6  192.18    8.20
  -3  -1   6  175.68    8.10
  -3  -1   6  170.98    8.60
  -3  -1   6  188.38    8.90
  -3  -1   6  190.88    9.40
  -3  -1   6  182.98    8.80
  -3  -1   6  193.78    8.70
  -3  -1   6  179.48    9.30
   2   1  -6   33.10    3.50
   2   1  -6   25.80    3.20
   2   1  -6   29.30    2.90
   2   1  -6   33.10    3.00
   2   1  -6   24.50    3.30
   2   1  -6   32.70    2.90
   2   1  -6   32.00    3.20
  -2  -1   6   32.90    2.70
  -2  -1   6   29.10    2.90
  -2  -1   6   31.70    3.30
  -2  -1   6   31.50    2.90
  -2  -1   6   27.30    2.60
  -2  -1   6   28.40    2.90
  -2  -1   6   31.80    3.60
  -2  -1   6   31.60    3.20
  -2  -1   6   34.30    3.90
   1   1  -6    0.40    1.50
   1   1  -6    4.30    1.70
   1   1  -6   -0.30    1.40
   1   1  -6    0.90    1.70
  -1  -1   6    0.60    1.30
  -1  -1   6    0.80    1.30
  -1  -1   6    0.20    1.10
  -1  -1   6    1.60    1.10
  -1  -1   6    2.50    1.40
  -1  -1   6    1.90    1.60
   0   1  -6  126.89    5.90
   0   1  -6  130.29    6.30
   0   1  -6  132.69    5.80
   0   1  -6  132.49    6.40
   0   1  -6  136.39    6.40
   0   1  -6  130.59    5.80
   0   1  -6  123.49    5.80
   0  -1   6  135.39    6.30
   0  -1   6  137.79    5.80
   0  -1   6  128.99    5.90
   0  -1   6  129.99    6.10
  -1   1  -6 1326.97   47.90
  -1   1  -6 1292.77   47.80
  -1   1  -6 1340.37   48.30
  -1   1  -6 1205.58   47.70
  -1   1  -6 1089.49   48.90
  -1   1  -6 1209.98   48.10
  -1   1  -6 1330.57   48.60
   1  -1   6 1321.67   48.50
   1  -1   6 1262.97   47.80
   1  -1   6 1350.06   48.30
   1  -1   6 1359.86   49.10
   1  -1   6 1351.56   48.20
   1  -1   6 1376.86   47.80
  -2   1  -6  200.98    8.40
  -2   1  -6  199.78    9.10
  -2   1  -6  190.78    8.50
  -2   1  -6  197.28    8.30
   2  -1   6  182.78    9.00
   2  -1   6  196.48    9.40
   2  -1   6  192.38    8.40
   2  -1   6  195.38    8.50
   2  -1   6  193.68    8.10
   2  -1   6  187.48    8.20
  -3   1  -6  128.19    5.90
  -3   1  -6  136.19    6.10
  -3   1  -6  118.99    6.10
  -3   1  -6  124.99    6.80
  -3   1  -6  124.29    6.00
   3  -1   6  105.79    6.70
   3  -1   6  131.39    5.70
   3  -1   6  132.29    6.10
   3  -1   6  111.49    5.90
   3  -1   6  119.99    7.00
  -4   1  -6    5.10    2.50
  -4   1  -6    4.40    2.00
  -4   1  -6    3.20    2.10
  -4   1  -6    2.70    1.90
  -4   1  -6    2.40    1.70
  -4   1  -6    2.90    2.30
  -4   1  -6    5.50    2.20
  -4   1  -6    1.60    1.80
  -4   1  -6    1.10    2.50
  -4   1  -6    4.70    2.00
   4  -1   6    4.60    2.20
   4  -1   6    4.00    2.20
   4  -1   6    5.60    1.80
   4  -1   6    4.50    2.30
   4  -1   6    3.30    2.50
   4  -1   6    5.80    1.90
   4  -1   6    4.90    1.90
   4  -1   6    6.70    2.40
  -5   1  -6   82.69    5.20
  -5   1  -6   83.29    5.70
  -5   1  -6   76.69    5.30
  -5   1  -6   71.69    5.30
  -5   1  -6   76.99    5.10
  -5   1  -6   73.39    5.30
  -5   1  -6   79.19    5.70
   5  -1   6   70.39    4.50
   5  -1   6   78.99    5.70
   5  -1   6   66.19    4.70
   5  -1   6   73.59    5.60
   5  -1   6   73.59    4.90
   5  -1   6   70.99    5.30
  -6   1  -6  109.59    6.50
  -6   1  -6  116.29    7.40
  -6   1  -6   92.19    5.90
  -6   1  -6  106.89    6.60
  -6   1  -6   88.29    6.30
  -6   1  -6   96.29    7.10
   6  -1   6  107.69    6.90
   6  -1   6  112.09    7.00
   6  -1   6  110.49    6.70
  -7   1  -6   13.70    2.90
  -7   1  -6   13.70    3.30
  -7   1  -6    8.10    3.00
  -7   1  -6   15.90    3.20
  -7   1  -6   12.00    2.60
   7  -1   6   13.90    3.00
   7  -1   6   13.30    3.20
   7  -1   6   17.40    3.40
   8  -1   6   20.40    2.40
   8  -1   6   30.30    2.90
   6   0  -6  117.39    6.50
   6   0  -6  116.69    6.60
   6   0  -6  113.19    6.00
  -6   0   6  108.89    6.70
  -6   0   6  116.59    6.30
   5   0  -6   17.10    3.80
   5   0  -6   12.90    2.60
   5   0  -6   15.10    2.90
   5   0  -6   16.00    3.50
   5   0  -6   15.20    2.90
  -5   0   6   22.80    4.10
  -5   0   6   14.40    3.10
  -5   0   6   15.80    3.20
  -5   0   6   10.20    2.30
   4   0  -6    0.30    2.00
   4   0  -6   -2.00    2.70
   4   0  -6   -1.70    2.30
   4   0  -6    2.70    3.00
   4   0  -6    0.30    2.00
   4   0  -6   -0.40    2.00
  -4   0   6    3.30    3.20
  -4   0   6    0.90    3.00
  -4   0   6    1.70    1.80
  -4   0   6   -2.80    2.20
  -4   0   6   -1.30    1.80
  -4   0   6   -2.60    2.40
  -4   0   6    2.10    2.00
   3   0  -6   71.59    5.20
   3   0  -6   77.29    4.80
   3   0  -6   73.59    4.60
   3   0  -6   70.09    5.10
   3   0  -6   84.19    5.80
   3   0  -6   75.59    4.50
   3   0  -6   82.09    5.00
   3   0  -6   73.39    4.70
   3   0  -6   74.79    5.40
  -3   0   6   74.19    5.00
  -3   0   6   83.19    4.70
  -3   0   6   78.09    4.80
  -3   0   6   71.39    5.00
  -3   0   6   77.09    5.70
  -3   0   6   73.49    5.10
  -3   0   6   68.69    4.50
  -3   0   6   73.29    5.70
   2   0  -6   12.70    2.20
   2   0  -6   10.20    2.50
   2   0  -6   12.10    2.80
   2   0  -6   10.80    1.90
   2   0  -6   12.40    2.60
   2   0  -6   11.80    1.90
   2   0  -6   13.80    2.40
   2   0  -6    7.30    2.00
  -2   0   6   10.30    2.20
  -2   0   6   11.40    1.80
  -2   0   6   12.00    2.00
  -2   0   6   14.40    3.10
  -2   0   6   13.60    2.20
  -2   0   6    8.30    2.00
  -2   0   6   11.20    1.90
  -2   0   6    9.80    1.90
   1   0  -6  243.58   10.20
   1   0  -6  277.47   10.80
   1   0  -6  251.87   10.30
   1   0  -6  253.27   10.30
   1   0  -6  260.07   10.80
  -1   0   6  257.67   10.70
  -1   0   6  261.17   10.20
  -1   0   6  252.67   10.30
  -1   0   6  251.07   10.50
  -1   0   6  251.27   10.70
   0   0  -6   19.00    2.20
   0   0  -6   15.90    2.00
   0   0  -6   14.60    1.70
   0   0  -6   15.10    1.70
   0   0  -6   15.80    1.80
   0   0  -6   16.30    1.70
   0   0   6   14.60    2.20
   0   0   6   16.40    1.70
   0   0   6   17.20    1.70
   0   0   6   19.00    2.00
   0   0   6   18.50    1.90
   0   0   6   18.10    1.60
   0   0   6   17.30    1.80
   0   0   6   18.60    2.10
  -1   0  -6  394.16   15.50
  -1   0  -6  391.16   14.80
  -1   0  -6  387.76   14.70
  -1   0  -6  378.16   15.00
   1   0   6  387.46   15.10
   1   0   6  386.86   14.60
   1   0   6  368.66   15.00
   1   0   6  387.56   15.70
   1   0   6  376.26   14.70
   1   0   6  384.26   14.90
   1   0   6  358.96   14.60
   1   0   6  353.46   14.30
  -2   0  -6   31.90    2.60
  -2   0  -6   31.10    3.20
  -2   0  -6   31.80    2.70
  -2   0  -6   33.60    2.70
   2   0   6   35.30    3.50
   2   0   6   29.20    2.40
   2   0   6   30.30    2.30
   2   0   6   27.00    2.90
   2   0   6   34.00    2.70
   2   0   6   31.50    2.70
  -3   0  -6   44.40    3.20
  -3   0  -6   47.00    3.40
  -3   0  -6   50.69    4.10
  -3   0  -6   53.99    3.30
   3   0   6   45.70    3.30
   3   0   6   48.00    3.30
   3   0   6   46.10    3.00
   3   0   6   42.60    2.90
   3   0   6   46.20    4.30
  -4   0  -6   22.30    2.50
  -4   0  -6   23.00    2.50
  -4   0  -6   28.50    3.30
  -4   0  -6   22.20    2.60
  -4   0  -6   25.80    3.30
  -4   0  -6   25.50    2.70
  -4   0  -6   27.00    2.90
  -4   0  -6   21.60    2.80
  -4   0  -6   21.80    3.20
   4   0   6   27.10    3.10
   4   0   6   20.70    2.60
   4   0   6   26.00    2.70
   4   0   6   24.00    3.00
   4   0   6   25.90    2.90
   4   0   6   24.60    3.20
   4   0   6   25.50    2.50
   4   0   6   21.20    3.50
  -5   0  -6   12.60    2.50
  -5   0  -6    5.90    2.80
  -5   0  -6    9.80    2.40
  -5   0  -6   12.20    2.60
  -5   0  -6    6.60    2.50
  -5   0  -6   13.10    2.50
  -5   0  -6   10.70    2.40
  -5   0  -6   13.90    3.10
  -5   0  -6   12.40    3.00
  -5   0  -6   11.30    2.50
   5   0   6    8.50    2.10
   5   0   6    9.60    2.10
   5   0   6    6.70    2.80
   5   0   6   10.80    2.40
   5   0   6   12.00    2.90
   5   0   6    9.50    2.80
   5   0   6    9.70    2.60
  -6   0  -6  133.39    7.80
  -6   0  -6  137.49    7.40
  -6   0  -6  121.59    7.10
  -6   0  -6  131.59    7.10
  -6   0  -6  121.79    7.30
  -6   0  -6  129.69    7.80
   6   0   6  128.59    6.90
   6   0   6  109.69    7.00
   6   0   6  142.29    7.70
   6   0   6  133.19    7.80
   6   0   6  130.39    7.40
  -7   0  -6   14.10    3.40
  -7   0  -6   16.20    3.40
  -7   0  -6    8.60    2.30
  -7   0  -6   13.40    3.60
  -7   0  -6   13.80    2.90
   7   0   6   12.50    2.90
   7   0   6   15.40    3.00
   7   0   6   13.70    3.30
   7   0   6   11.60    2.50
  -8   0  -6  108.29    6.10
  -8   0  -6  107.09    5.80
  -8   0  -6   99.69    5.60
  -8   0  -6  102.49    6.10
   8   0   6  103.79    5.70
   8   0   6  102.09    5.80
   6  -1  -6   81.49    4.90
   6  -1  -6   79.19    5.20
  -6   1   6   83.19    5.00
  -6   1   6   87.99    5.20
   5  -1  -6   19.60    2.90
   5  -1  -6   27.70    4.00
   5  -1  -6   20.00    3.60
   5  -1  -6   21.80    3.30
  -5   1   6   21.90    2.80
  -5   1   6   21.50    3.20
  -5   1   6   20.40    3.60
  -5   1   6   23.20    3.60
   4  -1  -6    4.10    2.20
   4  -1  -6    2.80    2.10
   4  -1  -6    4.40    2.50
   4  -1  -6    1.50    3.10
   4  -1  -6    5.90    3.10
  -4   1   6    1.30    2.40
  -4   1   6    4.10    2.00
  -4   1   6    3.60    1.90
  -4   1   6    6.00    3.50
  -4   1   6    6.70    2.90
   3  -1  -6    8.80    2.10
   3  -1  -6    4.30    1.90
   3  -1  -6    5.90    2.80
   3  -1  -6    8.60    3.10
   3  -1  -6    7.90    2.00
   3  -1  -6    7.60    2.50
  -3   1   6    4.20    2.20
  -3   1   6    8.30    2.60
  -3   1   6    8.80    2.70
  -3   1   6    9.90    2.10
  -3   1   6    7.40    3.70
  -3   1   6    8.70    1.90
  -3   1   6   10.90    2.20
   2  -1  -6  223.48    9.80
   2  -1  -6  225.88    9.50
   2  -1  -6  215.38   10.20
   2  -1  -6  216.58   10.10
   2  -1  -6  222.78   10.50
   2  -1  -6  233.18   10.00
   2  -1  -6  217.78    9.50
  -2   1   6  223.68    9.80
  -2   1   6  219.98    9.10
  -2   1   6  223.68   10.10
  -2   1   6  221.88   10.80
  -2   1   6  225.38   10.00
  -2   1   6  242.08    9.70
  -2   1   6  245.28    9.90
  -2   1   6  239.18    9.70
  -2   1   6  237.88   10.70
   1  -1  -6  116.99    5.50
   1  -1  -6  119.59    5.40
   1  -1  -6  125.19    6.00
   1  -1  -6  121.59    5.90
   1  -1  -6  115.59    5.30
  -1   1   6  122.99    5.70
  -1   1   6  117.89    6.50
  -1   1   6  123.39    6.00
  -1   1   6  119.49    5.80
  -1   1   6  114.59    5.30
  -1   1   6  121.89    5.60
  -1   1   6  129.09    5.60
   0  -1  -6  314.47   11.90
   0  -1  -6  298.17   12.00
   0  -1  -6  300.47   11.70
   0   1   6  287.77   11.30
   0   1   6  301.07   12.20
   0   1   6  290.07   12.10
   0   1   6  309.87   12.10
   0   1   6  274.47   11.60
   0   1   6  270.07   11.50
   0   1   6  307.17   11.60
   0   1   6  302.07   12.10
   0   1   6  297.17   11.80
   0   1   6  292.97   11.40
  -1  -1  -6  162.18    6.70
  -1  -1  -6  155.48    6.80
  -1  -1  -6  155.58    7.40
  -1  -1  -6  154.68    6.60
   1   1   6  155.48    6.40
   1   1   6  145.59    6.80
   1   1   6  147.79    6.40
   1   1   6  156.28    6.80
   1   1   6  151.38    7.30
   1   1   6  148.99    6.60
   1   1   6  152.98    6.30
   1   1   6  145.09    6.50
   1   1   6  149.79    6.90
  -2  -1  -6  127.79    6.10
  -2  -1  -6  136.09    6.00
  -2  -1  -6  126.69    5.90
  -2  -1  -6  133.59    6.70
  -2  -1  -6  136.09    6.00
   2   1   6  134.79    6.40
   2   1   6  132.09    6.30
   2   1   6  138.69    7.00
   2   1   6  143.39    5.90
   2   1   6  129.89    6.10
   2   1   6  134.19    5.70
   2   1   6  129.19    6.00
   2   1   6  139.89    6.20
  -3  -1  -6   13.10    2.00
  -3  -1  -6   15.80    2.00
  -3  -1  -6   11.90    1.70
  -3  -1  -6   15.90    2.70
  -3  -1  -6   15.90    2.00
   3   1   6   12.60    2.00
   3   1   6   16.20    2.80
   3   1   6   14.20    1.80
   3   1   6   14.50    1.60
   3   1   6   13.50    2.00
   3   1   6   17.30    2.70
  -4  -1  -6   50.39    4.00
  -4  -1  -6   50.49    3.60
  -4  -1  -6   41.30    4.20
  -4  -1  -6   43.90    4.20
  -4  -1  -6   47.20    4.00
  -4  -1  -6   49.99    3.40
  -4  -1  -6   48.50    3.50
  -4  -1  -6   51.39    3.50
   4   1   6   51.59    3.40
   4   1   6   50.19    3.50
   4   1   6   46.20    4.60
   4   1   6   53.09    4.90
   4   1   6   52.29    4.40
   4   1   6   59.49    3.90
   4   1   6   53.09    3.60
   4   1   6   45.80    2.90
  -5  -1  -6    3.10    2.20
  -5  -1  -6    1.00    2.10
  -5  -1  -6    0.00    2.30
  -5  -1  -6    2.50    2.00
  -5  -1  -6    5.70    1.90
  -5  -1  -6    1.60    1.80
  -5  -1  -6    0.40    2.00
  -5  -1  -6    2.10    2.30
   5   1   6    0.50    1.80
   5   1   6    1.60    2.70
   5   1   6    2.90    2.30
   5   1   6    1.90    1.80
   5   1   6    3.10    2.00
   5   1   6    5.90    2.40
   5   1   6    3.90    1.90
  -6  -1  -6    1.10    2.50
  -6  -1  -6    3.60    2.20
  -6  -1  -6    2.30    2.60
  -6  -1  -6    1.10    2.60
  -6  -1  -6   -0.90    2.50
  -6  -1  -6    2.00    2.20
   6   1   6   -0.60    2.50
   6   1   6    3.40    2.80
   6   1   6    1.00    2.40
   6   1   6    1.80    2.00
   6   1   6    0.70    2.00
   6   1   6    2.20    2.10
  -7  -1  -6    1.40    2.70
  -7  -1  -6    1.20    2.50
  -7  -1  -6    6.40    2.50
  -7  -1  -6    1.80    2.80
  -7  -1  -6    6.00    3.10
   7   1   6    6.00    2.80
   7   1   6    4.80    2.50
   7   1   6    7.90    2.90
  -8  -1  -6   -1.60    1.80
  -8  -1  -6    1.70    2.40
  -8  -1  -6    0.10    1.90
  -8  -1  -6    0.60    2.30
   8   1   6    0.00    1.80
   8   1   6    0.30    2.20
   6  -2  -6   14.90    2.40
   6  -2  -6   18.50    2.50
  -6   2   6   14.60    2.20
  -6   2   6   17.30    2.50
   5  -2  -6    1.20    2.40
   5  -2  -6    2.40    2.80
   5  -2  -6    2.30    2.30
  -5   2   6    0.40    3.00
  -5   2   6    4.90    2.70
  -5   2   6    6.40    2.70
   4  -2  -6   28.40    4.10
   4  -2  -6   31.10    3.40
   4  -2  -6   28.40    3.50
   4  -2  -6   22.30    3.60
  -4   2   6   30.30    4.80
  -4   2   6   27.80    3.50
  -4   2   6   33.40    3.90
  -4   2   6   33.70    3.40
   3  -2  -6    9.50    2.40
   3  -2  -6    8.50    2.40
   3  -2  -6    9.30    2.50
   3  -2  -6    7.20    2.90
   3  -2  -6    8.60    2.70
  -3   2   6    7.50    2.50
  -3   2   6    7.80    2.50
  -3   2   6   13.00    4.10
  -3   2   6   10.80    1.90
  -3   2   6   11.20    2.40
  -3   2   6    9.50    2.20
   2  -2  -6   39.80    3.70
   2  -2  -6   32.50    3.70
   2  -2  -6   39.10    4.10
   2  -2  -6   43.50    3.10
   2  -2  -6   41.30    3.10
   2  -2  -6   39.40    3.90
   2  -2  -6   39.00    3.40
   2  -2  -6   42.60    4.10
  -2   2   6   42.10    3.00
  -2   2   6   45.30    3.20
  -2   2   6   43.20    3.20
  -2   2   6   40.70    3.10
  -2   2   6   44.50    3.60
  -2   2   6   45.50    3.30
  -2   2   6   40.00    3.60
   1  -2  -6   19.90    2.50
   1  -2  -6   22.20    2.60
  -1   2   6   23.00    2.30
  -1   2   6   18.40    1.90
  -1   2   6   24.50    2.90
  -1   2   6   20.40    2.30
  -1   2   6   18.40    2.60
  -1   2   6   23.60    2.40
  -1   2   6   21.20    2.30
   0  -2  -6  301.77   12.90
   0  -2  -6  319.87   13.20
   0  -2  -6  331.17   12.90
   0   2   6  328.37   12.90
   0   2   6  324.77   13.10
   0   2   6  338.57   13.30
   0   2   6  340.37   13.00
   0   2   6  313.77   12.50
   0   2   6  334.37   12.90
   0   2   6  320.57   13.30
  -1  -2  -6   12.40    1.90
  -1  -2  -6   13.70    2.00
  -1  -2  -6   10.10    1.80
  -1  -2  -6   11.50    1.70
   1   2   6    9.80    2.00
   1   2   6   12.80    1.60
   1   2   6   12.00    2.10
   1   2   6   12.60    1.50
   1   2   6   14.20    1.50
   1   2   6   11.10    1.80
   1   2   6   11.30    1.80
   1   2   6   11.50    1.70
   1   2   6   13.30    1.80
  -2  -2  -6    4.40    1.70
  -2  -2  -6    5.60    1.40
  -2  -2  -6    3.10    1.40
  -2  -2  -6    5.70    1.50
   2   2   6    4.20    1.40
   2   2   6    5.80    1.90
   2   2   6    4.50    1.40
   2   2   6    4.90    1.20
   2   2   6    3.80    1.60
   2   2   6    5.60    2.10
   2   2   6    5.80    1.60
  -3  -2  -6   77.69    4.30
  -3  -2  -6   77.49    4.60
  -3  -2  -6   77.79    4.20
  -3  -2  -6   79.19    5.10
   3   2   6   79.49    3.90
   3   2   6   77.79    4.50
   3   2   6   78.79    4.40
   3   2   6   80.09    4.10
   3   2   6   70.89    4.60
   3   2   6   83.29    5.50
  -4  -2  -6    0.60    1.80
  -4  -2  -6   -2.10    1.90
  -4  -2  -6    0.30    2.90
  -4  -2  -6    0.10    1.90
  -4  -2  -6    0.50    1.60
  -4  -2  -6    0.20    1.50
  -4  -2  -6   -1.20    1.80
  -4  -2  -6   -1.60    1.70
  -4  -2  -6   -0.80    1.70
   4   2   6   -0.10    1.20
   4   2   6    1.80    2.10
   4   2   6    1.20    1.60
   4   2   6    0.20    2.20
   4   2   6    0.60    1.20
   4   2   6   -0.90    1.50
   4   2   6   -1.40    1.30
   4   2   6    0.20    1.40
   4   2   6   -0.50    1.50
   4   2   6    1.00    1.90
  -5  -2  -6   54.29    4.30
  -5  -2  -6   55.59    4.20
  -5  -2  -6   54.49    4.80
  -5  -2  -6   46.80    4.20
  -5  -2  -6   49.10    4.40
  -5  -2  -6   50.99    4.80
   5   2   6   58.09    4.30
   5   2   6   53.99    4.10
   5   2   6   56.29    3.40
   5   2   6   55.19    3.70
   5   2   6   53.89    4.60
   5   2   6   47.50    4.80
   5   2   6   56.19    3.30
   5   2   6   59.99    4.30
   5   2   6   50.19    5.00
  -6  -2  -6  126.99    7.40
  -6  -2  -6  116.69    6.80
  -6  -2  -6  128.09    7.70
  -6  -2  -6  127.19    7.20
  -6  -2  -6  110.49    7.00
   6   2   6  119.49    7.10
   6   2   6  124.59    6.80
   6   2   6  121.79    6.90
   6   2   6  130.79    7.50
   6   2   6  118.49    6.30
  -7  -2  -6    8.90    3.00
  -7  -2  -6    4.40    2.40
  -7  -2  -6    8.50    3.50
  -7  -2  -6    9.40    3.10
  -7  -2  -6    5.90    2.90
   7   2   6    6.00    2.80
   7   2   6    6.80    2.50
   7   2   6   -0.90    2.50
   7   2   6    5.00    2.20
  -8  -2  -6   56.69    6.10
  -8  -2  -6   73.89    5.10
  -8  -2  -6   71.39    5.20
  -8  -2  -6   74.29    4.90
   8   2   6   69.09    4.50
   8   2   6   69.09    4.60
   5  -3  -6   10.20    2.40
   5  -3  -6   12.00    3.70
   5  -3  -6    6.70    2.60
  -5   3   6    5.80    3.00
  -5   3   6    8.80    2.40
  -5   3   6    8.80    2.80
   4  -3  -6  280.47   13.50
   4  -3  -6  281.07   12.60
   4  -3  -6  283.87   14.20
   4  -3  -6  316.67   13.30
   4  -3  -6  316.67   13.30
  -4   3   6  297.47   12.00
  -4   3   6  308.37   14.20
  -4   3   6  292.37   13.10
  -4   3   6  308.27   12.90
  -4   3   6  313.57   13.40
   3  -3  -6  137.39    7.10
   3  -3  -6  147.39    7.50
   3  -3  -6  143.09    8.20
   3  -3  -6  136.19    8.00
   3  -3  -6  145.79    7.70
   3  -3  -6  137.59    8.90
   3  -3  -6  142.19    7.30
  -3   3   6  159.48    7.40
  -3   3   6  138.39    7.10
  -3   3   6  147.79    6.90
  -3   3   6  146.39    7.80
  -3   3   6  139.59    7.60
  -3   3   6  143.59    6.90
   2  -3  -6  139.09    8.50
   2  -3  -6  146.59    7.30
   2  -3  -6  136.59    8.00
   2  -3  -6  138.39    7.10
   2  -3  -6  145.99    7.10
   2  -3  -6  140.09    7.80
  -2   3   6  131.59    7.20
  -2   3   6  146.59    6.70
  -2   3   6  148.69    6.60
  -2   3   6  137.89    7.60
  -2   3   6  158.08    7.20
  -2   3   6  147.39    7.00
   1  -3  -6  687.43   26.70
   1  -3  -6  719.23   27.00
   1  -3  -6  683.93   27.50
   1  -3  -6  674.33   26.50
   1  -3  -6  691.13   27.90
   1  -3  -6  696.93   27.50
   1  -3  -6  705.73   27.90
   1  -3  -6  724.63   27.10
   1  -3  -6  685.13   26.80
  -1   3   6  704.03   26.60
  -1   3   6  699.43   27.30
  -1   3   6  663.03   26.10
  -1   3   6  719.03   26.20
  -1   3   6  666.33   26.50
  -1   3   6  741.93   26.80
   0  -3  -6  328.07   13.40
   0  -3  -6  337.87   13.50
   0   3   6  323.67   13.10
   0   3   6  338.27   13.20
   0   3   6  328.97   13.80
   0   3   6  321.77   12.70
   0   3   6  327.17   13.40
   0   3   6  321.57   13.20
  -1  -3  -6  726.83   27.50
  -1  -3  -6  741.83   27.30
  -1  -3  -6  739.63   27.50
   1   3   6  736.93   27.40
   1   3   6  732.53   27.90
   1   3   6  713.93   26.90
   1   3   6  726.63   27.50
   1   3   6  687.93   27.70
   1   3   6  684.63   26.70
   1   3   6  723.23   27.40
  -2  -3  -6  142.29    6.30
  -2  -3  -6  141.89    6.60
  -2  -3  -6  137.79    6.30
  -2  -3  -6  134.59    6.30
   2   3   6  136.19    6.20
   2   3   6  139.29    6.50
   2   3   6  135.29    6.00
   2   3   6  139.49    7.00
   2   3   6  136.79    7.00
   2   3   6  137.89    6.60
   2   3   6  136.39    5.80
  -3  -3  -6  285.07   11.70
  -3  -3  -6  293.97   12.00
  -3  -3  -6  281.17   11.60
   3   3   6  292.17   11.20
   3   3   6  274.27   11.90
   3   3   6  290.07   11.50
   3   3   6  292.37   11.90
   3   3   6  277.07   12.70
   3   3   6  280.37   12.10
  -4  -3  -6  143.09    7.20
  -4  -3  -6  147.59    8.20
  -4  -3  -6  148.49    6.80
  -4  -3  -6  146.49    8.20
  -4  -3  -6  140.49    7.60
  -4  -3  -6  152.68    7.40
  -4  -3  -6  143.99    7.50
  -4  -3  -6  145.29    7.90
  -4  -3  -6  154.68    7.00
  -4  -3  -6  144.79    7.40
  -4  -3  -6  153.88    8.90
   4   3   6  155.88    6.90
   4   3   6  153.18    8.30
   4   3   6  143.79    6.50
   4   3   6  149.09    7.10
   4   3   6  147.69    6.50
   4   3   6  165.18    7.40
   4   3   6  147.49    7.40
   4   3   6  144.39    7.70
  -5  -3  -6    0.40    2.10
  -5  -3  -6    0.20    2.20
  -5  -3  -6    1.00    2.20
  -5  -3  -6   -0.50    2.10
  -5  -3  -6   -0.10    1.80
  -5  -3  -6    2.00    2.20
  -5  -3  -6    0.50    2.40
  -5  -3  -6   -2.90    3.30
   5   3   6   -1.50    1.60
   5   3   6   -3.40    2.30
   5   3   6   -0.70    1.70
   5   3   6    2.90    1.90
   5   3   6   -0.90    1.40
   5   3   6   -0.80    1.90
   5   3   6    0.20    1.40
   5   3   6   -1.60    2.30
  -6  -3  -6    7.40    3.00
  -6  -3  -6    3.90    2.70
  -6  -3  -6    9.00    2.90
  -6  -3  -6    7.40    2.80
  -6  -3  -6    7.30    3.20
   6   3   6    6.00    1.80
   6   3   6    6.40    2.20
   6   3   6    5.70    2.70
   6   3   6    5.40    2.40
   6   3   6   10.40    2.50
   6   3   6    7.40    2.60
  -7  -3  -6   26.40    3.80
  -7  -3  -6   26.80    4.10
  -7  -3  -6   17.80    3.00
  -7  -3  -6   22.70    3.50
  -7  -3  -6   23.80    4.10
  -7  -3  -6   20.80    3.60
   7   3   6   22.80    3.30
   7   3   6   21.00    3.10
   7   3   6   21.10    3.00
   7   3   6   29.50    3.40
  -8  -3  -6    9.30    2.40
  -8  -3  -6   16.80    2.80
  -8  -3  -6   14.00    3.20
  -8  -3  -6   11.80    2.70
  -8  -3  -6   15.50    3.10
   8   3   6   11.20    2.30
   8   3   6   12.90    2.50
   5  -4  -6   43.50    3.30
   5  -4  -6   50.09    4.00
   5  -4  -6   48.20    4.90
  -5   4   6   43.10    3.70
  -5   4   6   56.99    4.50
  -5   4   6   44.20    4.30
   4  -4  -6    2.50    2.10
   4  -4  -6    3.20    3.70
   4  -4  -6    5.90    2.60
  -4   4   6    2.40    4.00
  -4   4   6    7.80    3.00
  -4   4   6    6.80    2.40
  -4   4   6    8.10    2.00
   3  -4  -6  290.77   14.00
   3  -4  -6  269.37   11.90
   3  -4  -6  284.07   13.20
   3  -4  -6  278.67   12.50
  -3   4   6  275.17   12.40
  -3   4   6  280.17   12.10
  -3   4   6  282.17   11.60
  -3   4   6  264.47   13.10
  -3   4   6  273.77   11.70
   2  -4  -6   91.49    6.60
   2  -4  -6   82.49    6.70
   2  -4  -6   88.69    6.30
   2  -4  -6   82.39    6.90
   2  -4  -6   94.69    5.60
   2  -4  -6   86.69    6.40
   2  -4  -6   84.49    5.20
   2  -4  -6   98.89    5.70
  -2   4   6   91.39    5.30
  -2   4   6   90.59    4.80
  -2   4   6   91.09    5.70
  -2   4   6   95.69    5.50
  -2   4   6   94.89    5.00
   1  -4  -6   10.20    3.30
   1  -4  -6   16.90    3.40
   1  -4  -6   19.50    3.10
   1  -4  -6   15.30    2.40
   1  -4  -6   11.40    3.00
   1  -4  -6   17.00    3.30
   1  -4  -6   14.80    2.20
   1  -4  -6   14.70    3.30
   1  -4  -6   15.50    2.50
   1  -4  -6   20.20    3.60
  -1   4   6   11.20    2.20
  -1   4   6   16.20    1.80
  -1   4   6   13.50    2.40
  -1   4   6   18.90    3.10
  -1   4   6   14.90    1.90
   0  -4  -6  324.87   14.00
   0  -4  -6  320.37   14.80
   0  -4  -6  323.17   14.50
   0  -4  -6  335.07   13.70
   0  -4  -6  309.17   14.00
   0  -4  -6  305.67   14.20
   0  -4  -6  333.97   13.50
   0  -4  -6  328.07   14.50
   0   4   6  341.17   13.30
   0   4   6  338.17   14.00
   0   4   6  309.77   13.00
   0   4   6  318.07   12.50
  -1  -4  -6  130.79    7.10
  -1  -4  -6  121.59    7.10
  -1  -4  -6  130.09    7.40
  -1  -4  -6  134.39    6.50
  -1  -4  -6  127.49    8.00
  -1  -4  -6  123.79    6.30
  -1  -4  -6  131.09    7.30
  -1  -4  -6  129.39    6.30
   1   4   6  133.99    6.10
   1   4   6  119.09    5.80
   1   4   6  127.39    6.80
   1   4   6  127.69    6.10
   1   4   6  120.09    5.30
   1   4   6  119.59    6.10
  -2  -4  -6  177.98    8.00
  -2  -4  -6  160.68    8.20
  -2  -4  -6  170.48    7.50
  -2  -4  -6  158.48    8.60
  -2  -4  -6  167.38    8.60
  -2  -4  -6  169.38    8.70
  -2  -4  -6  167.88    8.40
  -2  -4  -6  164.28    8.90
  -2  -4  -6  163.38    8.00
   2   4   6  169.38    8.30
   2   4   6  161.98    7.30
   2   4   6  164.08    7.70
   2   4   6  161.48    6.70
   2   4   6  166.58    7.00
   2   4   6  167.58    8.20
   2   4   6  164.28    7.30
  -3  -4  -6   67.89    4.90
  -3  -4  -6   73.39    6.30
  -3  -4  -6   70.89    5.00
  -3  -4  -6   66.59    5.40
  -3  -4  -6   71.69    4.00
  -3  -4  -6   66.39    4.60
  -3  -4  -6   61.39    5.40
  -3  -4  -6   67.59    4.60
  -3  -4  -6   66.09    5.30
  -3  -4  -6   78.59    5.60
   3   4   6   68.09    5.10
   3   4   6   72.79    4.50
   3   4   6   73.89    4.20
   3   4   6   66.79    3.50
   3   4   6   64.29    3.80
  -4  -4  -6    0.70    1.70
  -4  -4  -6    0.10    2.10
  -4  -4  -6   -4.40    2.10
  -4  -4  -6    2.60    3.60
  -4  -4  -6    2.50    2.10
  -4  -4  -6   -1.80    2.00
  -4  -4  -6   -1.00    2.50
  -4  -4  -6    0.20    2.20
  -4  -4  -6    1.70    3.30
  -4  -4  -6   -0.70    2.60
   4   4   6   -1.90    1.30
   4   4   6   -0.10    1.20
   4   4   6    1.10    1.50
   4   4   6    2.00    1.90
   4   4   6    1.30    2.10
   4   4   6   -0.40    1.50
  -5  -4  -6    5.70    2.70
  -5  -4  -6    2.20    3.70
  -5  -4  -6    4.90    2.30
  -5  -4  -6    3.30    2.50
  -5  -4  -6    3.50    3.30
  -5  -4  -6    1.00    2.40
  -5  -4  -6    2.50    3.90
  -5  -4  -6    3.80    2.20
   5   4   6    2.30    2.00
   5   4   6    2.30    2.10
   5   4   6    3.60    1.60
   5   4   6    4.40    1.80
   5   4   6    3.00    1.80
   5   4   6    5.80    2.60
  -6  -4  -6   54.39    5.00
  -6  -4  -6   52.19    4.50
  -6  -4  -6   53.69    5.70
  -6  -4  -6   48.90    4.90
  -6  -4  -6   44.70    5.10
  -6  -4  -6   44.90    4.40
  -6  -4  -6   56.99    5.80
  -6  -4  -6   57.99    5.40
   6   4   6   46.20    4.50
   6   4   6   48.10    4.10
   6   4   6   45.60    3.60
   6   4   6   47.80    3.60
   6   4   6   43.80    4.30
   6   4   6   44.70    4.40
  -7  -4  -6    9.90    2.70
  -7  -4  -6    7.70    3.50
  -7  -4  -6   10.40    3.40
  -7  -4  -6    6.30    2.70
  -7  -4  -6    9.50    3.90
  -7  -4  -6    6.00    2.80
   7   4   6    4.50    2.50
   7   4   6    7.20    1.70
   7   4   6    8.90    2.60
   7   4   6    6.90    2.50
  -8  -4  -6    7.10    2.00
  -8  -4  -6    7.20    2.60
  -8  -4  -6    7.40    2.70
  -8  -4  -6    4.40    2.00
  -8  -4  -6   13.70    2.80
   8   4   6    6.70    1.90
   8   4   6   15.60    2.40
   4  -5  -6   -0.20    2.30
   4  -5  -6    0.00    3.60
  -4   5   6   -0.30    1.60
  -4   5   6    2.40    3.60
  -4   5   6    0.20    2.30
   3  -5  -6  112.59    7.50
   3  -5  -6   94.99    8.30
   3  -5  -6  119.99    6.90
   3  -5  -6  106.19    8.20
  -3   5   6  109.69    6.60
  -3   5   6  121.59    5.90
  -3   5   6  117.29    6.10
   2  -5  -6   69.79    5.50
   2  -5  -6   64.29    6.20
   2  -5  -6   67.49    7.20
   2  -5  -6   77.09    6.00
   2  -5  -6   74.69    4.90
   2  -5  -6   66.89    6.50
  -2   5   6   53.19    4.40
  -2   5   6   74.79    4.30
  -2   5   6   66.99    4.70
  -2   5   6   79.59    4.50
   1  -5  -6   21.10    3.90
   1  -5  -6   25.00    4.20
   1  -5  -6   20.90    3.50
   1  -5  -6   20.80    3.70
   1  -5  -6   23.70    3.70
   1  -5  -6   19.40    3.00
   1  -5  -6   18.90    4.20
   1  -5  -6   21.60    2.90
  -1   5   6   20.00    2.10
  -1   5   6   20.70    2.80
  -1   5   6   14.20    2.40
   0  -5  -6   31.90    5.00
   0  -5  -6   32.10    4.40
   0  -5  -6   31.20    3.40
   0  -5  -6   22.40    3.90
   0  -5  -6   27.50    4.30
   0  -5  -6   31.00    3.80
   0  -5  -6   27.30    3.70
   0  -5  -6   30.10    3.90
   0   5   6   24.10    3.20
   0   5   6   30.10    2.30
   0   5   6   25.90    3.00
   0   5   6   24.30    2.70
  -1  -5  -6    5.70    3.00
  -1  -5  -6   -0.90    2.40
  -1  -5  -6    5.40    3.30
  -1  -5  -6    2.00    2.30
  -1  -5  -6    3.70    2.80
  -1  -5  -6    1.10    2.50
  -1  -5  -6    1.80    2.20
  -1  -5  -6    7.20    2.40
   1   5   6    2.20    1.90
   1   5   6    1.40    1.00
   1   5   6    2.80    2.20
   1   5   6    5.80    1.90
  -2  -5  -6   19.10    3.00
  -2  -5  -6   22.20    4.00
  -2  -5  -6   17.00    3.50
  -2  -5  -6   13.40    2.80
  -2  -5  -6   12.90    2.90
  -2  -5  -6   16.40    3.80
  -2  -5  -6   20.60    3.00
  -2  -5  -6   17.50    3.70
   2   5   6   15.60    1.50
   2   5   6   15.80    2.40
   2   5   6   16.60    2.90
  -3  -5  -6  148.49    8.50
  -3  -5  -6  158.88    8.20
  -3  -5  -6  149.49    8.80
  -3  -5  -6  160.38    8.50
  -3  -5  -6  159.48    9.40
  -3  -5  -6  156.18    8.80
  -3  -5  -6  143.09    7.80
  -3  -5  -6  153.28    9.00
  -3  -5  -6  156.68    8.00
   3   5   6  162.78    7.00
   3   5   6  150.88    7.40
   3   5   6  158.68    7.90
   3   5   6  146.49    8.40
   3   5   6  154.58    6.50
  -4  -5  -6  324.47   14.70
  -4  -5  -6  343.97   14.70
  -4  -5  -6  340.97   15.30
  -4  -5  -6  335.17   15.20
  -4  -5  -6  344.07   16.00
  -4  -5  -6  318.77   15.70
  -4  -5  -6  336.77   14.80
  -4  -5  -6  346.67   15.60
   4   5   6  351.96   13.30
   4   5   6  340.27   14.40
   4   5   6  328.07   13.80
  -5  -5  -6  382.36   17.20
  -5  -5  -6  404.36   18.30
  -5  -5  -6  384.86   17.70
  -5  -5  -6  375.66   16.80
  -5  -5  -6  388.06   17.00
  -5  -5  -6  401.66   17.60
   5   5   6  403.76   15.30
   5   5   6  377.36   16.30
   5   5   6  394.76   16.50
   5   5   6  381.96   15.30
   5   5   6  375.76   15.80
  -6  -5  -6   -0.60    3.10
  -6  -5  -6    0.20    2.60
  -6  -5  -6   -0.90    2.50
  -6  -5  -6    6.80    4.80
  -6  -5  -6    2.90    3.60
  -6  -5  -6    0.70    3.10
  -6  -5  -6    1.50    2.60
   6   5   6    0.60    2.10
   6   5   6   -0.30    2.10
   6   5   6    0.30    1.60
   6   5   6    1.30    1.80
   6   5   6   -2.40    1.90
  -7  -5  -6   82.99    6.60
  -7  -5  -6   86.39    6.30
  -7  -5  -6   93.19    6.80
   7   5   6   79.19    5.20
   7   5   6   83.29    4.40
   7   5   6   82.79    5.50
  -8  -5  -6   -0.80    2.10
  -8  -5  -6    3.20    2.70
   8   5   6   -1.00    1.50
   8   5   6   -0.10    1.50
   4  -6  -6   13.90    2.20
   4  -6  -6   17.40    3.50
  -4   6   6   18.40    3.20
  -4   6   6   23.00    1.90
   3  -6  -6   68.69    5.70
   3  -6  -6   62.59    6.00
   3  -6  -6   56.69    6.30
   3  -6  -6   61.79    5.80
   3  -6  -6   69.09    5.20
  -3   6   6   61.49    4.50
  -3   6   6   76.19    4.40
   2  -6  -6    7.50    3.60
   2  -6  -6    4.50    3.70
   2  -6  -6   10.00    2.70
   2  -6  -6    4.40    4.10
   2  -6  -6    5.10    3.00
   2  -6  -6   10.60    3.50
  -2   6   6    5.00    2.00
  -2   6   6    4.70    1.80
  -2   6   6    2.90    2.00
   1  -6  -6   97.69    7.60
   1  -6  -6   95.59    7.90
   1  -6  -6  105.19    7.30
   1  -6  -6   90.89    7.70
   1  -6  -6   91.09    6.20
   1  -6  -6   97.79    5.90
   1  -6  -6   97.89    6.90
  -1   6   6   95.49    4.90
  -1   6   6   91.59    5.70
  -1   6   6   85.09    5.40
   0  -6  -6   -0.70    2.70
   0  -6  -6    2.20    4.00
   0  -6  -6   -0.90    2.20
   0  -6  -6   -0.70    3.70
   0  -6  -6    1.50    2.80
   0  -6  -6    1.10    2.70
   0  -6  -6    1.70    2.90
   0  -6  -6    3.70    3.60
   0   6   6    0.30    1.80
   0   6   6    0.00    1.90
   0   6   6    0.10    1.30
  -1  -6  -6  141.09    8.50
  -1  -6  -6  157.68    9.50
  -1  -6  -6  159.38    9.60
  -1  -6  -6  145.49    8.10
  -1  -6  -6  144.29    9.10
  -1  -6  -6  145.89    8.10
  -1  -6  -6  152.88    9.30
   1   6   6  144.69    7.30
  -2  -6  -6   41.80    5.30
  -2  -6  -6   49.99    5.00
  -2  -6  -6   54.59    6.20
  -2  -6  -6   48.80    4.60
  -2  -6  -6   50.89    5.50
  -2  -6  -6   41.70    5.10
  -2  -6  -6   53.89    4.80
  -3  -6  -6  435.76   20.40
  -3  -6  -6  502.55   21.40
  -3  -6  -6  485.05   20.20
  -3  -6  -6  491.15   20.40
  -3  -6  -6  495.25   20.70
  -3  -6  -6  420.96   19.90
  -3  -6  -6  495.85   20.00
  -3  -6  -6  491.45   21.50
  -3  -6  -6  475.75   19.90
   3   6   6  484.15   20.90
   3   6   6  496.15   18.30
   3   6   6  498.15   19.90
  -4  -6  -6  431.66   18.50
  -4  -6  -6  420.26   17.70
  -4  -6  -6  422.26   18.00
  -4  -6  -6  406.66   17.90
  -4  -6  -6  414.06   19.20
  -4  -6  -6  413.56   19.20
  -4  -6  -6  408.66   18.40
   4   6   6  427.06   16.10
   4   6   6  393.66   16.60
   4   6   6  399.56   17.20
   4   6   6  427.26   17.70
  -5  -6  -6    9.10    3.30
  -5  -6  -6   10.50    3.00
  -5  -6  -6    7.80    3.10
  -5  -6  -6   15.10    5.00
  -5  -6  -6   20.50    4.20
  -5  -6  -6   11.20    3.30
  -5  -6  -6    6.40    3.90
  -5  -6  -6    8.10    4.10
   5   6   6   11.40    2.60
   5   6   6    6.60    1.70
   5   6   6    6.50    1.80
  -6  -6  -6   44.30    5.20
  -6  -6  -6   38.90    4.90
  -6  -6  -6   38.80    5.60
  -6  -6  -6   26.10    4.40
  -6  -6  -6   59.99    7.30
  -6  -6  -6   44.50    4.50
   6   6   6   47.50    3.40
   6   6   6   66.29    7.50
   6   6   6   42.30    3.50
  -7  -6  -6   10.00    4.10
  -7  -6  -6    4.40    2.70
  -7  -6  -6    9.90    2.90
  -7  -6  -6   11.30    3.40
   7   6   6   11.30    3.10
   7   6   6    7.80    2.40
   7   6   6    8.00    1.60
   3  -7  -6   19.40    3.80
   3  -7  -6   22.60    3.20
   3  -7  -6   20.50    3.20
   3  -7  -6   19.20    3.20
  -3   7   6   23.20    2.10
   2  -7  -6  125.59    6.80
   2  -7  -6  133.69    7.90
   2  -7  -6  135.39    8.40
   2  -7  -6  128.99    8.70
   2  -7  -6  126.39    8.30
  -2   7   6  131.79    6.20
  -2   7   6  128.29    6.10
   1  -7  -6   85.39    8.00
   1  -7  -6   77.99    7.10
   1  -7  -6   85.59    7.30
   1  -7  -6   80.29    6.80
   1  -7  -6   75.69    5.30
  -1   7   6   81.99    4.40
   0  -7  -6   -2.00    3.90
   0  -7  -6    8.00    3.40
   0  -7  -6    5.20    4.80
   0  -7  -6    2.10    3.30
   0  -7  -6    3.60    3.70
   0   7   6    3.40    2.10
   0   7   6    2.70    1.40
  -1  -7  -6   30.90    5.30
  -1  -7  -6   24.60    4.00
  -1  -7  -6   27.30    4.90
  -1  -7  -6   30.90    4.40
  -1  -7  -6   32.20    5.30
  -1  -7  -6   27.80    4.60
  -2  -7  -6  110.09    8.70
  -2  -7  -6  109.19    8.40
  -2  -7  -6  108.89    8.20
  -2  -7  -6   95.49    6.90
  -2  -7  -6  101.89    7.80
  -2  -7  -6   99.49    6.50
  -3  -7  -6   57.59    6.20
  -3  -7  -6   56.39    6.60
  -3  -7  -6   58.59    6.70
  -3  -7  -6   51.29    5.20
  -3  -7  -6   59.09    5.40
  -4  -7  -6  536.15   23.10
  -4  -7  -6  518.85   22.10
  -4  -7  -6  502.25   21.90
  -4  -7  -6  530.55   22.90
  -4  -7  -6  528.35   21.60
  -4  -7  -6  523.45   21.80
   4   7   6  512.05   19.80
   4   7   6  521.85   21.40
  -5  -7  -6   -1.10    3.20
  -5  -7  -6    4.50    3.90
  -5  -7  -6   -0.40    3.70
  -5  -7  -6    2.70    4.40
  -5  -7  -6   -0.80    2.60
   5   7   6    0.60    1.40
   5   7   6    0.60    2.90
   5   7   6   -3.00    1.30
  -6  -7  -6    9.00    4.10
  -6  -7  -6   -2.00    3.20
  -6  -7  -6   -4.20    2.30
  -6  -7  -6   -4.30    2.70
   6   7   6    0.60    1.50
   6   7   6    3.30    1.50
  -7  -7  -6   -0.20    2.40
   7   7   6   -0.40    1.00
   7   7   6    0.30    1.70
   2  -8  -6   15.90    3.50
   2  -8  -6   11.20    2.60
   2  -8  -6    3.90    2.50
   2  -8  -6    6.40    2.80
  -2   8   6   11.40    1.60
   1  -8  -6   63.59    6.00
   1  -8  -6   60.09    5.80
   1  -8  -6   63.99    6.10
   1  -8  -6   51.09    4.40
   1  -8  -6   69.29    5.80
  -1   8   6   59.29    3.60
   0  -8  -6    2.90    4.00
   0  -8  -6    0.80    3.10
   0  -8  -6   -1.50    4.10
   0  -8  -6    1.70    3.70
   0   8   6    1.10    1.40
  -1  -8  -6   51.49    6.00
  -1  -8  -6   55.99    6.00
  -1  -8  -6   44.60    5.90
  -1  -8  -6   50.19    5.20
  -1  -8  -6   64.89    9.00
  -1  -8  -6   38.80    5.00
  -2  -8  -6   -3.70    4.10
  -2  -8  -6   -3.00    2.70
  -2  -8  -6   -6.50    3.70
  -2  -8  -6   -1.00    3.40
  -2  -8  -6    3.10    3.80
  -3  -8  -6    5.30    3.80
  -3  -8  -6   -1.40    4.00
  -3  -8  -6   -0.20    3.90
  -3  -8  -6    3.30    2.80
  -4  -8  -6   22.30    4.80
  -4  -8  -6   21.90    4.80
  -4  -8  -6   16.00    4.10
  -4  -8  -6   12.70    3.70
  -4  -8  -6   23.80    4.00
   4   8   6   15.40    1.80
  -5  -8  -6   15.80    4.10
  -5  -8  -6    7.20    3.60
  -5  -8  -6   15.60    3.10
  -5  -8  -6    9.00    3.90
   5   8   6   17.00    1.80
   5   8   6   14.10    1.80
  -6  -8  -6   19.60    3.70
  -6  -8  -6   12.20    2.90
  -6  -8  -6   15.30    2.50
   6   8   6   19.40    1.70
   0  -9  -6    1.90    2.70
   0  -9  -6    4.20    3.20
   0  -9  -6    1.40    3.00
   0  -9  -6   -0.40    2.40
  -1  -9  -6   12.30    3.50
  -1  -9  -6   21.30    3.80
  -1  -9  -6   21.00    4.00
  -2  -9  -6   18.00    3.80
  -2  -9  -6   20.40    4.10
  -2  -9  -6   20.50    3.90
  -3  -9  -6    3.90    3.10
  -3  -9  -6    0.70    2.90
  -3  -9  -6    1.60    3.20
  -3  -9  -6   -2.10    3.00
  -4  -9  -6   76.29    5.40
  -4  -9  -6   84.39    6.50
  -4  -9  -6   60.59    5.50
  -5  -9  -6   24.60    3.50
  -5  -9  -6   23.90    3.70
   3   7  -7   11.10    2.40
  -3  -7   7   18.30    2.40
   2   7  -7   29.90    2.50
  -2  -7   7   25.40    3.10
  -2  -7   7   24.50    2.90
  -2  -7   7   27.20    3.30
   1   7  -7   12.10    1.80
   1   7  -7   13.50    1.80
   1   7  -7    9.60    2.70
  -1  -7   7   10.20    2.90
  -1  -7   7   14.50    3.10
  -1  -7   7   14.30    3.20
  -1  -7   7   14.80    3.40
  -1  -7   7    6.50    2.50
   0   7  -7   -2.70    2.40
   0   7  -7    3.30    1.50
   0   7  -7    0.20    1.40
   0  -7   7    0.90    2.30
   0  -7   7    0.00    2.90
   0  -7   7    3.00    2.80
   0  -7   7    1.20    2.60
   0  -7   7    4.50    3.20
   0  -7   7    0.00    2.50
  -1   7  -7   30.50    3.20
  -1   7  -7   47.10    2.90
  -1   7  -7   48.00    3.00
   1  -7   7   39.90    3.80
   1  -7   7   41.70    4.70
   1  -7   7   40.50    3.60
  -2   7  -7    8.60    1.50
  -2   7  -7    7.00    2.60
   2  -7   7    8.80    2.70
   2  -7   7   14.60    3.20
   2  -7   7   11.30    2.50
   2  -7   7   10.90    2.50
   2  -7   7   10.50    2.90
  -3   7  -7    9.00    2.30
  -3   7  -7   19.80    1.60
  -3   7  -7   14.60    2.40
   3  -7   7   14.70    2.90
   3  -7   7   15.30    2.50
   4   6  -7   60.19    4.60
  -4  -6   7   49.50    3.60
  -4  -6   7   59.29    5.00
   3   6  -7   -0.60    1.40
   3   6  -7   -1.20    2.70
   3   6  -7    1.30    1.90
  -3  -6   7   -2.30    2.50
  -3  -6   7   -2.40    2.30
  -3  -6   7   -1.60    2.10
   2   6  -7    2.80    1.70
   2   6  -7    8.20    3.10
   2   6  -7    3.00    1.80
   2   6  -7    2.20    2.00
  -2  -6   7    1.80    2.80
  -2  -6   7    2.30    2.60
  -2  -6   7    1.40    2.50
  -2  -6   7    1.10    2.60
  -2  -6   7    2.10    2.80
   1   6  -7    2.10    2.10
   1   6  -7    3.60    2.70
   1   6  -7    4.90    1.90
   1   6  -7    3.00    1.70
   1   6  -7    1.70    3.30
  -1  -6   7    2.80    2.70
  -1  -6   7    2.30    3.10
  -1  -6   7    7.60    3.00
  -1  -6   7    2.50    3.30
  -1  -6   7    1.30    3.10
   0   6  -7    4.10    1.80
   0   6  -7    6.90    3.00
   0   6  -7    4.90    1.70
   0   6  -7    5.00    2.10
   0   6  -7    4.90    2.70
   0  -6   7    6.40    3.00
   0  -6   7    7.40    3.50
   0  -6   7    1.80    3.50
   0  -6   7    2.80    2.80
   0  -6   7    5.50    2.80
   0  -6   7    4.50    3.40
  -1   6  -7    4.20    1.60
  -1   6  -7    0.20    2.70
  -1   6  -7    3.00    2.50
  -1   6  -7    3.20    1.70
  -1   6  -7    0.90    2.00
   1  -6   7    4.90    3.30
   1  -6   7    7.50    3.50
   1  -6   7    3.70    2.90
   1  -6   7    2.90    2.80
   1  -6   7    4.30    3.70
   1  -6   7   -0.70    2.90
   1  -6   7   -0.10    2.80
  -2   6  -7  113.59    6.30
  -2   6  -7  121.49    5.50
  -2   6  -7  116.19    5.70
   2  -6   7  125.89    8.10
   2  -6   7  109.09    6.60
   2  -6   7  115.19    7.70
   2  -6   7  117.69    7.20
   2  -6   7  115.89    7.00
  -3   6  -7    2.40    1.90
  -3   6  -7    4.00    1.50
  -3   6  -7    3.10    2.40
  -3   6  -7    1.90    2.60
  -3   6  -7    6.10    1.70
   3  -6   7    3.70    3.60
   3  -6   7   -0.60    2.40
   3  -6   7    1.80    2.80
   3  -6   7    0.60    2.50
  -4   6  -7   18.70    2.80
  -4   6  -7   20.60    2.50
  -4   6  -7   21.30    2.70
  -4   6  -7   21.60    1.90
   4  -6   7   18.10    2.70
   4  -6   7   24.40    3.70
   5   5  -7   48.80    4.70
   4   5  -7   22.30    3.60
   4   5  -7   24.90    3.00
  -4  -5   7   12.50    2.50
  -4  -5   7   13.70    3.30
  -4  -5   7   14.00    2.80
  -4  -5   7   20.90    3.10
   3   5  -7   10.40    1.90
   3   5  -7   16.10    3.70
   3   5  -7   10.40    2.60
  -3  -5   7   11.00    3.00
  -3  -5   7   10.90    2.70
  -3  -5   7    9.20    2.80
  -3  -5   7    9.20    2.40
   2   5  -7  214.48    9.80
   2   5  -7  207.78    9.10
   2   5  -7  211.28   10.10
   2   5  -7  224.18   11.10
   2   5  -7  221.88    9.00
  -2  -5   7  215.28   10.80
  -2  -5   7  215.78   10.80
  -2  -5   7  204.68    9.70
  -2  -5   7  211.78   11.10
  -2  -5   7  220.08   10.40
  -2  -5   7  217.58   10.30
  -2  -5   7  201.48   10.10
   1   5  -7  340.27   15.30
   1   5  -7  357.66   13.70
   1   5  -7  344.27   14.80
   1   5  -7  354.26   13.80
   1   5  -7  331.87   14.30
  -1  -5   7  351.16   15.00
  -1  -5   7  378.66   16.50
  -1  -5   7  362.76   15.70
  -1  -5   7  327.47   15.20
  -1  -5   7  358.96   15.50
  -1  -5   7  339.17   14.80
  -1  -5   7  316.77   14.30
  -1  -5   7  323.97   14.60
   0   5  -7    3.40    2.80
   0   5  -7    0.50    2.10
   0   5  -7    2.80    2.90
   0   5  -7    1.20    1.90
   0   5  -7    3.80    1.70
   0  -5   7    1.10    3.20
   0  -5   7    2.70    2.10
   0  -5   7    4.70    3.30
   0  -5   7    4.30    3.40
   0  -5   7   -1.30    3.30
   0  -5   7   -0.60    2.60
   0  -5   7    3.40    3.80
  -1   5  -7   68.79    5.60
  -1   5  -7   73.09    4.30
  -1   5  -7   76.09    5.00
  -1   5  -7   78.79    4.30
  -1   5  -7   78.39    6.00
   1  -5   7   72.19    6.40
   1  -5   7   74.69    6.00
   1  -5   7   70.69    6.90
   1  -5   7   68.39    5.50
   1  -5   7   67.69    4.80
   1  -5   7   64.99    6.20
   1  -5   7   73.69    5.90
   1  -5   7   84.29    6.60
  -2   5  -7  205.18   10.40
  -2   5  -7  213.28    9.00
  -2   5  -7  214.78    9.80
  -2   5  -7  201.28   10.20
  -2   5  -7  224.68    8.90
   2  -5   7  211.88   11.20
   2  -5   7  210.78   11.30
   2  -5   7  218.98   10.00
   2  -5   7  211.28   10.60
   2  -5   7  209.18   10.50
   2  -5   7  213.98   10.70
   2  -5   7  191.58    9.40
  -3   5  -7   14.90    3.60
  -3   5  -7   12.00    2.50
  -3   5  -7   13.50    2.10
  -3   5  -7   15.40    2.00
  -3   5  -7   18.10    3.70
  -3   5  -7   15.70    2.80
   3  -5   7   11.30    3.30
   3  -5   7   19.10    3.70
   3  -5   7   11.90    2.20
   3  -5   7   16.40    4.50
   3  -5   7   17.30    3.50
  -4   5  -7  160.08    6.90
  -4   5  -7  168.18    8.20
  -4   5  -7  177.48    8.10
  -4   5  -7  171.98    8.90
   4  -5   7  138.19    7.10
   4  -5   7  168.48    8.40
   4  -5   7  154.18    9.20
   4  -5   7  149.88    8.10
  -5   5  -7    7.10    2.30
  -5   5  -7    1.70    2.20
  -5   5  -7    3.50    2.10
  -5   5  -7    6.00    2.60
   5  -5   7    8.40    2.40
   5  -5   7    7.40    3.00
   5  -5   7   12.10    2.80
   5  -5   7    4.50    2.20
   5   4  -7   19.50    2.70
   5   4  -7   24.90    2.70
   5   4  -7   24.80    3.20
  -5  -4   7   24.00    2.80
  -5  -4   7   17.70    2.60
  -5  -4   7   20.10    2.70
  -5  -4   7   20.40    2.70
   4   4  -7    2.10    2.30
   4   4  -7    5.00    2.80
   4   4  -7    7.70    3.30
  -4  -4   7    2.10    2.90
  -4  -4   7    6.60    2.60
  -4  -4   7    2.00    2.30
  -4  -4   7    5.00    2.90
   3   4  -7    4.60    1.70
   3   4  -7    4.00    3.00
   3   4  -7   10.60    3.70
   3   4  -7    5.50    2.60
   3   4  -7    4.80    2.60
  -3  -4   7    5.80    2.50
  -3  -4   7    5.50    3.00
  -3  -4   7    3.20    3.00
  -3  -4   7    5.80    2.80
  -3  -4   7    4.60    2.50
  -3  -4   7    4.70    3.10
   2   4  -7   60.29    4.20
   2   4  -7   69.19    5.20
   2   4  -7   62.79    5.30
   2   4  -7   76.19    4.30
   2   4  -7   76.09    6.50
   2   4  -7   65.29    5.20
  -2  -4   7   64.59    5.50
  -2  -4   7   64.69    5.30
  -2  -4   7   75.49    5.60
  -2  -4   7   73.99    5.10
  -2  -4   7   76.69    6.10
  -2  -4   7   72.59    6.10
  -2  -4   7   71.99    5.50
  -2  -4   7   68.59    5.20
   1   4  -7   81.29    6.40
   1   4  -7   88.69    4.50
   1   4  -7   76.89    5.60
   1   4  -7   74.09    5.30
   1   4  -7   82.29    5.10
   1   4  -7   89.39    4.70
   1   4  -7   82.59    5.70
  -1  -4   7   86.19    6.80
  -1  -4   7   86.49    6.40
  -1  -4   7   79.09    6.30
  -1  -4   7   83.49    5.70
  -1  -4   7   75.19    5.60
  -1  -4   7   81.09    5.50
  -1  -4   7   85.69    5.90
   0   4  -7    0.40    2.60
   0   4  -7   -0.60    2.50
   0   4  -7    2.50    2.50
   0   4  -7    3.70    1.60
   0   4  -7   -1.80    2.70
   0   4  -7   -1.60    1.90
   0   4  -7    2.10    1.70
   0  -4   7   -2.80    3.10
   0  -4   7   -1.10    2.10
   0  -4   7   -1.40    2.00
   0  -4   7    4.60    2.60
   0  -4   7    1.80    2.20
   0  -4   7    1.70    3.10
   0  -4   7    6.90    2.70
   0  -4   7    2.10    2.10
  -1   4  -7   69.79    5.30
  -1   4  -7   82.49    4.40
  -1   4  -7   81.09    5.50
  -1   4  -7   79.89    4.30
  -1   4  -7   79.79    4.90
  -1   4  -7   71.39    5.80
   1  -4   7   71.79    5.30
   1  -4   7   74.79    5.90
   1  -4   7   79.39    5.90
   1  -4   7   79.09    5.40
   1  -4   7   80.69    6.10
   1  -4   7   74.89    5.40
   1  -4   7   63.49    6.40
   1  -4   7   82.69    6.70
  -2   4  -7  235.88   10.50
  -2   4  -7  222.28   10.20
  -2   4  -7  243.78    9.60
  -2   4  -7  207.78   10.20
  -2   4  -7  229.48   10.90
  -2   4  -7  243.48    9.70
  -2   4  -7  218.48   10.60
  -2   4  -7  235.18   11.00
   2  -4   7  226.18   11.20
   2  -4   7  224.78   11.90
   2  -4   7  229.28   11.10
   2  -4   7  247.88   10.90
   2  -4   7  245.88   11.50
   2  -4   7  235.28   10.80
   2  -4   7  241.58   11.40
  -3   4  -7   28.70    3.30
  -3   4  -7   36.90    4.30
  -3   4  -7   32.20    3.60
  -3   4  -7   35.60    3.20
  -3   4  -7   39.30    3.10
  -3   4  -7   27.50    3.40
  -3   4  -7   33.00    4.30
  -3   4  -7   40.80    3.70
   3  -4   7   41.30    4.10
   3  -4   7   36.00    3.90
   3  -4   7   40.50    4.60
   3  -4   7   33.20    3.90
   3  -4   7   36.70    4.30
   3  -4   7   32.60    4.00
   3  -4   7   31.60    4.20
  -4   4  -7   33.60    3.70
  -4   4  -7   46.50    4.50
  -4   4  -7   39.20    4.10
  -4   4  -7   42.60    3.10
  -4   4  -7   40.50    4.70
  -4   4  -7   43.20    3.90
   4  -4   7   36.60    5.40
   4  -4   7   39.10    4.40
   4  -4   7   39.20    4.20
   4  -4   7   33.70    3.70
  -5   4  -7   28.50    3.50
  -5   4  -7   29.70    4.00
  -5   4  -7   31.20    3.60
  -5   4  -7   23.00    3.30
   5  -4   7   34.50    4.30
   5  -4   7   21.80    2.90
   5  -4   7   23.10    3.20
   5  -4   7   33.30    3.80
   5  -4   7   32.00    4.50
  -6   4  -7   17.50    2.90
  -6   4  -7   11.50    2.30
  -6   4  -7   14.50    2.50
   6  -4   7   16.30    2.10
   6  -4   7   21.30    3.50
   6  -4   7   17.40    2.80
   6  -4   7    9.70    2.40
   5   3  -7    1.10    2.80
   5   3  -7    3.80    2.70
   5   3  -7    6.00    2.40
  -5  -3   7   -0.20    2.30
  -5  -3   7    3.50    2.40
  -5  -3   7    3.60    2.80
   4   3  -7   51.29    5.00
   4   3  -7   37.10    3.80
   4   3  -7   44.40    4.00
   4   3  -7   35.20    4.30
  -4  -3   7   44.60    4.90
  -4  -3   7   28.90    3.50
  -4  -3   7   39.80    3.80
  -4  -3   7   35.80    3.90
   3   3  -7   37.80    4.60
   3   3  -7   31.70    3.60
   3   3  -7   37.40    4.40
   3   3  -7   30.80    2.60
   3   3  -7   32.60    3.50
  -3  -3   7   35.70    3.70
  -3  -3   7   31.40    4.20
  -3  -3   7   24.20    3.40
  -3  -3   7   25.20    3.80
  -3  -3   7   32.10    3.70
   2   3  -7    2.90    2.80
   2   3  -7    1.90    1.60
   2   3  -7   -2.40    2.40
   2   3  -7    0.80    2.20
   2   3  -7    0.10    2.70
   2   3  -7   -0.70    2.40
  -2  -3   7    0.80    2.20
  -2  -3   7   -6.40    2.80
  -2  -3   7   -1.40    1.90
  -2  -3   7   -3.60    2.70
  -2  -3   7   -0.30    2.10
   1   3  -7  174.98    8.70
   1   3  -7  162.28    9.30
   1   3  -7  177.68    7.80
   1   3  -7  188.98    8.70
   1   3  -7  179.48    9.30
   1   3  -7  182.48    7.70
   1   3  -7  181.88    8.50
   1   3  -7  186.88    8.70
  -1  -3   7  184.98    9.10
  -1  -3   7  181.48    9.00
  -1  -3   7  176.78    9.40
  -1  -3   7  186.78    8.80
  -1  -3   7  192.38    8.60
  -1  -3   7  176.38    9.20
   0   3  -7  463.95   18.90
   0   3  -7  505.85   19.50
   0   3  -7  504.85   18.30
   0   3  -7  466.95   19.10
   0   3  -7  484.95   19.10
   0   3  -7  462.55   19.60
   0   3  -7  503.85   18.30
   0   3  -7  441.26   19.80
   0  -3   7  451.05   19.10
   0  -3   7  458.05   19.40
   0  -3   7  510.95   19.70
   0  -3   7  492.75   20.00
   0  -3   7  478.45   19.50
   0  -3   7  459.95   19.20
   0  -3   7  459.25   19.30
   0  -3   7  495.05   19.30
   0  -3   7  480.55   19.10
  -1   3  -7   96.79    6.00
  -1   3  -7   85.29    7.70
  -1   3  -7   95.69    5.50
  -1   3  -7  101.09    4.80
  -1   3  -7   90.19    5.10
  -1   3  -7   98.49    4.70
  -1   3  -7   91.99    5.80
  -1   3  -7   97.39    5.20
  -1   3  -7  102.19    6.40
  -1   3  -7  105.69    5.70
   1  -3   7   94.49    6.20
   1  -3   7   94.19    5.10
   1  -3   7  100.49    5.80
   1  -3   7   93.99    5.80
   1  -3   7   85.89    6.00
   1  -3   7   89.19    5.30
   1  -3   7   92.29    6.30
   1  -3   7   99.29    5.60
  -2   3  -7   -1.40    1.20
  -2   3  -7   -2.30    2.20
  -2   3  -7   -2.50    1.30
  -2   3  -7   -2.20    2.10
  -2   3  -7    0.60    1.90
  -2   3  -7   -1.40    1.90
  -2   3  -7    0.10    2.20
  -2   3  -7   -0.70    1.90
  -2   3  -7    3.30    2.90
   2  -3   7    3.50    2.30
   2  -3   7    1.30    2.40
   2  -3   7    2.20    2.60
   2  -3   7    0.40    1.90
   2  -3   7    0.30    1.50
   2  -3   7   -3.10    3.80
   2  -3   7   -0.60    2.40
  -3   3  -7  324.17   13.70
  -3   3  -7  342.17   12.90
  -3   3  -7  330.27   14.30
  -3   3  -7  350.46   14.80
  -3   3  -7  322.87   14.20
  -3   3  -7  321.57   13.80
  -3   3  -7  332.27   13.80
  -3   3  -7  321.67   12.90
   3  -3   7  302.57   14.20
   3  -3   7  324.17   14.40
   3  -3   7  329.37   14.30
   3  -3   7  317.97   13.50
   3  -3   7  323.57   14.70
   3  -3   7  324.47   14.10
   3  -3   7  312.57   14.30
   3  -3   7  338.27   14.40
  -4   3  -7    4.20    2.60
  -4   3  -7    4.50    1.70
  -4   3  -7    0.40    2.30
  -4   3  -7   -0.70    2.30
  -4   3  -7    6.00    2.50
  -4   3  -7   -1.50    2.50
  -4   3  -7    0.40    2.80
   4  -3   7    2.40    2.70
   4  -3   7    1.80    1.80
   4  -3   7    3.00    3.00
   4  -3   7   -0.20    2.80
   4  -3   7    3.90    2.30
  -5   3  -7   12.10    3.60
  -5   3  -7    9.80    3.00
  -5   3  -7   15.00    2.90
  -5   3  -7   15.40    3.20
  -5   3  -7    5.70    4.20
  -5   3  -7   14.20    3.30
   5  -3   7   11.30    3.90
   5  -3   7   10.40    2.80
   5  -3   7    9.40    2.80
   5  -3   7   11.00    2.90
   5  -3   7   12.10    3.20
  -6   3  -7   -1.40    2.30
  -6   3  -7    2.30    2.60
  -6   3  -7   -2.30    2.40
  -6   3  -7   -1.60    2.30
   6  -3   7    0.00    2.50
   6  -3   7    1.00    2.20
   6  -3   7    0.90    2.40
   6  -3   7   -1.50    2.50
  -7   3  -7   16.70    2.30
   7  -3   7   16.30    2.10
   7  -3   7   19.10    2.50
   7  -3   7   18.30    3.00
  -6  -2   7   -0.10    2.20
  -6  -2   7    0.00    2.40
   5   2  -7    4.70    3.10
   5   2  -7    2.90    2.50
  -5  -2   7   -2.20    2.40
  -5  -2   7    1.50    3.00
  -5  -2   7    1.00    2.40
   4   2  -7  301.67   13.70
   4   2  -7  321.97   14.50
   4   2  -7  330.67   13.80
   4   2  -7  322.87   14.90
  -4  -2   7  322.77   13.90
  -4  -2   7  300.77   14.20
  -4  -2   7  330.57   13.90
  -4  -2   7  342.67   15.10
  -4  -2   7  334.77   14.20
   3   2  -7  230.38   10.50
   3   2  -7  236.28   11.30
   3   2  -7  208.48   10.30
   3   2  -7  232.08   10.40
   3   2  -7  232.08   11.50
  -3  -2   7  226.68   10.90
  -3  -2   7  234.58   11.30
  -3  -2   7  230.28   10.80
  -3  -2   7  221.88   11.50
  -3  -2   7  226.98   10.60
   2   2  -7    6.00    1.60
   2   2  -7   -0.90    2.50
   2   2  -7    7.20    2.40
   2   2  -7    2.10    2.20
   2   2  -7    4.40    2.30
   2   2  -7   -1.30    3.40
   2   2  -7    4.90    2.90
   2   2  -7    5.00    2.30
  -2  -2   7    3.60    1.90
  -2  -2   7    1.90    1.90
  -2  -2   7   11.00    3.00
  -2  -2   7    4.50    2.10
  -2  -2   7    6.50    2.90
   1   2  -7  142.19    7.10
   1   2  -7  142.69    6.20
   1   2  -7  147.79    7.20
   1   2  -7  125.79    8.60
   1   2  -7  144.99    7.00
   1   2  -7  130.99    7.60
   1   2  -7  147.79    7.00
   1   2  -7  147.29    7.80
  -1  -2   7  139.49    7.10
  -1  -2   7  146.39    7.90
  -1  -2   7  152.38    7.10
  -1  -2   7  139.69    7.00
  -1  -2   7  150.38    7.50
  -1  -2   7  157.08    8.00
   0   2  -7  166.08    7.60
   0   2  -7  162.88    7.00
   0   2  -7  165.98    6.90
   0   2  -7  169.98    8.00
   0   2  -7  168.68    7.60
   0   2  -7  161.78    8.30
   0   2  -7  156.88    8.10
   0   2  -7  162.78    7.60
   0  -2   7  174.28    7.90
   0  -2   7  155.48    7.80
   0  -2   7  175.68    8.00
   0  -2   7  162.98    8.20
   0  -2   7  159.08    8.10
   0  -2   7  161.88    7.50
   0  -2   7  165.88    8.60
  -1   2  -7  312.67   13.00
  -1   2  -7  285.97   13.00
  -1   2  -7  312.97   12.50
  -1   2  -7  284.87   12.50
  -1   2  -7  335.97   13.20
  -1   2  -7  307.87   12.40
  -1   2  -7  294.07   12.50
  -1   2  -7  312.67   11.90
  -1   2  -7  299.87   13.30
  -1   2  -7  290.37   14.60
  -1   2  -7  298.87   11.90
   1  -2   7  311.27   12.80
   1  -2   7  319.47   13.00
   1  -2   7  315.17   13.20
   1  -2   7  301.67   13.00
   1  -2   7  297.17   13.00
   1  -2   7  300.07   13.30
   1  -2   7  314.27   12.40
   1  -2   7  317.77   12.90
  -2   2  -7  165.38    7.90
  -2   2  -7  166.88    7.40
  -2   2  -7  151.98    6.50
  -2   2  -7  157.38    7.80
  -2   2  -7  149.19    6.60
  -2   2  -7  153.98    7.30
  -2   2  -7  142.59    8.10
  -2   2  -7  159.68    7.40
   2  -2   7  153.58    7.80
   2  -2   7  155.68    8.80
   2  -2   7  164.38    7.20
   2  -2   7  156.68    7.60
   2  -2   7  150.58    7.70
   2  -2   7  148.59    8.00
   2  -2   7  156.28    7.90
   2  -2   7  162.38    7.50
  -3   2  -7  471.85   19.60
  -3   2  -7  499.05   20.10
  -3   2  -7  492.75   19.70
  -3   2  -7  503.75   19.20
  -3   2  -7  494.85   19.40
  -3   2  -7  464.25   18.30
  -3   2  -7  502.75   19.40
   3  -2   7  452.35   20.70
   3  -2   7  479.45   20.20
   3  -2   7  470.15   19.70
   3  -2   7  489.85   19.60
   3  -2   7  470.15   19.70
   3  -2   7  482.65   19.00
   3  -2   7  460.15   20.00
   3  -2   7  510.35   19.60
   3  -2   7  496.85   20.00
  -4   2  -7  226.28   10.00
  -4   2  -7  218.68   10.00
  -4   2  -7  209.28   10.10
  -4   2  -7  220.98   10.80
  -4   2  -7  210.48   10.40
  -4   2  -7  217.28   10.10
  -4   2  -7  217.68   10.00
   4  -2   7  216.48   10.20
   4  -2   7  213.38   10.00
   4  -2   7  217.68   10.70
   4  -2   7  202.68    9.90
   4  -2   7  231.38   10.70
  -5   2  -7  121.49    6.90
  -5   2  -7  113.79    6.30
  -5   2  -7   96.39    6.50
  -5   2  -7  114.69    6.90
  -5   2  -7  112.39    7.50
   5  -2   7  115.29    6.90
   5  -2   7  114.19    7.50
   5  -2   7  108.39    6.70
   5  -2   7  107.59    6.70
   5  -2   7  108.69    6.20
  -6   2  -7   -1.40    2.40
  -6   2  -7    0.40    2.50
  -6   2  -7    3.20    2.80
  -6   2  -7   -0.20    2.70
   6  -2   7    2.40    2.60
   6  -2   7    0.80    2.50
   6  -2   7   -2.20    4.10
   6  -2   7   -1.10    2.50
  -7   2  -7    2.70    2.40
  -7   2  -7    1.90    2.20
  -7   2  -7    3.30    2.20
  -7   2  -7    0.00    1.90
   7  -2   7    2.30    2.20
   7  -2   7   -2.20    2.10
   7  -2   7    0.10    2.10
   6   1  -7    7.60    2.70
  -6  -1   7    2.80    1.70
  -6  -1   7    4.60    2.40
   5   1  -7    2.80    3.00
   5   1  -7   -0.10    3.20
   5   1  -7    0.00    2.40
  -5  -1   7    2.30    2.30
  -5  -1   7    4.30    3.30
  -5  -1   7    2.80    2.30
   4   1  -7    3.50    3.40
   4   1  -7    1.10    2.90
   4   1  -7    1.20    2.60
   4   1  -7    1.10    2.30
   4   1  -7   -2.10    2.40
  -4  -1   7   -0.60    2.50
  -4  -1   7    4.40    2.60
  -4  -1   7    3.00    2.20
  -4  -1   7    2.80    2.20
  -4  -1   7    1.90    3.10
  -4  -1   7    5.80    3.70
   3   1  -7   73.89    5.30
   3   1  -7   75.69    6.30
   3   1  -7   74.89    4.90
   3   1  -7   70.89    5.80
   3   1  -7   69.19    4.90
   3   1  -7   72.59    5.80
  -3  -1   7   73.09    5.30
  -3  -1   7   67.19    4.50
  -3  -1   7   69.29    5.10
  -3  -1   7   84.29    6.20
  -3  -1   7   64.89    6.00
  -3  -1   7   69.99    4.40
  -3  -1   7   73.59    5.10
  -3  -1   7   76.89    5.40
   2   1  -7  132.29    7.50
   2   1  -7  123.09    7.30
   2   1  -7  142.49    7.70
   2   1  -7  136.49    6.50
   2   1  -7  139.39    6.70
   2   1  -7  136.69    6.90
   2   1  -7  130.79    6.60
   2   1  -7  133.59    7.40
  -2  -1   7  141.19    7.10
  -2  -1   7  139.09    6.90
  -2  -1   7  137.39    7.70
  -2  -1   7  125.49    6.20
  -2  -1   7  135.39    7.10
  -2  -1   7  126.49    6.90
  -2  -1   7  128.29    6.20
  -2  -1   7  136.69    7.70
   1   1  -7    0.30    1.80
   1   1  -7    4.00    2.30
   1   1  -7    3.60    2.00
   1   1  -7    0.60    2.00
   1   1  -7    2.70    2.60
   1   1  -7    3.10    1.60
   1   1  -7    3.00    1.60
   1   1  -7    3.50    1.80
  -1  -1   7    2.70    2.10
  -1  -1   7    1.50    2.50
  -1  -1   7    2.80    1.70
  -1  -1   7    2.00    1.60
  -1  -1   7    5.30    2.60
  -1  -1   7    1.70    1.50
  -1  -1   7    2.30    1.70
  -1  -1   7    3.80    2.10
   0   1  -7   31.00    2.70
   0   1  -7   39.40    3.40
   0   1  -7   34.70    2.70
   0   1  -7   35.40    3.70
   0   1  -7   39.50    2.80
   0   1  -7   31.00    2.70
   0   1  -7   33.70    3.20
   0  -1   7   37.10    3.20
   0  -1   7   36.20    2.80
   0  -1   7   37.40    3.80
   0  -1   7   32.30    2.90
   0  -1   7   38.40    2.70
  -1   1  -7   98.39    5.00
  -1   1  -7   91.89    5.70
  -1   1  -7   98.79    5.00
  -1   1  -7   99.89    5.50
   1  -1   7  102.29    4.90
   1  -1   7   97.89    5.30
   1  -1   7   97.09    6.10
   1  -1   7  100.49    5.30
   1  -1   7   93.49    4.80
  -2   1  -7    0.90    1.50
  -2   1  -7    1.90    1.80
  -2   1  -7    0.50    2.10
  -2   1  -7    0.40    2.00
  -2   1  -7    1.10    1.90
  -2   1  -7    2.10    1.80
   2  -1   7    3.10    1.40
   2  -1   7    1.20    1.90
   2  -1   7    2.20    1.40
   2  -1   7    1.20    1.50
   2  -1   7    0.00    2.10
   2  -1   7    0.70    1.60
   2  -1   7    2.70    1.70
  -3   1  -7    9.30    2.30
  -3   1  -7    9.30    2.30
  -3   1  -7    6.10    2.00
  -3   1  -7   10.90    2.10
  -3   1  -7    9.10    2.40
  -3   1  -7    8.10    2.00
  -3   1  -7    6.80    2.70
  -3   1  -7    9.20    2.70
  -3   1  -7   12.70    2.60
   3  -1   7   11.60    2.60
   3  -1   7   11.10    2.10
   3  -1   7   10.40    2.10
   3  -1   7    6.50    2.80
   3  -1   7    8.50    2.60
   3  -1   7   12.10    2.10
   3  -1   7    9.00    2.10
   3  -1   7    9.40    2.40
   3  -1   7   11.60    2.30
  -4   1  -7   57.29    4.30
  -4   1  -7   53.79    4.80
  -4   1  -7   54.79    5.00
  -4   1  -7   49.99    4.80
  -4   1  -7   58.69    4.20
  -4   1  -7   46.40    4.90
  -4   1  -7   52.29    4.10
  -4   1  -7   56.89    4.20
  -4   1  -7   63.39    4.20
   4  -1   7   59.49    4.70
   4  -1   7   52.19    5.40
   4  -1   7   56.49    4.40
   4  -1   7   50.29    4.80
   4  -1   7   58.19    4.50
   4  -1   7   49.40    4.10
   4  -1   7   61.39    4.70
   4  -1   7   55.19    3.90
  -5   1  -7   88.49    5.80
  -5   1  -7   98.59    6.20
  -5   1  -7  107.79    5.90
  -5   1  -7   99.99    6.10
  -5   1  -7  105.89    6.80
  -5   1  -7   89.39    5.80
  -5   1  -7   93.79    6.30
  -5   1  -7  103.79    6.80
   5  -1   7  107.29    6.80
   5  -1   7  113.19    8.10
   5  -1   7   93.69    5.90
   5  -1   7   88.39    5.30
   5  -1   7   97.29    6.20
   5  -1   7   92.49    5.60
   5  -1   7  102.39    6.40
  -6   1  -7  216.18    9.90
  -6   1  -7  192.88    9.50
  -6   1  -7  198.08   10.70
  -6   1  -7  207.38   10.00
  -6   1  -7  206.78   10.80
  -6   1  -7  194.28    9.70
   6  -1   7  219.28   10.60
   6  -1   7  211.88   10.40
   6  -1   7  204.08   10.00
  -7   1  -7    2.40    2.30
  -7   1  -7    4.10    2.30
  -7   1  -7    5.20    2.90
  -7   1  -7    1.00    2.60
  -7   1  -7    6.50    2.80
   7  -1   7    7.20    2.50
   7  -1   7    4.40    2.50
   7  -1   7    3.40    2.40
   6   0  -7    0.20    1.80
  -6   0   7   -2.20    1.90
   5   0  -7    3.70    3.10
   5   0  -7    4.30    2.90
   5   0  -7    4.30    2.20
  -5   0   7    4.50    2.50
  -5   0   7    2.30    3.20
  -5   0   7    6.70    2.50
   4   0  -7   67.09    6.30
   4   0  -7   66.09    4.80
   4   0  -7   64.89    5.50
   4   0  -7   67.89    4.70
   4   0  -7   61.79    4.90
  -4   0   7   64.89    5.10
  -4   0   7   59.79    5.90
  -4   0   7   68.69    6.50
  -4   0   7   64.29    5.40
  -4   0   7   61.09    4.30
  -4   0   7   55.79    4.70
   3   0  -7   21.90    2.90
   3   0  -7   22.40    3.40
   3   0  -7   22.90    3.10
   3   0  -7   28.70    4.10
   3   0  -7   26.30    4.00
   3   0  -7   17.40    2.70
   3   0  -7   21.40    3.60
   3   0  -7   19.00    2.60
  -3   0   7   27.20    3.10
  -3   0   7   30.20    3.70
  -3   0   7   28.20    3.20
  -3   0   7   32.50    3.50
  -3   0   7   19.10    2.90
  -3   0   7   24.50    4.10
  -3   0   7   25.80    4.10
   2   0  -7   30.00    3.40
   2   0  -7   35.40    3.10
   2   0  -7   27.50    3.30
   2   0  -7   40.10    4.00
   2   0  -7   33.30    3.40
   2   0  -7   31.00    3.10
   2   0  -7   30.60    3.00
   2   0  -7   31.80    3.80
  -2   0   7   27.60    3.00
  -2   0   7   29.60    2.70
  -2   0   7   34.70    4.20
  -2   0   7   35.30    3.30
  -2   0   7   34.90    3.40
  -2   0   7   30.80    2.80
  -2   0   7   21.00    2.80
  -2   0   7   27.60    2.90
  -2   0   7   27.50    3.90
   1   0  -7   40.40    3.00
   1   0  -7   44.30    3.10
   1   0  -7   49.00    3.70
   1   0  -7   41.70    4.10
   1   0  -7   43.80    4.10
   1   0  -7   45.20    4.10
   1   0  -7   49.30    4.20
   1   0  -7   46.80    3.50
   1   0  -7   45.10    3.50
  -1   0   7   42.40    3.00
  -1   0   7   46.80    3.50
  -1   0   7   46.50    3.90
  -1   0   7   47.70    3.40
  -1   0   7   40.80    3.30
  -1   0   7   46.80    4.00
  -1   0   7   43.90    3.10
  -1   0   7   43.50    4.30
   0   0  -7   39.40    2.70
   0   0  -7   37.30    2.70
   0   0  -7   41.00    3.30
   0   0   7   35.10    2.50
   0   0   7   36.30    2.80
   0   0   7   35.70    2.80
   0   0   7   35.60    2.40
   0   0   7   35.90    3.10
   0   0   7   41.20    2.90
   0   0   7   32.40    2.40
  -1   0  -7  171.78    8.50
  -1   0  -7  183.88    8.00
  -1   0  -7  176.58    7.70
  -1   0  -7  178.08    7.70
   1   0   7  176.58    7.80
   1   0   7  178.58    7.80
   1   0   7  183.68    8.20
   1   0   7  177.38    7.50
   1   0   7  166.18    8.60
  -2   0  -7  353.86   15.10
  -2   0  -7  362.06   14.20
  -2   0  -7  350.76   14.40
  -2   0  -7  356.26   14.20
   2   0   7  369.46   14.50
   2   0   7  353.26   15.40
   2   0   7  347.67   14.00
   2   0   7  342.87   14.10
   2   0   7  375.56   14.70
  -3   0  -7   -0.40    1.60
  -3   0  -7    2.40    1.80
  -3   0  -7    0.20    1.90
  -3   0  -7   -2.20    1.90
  -3   0  -7   -0.10    1.50
  -3   0  -7   -0.70    1.50
  -3   0  -7    1.30    1.70
  -3   0  -7   -0.20    2.20
   3   0   7    0.50    2.10
   3   0   7    0.00    1.40
   3   0   7   -3.00    1.50
   3   0   7    1.40    1.60
   3   0   7   -0.50    2.00
   3   0   7   -0.40    2.20
   3   0   7    0.70    1.40
   3   0   7   -1.60    1.50
   3   0   7    1.00    1.90
   3   0   7    1.70    1.30
  -4   0  -7  235.08   10.70
  -4   0  -7  215.68    9.80
  -4   0  -7  233.98   10.00
  -4   0  -7  224.88    9.80
  -4   0  -7  219.38   10.90
  -4   0  -7  218.18    9.90
  -4   0  -7  213.78   10.30
  -4   0  -7  220.88   10.50
   4   0   7  239.08    9.70
   4   0   7  228.38   10.50
   4   0   7  230.08   10.10
   4   0   7  227.78   10.20
   4   0   7  206.98   11.10
   4   0   7  231.58   10.60
   4   0   7  224.18   10.00
   4   0   7  222.28   10.10
   4   0   7  219.48    9.90
  -5   0  -7  120.79    7.00
  -5   0  -7  127.49    6.60
  -5   0  -7  122.09    6.60
  -5   0  -7  118.19    7.40
  -5   0  -7  118.39    6.50
  -5   0  -7  119.29    7.40
  -5   0  -7  116.39    6.60
   5   0   7  123.19    7.10
   5   0   7  121.29    7.30
   5   0   7  121.59    7.50
   5   0   7  111.89    6.00
   5   0   7  122.69    6.60
   5   0   7  120.59    6.40
  -6   0  -7   28.60    3.80
  -6   0  -7   22.40    3.20
  -6   0  -7   22.10    4.10
  -6   0  -7   19.40    3.60
  -6   0  -7   17.10    2.90
   6   0   7   19.70    3.50
   6   0   7   21.10    3.00
   6   0   7   26.50    3.70
   6   0   7   26.50    3.30
   6   0   7   20.70    3.70
  -7   0  -7  193.48    9.40
  -7   0  -7  205.78   10.10
  -7   0  -7  200.18   10.10
   7   0   7  183.58    9.50
   7   0   7  188.98    8.90
   7   0   7  200.28    9.60
   7   0   7  196.18    9.70
  -8   0  -7    9.80    2.30
  -8   0  -7    5.20    2.30
  -8   0  -7    9.50    2.50
   8   0   7   10.00    2.10
   8   0   7   10.40    2.10
   5  -1  -7   36.90    3.50
   5  -1  -7   33.80    3.70
   5  -1  -7   32.70    3.90
  -5   1   7   39.90    4.10
  -5   1   7   39.70    4.00
  -5   1   7   23.70    3.10
   4  -1  -7  175.78    8.90
   4  -1  -7  195.58    9.50
   4  -1  -7  192.68   10.40
   4  -1  -7  204.68   10.10
  -4   1   7  202.78    9.70
  -4   1   7  219.38    9.90
  -4   1   7  191.68    9.10
  -4   1   7  195.08   10.30
   3  -1  -7  141.89    7.00
   3  -1  -7  146.59    8.30
   3  -1  -7  144.09    7.40
   3  -1  -7  127.59    7.00
   3  -1  -7  149.39    8.00
  -3   1   7  149.19    7.70
  -3   1   7  147.99    8.70
  -3   1   7  148.99    7.20
  -3   1   7  145.99    7.70
  -3   1   7  145.09    7.30
  -3   1   7  146.19    7.30
   2  -1  -7  129.49    6.30
   2  -1  -7  135.29    7.50
   2  -1  -7  133.39    6.60
   2  -1  -7  122.59    7.20
   2  -1  -7  131.79    6.30
   2  -1  -7  138.69    7.30
   2  -1  -7  137.89    7.00
  -2   1   7  128.49    7.20
  -2   1   7  136.19    7.70
  -2   1   7  139.89    6.60
  -2   1   7  138.99    7.00
  -2   1   7  146.09    6.70
  -2   1   7  132.49    6.00
  -2   1   7  135.79    6.70
  -2   1   7  120.39    6.90
   1  -1  -7   32.50    3.30
   1  -1  -7   35.20    3.70
   1  -1  -7   36.70    3.70
   1  -1  -7   32.70    3.40
  -1   1   7   34.60    3.10
  -1   1   7   28.00    3.10
  -1   1   7   49.30    4.60
  -1   1   7   32.20    2.50
  -1   1   7   32.40    2.80
  -1   1   7   34.00    2.70
  -1   1   7   32.30    3.00
  -1   1   7   32.00    3.10
   0  -1  -7    5.50    1.50
   0  -1  -7    6.90    1.90
   0   1   7    5.70    1.40
   0   1   7    6.90    1.40
   0   1   7    8.10    1.80
   0   1   7    3.50    1.20
   0   1   7    5.90    1.70
   0   1   7    3.80    1.70
  -1  -1  -7   18.70    2.40
  -1  -1  -7   18.40    2.20
  -1  -1  -7   25.80    2.40
   1   1   7   23.70    2.40
   1   1   7   17.90    1.90
   1   1   7   19.50    2.10
   1   1   7   27.00    2.80
   1   1   7   20.50    2.90
   1   1   7   19.20    1.80
   1   1   7   20.60    2.00
   1   1   7   21.60    2.40
   1   1   7   18.50    3.30
  -2  -1  -7  213.18   10.00
  -2  -1  -7  225.78    9.10
  -2  -1  -7  221.78    9.30
  -2  -1  -7  216.98    9.10
   2   1   7  217.98    9.10
   2   1   7  197.48    8.60
   2   1   7  223.78    8.90
   2   1   7  219.98    9.30
   2   1   7  216.78   10.20
   2   1   7  197.78    9.10
   2   1   7  200.88    8.60
   2   1   7  220.98    9.50
  -3  -1  -7  541.25   22.60
  -3  -1  -7  579.14   23.20
  -3  -1  -7  597.14   22.20
  -3  -1  -7  612.24   22.30
  -3  -1  -7  572.74   22.20
  -3  -1  -7  582.64   22.80
   3   1   7  580.84   22.70
   3   1   7  563.54   22.20
   3   1   7  595.04   22.60
   3   1   7  552.54   22.00
   3   1   7  570.14   23.60
   3   1   7  557.24   22.40
   3   1   7  587.74   22.10
   3   1   7  569.24   22.70
  -4  -1  -7   47.70    4.20
  -4  -1  -7   45.50    4.50
  -4  -1  -7   49.90    4.00
  -4  -1  -7   56.99    3.70
  -4  -1  -7   48.50    4.30
  -4  -1  -7   48.00    4.10
  -4  -1  -7   46.70    3.60
  -4  -1  -7   48.80    3.70
   4   1   7   51.09    4.70
   4   1   7   45.70    3.40
   4   1   7   53.09    4.40
   4   1   7   43.40    4.70
   4   1   7   56.59    3.10
   4   1   7   53.99    4.00
   4   1   7   54.59    3.60
   4   1   7   51.79    3.80
   4   1   7   53.59    4.00
  -5  -1  -7    6.00    2.20
  -5  -1  -7    4.40    2.50
  -5  -1  -7    2.30    2.40
  -5  -1  -7   -0.70    2.10
  -5  -1  -7    3.80    2.30
  -5  -1  -7    1.50    2.30
  -5  -1  -7   -0.30    1.90
   5   1   7    1.10    2.40
   5   1   7    4.20    2.20
   5   1   7    3.00    2.10
   5   1   7    3.00    1.90
   5   1   7    2.90    2.40
   5   1   7    3.10    1.90
  -6  -1  -7    4.50    2.90
  -6  -1  -7   -1.30    2.20
  -6  -1  -7    5.40    2.80
  -6  -1  -7   -3.40    2.20
  -6  -1  -7    0.60    2.70
   6   1   7    0.90    2.10
   6   1   7   -0.90    2.10
   6   1   7    0.90    2.60
   6   1   7    5.80    2.80
   6   1   7   -0.40    3.80
  -7  -1  -7   12.50    2.90
  -7  -1  -7   11.80    3.40
  -7  -1  -7   15.30    3.70
   7   1   7   13.20    3.00
   7   1   7   10.90    3.00
   7   1   7   14.40    2.80
   7   1   7   13.20    3.30
  -8  -1  -7    5.20    2.50
  -8  -1  -7    5.30    2.40
  -8  -1  -7    3.40    2.00
   8   1   7    0.10    1.70
   8   1   7    5.20    2.20
   5  -2  -7   50.99    4.70
   5  -2  -7   41.30    4.30
   5  -2  -7   50.59    4.20
  -5   2   7   46.70    4.60
  -5   2   7   44.20    4.00
  -5   2   7   40.30    3.80
   4  -2  -7    4.10    2.90
   4  -2  -7    9.40    2.70
   4  -2  -7    8.50    2.40
   4  -2  -7    9.40    3.20
  -4   2   7   12.00    4.00
  -4   2   7   12.50    3.20
  -4   2   7   11.60    2.70
  -4   2   7    6.60    2.10
   3  -2  -7   23.40    3.60
   3  -2  -7   22.60    3.30
   3  -2  -7   23.50    3.60
   3  -2  -7   20.20    2.60
  -3   2   7   17.80    2.80
  -3   2   7   29.60    4.80
  -3   2   7   23.00    3.30
  -3   2   7   11.00    3.40
  -3   2   7   21.30    2.70
  -3   2   7   25.00    3.00
  -3   2   7   24.70    2.30
   2  -2  -7   46.20    4.00
   2  -2  -7   48.30    4.50
   2  -2  -7   49.40    4.80
   2  -2  -7   46.70    4.50
  -2   2   7   45.40    3.80
  -2   2   7   63.39    5.80
  -2   2   7   42.80    3.60
  -2   2   7   52.49    4.30
  -2   2   7   44.30    4.50
  -2   2   7   42.10    3.50
  -2   2   7   44.60    3.30
  -2   2   7   52.39    3.90
   1  -2  -7    2.30    2.00
   1  -2  -7    0.50    3.00
   1  -2  -7   -0.10    2.20
   1  -2  -7    0.10    2.00
   1  -2  -7    0.30    2.20
   1  -2  -7    3.60    1.70
   1  -2  -7    3.30    2.20
  -1   2   7    1.40    1.40
  -1   2   7    3.10    1.40
  -1   2   7    0.60    1.60
  -1   2   7    4.60    1.70
  -1   2   7    3.50    1.70
  -1   2   7    2.10    2.00
  -1   2   7    4.90    3.10
  -1   2   7    4.20    1.70
  -1   2   7    6.50    2.20
   0  -2  -7   10.70    2.20
   0  -2  -7   15.00    2.90
   0  -2  -7   10.30    1.80
   0  -2  -7    7.90    2.50
   0   2   7    9.90    1.80
   0   2   7   11.40    2.20
   0   2   7    9.20    1.80
   0   2   7   11.00    2.20
   0   2   7   11.00    2.00
   0   2   7   12.40    1.70
   0   2   7    9.10    1.90
  -1  -2  -7  280.87   12.20
  -1  -2  -7  305.77   12.30
  -1  -2  -7  308.47   12.50
  -1  -2  -7  308.87   12.30
   1   2   7  316.87   11.90
   1   2   7  308.87   12.20
   1   2   7  295.97   11.80
   1   2   7  299.77   12.70
   1   2   7  326.47   12.70
   1   2   7  280.77   12.80
   1   2   7  288.77   12.10
   1   2   7  297.27   12.60
   1   2   7  318.27   12.40
  -2  -2  -7   34.90    3.00
  -2  -2  -7   39.10    3.00
  -2  -2  -7   40.80    3.30
  -2  -2  -7   38.50    3.10
   2   2   7   31.50    3.20
   2   2   7   36.90    3.20
   2   2   7   41.80    3.20
   2   2   7   39.00    3.90
   2   2   7   39.60    2.60
   2   2   7   38.10    3.20
   2   2   7   37.50    3.00
   2   2   7   41.10    2.80
  -3  -2  -7  126.49    6.50
  -3  -2  -7  119.59    6.80
  -3  -2  -7  128.19    6.40
  -3  -2  -7  123.39    6.70
  -3  -2  -7  130.19    7.20
  -3  -2  -7  130.79    7.20
  -3  -2  -7  133.09    6.40
  -3  -2  -7  135.49    6.30
   3   2   7  123.59    6.70
   3   2   7  133.79    6.00
   3   2   7  122.59    6.40
   3   2   7  126.99    5.70
   3   2   7  134.59    5.80
   3   2   7  135.09    7.50
   3   2   7  130.39    6.40
   3   2   7  140.69    6.80
  -4  -2  -7  195.88    9.80
  -4  -2  -7  207.48    9.60
  -4  -2  -7  198.38    9.30
  -4  -2  -7  212.08    9.20
  -4  -2  -7  199.38    9.60
  -4  -2  -7  207.78   10.50
  -4  -2  -7  193.48   10.00
  -4  -2  -7  217.78    9.10
  -4  -2  -7  191.28    9.70
   4   2   7  213.88    9.90
   4   2   7  204.28    8.50
   4   2   7  203.58    8.50
   4   2   7  199.88    9.30
   4   2   7  201.98    9.40
   4   2   7  212.08    9.00
   4   2   7  215.98    9.40
   4   2   7  209.28   10.70
  -5  -2  -7  124.19    6.40
  -5  -2  -7  104.59    6.60
  -5  -2  -7  122.29    7.30
  -5  -2  -7  124.99    7.20
  -5  -2  -7  120.59    7.20
  -5  -2  -7  128.79    6.90
  -5  -2  -7  122.19    7.30
   5   2   7  122.39    5.80
   5   2   7  132.59    6.40
   5   2   7  133.79    7.00
   5   2   7  131.09    7.40
   5   2   7  133.49    6.80
   5   2   7  116.89    7.40
   5   2   7  130.19    6.90
  -6  -2  -7    4.10    2.50
  -6  -2  -7    2.50    2.60
  -6  -2  -7    1.70    2.80
  -6  -2  -7    3.80    3.00
  -6  -2  -7    0.40    2.30
   6   2   7    3.20    2.20
   6   2   7    3.70    2.30
   6   2   7    5.30    2.70
   6   2   7   -3.10    2.80
  -7  -2  -7   70.29    6.10
  -7  -2  -7   76.99    5.90
  -7  -2  -7   75.79    5.40
  -7  -2  -7   72.69    5.50
   7   2   7   83.09    5.50
   7   2   7   74.19    5.40
  -8  -2  -7    2.10    2.40
  -8  -2  -7   -0.60    1.80
  -8  -2  -7   -0.30    2.20
  -8  -2  -7   -2.60    2.00
   8   2   7    1.40    2.10
   8   2   7    2.70    1.90
   5  -3  -7   12.90    2.40
   5  -3  -7   11.60    2.30
  -5   3   7   13.30    2.20
  -5   3   7    6.50    2.40
  -5   3   7   14.90    2.80
   4  -3  -7    5.20    2.70
   4  -3  -7    2.40    2.30
   4  -3  -7    1.20    2.40
  -4   3   7    2.50    2.10
  -4   3   7   -3.70    2.40
  -4   3   7    2.00    3.20
   3  -3  -7   10.90    3.20
   3  -3  -7   15.10    4.40
   3  -3  -7   14.30    3.10
   3  -3  -7    7.80    2.60
  -3   3   7   11.40    3.00
  -3   3   7   13.00    4.20
  -3   3   7    9.90    2.40
  -3   3   7    8.50    2.10
   2  -3  -7   -1.10    2.80
   2  -3  -7    1.70    2.70
   2  -3  -7    1.40    2.00
   2  -3  -7    4.00    2.50
   2  -3  -7    3.30    3.30
  -2   3   7    7.90    3.90
  -2   3   7   -0.80    1.70
  -2   3   7    2.10    1.90
  -2   3   7    0.20    1.70
  -2   3   7    1.80    1.90
  -2   3   7    3.00    2.00
  -2   3   7   -0.20    2.40
   1  -3  -7   53.09    5.50
   1  -3  -7   51.79    4.70
   1  -3  -7   49.50    4.20
   1  -3  -7   54.09    4.30
   1  -3  -7   55.09    5.60
   1  -3  -7   47.10    4.80
   1  -3  -7   54.09    4.30
   1  -3  -7   55.49    4.10
  -1   3   7   66.19    4.20
  -1   3   7   51.99    3.50
  -1   3   7   50.69    4.40
  -1   3   7   53.19    3.90
  -1   3   7   52.99    3.70
  -1   3   7   59.29    3.70
  -1   3   7   53.49    4.00
   0  -3  -7  253.47   11.90
   0  -3  -7  248.28   11.40
   0  -3  -7  263.17   10.90
   0  -3  -7  254.57   11.40
   0  -3  -7  225.88   11.30
   0  -3  -7  226.88   11.20
   0  -3  -7  235.98   10.60
   0  -3  -7  257.17   10.70
   0  -3  -7  253.77   10.70
   0  -3  -7  232.48   12.00
   0   3   7  245.68   10.80
   0   3   7  260.67   10.00
   0   3   7  248.78   11.10
   0   3   7  228.18    9.90
   0   3   7  238.18   10.60
   0   3   7  258.97   10.50
   0   3   7  268.57   10.60
   0   3   7  222.58   11.30
   0   3   7  249.48   10.60
   0   3   7  265.87   10.50
  -1  -3  -7    7.30    2.10
  -1  -3  -7    5.90    1.90
  -1  -3  -7    6.30    2.30
  -1  -3  -7    7.80    1.90
  -1  -3  -7    6.10    2.00
  -1  -3  -7    6.60    2.50
  -1  -3  -7    4.40    2.70
   1   3   7    9.30    1.90
   1   3   7    4.60    2.10
   1   3   7    4.50    1.60
   1   3   7    5.10    1.40
   1   3   7    3.30    1.60
   1   3   7    5.30    1.80
  -2  -3  -7   13.50    2.20
  -2  -3  -7   16.30    2.20
  -2  -3  -7   16.40    3.40
  -2  -3  -7   18.30    2.80
  -2  -3  -7   13.80    2.80
  -2  -3  -7   15.40    3.10
  -2  -3  -7   17.50    3.20
  -2  -3  -7   15.40    2.30
   2   3   7   13.70    2.10
   2   3   7   12.70    1.60
   2   3   7   15.40    1.90
   2   3   7   13.00    2.50
   2   3   7   12.60    1.90
   2   3   7   14.00    2.50
   2   3   7   16.00    2.20
   2   3   7   20.20    2.60
  -3  -3  -7    0.60    2.00
  -3  -3  -7   -3.40    2.20
  -3  -3  -7    0.60    1.80
  -3  -3  -7    0.00    2.50
  -3  -3  -7    0.20    2.60
  -3  -3  -7    1.00    1.80
  -3  -3  -7    0.20    2.90
  -3  -3  -7    0.80    1.70
  -3  -3  -7    1.30    2.50
  -3  -3  -7    0.90    1.80
  -3  -3  -7   -1.90    1.70
   3   3   7    0.90    1.80
   3   3   7    1.90    1.20
   3   3   7    1.00    1.50
   3   3   7    0.00    1.40
   3   3   7    1.00    1.70
   3   3   7    0.00    1.30
   3   3   7   -1.00    1.50
   3   3   7    0.70    2.00
  -4  -3  -7   20.80    4.10
  -4  -3  -7   19.50    3.70
  -4  -3  -7   18.90    2.90
  -4  -3  -7   18.10    3.70
  -4  -3  -7   21.70    2.90
  -4  -3  -7   18.30    3.00
  -4  -3  -7   15.30    2.40
  -4  -3  -7   17.70    3.00
  -4  -3  -7   22.80    3.30
  -4  -3  -7   18.00    2.80
  -4  -3  -7   21.00    2.60
   4   3   7   24.30    3.20
   4   3   7   20.10    3.30
   4   3   7   19.00    2.10
   4   3   7   18.40    2.10
   4   3   7   17.20    3.20
   4   3   7   18.40    2.40
   4   3   7   15.90    2.50
   4   3   7   18.40    2.60
  -5  -3  -7   35.50    3.90
  -5  -3  -7   39.40    4.60
  -5  -3  -7   40.30    4.10
  -5  -3  -7   37.40    5.40
  -5  -3  -7   51.49    4.80
  -5  -3  -7   44.20    4.10
  -5  -3  -7   41.70    4.30
   5   3   7   39.50    3.20
   5   3   7   42.30    4.00
   5   3   7   42.00    3.80
   5   3   7   44.40    4.40
   5   3   7   40.80    3.60
   5   3   7   39.80    4.10
   5   3   7   40.30    3.30
   5   3   7   44.20    4.40
  -6  -3  -7   39.40    4.20
  -6  -3  -7   42.00    4.50
  -6  -3  -7   51.09    4.90
  -6  -3  -7   45.10    4.60
  -6  -3  -7   37.40    4.50
  -6  -3  -7   35.50    4.00
   6   3   7   40.90    3.80
   6   3   7   40.80    3.30
   6   3   7   36.10    4.20
   6   3   7   48.20    4.10
   6   3   7   47.50    4.60
   6   3   7   46.60    4.30
  -7  -3  -7    1.90    2.40
  -7  -3  -7   -1.40    3.20
  -7  -3  -7    6.90    2.60
  -7  -3  -7    2.50    2.50
  -7  -3  -7    4.40    2.90
   7   3   7    1.10    2.30
   7   3   7    8.10    2.80
   7   3   7    0.20    2.20
  -8  -3  -7   -0.70    2.20
  -8  -3  -7    1.50    2.20
  -8  -3  -7    0.90    1.80
  -8  -3  -7    6.00    2.10
  -8  -3  -7    3.40    2.40
   8   3   7    7.00    2.10
   8   3   7    1.50    1.80
   5  -4  -7    2.30    1.90
  -5   4   7    4.90    2.00
   4  -4  -7    9.10    3.70
   4  -4  -7   11.50    2.70
   4  -4  -7   11.00    2.20
  -4   4   7   11.20    3.60
  -4   4   7   17.70    3.10
   3  -4  -7   40.40    4.40
   3  -4  -7   31.30    3.30
   3  -4  -7   42.60    4.80
   3  -4  -7   51.29    5.90
   3  -4  -7   43.10    4.10
  -3   4   7   42.70    5.10
  -3   4   7   31.90    3.30
  -3   4   7   42.70    3.60
  -3   4   7   41.90    3.80
  -3   4   7   35.10    3.80
   2  -4  -7   23.70    3.90
   2  -4  -7   31.70    4.50
   2  -4  -7   24.20    4.50
   2  -4  -7   21.90    3.00
   2  -4  -7   22.10    3.20
   2  -4  -7   15.60    4.10
  -2   4   7   21.30    2.90
  -2   4   7   25.90    3.20
  -2   4   7   28.40    2.90
  -2   4   7   25.90    2.70
  -2   4   7   20.90    3.00
   1  -4  -7   -3.10    3.00
   1  -4  -7   -0.70    2.60
   1  -4  -7   -0.10    2.90
   1  -4  -7   -2.20    2.40
   1  -4  -7   -0.40    3.00
   1  -4  -7   -3.80    2.80
   1  -4  -7   -1.00    2.30
   1  -4  -7    0.90    1.80
   1  -4  -7    0.70    2.30
  -1   4   7   -0.70    1.80
  -1   4   7    1.60    1.60
  -1   4   7   -1.40    2.10
  -1   4   7   -1.00    1.80
  -1   4   7    0.80    1.90
   0  -4  -7  137.99    8.20
   0  -4  -7  137.59    8.60
   0  -4  -7  133.89    7.90
   0  -4  -7  143.99    7.70
   0  -4  -7  121.89    7.50
   0  -4  -7  135.69    7.00
   0  -4  -7  143.29    7.30
   0  -4  -7  135.69    7.10
   0  -4  -7  146.39    8.40
   0   4   7  125.99    8.80
   0   4   7  121.19    6.50
   0   4   7  148.29    6.80
   0   4   7  129.99    6.10
   0   4   7  141.59    6.20
   0   4   7  131.39    7.30
   0   4   7  143.49    6.80
  -1  -4  -7  316.47   14.50
  -1  -4  -7  318.17   13.90
  -1  -4  -7  333.77   14.70
  -1  -4  -7  325.17   14.60
  -1  -4  -7  317.77   14.00
  -1  -4  -7  311.97   13.40
  -1  -4  -7  303.07   13.80
  -1  -4  -7  336.57   13.50
  -1  -4  -7  329.57   13.50
  -1  -4  -7  330.07   13.40
  -1  -4  -7  303.87   14.20
  -1  -4  -7  288.07   12.70
   1   4   7  319.57   13.90
   1   4   7  310.47   13.30
   1   4   7  319.97   12.40
   1   4   7  324.67   13.10
   1   4   7  317.97   13.10
  -2  -4  -7   93.39    6.80
  -2  -4  -7   96.69    5.40
  -2  -4  -7   78.29    5.80
  -2  -4  -7   79.79    6.00
  -2  -4  -7   95.69    5.60
  -2  -4  -7   80.19    6.80
  -2  -4  -7   81.59    6.30
  -2  -4  -7   80.99    6.20
  -2  -4  -7   84.69    5.90
  -2  -4  -7   76.89    4.60
  -2  -4  -7   88.39    4.90
   2   4   7   92.99    4.30
   2   4   7   89.49    5.00
   2   4   7   86.09    5.60
   2   4   7   82.79    5.10
  -3  -4  -7   29.00    4.20
  -3  -4  -7   23.10    3.80
  -3  -4  -7   31.90    3.60
  -3  -4  -7   35.00    3.60
  -3  -4  -7   27.80    4.60
  -3  -4  -7   33.00    4.00
  -3  -4  -7   34.50    3.80
  -3  -4  -7   32.00    3.00
  -3  -4  -7   29.90    3.00
  -3  -4  -7   49.40    4.70
  -3  -4  -7   37.80    4.60
  -3  -4  -7   29.50    3.60
   3   4   7   32.30    2.60
   3   4   7   31.40    4.00
   3   4   7   34.80    3.70
   3   4   7   33.70    3.90
   3   4   7   31.40    2.80
   3   4   7   27.70    2.40
   3   4   7   33.00    3.20
  -4  -4  -7  112.19    6.40
  -4  -4  -7  104.69    7.40
  -4  -4  -7   93.09    5.50
  -4  -4  -7   91.79    6.00
  -4  -4  -7  100.19    6.40
  -4  -4  -7  101.89    6.50
  -4  -4  -7  102.09    7.00
  -4  -4  -7  106.99    7.50
  -4  -4  -7  116.29    7.70
   4   4   7  102.29    5.40
   4   4   7  109.09    6.30
   4   4   7  114.89    5.20
   4   4   7   70.59    9.20
   4   4   7   99.89    5.70
   4   4   7  104.99    6.00
   4   4   7  103.59    5.10
  -5  -4  -7  236.68   12.60
  -5  -4  -7  230.68   11.60
  -5  -4  -7  231.78   11.60
  -5  -4  -7  240.58   12.10
  -5  -4  -7  221.68   10.50
  -5  -4  -7  220.98   11.30
  -5  -4  -7  229.98   11.20
  -5  -4  -7  245.88   11.20
   5   4   7  242.58   11.20
   5   4   7  226.48   11.10
   5   4   7  238.68   10.90
   5   4   7  233.78   10.60
   5   4   7  247.68   11.20
   5   4   7  227.88   10.30
   5   4   7  238.18    9.80
   5   4   7  237.18    9.90
  -6  -4  -7   32.90    4.90
  -6  -4  -7   37.40    4.30
  -6  -4  -7   28.50    3.50
  -6  -4  -7   47.40    4.90
  -6  -4  -7   33.60    4.50
  -6  -4  -7   29.10    4.00
   6   4   7   32.80    3.70
   6   4   7   34.60    3.70
   6   4   7   36.70    3.80
   6   4   7   38.10    3.00
   6   4   7   27.30    2.60
   6   4   7   28.70    3.70
  -7  -4  -7   -3.70    2.50
  -7  -4  -7   -4.00    2.80
  -7  -4  -7    1.20    2.30
  -7  -4  -7    2.20    2.50
  -7  -4  -7    2.10    3.20
   7   4   7    2.80    2.40
   7   4   7   -2.70    2.10
   7   4   7    3.40    2.20
   7   4   7   -0.70    1.70
  -8  -4  -7   27.20    3.50
  -8  -4  -7   30.40    3.50
   8   4   7   39.10    3.10
   4  -5  -7    2.10    3.00
   4  -5  -7    0.30    2.10
  -4   5   7    1.40    2.70
  -4   5   7    3.00    2.10
  -4   5   7    0.50    1.70
   3  -5  -7  348.77   17.40
   3  -5  -7  403.26   16.30
  -3   5   7  360.76   15.80
  -3   5   7  408.66   17.10
  -3   5   7  407.16   15.30
  -3   5   7  389.06   15.40
   2  -5  -7  419.06   19.40
   2  -5  -7  415.46   19.00
   2  -5  -7  460.65   19.20
   2  -5  -7  470.25   18.70
   2  -5  -7  456.05   20.20
   2  -5  -7  440.56   19.20
  -2   5   7  450.55   17.60
  -2   5   7  426.26   18.00
  -2   5   7  474.05   17.70
   1  -5  -7   85.89    6.80
   1  -5  -7   82.69    6.60
   1  -5  -7   82.59    7.20
   1  -5  -7   92.49    7.70
   1  -5  -7   87.09    5.80
   1  -5  -7   91.29    6.90
   1  -5  -7   88.89    6.70
   1  -5  -7   81.69    6.90
  -1   5   7   78.59    4.70
  -1   5   7   78.09    5.20
  -1   5   7   87.39    4.90
  -1   5   7   86.79    5.40
   0  -5  -7  183.88    9.10
   0  -5  -7  178.88    9.90
   0  -5  -7  183.08   10.30
   0  -5  -7  193.58   10.20
   0  -5  -7  177.88    9.50
   0  -5  -7  186.88   10.80
   0  -5  -7  187.78    9.20
   0  -5  -7  189.08   10.60
   0   5   7  191.08    8.70
   0   5   7  180.78    7.90
   0   5   7  171.68    8.40
  -1  -5  -7   42.20    4.40
  -1  -5  -7   43.90    4.40
  -1  -5  -7   41.80    5.20
  -1  -5  -7   38.40    4.00
  -1  -5  -7   38.60    4.40
  -1  -5  -7   40.60    5.20
  -1  -5  -7   38.70    5.00
  -1  -5  -7   42.60    5.10
   1   5   7   40.70    2.90
   1   5   7   44.80    3.80
  -2  -5  -7    6.30    3.40
  -2  -5  -7    7.80    3.30
  -2  -5  -7    2.60    2.10
  -2  -5  -7    7.20    3.60
  -2  -5  -7    2.10    2.30
  -2  -5  -7    7.90    2.70
  -2  -5  -7    4.60    3.30
  -2  -5  -7    4.30    2.90
   2   5   7    5.20    2.10
   2   5   7    7.90    2.90
   2   5   7    5.60    2.00
   2   5   7    4.60    1.40
  -3  -5  -7   39.80    5.00
  -3  -5  -7   49.20    4.70
  -3  -5  -7   40.80    4.30
  -3  -5  -7   42.10    5.40
  -3  -5  -7   44.50    5.60
  -3  -5  -7   40.70    5.00
  -3  -5  -7   50.99    5.00
  -3  -5  -7   46.80    4.50
   3   5   7   43.50    3.70
   3   5   7   43.60    4.30
   3   5   7   48.00    3.10
   3   5   7   37.30    3.20
  -4  -5  -7   79.69    5.80
  -4  -5  -7   85.49    6.30
  -4  -5  -7   78.89    6.00
  -4  -5  -7   71.49    6.90
  -4  -5  -7  105.59    7.80
  -4  -5  -7   73.69    6.60
  -4  -5  -7   83.09    6.60
  -4  -5  -7   87.99    7.70
   4   5   7   82.99    5.80
   4   5   7   80.99    4.60
   4   5   7   90.39    4.60
   4   5   7   81.29    5.20
   4   5   7   78.59    4.70
  -5  -5  -7  128.09    9.10
  -5  -5  -7  110.09    7.00
  -5  -5  -7  118.19    7.70
  -5  -5  -7  109.39    7.40
  -5  -5  -7  112.89    8.20
  -5  -5  -7  112.29    8.30
  -5  -5  -7  111.89    7.40
   5   5   7  117.29    6.50
   5   5   7  114.79    7.00
   5   5   7  111.99    6.80
   5   5   7  114.79    5.70
   5   5   7  114.49    5.60
   5   5   7   98.49    6.10
  -6  -5  -7    3.20    2.90
  -6  -5  -7    1.10    3.20
  -6  -5  -7   -1.00    2.90
  -6  -5  -7    4.50    2.90
  -6  -5  -7   -0.70    4.40
  -6  -5  -7    1.60    2.70
   6   5   7    1.30    1.70
   6   5   7    2.50    2.20
   6   5   7    3.70    2.30
   6   5   7    5.00    2.60
   6   5   7   -1.00    2.10
   6   5   7    2.10    1.80
  -7  -5  -7    9.30    2.80
  -7  -5  -7    9.00    3.30
  -7  -5  -7   10.30    3.20
   7   5   7   15.00    1.80
   7   5   7   18.80    2.70
   3  -6  -7    2.80    2.30
   3  -6  -7    3.40    2.80
   3  -6  -7   -0.10    3.50
  -3   6   7    1.90    1.60
  -3   6   7    3.80    3.20
   2  -6  -7   48.40    5.20
   2  -6  -7   42.00    5.10
   2  -6  -7   38.60    4.90
   2  -6  -7   45.80    5.90
   2  -6  -7   55.19    4.90
  -2   6   7   49.40    3.80
  -2   6   7   53.29    4.00
   1  -6  -7   16.70    3.60
   1  -6  -7   18.10    4.40
   1  -6  -7   17.80    3.30
   1  -6  -7   26.20    5.00
   1  -6  -7   22.30    4.10
   1  -6  -7   21.80    5.00
  -1   6   7   22.80    2.70
  -1   6   7   17.60    2.90
  -1   6   7   21.00    2.40
   0  -6  -7   19.60    4.00
   0  -6  -7   22.70    4.90
   0  -6  -7   22.60    3.80
   0  -6  -7   31.20    5.00
   0  -6  -7   17.60    3.70
   0  -6  -7   24.00    5.00
   0  -6  -7   22.90    4.00
   0   6   7   25.10    3.10
   0   6   7   26.40    3.40
   0   6   7   24.20    2.50
  -1  -6  -7   10.40    3.50
  -1  -6  -7   10.30    3.90
  -1  -6  -7    8.90    3.40
  -1  -6  -7   17.20    4.30
  -1  -6  -7   11.00    3.30
  -1  -6  -7   10.30    3.40
  -1  -6  -7   11.60    4.50
   1   6   7   10.20    2.30
   1   6   7   11.30    1.80
  -2  -6  -7   54.59    5.20
  -2  -6  -7   49.10    5.90
  -2  -6  -7   57.59    6.50
  -2  -6  -7   44.40    4.40
  -2  -6  -7   54.39    6.20
  -2  -6  -7   48.90    4.80
  -2  -6  -7   60.69    6.80
   2   6   7   44.20    4.10
   2   6   7   46.70    3.20
   2   6   7   53.09    4.20
  -3  -6  -7   45.00    4.90
  -3  -6  -7   33.90    4.20
  -3  -6  -7   33.10    4.90
  -3  -6  -7   46.70    5.70
  -3  -6  -7   42.10    4.50
  -3  -6  -7   50.09    6.40
  -3  -6  -7   37.80    6.00
   3   6   7   35.70    2.90
   3   6   7   45.20    4.40
  -4  -6  -7   95.89    7.90
  -4  -6  -7   92.89    6.80
  -4  -6  -7   76.69    6.20
  -4  -6  -7   95.79    6.80
  -4  -6  -7   87.19    7.70
  -4  -6  -7   84.69    7.10
  -4  -6  -7   82.69    7.60
   4   6   7   90.69    5.90
   4   6   7   80.39    5.40
   4   6   7   84.59    4.60
  -5  -6  -7    0.80    3.70
  -5  -6  -7    5.60    4.70
  -5  -6  -7    6.90    3.40
  -5  -6  -7    1.20    2.50
  -5  -6  -7   11.10    4.10
  -5  -6  -7    3.80    3.00
  -5  -6  -7   -0.40    3.50
   5   6   7    3.20    2.80
   5   6   7    3.50    1.60
   5   6   7    5.60    2.50
   5   6   7    4.80    1.80
   5   6   7    5.70    2.30
  -6  -6  -7   -1.20    3.40
  -6  -6  -7   -2.70    2.60
  -6  -6  -7    2.10    2.70
  -6  -6  -7    2.10    4.40
  -6  -6  -7   -2.40    2.60
  -6  -6  -7   -0.30    3.10
   6   6   7   -2.20    1.50
   6   6   7    1.40    1.70
  -7  -6  -7    1.00    1.90
  -7  -6  -7    8.40    3.20
  -7  -6  -7    7.00    2.60
   7   6   7    4.40    1.40
  -3   7   7    5.40    1.30
   2  -7  -7   48.70    4.90
   2  -7  -7   31.50    4.10
   2  -7  -7   39.70    4.50
   2  -7  -7   29.70    4.50
  -2   7   7   45.20    3.30
  -2   7   7   47.00    3.20
   1  -7  -7  247.88   11.70
   1  -7  -7  233.78   12.40
   1  -7  -7  241.28   12.10
   1  -7  -7  235.88   12.10
  -1   7   7  228.08    9.70
  -1   7   7  220.08    9.60
   0  -7  -7   41.10    4.80
   0  -7  -7   54.99    6.50
   0  -7  -7   49.90    6.10
   0  -7  -7   45.30    5.20
   0  -7  -7   47.30    6.00
   0   7   7   45.70    3.50
  -1  -7  -7   23.70    4.10
  -1  -7  -7   31.90    5.40
  -1  -7  -7   30.50    4.30
  -1  -7  -7   38.90    5.50
  -1  -7  -7   27.10    5.10
  -1  -7  -7   40.80    6.00
   1   7   7   25.70    3.30
   1   7   7   28.90    2.40
  -2  -7  -7   10.20    4.10
  -2  -7  -7   10.10    4.20
  -2  -7  -7   12.00    3.50
  -2  -7  -7    7.60    4.60
  -2  -7  -7   11.00    2.90
  -2  -7  -7   10.50    4.60
   2   7   7   10.10    1.70
  -3  -7  -7   45.20    5.80
  -3  -7  -7   35.20    5.00
  -3  -7  -7   57.99    5.50
  -3  -7  -7   50.59    6.20
  -3  -7  -7   56.99    6.10
  -3  -7  -7   54.29    5.10
   3   7   7   48.90    3.20
   3   7   7   51.69    4.20
  -4  -7  -7   95.99    7.80
  -4  -7  -7   89.49    6.30
  -4  -7  -7   84.39    7.00
  -4  -7  -7   81.59    7.60
  -4  -7  -7   91.99    7.90
  -4  -7  -7   99.59    6.70
   4   7   7   91.89    6.00
   4   7   7   98.39    4.80
  -5  -7  -7  357.06   15.80
  -5  -7  -7  366.36   16.80
  -5  -7  -7  357.16   16.80
  -5  -7  -7  373.76   16.50
   5   7   7  352.26   14.10
   5   7   7  357.66   14.10
  -6  -7  -7   -0.40    4.10
  -6  -7  -7   -1.00    2.60
  -6  -7  -7   -2.70    2.40
  -6  -7  -7   -5.70    3.00
   6   7   7    0.40    1.40
   6   7   7    0.80    1.40
  -7  -7  -7    3.50    3.60
   7   7   7    1.90    1.10
   7   7   7   -2.80    2.20
   1  -8  -7    3.20    3.20
   1  -8  -7    1.00    2.50
   1  -8  -7    2.60    2.90
   1  -8  -7    9.50    2.90
  -1   8   7    5.70    1.40
   0  -8  -7   18.10    3.90
   0  -8  -7   24.00    3.90
   0  -8  -7   13.90    4.10
   0  -8  -7   17.40    4.20
   0   8   7   19.50    2.00
  -1  -8  -7   70.79    6.30
  -1  -8  -7   72.99    7.00
  -1  -8  -7   70.69    6.60
  -1  -8  -7   54.19    5.40
  -1  -8  -7   73.59    6.90
   1   8   7   60.19    3.60
  -2  -8  -7    5.90    4.10
  -2  -8  -7    0.10    3.50
  -2  -8  -7    2.30    3.90
  -2  -8  -7   -0.60    4.00
   2   8   7    0.50    1.30
  -3  -8  -7   -0.40    3.90
  -3  -8  -7    5.70    3.80
  -3  -8  -7    0.00    3.90
  -3  -8  -7    1.20    2.80
   3   8   7   -0.20    1.20
  -4  -8  -7   17.60    4.60
  -4  -8  -7   19.60    4.30
  -4  -8  -7   23.80    3.70
  -4  -8  -7   18.80    4.40
   4   8   7   17.40    1.80
  -5  -8  -7  335.87   14.00
   5   8   7  306.27   12.30
  -6  -8  -7   62.79    4.30
  -6  -8  -7   49.30    5.20
   6   8   7   60.09    3.10
   0  -9  -7   66.59    5.70
   0  -9  -7   65.79    5.30
   0  -9  -7   60.79    5.20
  -1  -9  -7    0.10    2.90
  -1  -9  -7    2.00    2.70
  -1  -9  -7    3.80    3.40
  -2  -9  -7    0.20    2.80
  -2  -9  -7   -0.10    3.10
  -2  -9  -7    0.40    2.70
  -2  -9  -7   -0.80    2.70
  -3  -9  -7    5.60    3.30
  -3  -9  -7    3.20    3.20
  -3  -9  -7    3.90    3.10
  -4  -9  -7    8.10    3.80
  -4  -9  -7   11.50    3.50
  -4  -9  -7    4.10    2.80
   1   7  -8    8.90    1.30
   1   7  -8    8.30    2.10
  -1  -7   8    7.00    2.40
  -1  -7   8    4.80    2.10
   0   7  -8   57.19    4.40
   0   7  -8   60.09    3.20
   0  -7   8   59.09    4.90
   0  -7   8   55.69    4.20
  -1   7  -8    2.60    2.10
  -1   7  -8    3.70    1.20
  -1   7  -8    3.60    3.00
   1  -7   8    2.40    2.20
   1  -7   8    3.10    2.10
  -2   7  -8   14.70    2.50
  -2   7  -8   15.90    1.60
   2  -7   8   13.80    2.50
   3   6  -8    8.20    2.40
   3   6  -8    7.40    1.80
   3   6  -8    7.10    2.20
  -3  -6   8    6.40    2.20
   2   6  -8   25.70    3.10
   2   6  -8   30.00    2.40
   2   6  -8   30.20    2.80
   2   6  -8   27.90    3.20
  -2  -6   8   32.60    3.50
  -2  -6   8   33.60    3.50
   1   6  -8   15.40    2.50
   1   6  -8   18.10    2.00
   1   6  -8   18.00    3.30
   1   6  -8   19.20    2.00
  -1  -6   8   21.50    3.60
  -1  -6   8   16.80    3.00
  -1  -6   8   30.40    3.70
  -1  -6   8   22.20    4.10
   0   6  -8   39.90    3.00
   0   6  -8   40.10    4.10
   0   6  -8   38.60    3.20
   0   6  -8   40.60    3.50
   0  -6   8   55.29    4.40
   0  -6   8   33.60    4.10
   0  -6   8   43.70    5.20
   0  -6   8   30.40    3.90
  -1   6  -8   25.20    2.20
  -1   6  -8   26.70    3.60
  -1   6  -8   23.60    2.90
  -1   6  -8   22.00    2.20
   1  -6   8   28.00    3.40
   1  -6   8   22.20    3.90
   1  -6   8   25.20    3.30
   1  -6   8   30.10    4.10
  -2   6  -8    8.90    2.90
  -2   6  -8   13.00    1.70
  -2   6  -8    7.70    2.10
  -2   6  -8   12.70    1.80
  -2   6  -8   10.50    2.40
   2  -6   8   15.90    3.60
   2  -6   8   20.00    3.20
   2  -6   8    7.10    2.90
   2  -6   8   10.80    2.80
  -3   6  -8    4.70    1.30
  -3   6  -8    6.40    2.40
  -3   6  -8    6.80    2.00
  -3   6  -8    5.30    2.70
   3  -6   8    4.20    2.40
   3  -6   8   11.70    2.70
   3  -6   8    5.40    3.10
  -4   6  -8   -0.40    1.90
   4  -6   8    3.00    2.00
   4  -6   8    3.40    2.00
   4   5  -8   26.10    2.50
   4   5  -8   19.20    2.70
  -4  -5   8   23.20    2.70
  -4  -5   8   13.30    2.00
   3   5  -8    9.10    2.40
   3   5  -8   11.90    3.00
   3   5  -8    8.80    2.70
  -3  -5   8   11.40    2.80
  -3  -5   8    6.80    2.20
  -3  -5   8   11.50    2.60
   2   5  -8   10.40    1.80
   2   5  -8   13.80    3.30
   2   5  -8    9.90    2.50
  -2  -5   8   13.60    2.80
  -2  -5   8   15.10    3.50
  -2  -5   8   10.10    3.30
  -2  -5   8   15.20    3.20
  -2  -5   8   14.50    2.60
   1   5  -8   99.19    5.20
   1   5  -8  102.39    5.10
   1   5  -8  103.69    6.70
   1   5  -8  100.69    6.00
   1   5  -8   92.29    6.10
  -1  -5   8  119.09    7.00
  -1  -5   8  104.39    7.20
  -1  -5   8  113.79    6.50
  -1  -5   8  113.59    7.90
  -1  -5   8   97.99    5.90
  -1  -5   8   95.49    6.60
   0   5  -8    2.10    1.80
   0   5  -8    1.50    2.80
   0   5  -8    2.50    2.80
   0   5  -8   -1.70    2.60
   0   5  -8    0.20    2.10
   0   5  -8    2.20    1.70
   0  -5   8   -0.90    2.60
   0  -5   8    3.90    3.50
   0  -5   8    4.00    3.10
   0  -5   8    4.20    3.20
   0  -5   8    1.50    2.10
  -1   5  -8   57.99    3.70
  -1   5  -8   54.69    4.90
  -1   5  -8   53.19    4.80
  -1   5  -8   58.39    5.50
  -1   5  -8   55.89    3.50
  -1   5  -8   53.39    4.70
   1  -5   8   58.79    5.00
   1  -5   8   49.50    4.30
   1  -5   8   59.19    5.80
   1  -5   8   43.00    4.10
   1  -5   8   55.99    5.50
   1  -5   8   50.49    5.60
   1  -5   8   51.89    5.80
  -2   5  -8    0.20    1.50
  -2   5  -8   -2.50    2.50
  -2   5  -8   -0.70    2.30
  -2   5  -8    1.10    2.60
  -2   5  -8    0.40    1.70
   2  -5   8   -0.10    2.80
   2  -5   8   -0.80    2.70
   2  -5   8    1.10    3.60
   2  -5   8   -3.40    2.90
   2  -5   8   -1.50    2.60
   2  -5   8    1.80    2.00
  -3   5  -8   -0.40    2.20
  -3   5  -8   -4.20    2.80
  -3   5  -8    1.60    1.50
  -3   5  -8    0.60    2.50
   3  -5   8    0.30    1.70
   3  -5   8    0.50    2.60
   3  -5   8   -1.30    2.60
   3  -5   8   -2.70    3.60
  -4   5  -8   16.00    3.40
  -4   5  -8   19.40    3.10
  -4   5  -8   13.00    2.70
   4  -5   8   10.30    3.50
   4  -5   8   10.30    2.70
  -5   5  -8    2.30    1.80
  -5   5  -8   -1.40    1.90
  -5   5  -8   -0.60    2.10
  -5   5  -8    1.40    2.00
   5  -5   8   -0.10    2.20
   5  -5   8   -0.80    1.70
   4   4  -8   10.10    2.80
   4   4  -8    5.50    2.10
   4   4  -8    3.50    2.10
  -4  -4   8    6.50    2.50
  -4  -4   8    8.40    2.50
  -4  -4   8    4.60    2.50
   3   4  -8   15.40    3.60
   3   4  -8   21.50    3.20
  -3  -4   8   18.30    3.10
  -3  -4   8   11.80    3.00
  -3  -4   8   11.30    3.00
  -3  -4   8   16.40    3.30
   2   4  -8   15.30    2.90
   2   4  -8   16.60    3.60
   2   4  -8   13.70    2.80
   2   4  -8   14.90    2.00
  -2  -4   8   22.20    3.70
  -2  -4   8   14.90    2.90
  -2  -4   8   12.20    3.60
  -2  -4   8   20.40    3.60
  -2  -4   8   16.00    2.70
   1   4  -8  204.38    9.40
   1   4  -8  186.68    9.40
   1   4  -8  181.78    8.80
   1   4  -8  198.48    8.30
   1   4  -8  195.78   10.20
  -1  -4   8  203.38    9.90
  -1  -4   8  189.38    9.40
  -1  -4   8  200.08    9.70
  -1  -4   8  210.58   10.60
  -1  -4   8  199.58    9.80
   0   4  -8   21.00    3.00
   0   4  -8   27.30    3.60
   0   4  -8   16.10    3.20
   0   4  -8   21.50    3.60
   0   4  -8   24.80    2.50
   0   4  -8   28.90    4.00
   0   4  -8   18.30    3.30
   0   4  -8   24.80    2.30
   0  -4   8   21.70    3.90
   0  -4   8   22.50    4.10
   0  -4   8   20.50    3.10
   0  -4   8   24.50    3.60
   0  -4   8   26.60    3.60
   0  -4   8   26.60    3.50
   0  -4   8   29.00    3.80
  -1   4  -8   29.80    4.00
  -1   4  -8   20.10    2.90
  -1   4  -8   26.00    2.40
  -1   4  -8   34.50    4.30
  -1   4  -8   25.00    3.40
  -1   4  -8   18.30    2.30
   1  -4   8   32.50    3.80
   1  -4   8   22.90    3.20
   1  -4   8   29.10    4.00
   1  -4   8   21.20    4.20
   1  -4   8   26.20    4.30
   1  -4   8   26.50    3.70
   1  -4   8   24.60    3.90
  -2   4  -8   34.40    4.10
  -2   4  -8   39.50    3.10
  -2   4  -8   35.20    3.40
  -2   4  -8   40.80    4.40
  -2   4  -8   27.60    3.40
  -2   4  -8   38.30    3.30
   2  -4   8   38.80    4.00
   2  -4   8   39.60    4.50
   2  -4   8   33.70    3.80
   2  -4   8   32.10    4.80
   2  -4   8   48.90    4.90
  -3   4  -8   11.20    2.50
  -3   4  -8   15.20    2.00
  -3   4  -8   16.70    3.60
  -3   4  -8   16.60    3.10
  -3   4  -8   16.10    3.70
  -3   4  -8   16.00    3.10
   3  -4   8   19.10    3.10
   3  -4   8   19.40    4.00
   3  -4   8   15.90    3.00
   3  -4   8   12.60    3.50
   3  -4   8   23.10    3.70
  -4   4  -8    9.40    2.90
  -4   4  -8   11.10    3.30
  -4   4  -8   12.20    2.80
  -4   4  -8   12.50    2.70
  -4   4  -8   13.30    2.70
  -4   4  -8    9.50    3.00
   4  -4   8    8.60    3.90
   4  -4   8   13.80    2.80
   4  -4   8   15.70    3.10
   4  -4   8   14.60    3.30
  -5   4  -8    2.00    2.70
  -5   4  -8    3.10    2.40
  -5   4  -8    1.10    2.20
  -5   4  -8    7.70    2.90
   5  -4   8    3.10    3.20
   5  -4   8    4.70    2.80
   5  -4   8    6.50    2.60
   5  -4   8    9.90    2.80
   5  -4   8    3.40    2.00
  -6   4  -8    9.90    2.80
   6  -4   8    4.90    1.90
   5   3  -8    1.60    1.80
   5   3  -8    2.70    2.10
  -5  -3   8    2.30    2.10
  -5  -3   8    2.80    1.90
  -5  -3   8    0.50    1.80
   4   3  -8   18.70    3.70
   4   3  -8   17.90    3.50
   4   3  -8   11.00    2.60
  -4  -3   8   17.30    3.60
  -4  -3   8   11.60    2.60
   3   3  -8   22.70    3.30
   3   3  -8   15.10    3.50
   3   3  -8   15.10    2.90
   3   3  -8   17.90    3.40
  -3  -3   8   17.80    3.00
  -3  -3   8   28.60    4.30
  -3  -3   8   18.80    2.90
  -3  -3   8   17.20    3.70
   2   3  -8   29.90    4.10
   2   3  -8   18.70    3.00
   2   3  -8   19.80    3.30
  -2  -3   8   24.50    3.30
  -2  -3   8   20.80    4.20
  -2  -3   8   26.50    3.70
  -2  -3   8   31.70    4.40
  -2  -3   8   33.30    3.60
   1   3  -8   15.40    3.00
   1   3  -8   24.90    3.90
   1   3  -8   18.00    3.10
   1   3  -8   22.30    2.20
   1   3  -8   20.10    3.20
   1   3  -8   20.00    3.10
  -1  -3   8   26.80    4.10
  -1  -3   8   21.50    3.10
  -1  -3   8   23.20    4.10
  -1  -3   8   18.70    2.80
  -1  -3   8   16.90    3.00
   0   3  -8   42.60    3.90
   0   3  -8   44.20    4.40
   0   3  -8   44.30    4.10
   0   3  -8   47.50    4.20
   0   3  -8   45.90    4.50
   0   3  -8   41.80    3.10
   0   3  -8   49.00    4.60
   0  -3   8   40.30    4.40
   0  -3   8   41.90    4.10
   0  -3   8   42.20    4.40
   0  -3   8   40.00    4.30
   0  -3   8   32.10    3.60
   0  -3   8   40.60    3.80
   0  -3   8   41.00    3.90
   0  -3   8   46.20    4.90
  -1   3  -8  126.39    6.10
  -1   3  -8  129.99    6.00
  -1   3  -8  143.79    7.60
  -1   3  -8  137.99    7.60
  -1   3  -8  128.09    6.90
  -1   3  -8  125.69    7.50
   1  -3   8  138.39    7.40
   1  -3   8  136.89    7.50
   1  -3   8  142.19    7.80
   1  -3   8  131.99    7.70
   1  -3   8  136.19    7.20
   1  -3   8  137.29    8.10
  -2   3  -8   67.59    5.80
  -2   3  -8   60.39    4.70
  -2   3  -8   68.69    5.50
  -2   3  -8   57.09    4.40
  -2   3  -8   58.99    3.70
  -2   3  -8   60.59    4.50
   2  -3   8   55.29    5.50
   2  -3   8   61.59    5.70
   2  -3   8   64.69    5.10
   2  -3   8   62.89    4.90
   2  -3   8   62.29    4.20
  -3   3  -8  950.10   36.60
  -3   3  -8  939.31   35.00
  -3   3  -8  963.80   36.70
  -3   3  -8  948.21   36.00
  -3   3  -8  972.10   36.30
  -3   3  -8  891.01   36.10
  -3   3  -8  987.20   37.10
   3  -3   8  937.21   36.60
   3  -3   8  944.61   36.70
   3  -3   8  923.21   37.20
   3  -3   8  966.70   36.80
   3  -3   8  938.61   36.50
   3  -3   8  935.51   36.50
   3  -3   8  906.11   35.80
  -4   3  -8   27.80    3.60
  -4   3  -8   27.90    3.30
  -4   3  -8   23.60    3.40
  -4   3  -8   34.30    4.10
  -4   3  -8   33.30    4.50
  -4   3  -8   33.40    4.00
   4  -3   8   28.00    3.90
   4  -3   8   28.60    3.80
   4  -3   8   22.40    3.70
   4  -3   8   33.80    3.80
  -5   3  -8   29.20    3.50
  -5   3  -8   33.30    4.00
  -5   3  -8   40.00    4.70
  -5   3  -8   40.60    5.60
  -5   3  -8   24.90    3.30
   5  -3   8   31.00    3.90
   5  -3   8   34.50    4.90
   5  -3   8   25.60    3.50
   5  -3   8   27.60    3.60
  -6   3  -8    6.50    2.30
  -6   3  -8    5.90    2.40
  -6   3  -8    5.50    2.90
  -6   3  -8    6.90    2.50
   6  -3   8    6.10    2.60
   6  -3   8    5.00    2.20
   6  -3   8    4.00    2.80
   6  -3   8    1.50    2.40
   5   2  -8    1.30    2.10
   5   2  -8    2.00    2.40
  -5  -2   8    2.30    2.20
  -5  -2   8    2.30    2.60
   4   2  -8   36.50    4.20
   4   2  -8   31.00    3.40
   4   2  -8   31.00    4.10
  -4  -2   8   22.00    3.20
  -4  -2   8   43.00    4.80
  -4  -2   8   27.20    3.40
   3   2  -8   55.89    4.90
   3   2  -8   59.49    4.70
   3   2  -8   61.69    6.10
   3   2  -8   60.29    6.00
  -3  -2   8   57.59    5.50
  -3  -2   8   67.19    6.20
  -3  -2   8   56.79    5.10
  -3  -2   8   57.19    4.60
   2   2  -8  112.69    6.70
   2   2  -8  122.19    6.90
   2   2  -8  127.29    8.00
   2   2  -8  129.59    6.60
   2   2  -8  125.19    7.70
  -2  -2   8  126.09    7.00
  -2  -2   8  124.29    8.00
  -2  -2   8  123.29    7.30
  -2  -2   8  127.49    6.90
  -2  -2   8  120.19    8.00
   1   2  -8  186.88    9.00
   1   2  -8  185.38    9.20
   1   2  -8  192.28    9.90
   1   2  -8  193.68    8.80
   1   2  -8  185.98    8.90
   1   2  -8  183.38    8.80
  -1  -2   8  198.88    9.80
  -1  -2   8  192.58    9.00
  -1  -2   8  186.28    9.00
  -1  -2   8  198.98   10.00
  -1  -2   8  193.48    9.40
   0   2  -8  120.09    7.30
   0   2  -8  151.48    7.60
   0   2  -8  144.59    7.40
   0   2  -8  143.29    7.00
   0   2  -8  134.29    6.00
   0   2  -8  139.99    7.90
   0  -2   8  142.39    7.00
   0  -2   8  144.29    7.40
   0  -2   8  138.29    7.70
   0  -2   8  135.59    7.30
   0  -2   8  142.19    7.20
   0  -2   8  149.79    8.00
  -1   2  -8   51.39    3.10
  -1   2  -8   51.59    3.90
  -1   2  -8   52.09    3.80
  -1   2  -8   45.20    4.50
  -1   2  -8   61.09    4.90
  -1   2  -8   43.70    4.40
  -1   2  -8   48.70    3.70
  -1   2  -8   57.39    4.60
   1  -2   8   54.09    4.20
   1  -2   8   52.69    4.20
   1  -2   8   52.59    4.70
   1  -2   8   56.39    4.90
   1  -2   8   51.89    4.60
   1  -2   8   56.19    3.70
  -2   2  -8   35.20    3.80
  -2   2  -8   33.00    2.60
  -2   2  -8   26.50    3.10
  -2   2  -8   27.90    3.10
  -2   2  -8   38.60    4.00
  -2   2  -8   34.00    3.20
   2  -2   8   34.10    3.50
   2  -2   8   37.20    4.10
   2  -2   8   36.40    4.00
   2  -2   8   37.20    3.30
   2  -2   8   44.20    4.40
   2  -2   8   38.80    3.70
  -3   2  -8   30.80    3.40
  -3   2  -8   32.20    3.70
  -3   2  -8   25.10    3.20
  -3   2  -8   24.60    3.60
  -3   2  -8   34.10    4.10
  -3   2  -8   28.20    3.20
   3  -2   8   28.70    3.80
   3  -2   8   29.10    3.90
   3  -2   8   34.40    3.80
   3  -2   8   20.60    2.60
   3  -2   8   37.20    3.60
   3  -2   8   33.20    4.80
  -4   2  -8  197.38    9.20
  -4   2  -8  181.08    9.20
  -4   2  -8  183.58    9.70
  -4   2  -8  209.58    9.50
  -4   2  -8  201.28   10.30
  -4   2  -8  183.78    9.40
  -4   2  -8  213.78    9.60
   4  -2   8  180.38    8.70
   4  -2   8  204.28   10.10
   4  -2   8  194.38    9.40
   4  -2   8  194.48    9.80
   4  -2   8  182.78    9.90
  -5   2  -8   75.89    6.10
  -5   2  -8   78.59    5.70
  -5   2  -8   66.19    5.10
  -5   2  -8   83.79    5.80
   5  -2   8   75.59    5.60
   5  -2   8   73.09    5.60
   5  -2   8   66.39    5.40
   5  -2   8   76.69    6.30
  -6   2  -8   34.00    3.70
  -6   2  -8   24.70    4.90
  -6   2  -8   35.10    3.80
  -6   2  -8   47.70    4.90
   6  -2   8   33.50    3.90
   6  -2   8   35.50    4.30
   6  -2   8   30.00    3.80
   6  -2   8   37.70    3.60
  -7   2  -8   52.49    4.00
  -7   2  -8   58.99    4.10
  -7   2  -8   52.69    4.30
   7  -2   8   51.69    4.00
   7  -2   8   50.69    3.80
   7  -2   8   55.59    4.20
   5   1  -8   47.00    4.30
   5   1  -8   36.90    3.80
  -5  -1   8   45.30    3.80
  -5  -1   8   33.50    3.70
   4   1  -8    2.70    3.20
   4   1  -8    0.80    2.80
   4   1  -8    1.10    2.50
  -4  -1   8   -0.60    3.30
  -4  -1   8   -0.30    1.80
  -4  -1   8    0.40    2.20
  -4  -1   8    2.80    3.10
   3   1  -8   25.00    3.20
   3   1  -8   32.40    4.20
   3   1  -8   28.10    4.20
   3   1  -8   32.20    3.40
   3   1  -8   33.50    4.80
  -3  -1   8   26.80    3.40
  -3  -1   8   22.70    3.30
  -3  -1   8   34.30    4.70
  -3  -1   8   24.50    4.60
  -3  -1   8   25.20    3.40
   2   1  -8    8.10    2.40
   2   1  -8    9.90    3.10
   2   1  -8    9.10    3.40
   2   1  -8   10.10    2.40
   2   1  -8    8.30    3.50
   2   1  -8   10.50    2.60
   2   1  -8    9.10    2.80
  -2  -1   8   10.80    2.40
  -2  -1   8   11.60    2.60
  -2  -1   8    9.70    3.40
  -2  -1   8   10.00    2.50
  -2  -1   8   10.30    3.60
  -2  -1   8    9.20    2.40
   1   1  -8    2.20    1.90
   1   1  -8    2.30    2.20
   1   1  -8    5.80    2.80
   1   1  -8    5.80    2.60
   1   1  -8    2.60    2.70
   1   1  -8    6.70    2.50
   1   1  -8    0.30    1.90
  -1  -1   8    2.70    2.10
  -1  -1   8    6.00    3.10
  -1  -1   8    3.70    1.90
  -1  -1   8    5.70    2.90
  -1  -1   8    3.40    2.40
  -1  -1   8    3.10    1.80
   0   1  -8  109.69    6.00
   0   1  -8  105.29    6.50
   0   1  -8  102.69    5.20
   0   1  -8   80.19    5.10
   0   1  -8  105.19    5.80
   0   1  -8  113.69    6.50
   0   1  -8   99.69    5.80
   0  -1   8  106.79    5.20
   0  -1   8  101.29    6.70
   0  -1   8  105.09    6.60
   0  -1   8  106.19    5.80
   0  -1   8  105.99    5.70
   0  -1   8  105.99    5.60
   0  -1   8  103.29    6.00
   0  -1   8  112.19    6.10
  -1   1  -8   10.90    2.00
  -1   1  -8   10.00    2.50
  -1   1  -8   13.10    2.40
  -1   1  -8   10.00    2.70
  -1   1  -8   18.00    3.00
  -1   1  -8    9.50    2.50
  -1   1  -8   14.40    2.90
  -1   1  -8   11.70    2.10
   1  -1   8   14.90    2.50
   1  -1   8   11.70    1.90
   1  -1   8   14.50    2.90
   1  -1   8   14.20    2.50
   1  -1   8    7.40    2.80
   1  -1   8   13.00    2.80
   1  -1   8   10.70    1.90
   1  -1   8   11.80    2.20
  -2   1  -8   35.20    3.40
  -2   1  -8   39.10    3.50
  -2   1  -8   34.50    4.20
  -2   1  -8   39.20    3.80
  -2   1  -8   41.30    3.90
  -2   1  -8   42.70    4.10
  -2   1  -8   31.50    3.40
  -2   1  -8   28.60    3.70
  -2   1  -8   36.20    3.30
   2  -1   8   38.10    3.40
   2  -1   8   32.40    3.90
   2  -1   8   36.70    3.80
   2  -1   8   33.00    3.40
   2  -1   8   37.60    4.60
   2  -1   8   32.70    3.70
   2  -1   8   32.30    3.00
   2  -1   8   31.00    3.40
   2  -1   8   36.10    3.70
   2  -1   8   37.90    3.60
  -3   1  -8   28.20    3.90
  -3   1  -8   27.10    3.40
  -3   1  -8   22.60    3.80
  -3   1  -8   29.40    3.30
  -3   1  -8   32.70    3.80
  -3   1  -8   30.00    3.50
  -3   1  -8   26.30    3.00
  -3   1  -8   29.30    3.10
  -3   1  -8   28.30    3.20
   3  -1   8   26.50    2.90
   3  -1   8   30.40    4.50
   3  -1   8   27.20    2.90
   3  -1   8   32.20    3.50
   3  -1   8   24.20    3.40
   3  -1   8   23.90    3.20
   3  -1   8   23.80    2.90
   3  -1   8   30.40    3.90
  -4   1  -8  164.38    7.80
  -4   1  -8  142.59    7.80
  -4   1  -8  148.49    8.50
  -4   1  -8  168.18    7.80
  -4   1  -8  142.59    7.80
  -4   1  -8  152.48    8.50
  -4   1  -8  155.68    8.60
  -4   1  -8  153.58    7.60
   4  -1   8  160.58    8.00
   4  -1   8  147.09    7.80
   4  -1   8  156.38    8.40
   4  -1   8  152.78    7.40
   4  -1   8  156.68    8.30
   4  -1   8  146.49    8.00
   4  -1   8  149.88    7.60
  -5   1  -8   20.70    3.30
  -5   1  -8   17.70    3.00
  -5   1  -8   21.90    3.30
  -5   1  -8   12.50    3.40
  -5   1  -8   16.30    3.30
  -5   1  -8   20.30    3.70
   5  -1   8   19.70    3.80
   5  -1   8   16.40    2.90
   5  -1   8   16.30    3.50
   5  -1   8   19.40    3.10
   5  -1   8   24.00    3.50
   5  -1   8   19.20    2.80
  -6   1  -8   62.59    5.90
  -6   1  -8   58.69    5.20
  -6   1  -8   52.39    4.50
  -6   1  -8   57.79    5.00
  -6   1  -8   62.89    5.90
   6  -1   8   62.19    5.40
   6  -1   8   62.09    5.30
   6  -1   8   63.39    5.80
  -7   1  -8   33.10    3.20
  -7   1  -8   39.00    4.10
  -7   1  -8   34.00    3.50
  -7   1  -8   54.39    4.80
   7  -1   8   47.60    4.20
   7  -1   8   42.80    3.80
   7  -1   8   42.90    4.20
   5   0  -8    1.50    2.60
   5   0  -8    0.20    2.30
  -5   0   8   -1.50    2.30
  -5   0   8   -1.60    1.80
   4   0  -8   38.30    4.50
   4   0  -8   47.70    4.80
  -4   0   8   35.80    3.70
  -4   0   8   56.69    5.60
  -4   0   8   41.60    4.00
  -4   0   8   45.60    4.80
  -4   0   8   39.60    3.90
   3   0  -8   22.80    3.30
   3   0  -8   20.20    2.80
   3   0  -8   23.60    3.90
   3   0  -8   31.70    4.20
   3   0  -8   32.80    3.50
  -3   0   8   27.60    4.40
  -3   0   8   35.40    4.50
  -3   0   8   26.40    3.60
  -3   0   8   21.80    2.80
  -3   0   8   19.70    2.90
  -3   0   8   28.60    3.40
   2   0  -8  527.35   23.10
   2   0  -8  588.34   24.00
   2   0  -8  590.84   23.70
   2   0  -8  604.24   24.40
   2   0  -8  606.44   23.30
   2   0  -8  606.64   24.20
  -2   0   8  590.34   23.10
  -2   0   8  622.04   24.50
  -2   0   8  571.74   23.00
  -2   0   8  589.64   24.50
  -2   0   8  643.84   23.70
  -2   0   8  580.94   23.70
  -2   0   8  621.84   23.70
   1   0  -8    7.40    2.30
   1   0  -8    6.50    2.60
   1   0  -8    4.70    2.30
   1   0  -8    5.50    2.80
   1   0  -8    3.50    2.70
  -1   0   8    7.00    3.00
  -1   0   8    6.70    2.10
  -1   0   8    5.20    2.70
  -1   0   8    4.10    1.90
  -1   0   8    1.80    1.60
  -1   0   8    3.70    2.10
  -1   0   8    3.80    2.90
  -1   0   8    5.10    2.10
   0   0  -8  111.49    6.70
   0   0  -8  115.99    6.60
   0   0  -8  107.79    5.60
   0   0  -8  110.19    5.60
   0   0  -8  125.89    6.30
   0   0  -8  117.59    6.70
   0   0  -8  117.29    6.00
   0   0  -8  101.99    6.00
   0   0   8  114.79    6.30
   0   0   8  110.09    5.30
   0   0   8  114.49    5.80
   0   0   8  117.89    6.10
   0   0   8  119.09    7.00
   0   0   8  113.59    6.70
   0   0   8  122.39    5.90
   0   0   8  122.29    6.30
  -1   0  -8   70.29    4.90
  -1   0  -8   73.39    4.50
  -1   0  -8   66.49    4.50
  -1   0  -8   72.49    4.30
  -1   0  -8   64.89    4.70
  -1   0  -8   66.29    4.20
   1   0   8   55.19    4.70
   1   0   8   66.49    4.60
   1   0   8   60.39    4.20
   1   0   8   66.09    5.00
   1   0   8   72.19    3.90
   1   0   8   67.79    4.40
   1   0   8   57.89    4.90
   1   0   8   72.99    4.60
   1   0   8   69.29    5.30
   1   0   8   68.69    4.30
  -2   0  -8  118.99    5.90
  -2   0  -8  114.99    6.10
  -2   0  -8  109.59    6.40
  -2   0  -8  116.79    5.80
  -2   0  -8  109.69    5.80
  -2   0  -8  108.19    6.40
  -2   0  -8  113.49    6.40
  -2   0  -8  105.09    6.70
   2   0   8  116.09    6.30
   2   0   8  122.99    6.20
   2   0   8  118.99    6.30
   2   0   8  116.29    5.60
   2   0   8  107.09    6.60
   2   0   8  108.39    7.00
   2   0   8  110.29    6.10
   2   0   8  109.59    5.60
   2   0   8  103.19    6.20
  -3   0  -8   -0.80    1.80
  -3   0  -8    0.00    2.20
  -3   0  -8   -0.60    2.10
  -3   0  -8   -3.10    1.80
  -3   0  -8    0.00    1.80
  -3   0  -8    0.50    1.80
  -3   0  -8    2.90    2.40
  -3   0  -8    0.30    1.80
  -3   0  -8   -1.30    2.10
   3   0   8    1.30    1.80
   3   0   8    3.40    2.20
   3   0   8    1.30    2.30
   3   0   8    0.30    1.60
   3   0   8    1.50    1.70
   3   0   8   -0.10    1.50
   3   0   8    1.70    2.00
   3   0   8   -0.40    2.20
   3   0   8    1.60    2.30
   3   0   8    0.10    2.00
  -4   0  -8   67.79    5.30
  -4   0  -8   71.29    4.60
  -4   0  -8   73.89    6.70
  -4   0  -8   63.69    5.60
  -4   0  -8   68.69    4.60
  -4   0  -8   75.19    5.00
  -4   0  -8   66.49    5.30
   4   0   8   64.89    4.50
   4   0   8   72.19    4.90
   4   0   8   61.09    5.20
   4   0   8   70.89    5.10
   4   0   8   68.09    4.90
   4   0   8   71.99    5.50
   4   0   8   71.99    4.80
   4   0   8   68.89    5.00
  -5   0  -8  165.78    8.50
  -5   0  -8  175.68    8.60
  -5   0  -8  181.28    8.60
  -5   0  -8  180.38    9.50
  -5   0  -8  167.28    9.30
  -5   0  -8  169.68    8.60
  -5   0  -8  193.38    9.70
   5   0   8  187.18    8.70
   5   0   8  185.38    9.70
   5   0   8  176.68    8.90
   5   0   8  175.68    9.40
   5   0   8  173.98    8.30
   5   0   8  189.58    9.20
  -6   0  -8    4.50    2.60
  -6   0  -8    7.10    2.70
  -6   0  -8    2.70    3.00
  -6   0  -8    1.30    2.80
  -6   0  -8   -0.40    2.20
  -6   0  -8    2.50    2.30
   6   0   8    1.90    2.80
   6   0   8    1.50    2.70
   6   0   8   -0.40    2.00
   6   0   8    2.40    2.40
   6   0   8    5.60    2.90
  -7   0  -8  165.68    8.20
  -7   0  -8  175.48    8.90
  -7   0  -8  173.28    9.00
   7   0   8  169.28    8.50
   7   0   8  171.98    8.60
   7   0   8  156.68    7.70
   7   0   8  167.98    8.30
   5  -1  -8    0.00    2.20
   5  -1  -8    1.80    1.70
   5  -1  -8    3.00    2.20
  -5   1   8    1.40    1.70
  -5   1   8   -0.80    1.90
  -5   1   8   -0.20    2.00
   4  -1  -8   49.70    4.20
   4  -1  -8   45.30    4.60
   4  -1  -8   51.29    4.80
  -4   1   8   30.40    3.30
  -4   1   8   39.80    4.30
  -4   1   8   46.80    4.20
   3  -1  -8   33.50    3.50
   3  -1  -8   52.79    5.40
   3  -1  -8   43.30    4.70
  -3   1   8   46.30    4.20
  -3   1   8   52.39    4.70
  -3   1   8   47.60    5.20
  -3   1   8   39.70    3.70
  -3   1   8   50.89    4.40
   2  -1  -8  133.59    8.10
   2  -1  -8  128.39    6.80
   2  -1  -8  135.39    7.80
   2  -1  -8  132.69    7.40
   2  -1  -8  119.69    7.30
  -2   1   8  142.49    8.50
  -2   1   8  134.99    6.70
  -2   1   8  142.79    7.40
  -2   1   8  121.89    7.40
  -2   1   8  137.59    7.00
  -2   1   8  129.49    6.60
   1  -1  -8  515.95   20.30
   1  -1  -8  517.35   20.10
   1  -1  -8  487.35   20.40
   1  -1  -8  492.15   20.30
  -1   1   8  478.95   19.80
  -1   1   8  498.55   20.50
  -1   1   8  505.65   19.50
  -1   1   8  508.25   19.50
  -1   1   8  475.25   19.00
  -1   1   8  500.25   19.90
  -1   1   8  537.05   19.90
  -1   1   8  484.45   20.00
  -1   1   8  457.45   19.90
   0  -1  -8  106.59    6.50
   0  -1  -8  102.89    6.10
   0  -1  -8  107.99    6.00
   0  -1  -8  114.09    5.60
   0  -1  -8  104.49    6.30
   0   1   8  117.49    6.10
   0   1   8  111.29    5.60
   0   1   8  101.89    6.60
   0   1   8   97.59    4.90
   0   1   8  101.89    5.70
   0   1   8   97.89    5.10
   0   1   8  107.69    6.30
   0   1   8  103.79    5.30
   0   1   8   99.29    5.60
  -1  -1  -8  105.59    5.30
  -1  -1  -8   98.89    5.20
  -1  -1  -8   93.79    6.10
  -1  -1  -8   87.79    5.50
  -1  -1  -8  102.09    5.50
  -1  -1  -8   88.59    5.80
   1   1   8  105.49    5.70
   1   1   8  102.19    5.40
   1   1   8   92.39    6.00
   1   1   8   94.19    5.30
   1   1   8   86.69    4.70
   1   1   8   95.89    5.90
   1   1   8   94.79    4.70
   1   1   8   99.39    4.70
   1   1   8   95.79    4.60
   1   1   8   96.89    5.10
   1   1   8   97.59    5.60
  -2  -1  -8   -0.90    2.70
  -2  -1  -8    4.90    2.20
  -2  -1  -8    4.50    2.10
  -2  -1  -8    4.80    1.70
  -2  -1  -8    5.50    2.30
  -2  -1  -8    5.00    1.80
  -2  -1  -8    6.20    2.30
  -2  -1  -8    4.60    2.40
   2   1   8    3.40    1.60
   2   1   8    8.10    2.00
   2   1   8    7.00    2.00
   2   1   8    6.30    2.10
   2   1   8    5.30    2.20
   2   1   8    5.00    1.40
   2   1   8    4.80    2.50
   2   1   8    5.40    2.30
  -3  -1  -8  587.14   22.30
  -3  -1  -8  596.44   22.20
  -3  -1  -8  562.64   22.20
  -3  -1  -8  541.05   22.60
  -3  -1  -8  570.94   22.80
  -3  -1  -8  537.95   23.20
  -3  -1  -8  521.65   22.70
   3   1   8  602.24   22.60
   3   1   8  585.94   22.00
   3   1   8  558.74   23.80
   3   1   8  576.74   22.20
   3   1   8  580.34   22.80
   3   1   8  567.74   22.40
   3   1   8  547.25   22.50
   3   1   8  555.54   21.40
   3   1   8  607.34   22.80
  -4  -1  -8    8.70    2.70
  -4  -1  -8   10.10    2.50
  -4  -1  -8    8.40    2.80
  -4  -1  -8    6.50    2.60
  -4  -1  -8    7.70    2.30
  -4  -1  -8   10.80    2.70
  -4  -1  -8    3.50    2.80
   4   1   8   11.10    2.50
   4   1   8    1.80    3.20
   4   1   8   10.50    2.80
   4   1   8   10.00    2.60
   4   1   8   12.20    2.60
   4   1   8    9.90    2.10
   4   1   8   12.10    2.40
   4   1   8   10.30    3.10
   4   1   8   10.60    2.50
  -5  -1  -8    7.90    2.90
  -5  -1  -8   13.10    2.70
  -5  -1  -8   10.00    2.50
  -5  -1  -8   11.30    3.20
  -5  -1  -8   18.20    4.10
  -5  -1  -8   10.10    2.90
   5   1   8   11.90    2.80
   5   1   8   15.30    3.20
   5   1   8   12.00    2.50
   5   1   8   12.30    2.60
   5   1   8   14.40    3.40
   5   1   8    8.90    2.60
  -6  -1  -8   33.40    3.90
  -6  -1  -8   44.90    4.40
  -6  -1  -8   41.50    4.80
  -6  -1  -8   49.60    5.10
   6   1   8   39.70    4.40
   6   1   8   45.70    4.30
   6   1   8   32.90    3.50
   6   1   8   40.20    4.50
  -7  -1  -8    8.10    3.20
  -7  -1  -8    8.10    2.60
  -7  -1  -8    8.70    2.90
   7   1   8   10.40    2.60
   7   1   8   10.30    2.90
   7   1   8    5.50    2.90
  -8  -1  -8   43.60    3.90
  -8  -1  -8   51.09    4.30
   8   1   8   46.30    3.40
   5  -2  -8    0.00    1.90
   5  -2  -8    4.70    1.90
   5  -2  -8    2.20    2.30
  -5   2   8    1.00    2.50
  -5   2   8    3.50    2.10
   4  -2  -8   22.00    3.60
   4  -2  -8   13.00    2.70
   4  -2  -8   12.90    3.10
  -4   2   8   14.80    3.10
  -4   2   8   10.90    2.90
  -4   2   8   19.80    3.90
   3  -2  -8    9.40    3.10
   3  -2  -8   10.80    3.20
   3  -2  -8    4.90    2.30
  -3   2   8    9.30    3.20
  -3   2   8   13.30    2.70
  -3   2   8   14.30    4.20
   2  -2  -8   37.30    4.10
   2  -2  -8   50.09    5.10
   2  -2  -8   31.60    3.40
   2  -2  -8   43.70    4.40
  -2   2   8   38.60    3.70
  -2   2   8   44.50    3.70
  -2   2   8   43.10    4.10
  -2   2   8   51.39    5.50
  -2   2   8   36.50    3.50
  -2   2   8   38.70    3.30
   1  -2  -8  144.79    7.30
   1  -2  -8  150.68    8.30
   1  -2  -8  159.08    7.90
   1  -2  -8  151.28    7.90
   1  -2  -8  150.98    8.50
   1  -2  -8  154.28    8.20
  -1   2   8  150.28    7.40
  -1   2   8  149.49    6.70
  -1   2   8  155.38    7.20
  -1   2   8  145.19    7.80
  -1   2   8  151.78    7.60
  -1   2   8  158.78    7.40
  -1   2   8  147.29    8.30
  -1   2   8  144.19    7.40
  -1   2   8  145.79    6.80
   0  -2  -8  137.39    7.80
   0  -2  -8  137.29    7.10
   0  -2  -8  122.59    6.50
   0  -2  -8  129.89    7.50
   0  -2  -8  142.49    6.60
   0  -2  -8  133.49    6.90
   0  -2  -8  130.29    7.60
   0   2   8  133.29    6.40
   0   2   8  131.39    6.70
   0   2   8  142.89    6.70
   0   2   8  128.49    6.70
   0   2   8  137.79    6.00
   0   2   8  121.29    7.20
   0   2   8  132.39    6.30
   0   2   8  123.49    6.80
   0   2   8  131.19    6.00
  -1  -2  -8   14.10    2.20
  -1  -2  -8   13.10    2.90
  -1  -2  -8   15.80    3.40
  -1  -2  -8   12.60    3.00
  -1  -2  -8   16.20    2.50
   1   2   8   12.90    2.80
   1   2   8   13.70    4.50
   1   2   8   14.00    1.80
   1   2   8   17.90    2.30
   1   2   8   16.40    2.30
   1   2   8   15.30    2.40
   1   2   8   14.50    2.30
   1   2   8   19.40    2.70
   1   2   8   14.00    1.80
   1   2   8   18.30    2.70
  -2  -2  -8   -0.10    2.70
  -2  -2  -8    2.30    1.70
  -2  -2  -8    0.70    1.50
  -2  -2  -8    2.30    2.10
  -2  -2  -8    1.80    1.80
  -2  -2  -8    2.80    2.10
  -2  -2  -8    1.60    2.50
  -2  -2  -8   -0.60    1.80
   2   2   8    0.50    1.50
   2   2   8    4.70    2.00
   2   2   8    1.80    2.10
   2   2   8    5.30    1.80
   2   2   8    3.40    1.50
   2   2   8   -1.60    2.10
   2   2   8    2.80    1.50
   2   2   8    2.80    2.00
   2   2   8    4.00    1.80
   2   2   8    2.40    1.40
   2   2   8    1.10    1.30
  -3  -2  -8   23.10    3.20
  -3  -2  -8   26.10    3.50
  -3  -2  -8   24.50    3.90
  -3  -2  -8   26.70    2.80
  -3  -2  -8   29.70    3.80
  -3  -2  -8   23.70    3.60
  -3  -2  -8   24.80    3.10
  -3  -2  -8   27.80    3.40
  -3  -2  -8   22.50    2.70
   3   2   8   30.00    3.00
   3   2   8   31.10    3.60
   3   2   8   27.50    2.30
   3   2   8   29.00    4.10
   3   2   8   28.50    2.60
   3   2   8   32.30    3.50
   3   2   8   34.80    3.10
   3   2   8   29.00    3.30
   3   2   8   32.70    3.30
   3   2   8   29.50    3.30
  -4  -2  -8   36.70    3.90
  -4  -2  -8   40.90    3.80
  -4  -2  -8   38.20    4.30
  -4  -2  -8   44.50    4.40
  -4  -2  -8   41.90    3.90
  -4  -2  -8   42.00    4.10
  -4  -2  -8   41.80    4.20
   4   2   8   41.80    3.90
   4   2   8   42.20    3.80
   4   2   8   42.10    4.20
   4   2   8   44.10    4.30
   4   2   8   36.10    3.00
   4   2   8   40.00    3.80
   4   2   8   40.40    4.00
   4   2   8   43.10    6.20
   4   2   8   42.80    3.60
   4   2   8   45.50    3.10
  -5  -2  -8   75.59    5.00
  -5  -2  -8   68.69    6.90
  -5  -2  -8   76.69    5.10
  -5  -2  -8   65.19    5.30
  -5  -2  -8   79.59    5.90
  -5  -2  -8   78.39    5.60
  -5  -2  -8   82.59    6.20
  -5  -2  -8   74.69    5.40
   5   2   8   77.99    4.10
   5   2   8   70.49    5.20
   5   2   8   78.09    5.60
   5   2   8   73.59    4.90
   5   2   8   77.89    6.20
   5   2   8   76.09    5.00
   5   2   8   71.89    6.30
   5   2   8   83.29    5.60
  -6  -2  -8    9.60    3.20
  -6  -2  -8    8.60    3.40
  -6  -2  -8    7.70    3.20
  -6  -2  -8    8.50    3.20
   6   2   8   11.90    3.20
   6   2   8   10.90    2.80
   6   2   8    4.50    2.30
   6   2   8    8.30    3.00
  -7  -2  -8   40.20    3.80
  -7  -2  -8   24.10    3.50
  -7  -2  -8   36.20    3.70
  -7  -2  -8   36.20    4.50
   7   2   8   42.50    3.80
   7   2   8   37.60    4.00
   7   2   8   29.70    3.40
  -8  -2  -8    4.70    2.30
  -8  -2  -8    2.40    2.30
  -8  -2  -8    2.80    2.00
   8   2   8    3.10    1.90
   8   2   8    4.10    1.80
  -5   3   8    1.40    2.20
   4  -3  -8   72.89    5.20
   4  -3  -8   77.09    5.60
   4  -3  -8   85.79    5.30
  -4   3   8   76.59    5.60
  -4   3   8   78.99    6.00
   3  -3  -8    5.70    2.40
   3  -3  -8    9.30    3.00
   3  -3  -8   11.00    3.50
  -3   3   8    9.20    1.90
  -3   3   8   10.90    3.70
  -3   3   8   11.00    2.50
  -3   3   8    5.60    2.80
   2  -3  -8  350.46   15.40
   2  -3  -8  333.17   14.40
   2  -3  -8  314.07   14.30
  -2   3   8  351.26   14.20
  -2   3   8  344.97   15.30
  -2   3   8  331.87   14.00
  -2   3   8  316.87   14.20
  -2   3   8  340.57   13.40
  -2   3   8  316.97   13.40
  -2   3   8  335.17   14.30
   1  -3  -8    0.40    2.70
   1  -3  -8   -0.30    2.00
   1  -3  -8    4.30    2.40
   1  -3  -8    3.40    3.50
   1  -3  -8   -0.20    2.30
  -1   3   8    1.30    2.20
  -1   3   8    2.10    1.90
  -1   3   8    1.30    1.80
  -1   3   8    1.00    3.40
  -1   3   8    3.40    1.80
  -1   3   8   -1.00    1.80
  -1   3   8    2.00    1.90
   0  -3  -8   32.20    4.00
   0  -3  -8   42.50    3.90
   0  -3  -8   38.50    3.90
   0  -3  -8   39.80    3.60
   0  -3  -8   34.80    4.00
   0  -3  -8   33.70    4.70
   0   3   8   41.00    3.70
   0   3   8   37.30    3.50
   0   3   8   32.30    3.30
   0   3   8   38.00    3.30
   0   3   8   42.80    4.30
   0   3   8   42.10    3.30
   0   3   8   36.20    3.00
   0   3   8   40.10    3.20
   0   3   8   39.50    3.70
  -1  -3  -8   17.80    2.60
  -1  -3  -8   24.90    3.60
  -1  -3  -8   18.80    2.80
  -1  -3  -8   19.90    3.50
  -1  -3  -8   21.00    3.90
  -1  -3  -8   23.80    3.00
  -1  -3  -8   21.30    3.40
  -1  -3  -8   24.80    2.80
  -1  -3  -8   23.60    3.00
   1   3   8   24.10    2.90
   1   3   8   20.70    2.60
   1   3   8   19.70    2.10
   1   3   8   24.00    2.30
   1   3   8   27.90    3.00
   1   3   8   28.80    3.40
   1   3   8   27.50    2.80
  -2  -3  -8    2.90    2.90
  -2  -3  -8   -2.70    1.70
  -2  -3  -8    0.10    1.90
  -2  -3  -8    3.10    2.00
  -2  -3  -8    1.60    1.90
  -2  -3  -8   -0.20    2.20
  -2  -3  -8    1.00    2.50
  -2  -3  -8    1.70    2.60
  -2  -3  -8    0.50    2.00
  -2  -3  -8    2.10    2.80
   2   3   8   -1.30    1.40
   2   3   8   -0.20    1.40
   2   3   8   -1.60    1.30
   2   3   8    1.20    1.80
   2   3   8    2.60    2.10
   2   3   8    1.80    1.80
   2   3   8    0.40    1.80
   2   3   8   -1.20    1.50
   2   3   8    1.70    2.30
   2   3   8   -1.80    1.50
  -3  -3  -8   81.69    5.90
  -3  -3  -8   88.29    4.90
  -3  -3  -8   80.49    5.90
  -3  -3  -8   80.19    5.60
  -3  -3  -8   81.49    4.90
  -3  -3  -8   79.49    5.20
  -3  -3  -8   78.49    6.20
  -3  -3  -8   78.19    5.10
  -3  -3  -8   84.39    6.20
  -3  -3  -8   77.99    6.40
   3   3   8   83.89    5.40
   3   3   8   85.69    5.20
   3   3   8   79.69    5.30
   3   3   8   80.99    4.50
   3   3   8   84.19    4.40
   3   3   8   78.39    4.90
   3   3   8   77.09    6.10
   3   3   8   83.29    4.40
   3   3   8   79.79    5.20
   3   3   8   80.89    5.30
  -4  -3  -8   64.49    6.20
  -4  -3  -8   62.79    4.70
  -4  -3  -8   64.79    5.10
  -4  -3  -8   71.69    4.70
  -4  -3  -8   63.69    5.50
  -4  -3  -8   70.99    6.50
  -4  -3  -8   69.99    4.70
  -4  -3  -8   62.19    5.90
  -4  -3  -8   66.29    5.70
   4   3   8   67.79    4.00
   4   3   8   66.99    4.90
   4   3   8   64.99    5.50
   4   3   8   66.59    4.80
   4   3   8   68.09    4.00
   4   3   8   64.99    4.30
   4   3   8   65.59    5.00
  -5  -3  -8   42.70    4.50
  -5  -3  -8   50.19    4.90
  -5  -3  -8   50.09    4.80
  -5  -3  -8   44.50    4.60
  -5  -3  -8   34.80    5.30
  -5  -3  -8   41.70    4.40
  -5  -3  -8   43.10    4.30
   5   3   8   43.10    4.30
   5   3   8   43.70    4.50
   5   3   8   41.40    3.30
   5   3   8   39.70    4.00
   5   3   8   40.50    3.90
   5   3   8   42.70    3.40
   5   3   8   45.70    4.60
   5   3   8   45.70    4.80
  -6  -3  -8   86.99    6.40
  -6  -3  -8   78.09    6.00
  -6  -3  -8   89.09    6.10
  -6  -3  -8   85.99    6.10
  -6  -3  -8   81.59    6.40
   6   3   8   70.99    5.60
   6   3   8   90.59    6.30
   6   3   8   86.59    5.60
   6   3   8   70.59    6.00
   6   3   8   81.49    4.30
   6   3   8   81.49    5.60
  -7  -3  -8   24.00    3.30
  -7  -3  -8   28.20    4.30
  -7  -3  -8   30.20    3.70
  -7  -3  -8   24.50    3.80
   7   3   8   27.40    3.50
   7   3   8   25.70    3.10
  -8  -3  -8   30.90    3.40
  -8  -3  -8   20.80    2.50
  -8  -3  -8   28.60    3.30
   8   3   8   28.80    3.00
   8   3   8   39.40    3.00
   4  -4  -8    1.70    2.10
   4  -4  -8    4.00    2.30
  -4   4   8    3.60    2.40
  -4   4   8    2.70    2.80
   3  -4  -8    0.80    2.70
   3  -4  -8   -1.10    1.80
   3  -4  -8   -0.90    2.30
  -3   4   8   -0.30    1.70
  -3   4   8    0.30    2.60
  -3   4   8    3.60    3.30
   2  -4  -8   40.30    5.20
   2  -4  -8   40.20    3.90
   2  -4  -8   39.60    4.70
   2  -4  -8   38.00    3.90
  -2   4   8   46.60    4.40
  -2   4   8   48.60    3.70
  -2   4   8   53.69    5.60
  -2   4   8   42.80    3.50
  -2   4   8   47.60    4.10
   1  -4  -8  330.67   15.70
   1  -4  -8  342.07   14.40
   1  -4  -8  334.27   15.10
   1  -4  -8  343.57   15.80
   1  -4  -8  349.96   15.60
   1  -4  -8  332.27   15.80
   1  -4  -8  312.77   13.80
  -1   4   8  352.66   14.30
  -1   4   8  341.77   13.60
  -1   4   8  337.67   14.20
  -1   4   8  315.67   14.20
  -1   4   8  322.77   14.00
  -1   4   8  332.57   15.10
  -1   4   8  332.37   13.40
   0  -4  -8   31.70    4.80
   0  -4  -8   19.90    4.20
   0  -4  -8   36.70    4.40
   0  -4  -8   31.70    3.90
   0  -4  -8   23.50    3.30
   0  -4  -8   27.90    4.50
   0  -4  -8   23.00    3.30
   0  -4  -8   26.60    4.00
   0  -4  -8   29.30    3.70
   0  -4  -8   29.30    4.50
   0   4   8   24.20    2.40
   0   4   8   32.30    3.30
   0   4   8   28.90    3.20
   0   4   8   28.80    3.30
   0   4   8   33.10    2.90
   0   4   8   29.10    4.10
   0   4   8   24.00    2.90
  -1  -4  -8   21.70    3.90
  -1  -4  -8   20.90    3.10
  -1  -4  -8   20.80    3.40
  -1  -4  -8   20.30    3.50
  -1  -4  -8   27.80    3.00
  -1  -4  -8   22.20    4.30
  -1  -4  -8   29.90    4.60
  -1  -4  -8   31.60    4.00
  -1  -4  -8   31.90    3.50
  -1  -4  -8   22.90    4.10
  -1  -4  -8   31.30    3.60
   1   4   8   22.90    3.60
   1   4   8   28.30    3.10
   1   4   8   24.80    2.30
   1   4   8   29.70    3.10
   1   4   8   31.70    3.10
   1   4   8   29.20    2.60
   1   4   8   30.00    3.40
  -2  -4  -8    6.40    2.60
  -2  -4  -8    5.80    2.10
  -2  -4  -8    7.50    2.60
  -2  -4  -8    4.10    2.90
  -2  -4  -8    3.20    2.20
  -2  -4  -8    7.90    2.90
  -2  -4  -8    5.20    2.80
  -2  -4  -8    7.50    3.60
  -2  -4  -8    7.10    2.20
  -2  -4  -8    5.50    3.10
  -2  -4  -8    9.90    3.70
   2   4   8    8.80    2.50
   2   4   8    8.00    2.40
   2   4   8    5.60    2.10
   2   4   8    8.50    2.20
   2   4   8    4.30    1.60
   2   4   8    8.60    2.60
   2   4   8    7.60    1.70
  -3  -4  -8   -0.60    2.20
  -3  -4  -8    1.50    3.00
  -3  -4  -8    0.00    2.50
  -3  -4  -8   -0.30    2.80
  -3  -4  -8    1.40    2.20
  -3  -4  -8   -1.00    3.00
  -3  -4  -8    1.70    3.40
  -3  -4  -8    1.60    2.40
  -3  -4  -8    1.10    2.50
  -3  -4  -8   -1.00    1.90
  -3  -4  -8    3.90    3.50
   3   4   8   -0.80    1.40
   3   4   8    0.30    2.00
   3   4   8    2.00    1.50
   3   4   8    1.60    2.00
   3   4   8    0.50    1.70
   3   4   8    0.10    2.70
   3   4   8    1.80    2.20
   3   4   8    0.40    1.60
  -4  -4  -8    8.40    3.00
  -4  -4  -8    7.90    2.80
  -4  -4  -8    8.00    4.00
  -4  -4  -8    8.10    3.50
  -4  -4  -8    5.00    2.90
  -4  -4  -8    8.70    2.80
  -4  -4  -8    6.30    3.90
  -4  -4  -8    6.10    2.20
  -4  -4  -8    5.80    2.40
   4   4   8    9.70    1.90
   4   4   8    6.50    2.00
   4   4   8    7.70    1.80
   4   4   8    8.60    2.60
   4   4   8    6.70    2.40
   4   4   8    7.50    2.20
   4   4   8   10.30    3.40
  -5  -4  -8   39.20    5.60
  -5  -4  -8   39.60    3.90
  -5  -4  -8   50.99    5.20
  -5  -4  -8   35.10    4.20
  -5  -4  -8   39.70    5.30
  -5  -4  -8   36.80    4.30
  -5  -4  -8   41.60    4.40
  -5  -4  -8   46.40    4.90
   5   4   8   42.00    4.10
   5   4   8   49.00    4.60
   5   4   8   40.00    3.60
   5   4   8   41.00    3.50
   5   4   8   38.40    4.30
   5   4   8   33.30    4.20
   5   4   8   43.70    4.20
   5   4   8   45.10    3.40
  -6  -4  -8  100.39    7.90
  -6  -4  -8   99.69    7.00
  -6  -4  -8   95.69    6.10
  -6  -4  -8  100.59    6.60
  -6  -4  -8   97.89    7.00
  -6  -4  -8   91.39    6.60
   6   4   8  106.49    5.10
   6   4   8  108.39    6.10
   6   4   8   99.39    6.20
   6   4   8   97.69    6.30
   6   4   8   96.39    6.60
  -7  -4  -8    9.60    2.40
  -7  -4  -8   14.40    3.20
  -7  -4  -8   13.00    3.40
  -7  -4  -8   17.00    3.40
   7   4   8   12.20    2.50
   7   4   8    7.60    2.60
   7   4   8    7.20    2.20
  -8  -4  -8    5.00    3.60
   8   4   8    7.10    1.90
   4  -5  -8    8.20    2.70
  -4   5   8   12.00    2.90
   3  -5  -8   49.60    4.20
   3  -5  -8   38.80    5.00
  -3   5   8   47.90    4.30
  -3   5   8   51.69    3.30
  -3   5   8   51.09    5.00
   2  -5  -8   12.40    3.30
   2  -5  -8   20.40    3.30
   2  -5  -8   14.70    4.30
   2  -5  -8   20.80    3.90
   2  -5  -8   15.60    4.20
  -2   5   8   11.20    2.40
  -2   5   8   12.70    2.80
  -2   5   8   17.90    2.30
  -2   5   8   18.00    2.60
  -2   5   8   19.80    4.30
   1  -5  -8   61.99    6.70
   1  -5  -8   67.19    6.30
   1  -5  -8   61.39    6.20
   1  -5  -8   46.40    5.30
   1  -5  -8   60.19    5.10
   1  -5  -8   67.79    6.50
   1  -5  -8   61.29    6.50
  -1   5   8   62.59    4.50
  -1   5   8   60.19    6.10
  -1   5   8   66.69    4.40
  -1   5   8   60.89    4.10
  -1   5   8   52.89    4.40
   0  -5  -8    6.20    4.00
   0  -5  -8    1.90    3.20
   0  -5  -8    0.30    3.20
   0  -5  -8    6.20    4.10
   0  -5  -8   -0.10    2.90
   0  -5  -8    0.10    3.50
   0  -5  -8    0.10    2.90
   0  -5  -8    2.70    2.50
   0   5   8    4.10    1.90
   0   5   8    1.00    1.70
   0   5   8    1.70    2.00
   0   5   8    2.00    3.60
   0   5   8    1.20    2.20
  -1  -5  -8   30.20    4.10
  -1  -5  -8   28.90    4.90
  -1  -5  -8   24.00    4.70
  -1  -5  -8   20.30    3.50
  -1  -5  -8   25.30    4.00
  -1  -5  -8   29.50    4.90
  -1  -5  -8   19.40    3.40
  -1  -5  -8   22.50    4.60
   1   5   8   26.90    2.60
   1   5   8   21.30    2.90
   1   5   8   20.90    2.30
   1   5   8   22.60    2.80
  -2  -5  -8   54.69    5.70
  -2  -5  -8   61.19    5.10
  -2  -5  -8   64.39    6.30
  -2  -5  -8   59.39    5.70
  -2  -5  -8   45.20    5.40
  -2  -5  -8   65.79    5.00
  -2  -5  -8   59.79    6.40
  -2  -5  -8   57.29    6.00
   2   5   8   61.29    3.80
   2   5   8   59.59    4.90
   2   5   8   49.99    3.60
   2   5   8   55.49    4.40
   2   5   8   61.29    4.50
  -3  -5  -8   26.30    3.90
  -3  -5  -8   24.00    4.60
  -3  -5  -8   18.30    3.30
  -3  -5  -8   22.00    3.70
  -3  -5  -8   25.30    4.70
  -3  -5  -8   29.90    5.00
  -3  -5  -8   31.50    4.80
  -3  -5  -8   21.90    3.80
   3   5   8   26.50    2.50
   3   5   8   20.20    2.30
   3   5   8   21.70    3.20
   3   5   8   25.50    3.20
  -4  -5  -8    4.70    4.40
  -4  -5  -8    6.10    3.70
  -4  -5  -8    9.60    3.20
  -4  -5  -8    8.80    3.20
  -4  -5  -8    7.40    3.60
  -4  -5  -8    8.50    3.30
  -4  -5  -8    8.40    4.20
  -4  -5  -8    6.40    2.80
   4   5   8    4.80    1.80
   4   5   8    5.40    2.30
   4   5   8   10.80    2.20
   4   5   8    6.10    1.80
   4   5   8    5.50    2.60
  -5  -5  -8   24.70    3.90
  -5  -5  -8   17.20    3.40
  -5  -5  -8   16.80    4.30
  -5  -5  -8   25.30    4.70
  -5  -5  -8   19.50    4.90
  -5  -5  -8   22.10    3.80
   5   5   8   20.40    3.20
   5   5   8   17.50    2.80
   5   5   8   14.20    3.30
   5   5   8   20.60    2.40
   5   5   8   17.00    2.30
   5   5   8   15.80    2.80
   5   5   8   16.60    3.40
  -6  -5  -8    9.70    3.90
  -6  -5  -8    6.80    3.00
  -6  -5  -8    3.90    3.00
  -6  -5  -8    6.80    3.00
   6   5   8    7.30    2.40
   6   5   8    6.70    2.70
   6   5   8    7.10    1.80
   6   5   8    6.60    1.80
  -7  -5  -8    7.70    3.30
  -7  -5  -8    7.20    2.70
  -7  -5  -8    6.90    2.70
   7   5   8    6.00    2.30
   7   5   8   10.20    1.50
   7   5   8    5.70    2.10
   3  -6  -8   -0.10    2.40
   3  -6  -8   -1.00    1.70
  -3   6   8    0.70    1.30
  -3   6   8   -2.30    2.20
   2  -6  -8  107.89    6.30
   2  -6  -8  112.29    7.00
   2  -6  -8   93.09    7.30
   2  -6  -8   92.69    6.90
  -2   6   8  103.19    6.80
  -2   6   8  111.89    5.50
  -2   6   8  109.49    5.30
   1  -6  -8   -0.50    3.30
   1  -6  -8   -0.40    2.90
   1  -6  -8    0.30    3.60
   1  -6  -8    3.40    4.00
   1  -6  -8    0.20    2.70
   1  -6  -8    3.10    3.50
  -1   6   8   -0.30    3.50
  -1   6   8    2.20    2.00
  -1   6   8   -0.20    1.80
  -1   6   8    1.60    2.10
   0  -6  -8  286.87   13.30
   0  -6  -8  286.77   14.40
   0  -6  -8  297.77   14.40
   0  -6  -8  286.67   14.40
   0  -6  -8  292.27   13.90
   0  -6  -8  290.67   13.50
   0  -6  -8  286.77   14.00
   0   6   8  280.27   12.50
   0   6   8  284.07   11.70
   0   6   8  272.17   11.60
  -1  -6  -8  103.49    8.20
  -1  -6  -8  103.49    7.90
  -1  -6  -8   89.09    6.80
  -1  -6  -8   98.79    8.10
  -1  -6  -8  100.49    8.30
  -1  -6  -8  101.89    7.60
  -1  -6  -8   98.79    6.60
   1   6   8  100.29    6.00
   1   6   8   95.89    5.20
  -2  -6  -8    2.10    2.60
  -2  -6  -8    0.30    4.00
  -2  -6  -8   -1.20    4.10
  -2  -6  -8    1.40    3.90
  -2  -6  -8   -2.30    3.10
  -2  -6  -8    0.20    2.40
  -2  -6  -8    4.40    4.30
   2   6   8    1.10    1.60
   2   6   8    1.20    2.70
   2   6   8    0.50    1.90
  -3  -6  -8   17.70    4.60
  -3  -6  -8   21.60    3.80
  -3  -6  -8   24.00    5.00
  -3  -6  -8   14.60    3.50
  -3  -6  -8   18.70    4.70
  -3  -6  -8   18.50    4.50
  -3  -6  -8   19.00    3.80
   3   6   8   14.60    2.90
   3   6   8   19.20    3.10
   3   6   8   20.40    2.30
  -4  -6  -8    2.40    3.00
  -4  -6  -8    5.50    4.20
  -4  -6  -8    1.40    2.80
  -4  -6  -8    6.30    4.00
  -4  -6  -8    5.70    3.10
  -4  -6  -8   12.50    4.60
  -4  -6  -8    5.20    3.50
   4   6   8    3.30    2.40
   4   6   8    3.40    1.70
   4   6   8   -0.20    2.10
   4   6   8    6.60    1.80
  -5  -6  -8  153.48    9.60
  -5  -6  -8  167.68    9.40
  -5  -6  -8  162.08    9.90
  -5  -6  -8  170.78    9.10
  -5  -6  -8  165.78    8.80
  -5  -6  -8  166.78   10.30
   5   6   8  147.79    8.50
   5   6   8  169.58    8.60
   5   6   8  170.98    7.40
   5   6   8  174.28    7.40
   5   6   8  146.79    8.00
  -6  -6  -8   45.50    5.70
  -6  -6  -8   47.20    4.70
  -6  -6  -8   64.59    5.40
  -6  -6  -8   66.39    6.00
   6   6   8   48.30    3.60
   6   6   8   57.59    3.60
  -7  -6  -8   34.20    4.00
  -7  -6  -8   29.40    3.30
   7   6   8   25.90    2.20
   2  -7  -8    2.90    2.60
   2  -7  -8   -2.30    2.40
  -2   7   8    4.00    1.40
  -2   7   8    1.30    1.80
   1  -7  -8   54.69    6.00
   1  -7  -8   66.99    5.70
   1  -7  -8   63.69    6.10
   1  -7  -8   57.09    5.80
  -1   7   8   64.59    3.70
  -1   7   8   64.99    4.00
  -1   7   8   50.69    4.80
   0  -7  -8    7.90    4.00
   0  -7  -8    8.60    4.10
   0  -7  -8    4.30    3.10
   0  -7  -8   14.30    4.40
   0   7   8    4.70    1.80
   0   7   8    4.00    1.60
  -1  -7  -8   -2.90    2.80
  -1  -7  -8    4.10    3.00
  -1  -7  -8    7.70    4.30
  -1  -7  -8    8.60    4.50
  -1  -7  -8    4.90    4.20
  -1  -7  -8    6.20    4.10
   1   7   8    4.10    1.80
   1   7   8    7.30    2.20
  -2  -7  -8   13.40    3.40
  -2  -7  -8   21.30    4.90
  -2  -7  -8   15.20    4.90
  -2  -7  -8   17.70    4.90
  -2  -7  -8   15.10    4.40
   2   7   8   20.60    2.20
  -3  -7  -8   20.70    3.70
  -3  -7  -8    8.70    3.80
  -3  -7  -8   21.90    3.80
  -3  -7  -8   20.00    4.80
  -3  -7  -8   18.80    4.90
  -3  -7  -8   15.70    4.70
   3   7   8   14.10    2.00
   3   7   8   12.60    2.40
  -4  -7  -8   48.70    5.90
  -4  -7  -8   40.80    5.40
  -4  -7  -8   50.19    5.80
  -4  -7  -8   37.60    4.40
   4   7   8   41.90    3.20
   4   7   8   48.40    3.40
  -5  -7  -8   59.69    6.00
  -5  -7  -8   64.79    5.50
  -5  -7  -8   63.49    6.00
  -5  -7  -8   38.80    5.20
   5   7   8   41.30    4.30
   5   7   8   57.99    3.40
   5   7   8   57.19    3.60
  -6  -7  -8   11.70    2.60
  -6  -7  -8    6.40    2.90
  -6  -7  -8    7.00    3.00
   6   7   8   10.80    1.60
   1  -8  -8    0.90    2.20
   1  -8  -8   -4.50    2.30
  -1   8   8   -0.10    1.10
   0  -8  -8   14.70    3.50
   0  -8  -8   17.90    3.10
   0  -8  -8   11.00    3.40
   0  -8  -8   15.50    3.60
   0   8   8   18.10    1.80
  -1  -8  -8   26.10    4.40
  -1  -8  -8   21.20    4.50
  -1  -8  -8   23.20    4.50
  -1  -8  -8   23.60    4.40
   1   8   8   18.80    1.90
  -2  -8  -8   34.70    4.90
  -2  -8  -8   39.60    5.00
  -2  -8  -8   30.10    4.50
  -2  -8  -8   47.20    5.80
   2   8   8   36.10    2.80
  -3  -8  -8    9.50    4.10
  -3  -8  -8    5.70    4.10
  -3  -8  -8    8.50    3.70
  -3  -8  -8    4.00    2.80
   3   8   8    7.10    1.50
  -4  -8  -8   27.10    4.30
  -4  -8  -8   34.20    4.20
  -4  -8  -8   24.90    4.40
  -4  -8  -8   30.60    4.80
   4   8   8   29.10    2.20
   4   8   8   32.00    2.60
  -5  -8  -8    7.20    3.10
  -5  -8  -8   10.20    3.60
  -5  -8  -8    9.30    2.70
   5   8   8   10.50    1.50
  -1  -9  -8   -1.10    3.40
  -1  -9  -8    0.20    3.00
  -2  -9  -8   10.20    2.90
  -2  -9  -8    5.40    2.60
  -3  -9  -8    1.30    2.50
  -3  -9  -8    6.80    3.60
  -2  -6   9    5.00    2.10
   1   6  -9    4.30    2.10
   1   6  -9    3.00    1.70
   1   6  -9    5.30    1.90
  -1  -6   9    3.10    2.60
  -1  -6   9    4.40    2.30
  -1  -6   9    4.80    2.30
   0   6  -9    0.80    1.90
   0   6  -9    1.40    1.20
   0   6  -9    0.70    2.30
   0  -6   9   -1.20    2.10
   0  -6   9    0.60    2.20
   0  -6   9   -2.80    2.60
  -1   6  -9   32.50    2.20
  -1   6  -9   24.40    2.60
  -1   6  -9   37.70    3.50
  -1   6  -9   27.60    3.40
   1  -6   9   21.50    2.90
   1  -6   9   31.20    3.70
  -2   6  -9    0.40    2.30
  -2   6  -9    1.10    1.70
  -2   6  -9    1.50    1.80
  -2   6  -9    1.40    1.00
  -2   6  -9    0.70    1.90
   2  -6   9    2.80    2.00
   2  -6   9    2.80    3.40
   2  -6   9   -0.20    2.00
  -3   6  -9   54.09    4.20
   3  -6   9   60.89    5.40
   3   5  -9    1.20    1.70
   3   5  -9   -0.90    2.10
  -3  -5   9    0.70    1.60
  -3  -5   9    0.10    1.90
   2   5  -9  109.69    5.60
   2   5  -9   94.69    5.90
   2   5  -9   96.39    6.20
  -2  -5   9  104.99    6.00
  -2  -5   9   90.39    8.10
  -2  -5   9   94.29    6.30
  -2  -5   9   83.59    5.70
   1   5  -9    0.70    2.30
   1   5  -9    1.10    1.30
   1   5  -9    2.50    2.70
   1   5  -9    0.40    2.40
  -1  -5   9   -0.80    3.00
  -1  -5   9   -4.40    2.50
  -1  -5   9    0.90    2.90
  -1  -5   9   -1.10    1.80
   0   5  -9   36.40    3.90
   0   5  -9   37.90    2.80
   0   5  -9   41.00    3.70
   0  -5   9   40.30    5.10
   0  -5   9   50.89    4.90
   0  -5   9   34.80    3.80
   0  -5   9   40.10    3.70
  -1   5  -9    0.20    1.40
  -1   5  -9    6.20    3.00
  -1   5  -9    3.30    2.40
   1  -5   9   -0.30    3.40
   1  -5   9    2.70    2.00
   1  -5   9    3.20    2.70
   1  -5   9   -0.70    2.50
   1  -5   9    3.90    3.00
  -2   5  -9    0.50    2.60
  -2   5  -9   -1.50    2.40
  -2   5  -9    1.50    1.30
  -2   5  -9   -0.10    2.70
   2  -5   9   -2.50    2.70
   2  -5   9   -0.20    1.70
   2  -5   9   -2.00    2.40
   2  -5   9    5.90    3.30
   2  -5   9    0.20    2.60
  -3   5  -9   34.60    4.00
  -3   5  -9   26.10    3.20
  -3   5  -9   20.90    2.80
   3  -5   9   21.00    2.70
   3  -5   9   29.30    3.50
   3  -5   9   31.50    3.90
   3  -5   9   39.70    4.70
  -4   5  -9    0.60    2.00
  -4   5  -9   -0.20    2.10
  -4   5  -9   -0.50    2.00
   4  -5   9   -3.00    1.90
   4  -5   9    0.10    2.50
   4   4  -9   38.50    3.10
  -4  -4   9   30.80    3.20
   3   4  -9   40.20    4.10
  -3  -4   9   23.10    2.80
  -3  -4   9   24.80    3.20
  -3  -4   9   33.00    3.40
  -3  -4   9   22.50    3.00
   2   4  -9    8.30    2.90
   2   4  -9    8.10    3.10
   2   4  -9   11.20    2.50
  -2  -4   9    7.60    2.90
  -2  -4   9   12.80    3.30
  -2  -4   9   13.90    3.20
  -2  -4   9    6.20    2.30
  -2  -4   9    9.60    3.40
   1   4  -9   81.59    5.40
   1   4  -9   78.69    6.30
   1   4  -9   71.89    4.00
   1   4  -9   60.99    5.20
   1   4  -9   81.89    6.20
  -1  -4   9   86.19    6.00
  -1  -4   9   79.29    5.90
  -1  -4   9   82.79    5.50
  -1  -4   9   86.79    5.70
  -1  -4   9   80.19    6.50
   0   4  -9    2.00    2.60
   0   4  -9   -0.80    2.40
   0   4  -9    0.70    1.50
   0   4  -9   -2.00    2.40
   0   4  -9    1.80    2.80
   0  -4   9    2.30    2.50
   0  -4   9    1.60    2.20
   0  -4   9    1.40    2.60
   0  -4   9   -1.50    3.00
  -1   4  -9   23.20    3.60
  -1   4  -9   23.10    2.20
  -1   4  -9   28.30    3.50
  -1   4  -9   30.00    3.90
   1  -4   9   31.60    4.40
   1  -4   9   19.90    4.00
   1  -4   9   26.00    3.70
   1  -4   9   24.30    3.30
   1  -4   9   18.60    3.30
  -2   4  -9   21.60    3.60
  -2   4  -9   26.70    3.80
  -2   4  -9   18.90    2.00
  -2   4  -9   16.60    3.60
  -2   4  -9   19.30    3.20
   2  -4   9   14.60    2.80
   2  -4   9   20.60    3.60
   2  -4   9   15.40    3.10
   2  -4   9   16.10    3.70
   2  -4   9   17.20    3.70
  -3   4  -9   23.60    3.90
  -3   4  -9   14.20    3.60
  -3   4  -9   20.40    3.20
  -3   4  -9   26.30    3.80
  -3   4  -9   32.10    3.60
  -3   4  -9   16.00    2.90
   3  -4   9   20.10    3.30
   3  -4   9   13.20    3.10
   3  -4   9   23.50    3.70
   3  -4   9   20.20    3.30
   3  -4   9   27.90    3.90
   3  -4   9   27.00    4.70
  -4   4  -9   34.20    3.50
  -4   4  -9   46.50    4.70
  -4   4  -9   48.20    4.30
   4  -4   9   49.40    5.50
   4  -4   9   36.10    3.90
   4  -4   9   44.00    4.10
   4  -4   9   48.80    4.20
  -5   4  -9    9.80    2.60
  -5   4  -9    9.40    2.40
  -5   4  -9    7.20    2.20
   5  -4   9    6.90    2.10
   5  -4   9    5.30    1.80
   5  -4   9    8.10    2.90
   5  -4   9    9.90    2.20
   4   3  -9   40.00    3.60
   4   3  -9   39.80    4.10
  -4  -3   9   30.40    3.30
  -4  -3   9   37.70    3.60
   3   3  -9    7.30    3.30
   3   3  -9    4.80    2.50
   3   3  -9    6.40    2.60
  -3  -3   9    5.80    2.70
  -3  -3   9    5.30    3.10
  -3  -3   9    3.90    2.20
   2   3  -9   -0.50    2.40
   2   3  -9    1.20    2.40
   2   3  -9   -1.10    2.30
   2   3  -9    0.10    2.90
  -2  -3   9    3.50    2.20
  -2  -3   9    4.10    2.30
  -2  -3   9    2.70    3.20
  -2  -3   9    1.30    3.00
  -2  -3   9    3.80    2.20
  -2  -3   9   -0.40    2.60
   1   3  -9  545.35   21.30
   1   3  -9  443.46   23.20
   1   3  -9  490.35   21.40
   1   3  -9  550.64   21.90
   1   3  -9  553.34   22.40
  -1  -3   9  555.14   21.70
  -1  -3   9  582.74   22.30
  -1  -3   9  529.65   21.40
  -1  -3   9  552.44   22.10
  -1  -3   9  550.04   22.30
  -1  -3   9  520.65   21.40
   0   3  -9  168.38    7.60
   0   3  -9  185.08    9.40
   0   3  -9  176.78    9.50
   0   3  -9  168.98    8.90
   0   3  -9  180.38    8.80
   0  -3   9  177.68    9.80
   0  -3   9  167.98    8.70
   0  -3   9  174.88    9.00
   0  -3   9  182.48    9.30
   0  -3   9  181.68    9.20
   0  -3   9  179.18    8.90
  -1   3  -9   22.00    3.60
  -1   3  -9   20.50    2.10
  -1   3  -9   24.80    3.40
  -1   3  -9   23.90    3.60
  -1   3  -9   23.20    3.80
   1  -3   9   17.10    2.90
   1  -3   9   20.80    3.60
   1  -3   9   21.60    4.10
   1  -3   9   29.10    3.80
   1  -3   9   33.20    4.30
  -2   3  -9   -1.30    2.70
  -2   3  -9   -1.00    2.60
  -2   3  -9   -1.70    2.90
  -2   3  -9   -1.20    1.50
  -2   3  -9    0.60    2.60
  -2   3  -9   -0.20    2.00
   2  -3   9   -2.90    2.40
   2  -3   9   -2.60    2.90
   2  -3   9    0.90    3.10
   2  -3   9    2.40    2.30
  -3   3  -9   38.30    4.10
  -3   3  -9   38.00    4.20
  -3   3  -9   49.30    5.00
  -3   3  -9   47.00    4.70
  -3   3  -9   45.00    3.90
  -3   3  -9   43.70    4.20
   3  -3   9   32.60    3.80
   3  -3   9   44.60    4.70
   3  -3   9   33.90    4.50
   3  -3   9   44.80    4.00
   3  -3   9   62.39    5.50
  -4   3  -9  134.59    7.90
  -4   3  -9  108.49    6.40
  -4   3  -9  108.89    7.00
  -4   3  -9  129.29    7.40
  -4   3  -9  133.99    7.20
  -4   3  -9  126.29    6.90
   4  -3   9  128.49    7.40
   4  -3   9  116.59    7.00
   4  -3   9  106.09    6.50
   4  -3   9  125.39    7.30
  -5   3  -9   57.19    4.90
  -5   3  -9   51.59    4.60
  -5   3  -9   56.99    5.30
   5  -3   9   51.69    4.70
   5  -3   9   46.20    4.20
   5  -3   9   46.70    4.50
   5  -3   9   53.89    5.40
  -6   3  -9   50.49    3.80
  -6   3  -9   57.89    4.00
   6  -3   9   53.49    3.80
   6  -3   9   48.90    4.10
   6  -3   9   52.19    4.20
   6  -3   9   49.30    4.30
   4   2  -9   -2.20    2.10
   4   2  -9    0.30    2.40
   4   2  -9    1.40    2.30
  -4  -2   9    1.60    1.80
  -4  -2   9    0.60    2.00
  -4  -2   9    0.90    2.50
   3   2  -9   57.79    5.20
   3   2  -9   45.40    4.80
   3   2  -9   35.60    3.70
  -3  -2   9   43.30    4.50
  -3  -2   9   46.00    4.10
  -3  -2   9   43.40    4.70
  -3  -2   9   34.20    3.60
   2   2  -9  189.88   10.00
   2   2  -9  167.18    9.30
   2   2  -9  180.58    8.80
  -2  -2   9  174.08    9.60
  -2  -2   9  174.58    9.20
  -2  -2   9  172.38    8.60
  -2  -2   9  196.88   10.10
  -2  -2   9  176.28    8.80
   1   2  -9  113.69    7.20
   1   2  -9  134.79    7.50
   1   2  -9  124.69    7.00
   1   2  -9  135.89    8.30
  -1  -2   9  136.99    8.30
  -1  -2   9  139.69    7.80
  -1  -2   9  138.79    7.20
  -1  -2   9  141.49    8.50
   0   2  -9  216.28   10.00
   0   2  -9  218.08   10.90
   0   2  -9  220.88   10.40
   0   2  -9  210.38   10.20
   0  -2   9  194.98    9.80
   0  -2   9  218.48   10.50
   0  -2   9  228.48   10.90
   0  -2   9  213.38   10.30
   0  -2   9  218.08   10.90
   0  -2   9  211.28   10.00
   0  -2   9  208.48    9.70
  -1   2  -9    0.90    2.60
  -1   2  -9    1.30    2.40
  -1   2  -9    1.90    2.80
  -1   2  -9   -1.10    1.70
  -1   2  -9    0.80    2.60
   1  -2   9   -2.00    2.80
   1  -2   9   -0.50    1.50
   1  -2   9    3.00    3.00
   1  -2   9   -0.10    2.10
   1  -2   9   -0.90    2.50
   1  -2   9    0.90    2.10
  -2   2  -9    0.20    2.60
  -2   2  -9   -0.50    1.80
  -2   2  -9   -2.80    2.40
  -2   2  -9   -2.30    2.20
  -2   2  -9   -0.50    2.00
  -2   2  -9   -0.50    2.80
  -2   2  -9    2.20    2.40
   2  -2   9   -0.30    1.90
   2  -2   9    0.30    2.40
   2  -2   9   -0.20    2.50
   2  -2   9    2.10    3.10
   2  -2   9   -0.30    2.20
   2  -2   9    0.20    1.80
  -3   2  -9   -2.30    2.30
  -3   2  -9    0.40    2.60
  -3   2  -9    0.50    2.10
  -3   2  -9    0.00    2.10
  -3   2  -9    3.40    3.00
  -3   2  -9    2.70    2.60
  -3   2  -9    0.70    2.60
   3  -2   9    1.30    2.50
   3  -2   9    0.90    1.70
   3  -2   9    3.50    2.70
   3  -2   9    3.50    2.30
   3  -2   9    4.50    3.20
   3  -2   9    0.40    3.20
  -4   2  -9    6.70    2.60
  -4   2  -9    2.30    2.70
  -4   2  -9    0.10    2.80
  -4   2  -9   -0.80    2.10
  -4   2  -9    1.90    2.90
  -4   2  -9   -0.40    2.50
   4  -2   9    3.80    3.20
   4  -2   9    0.30    2.00
   4  -2   9    2.90    3.00
   4  -2   9   -1.10    2.80
  -5   2  -9   21.80    3.30
  -5   2  -9   18.40    3.80
  -5   2  -9   12.70    3.00
  -5   2  -9   19.60    3.10
  -5   2  -9   12.10    2.80
   5  -2   9   19.10    3.70
   5  -2   9   11.00    3.10
   5  -2   9   17.80    3.30
  -6   2  -9   11.10    2.60
  -6   2  -9   13.30    3.30
  -6   2  -9   14.00    3.00
   6  -2   9   17.20    3.20
   6  -2   9   11.70    2.50
   6  -2   9   12.70    3.00
   6  -2   9   16.70    3.00
   4   1  -9   27.00    3.80
   4   1  -9   25.40    2.80
   4   1  -9   19.60    3.30
  -4  -1   9   20.70    3.40
  -4  -1   9   17.20    2.90
  -4  -1   9   15.70    2.40
   3   1  -9    7.10    2.70
   3   1  -9    4.00    3.10
   3   1  -9    4.30    3.30
   3   1  -9    4.40    3.00
  -3  -1   9    4.50    2.10
  -3  -1   9    2.20    2.20
  -3  -1   9    7.90    3.50
  -3  -1   9    8.90    3.70
   2   1  -9  258.27   11.00
   2   1  -9  237.98   11.90
   2   1  -9  256.47   12.10
   2   1  -9  212.68   10.90
   2   1  -9  238.78   11.60
  -2  -1   9  251.67   12.00
  -2  -1   9  253.77   11.10
  -2  -1   9  233.28   11.30
  -2  -1   9  228.58   10.90
  -2  -1   9  244.78   12.20
   1   1  -9   41.40    4.30
   1   1  -9   33.70    3.70
   1   1  -9   44.80    4.60
   1   1  -9   35.40    4.30
   1   1  -9   29.80    4.10
  -1  -1   9   31.60    3.70
  -1  -1   9   46.70    4.50
  -1  -1   9   40.20    4.30
  -1  -1   9   44.10    4.00
  -1  -1   9   41.20    5.00
  -1  -1   9   42.10    4.70
   0   1  -9  297.87   12.90
   0   1  -9  290.87   12.80
   0   1  -9  284.47   12.30
   0   1  -9  302.27   13.50
   0  -1   9  290.67   13.50
   0  -1   9  266.87   12.40
   0  -1   9  292.27   12.90
   0  -1   9  293.77   12.50
   0  -1   9  284.77   13.40
   0  -1   9  285.97   12.50
   0  -1   9  304.37   13.10
  -1   1  -9  219.98   10.40
  -1   1  -9  239.08   10.70
  -1   1  -9  256.37   11.30
  -1   1  -9  252.37   11.60
  -1   1  -9  237.78   10.40
  -1   1  -9  245.88   11.30
  -1   1  -9  237.78   11.40
   1  -1   9  234.68   10.70
   1  -1   9  240.68   10.60
   1  -1   9  238.98   10.30
   1  -1   9  249.58   11.20
   1  -1   9  255.37   11.00
   1  -1   9  244.08   11.50
   1  -1   9  231.38   11.60
   1  -1   9  239.78   11.20
  -2   1  -9    3.50    2.40
  -2   1  -9    3.80    2.30
  -2   1  -9    4.70    2.70
  -2   1  -9    3.50    2.50
  -2   1  -9    4.10    2.60
  -2   1  -9    4.60    2.20
  -2   1  -9    4.30    2.80
   2  -1   9    1.70    2.50
   2  -1   9    3.60    2.20
   2  -1   9    4.20    2.30
   2  -1   9    4.80    1.90
   2  -1   9    3.00    2.40
   2  -1   9    1.90    2.60
   2  -1   9    5.60    2.30
   2  -1   9   -0.30    2.30
  -3   1  -9    6.10    2.80
  -3   1  -9    3.30    2.70
  -3   1  -9    4.20    2.30
  -3   1  -9    2.30    2.90
  -3   1  -9    2.90    2.20
  -3   1  -9    4.20    2.50
  -3   1  -9    3.20    2.50
   3  -1   9    4.20    3.10
   3  -1   9    5.60    2.70
   3  -1   9    9.30    2.50
   3  -1   9    6.30    2.10
   3  -1   9    3.40    2.30
   3  -1   9    9.00    3.00
   3  -1   9    4.70    2.40
  -4   1  -9  390.66   17.50
  -4   1  -9  397.26   16.60
  -4   1  -9  383.66   16.70
  -4   1  -9  419.96   17.50
  -4   1  -9  406.96   17.50
  -4   1  -9  396.86   16.70
  -4   1  -9  390.86   16.70
  -4   1  -9  434.56   16.80
   4  -1   9  419.16   17.50
   4  -1   9  364.76   16.80
   4  -1   9  397.96   16.90
   4  -1   9  383.26   16.50
   4  -1   9  418.36   17.30
   4  -1   9  421.26   17.20
  -5   1  -9    0.40    2.90
  -5   1  -9    4.20    2.50
  -5   1  -9    0.50    2.40
  -5   1  -9    1.30    2.60
  -5   1  -9   -0.60    2.20
  -5   1  -9    1.10    3.10
   5  -1   9   -0.30    2.60
   5  -1   9    0.10    2.50
   5  -1   9   -1.20    3.00
   5  -1   9   -1.90    2.50
   5  -1   9    0.80    2.00
  -6   1  -9    8.00    2.50
  -6   1  -9    7.20    3.20
  -6   1  -9    5.20    3.00
  -6   1  -9    7.80    2.80
   6  -1   9    7.40    3.00
   6  -1   9    6.60    2.80
   6  -1   9    4.00    2.90
  -7   1  -9    2.10    2.60
  -7   1  -9    6.50    2.70
  -7   1  -9    2.20    2.00
   7  -1   9    6.30    2.30
   7  -1   9    1.60    2.00
   7  -1   9    4.00    2.20
   4   0  -9    9.70    2.90
   4   0  -9   12.90    3.30
  -4   0   9    6.60    2.60
  -4   0   9    6.30    2.80
  -4   0   9    9.20    2.40
  -4   0   9    9.50    2.30
   3   0  -9  245.98   11.30
   3   0  -9  219.58   11.00
   3   0  -9  242.38   11.80
  -3   0   9  239.58   10.70
  -3   0   9  227.98   10.70
  -3   0   9  225.48   11.60
  -3   0   9  235.38   11.70
   2   0  -9    7.10    2.70
   2   0  -9    2.60    2.80
   2   0  -9   13.20    3.10
   2   0  -9   -0.40    2.90
   2   0  -9   12.30    3.30
  -2   0   9    6.60    2.30
  -2   0   9   11.30    2.50
  -2   0   9    7.30    3.40
  -2   0   9    4.70    3.70
  -2   0   9    8.60    2.90
   1   0  -9  560.04   23.20
   1   0  -9  573.74   22.90
   1   0  -9  571.54   22.30
   1   0  -9  569.04   23.30
   1   0  -9  575.24   23.20
  -1   0   9  541.55   23.30
  -1   0   9  565.94   23.40
  -1   0   9  566.84   22.60
  -1   0   9  598.24   22.70
  -1   0   9  557.94   22.80
  -1   0   9  559.64   22.90
   0   0  -9   23.70    3.50
   0   0  -9   23.40    2.90
   0   0  -9   23.30    3.40
   0   0  -9   21.20    2.80
   0   0  -9   19.90    2.60
   0   0  -9   24.90    3.80
   0   0  -9   21.60    3.10
   0   0   9   24.60    3.50
   0   0   9   24.00    3.30
   0   0   9   24.50    3.40
   0   0   9   30.50    3.40
   0   0   9   27.10    4.00
   0   0   9   19.30    3.60
  -1   0  -9   38.60    3.60
  -1   0  -9   41.20    3.70
  -1   0  -9   40.60    3.60
  -1   0  -9   44.00    4.10
  -1   0  -9   37.50    3.90
  -1   0  -9   43.80    4.30
  -1   0  -9   38.90    4.30
   1   0   9   40.00    3.20
   1   0   9   42.40    4.50
   1   0   9   46.70    4.10
   1   0   9   43.90    4.40
   1   0   9   41.90    3.80
   1   0   9   41.10    3.90
   1   0   9   35.50    4.00
   1   0   9   41.50    3.70
  -2   0  -9   76.59    5.50
  -2   0  -9   84.39    5.20
  -2   0  -9   75.19    5.10
  -2   0  -9   58.49    5.40
  -2   0  -9   75.69    4.80
  -2   0  -9   77.29    4.70
  -2   0  -9   76.49    5.70
  -2   0  -9   73.89    5.80
   2   0   9   76.19    5.50
   2   0   9   76.49    5.00
   2   0   9   65.09    5.90
   2   0   9   70.49    4.40
   2   0   9   82.99    5.20
   2   0   9   78.79    4.80
   2   0   9   77.79    5.60
   2   0   9   82.39    5.50
   2   0   9   74.49    5.60
  -3   0  -9    9.90    3.00
  -3   0  -9   12.50    2.60
  -3   0  -9   13.70    3.10
  -3   0  -9   13.50    2.50
  -3   0  -9   14.10    2.80
  -3   0  -9    9.90    2.70
  -3   0  -9   12.90    2.60
  -3   0  -9    6.40    2.50
   3   0   9   11.80    2.60
   3   0   9   12.00    2.60
   3   0   9   15.80    3.30
   3   0   9   11.10    3.10
   3   0   9   11.30    2.30
   3   0   9   16.50    2.60
   3   0   9   12.90    2.90
   3   0   9   12.90    3.00
  -4   0  -9    8.50    2.70
  -4   0  -9    6.70    2.50
  -4   0  -9    8.10    3.20
  -4   0  -9    5.60    2.40
  -4   0  -9   10.10    2.70
  -4   0  -9    8.80    3.10
   4   0   9    9.50    2.90
   4   0   9   11.20    3.40
   4   0   9    8.70    3.00
   4   0   9    9.00    2.60
   4   0   9   10.10    2.90
   4   0   9    8.20    3.00
   4   0   9    6.20    2.50
   4   0   9   11.90    2.60
  -5   0  -9  328.97   13.70
  -5   0  -9  314.07   13.70
  -5   0  -9  314.17   14.90
  -5   0  -9  326.17   14.60
  -5   0  -9  330.77   14.60
   5   0   9  317.77   14.10
   5   0   9  334.67   14.60
   5   0   9  313.27   13.80
   5   0   9  318.17   14.70
   5   0   9  327.57   14.20
  -6   0  -9  137.19    7.60
  -6   0  -9  130.89    8.00
  -6   0  -9  130.39    7.10
  -6   0  -9  141.09    8.20
   6   0   9  134.89    7.20
   6   0   9  140.79    7.90
   6   0   9  145.69    7.80
   6   0   9  134.89    7.80
  -7   0  -9    0.30    2.20
  -7   0  -9    2.60    2.70
  -7   0  -9    3.00    1.90
   7   0   9    4.00    2.30
   7   0   9    2.00    1.90
   7   0   9    5.50    2.50
   4  -1  -9    3.30    2.90
   4  -1  -9    3.60    2.60
  -4   1   9    2.90    2.30
  -4   1   9   -2.00    2.60
   3  -1  -9   47.90    5.30
   3  -1  -9   41.20    4.50
  -3   1   9   38.00    3.50
  -3   1   9   40.10    4.70
  -3   1   9   28.90    3.30
  -3   1   9   36.60    3.90
   2  -1  -9   -0.10    2.40
   2  -1  -9    0.00    2.80
   2  -1  -9    3.50    3.00
   2  -1  -9    3.60    2.70
  -2   1   9    5.70    3.30
  -2   1   9    0.40    2.90
  -2   1   9    0.10    2.10
  -2   1   9    3.50    2.20
  -2   1   9    6.20    2.80
   1  -1  -9  567.64   22.40
   1  -1  -9  567.54   22.60
   1  -1  -9  561.84   22.90
   1  -1  -9  566.24   22.70
  -1   1   9  556.74   22.40
  -1   1   9  528.25   22.10
  -1   1   9  512.35   21.50
  -1   1   9  547.15   22.20
  -1   1   9  558.94   22.80
  -1   1   9  577.84   22.10
  -1   1   9  532.35   21.50
   0  -1  -9  137.79    7.00
   0  -1  -9  150.38    8.20
   0  -1  -9  136.49    8.10
   0  -1  -9  154.18    7.70
   0  -1  -9  150.88    8.10
   0   1   9  143.99    8.00
   0   1   9  136.89    8.30
   0   1   9  152.98    7.50
   0   1   9  156.88    7.70
   0   1   9  148.79    7.70
   0   1   9  138.19    6.90
  -1  -1  -9   55.29    4.50
  -1  -1  -9   51.59    5.20
  -1  -1  -9   46.40    4.50
  -1  -1  -9   50.59    3.90
  -1  -1  -9   52.79    4.80
  -1  -1  -9   60.09    4.40
  -1  -1  -9   54.79    3.90
   1   1   9   62.39    4.60
   1   1   9   53.09    4.90
   1   1   9   58.29    4.30
   1   1   9   47.10    3.50
   1   1   9   56.29    4.50
   1   1   9   55.29    4.00
   1   1   9   58.59    4.80
   1   1   9   50.69    3.80
  -2  -1  -9  336.97   14.70
  -2  -1  -9  352.46   14.20
  -2  -1  -9  327.77   14.70
  -2  -1  -9  357.36   14.40
  -2  -1  -9  333.47   15.00
  -2  -1  -9  363.26   14.60
   2   1   9  350.76   14.80
   2   1   9  341.57   14.40
   2   1   9  371.36   14.30
   2   1   9  350.76   14.40
   2   1   9  286.47   13.60
   2   1   9  360.66   14.80
   2   1   9  356.96   14.90
   2   1   9  340.27   13.90
   2   1   9  315.07   15.50
  -3  -1  -9   27.60    3.70
  -3  -1  -9   26.60    3.10
  -3  -1  -9   26.40    3.20
  -3  -1  -9   24.60    3.40
  -3  -1  -9   20.40    3.40
  -3  -1  -9   29.40    3.30
   3   1   9   29.70    3.80
   3   1   9   28.80    3.50
   3   1   9   31.60    3.30
   3   1   9   22.80    3.40
   3   1   9   26.80    3.50
   3   1   9   29.30    3.50
   3   1   9   40.50    3.60
   3   1   9   37.40    3.80
  -4  -1  -9  182.78    9.10
  -4  -1  -9  183.88    9.60
  -4  -1  -9  198.58    9.10
  -4  -1  -9  202.08   10.00
  -4  -1  -9  187.08   10.00
  -4  -1  -9  187.48    9.90
   4   1   9  194.58    9.50
   4   1   9  199.98    9.60
   4   1   9  194.58    9.00
   4   1   9  206.78    9.80
   4   1   9  204.28    9.60
   4   1   9  193.68    9.50
   4   1   9  215.98   10.50
  -5  -1  -9  184.68    9.70
  -5  -1  -9  174.38    8.60
  -5  -1  -9  180.28    9.60
  -5  -1  -9  180.08    9.70
   5   1   9  195.48   10.00
   5   1   9  194.38    9.60
   5   1   9  190.48    9.20
   5   1   9  191.68    9.20
   5   1   9  172.18    9.10
  -6  -1  -9   57.19    4.90
  -6  -1  -9   42.80    5.00
  -6  -1  -9   49.70    5.10
   6   1   9   44.90    4.60
   6   1   9   52.39    4.90
   6   1   9   45.60    4.20
   6   1   9   40.30    4.20
  -7  -1  -9   76.69    5.90
  -7  -1  -9   83.19    5.60
  -7  -1  -9   78.69    5.70
   7   1   9   77.59    5.50
   7   1   9   74.09    4.80
   7   1   9   73.59    5.40
   4  -2  -9    5.10    2.00
   4  -2  -9    4.30    2.50
   4  -2  -9    1.60    2.30
  -4   2   9    2.90    2.80
  -4   2   9    4.60    2.50
   3  -2  -9    1.50    2.10
   3  -2  -9    1.60    2.80
   3  -2  -9   -4.20    2.90
  -3   2   9    3.10    3.30
  -3   2   9    0.30    2.50
  -3   2   9    0.10    2.80
   2  -2  -9  346.67   14.70
   2  -2  -9  337.17   15.30
  -2   2   9  330.47   15.10
  -2   2   9  330.07   14.30
  -2   2   9  318.97   13.90
  -2   2   9  332.47   14.50
  -2   2   9  320.07   14.00
   1  -2  -9  357.76   15.00
   1  -2  -9  351.06   15.40
   1  -2  -9  362.76   15.60
   1  -2  -9  371.56   16.10
   1  -2  -9  345.17   15.60
  -1   2   9  358.46   14.10
  -1   2   9  350.16   15.20
  -1   2   9  343.17   14.80
  -1   2   9  370.56   15.70
  -1   2   9  359.46   14.90
  -1   2   9  377.46   15.20
  -1   2   9  359.96   15.90
   0  -2  -9  179.88    8.90
   0  -2  -9  181.08    9.50
   0  -2  -9  179.98    9.50
   0  -2  -9  175.88    8.90
   0   2   9  167.68    8.10
   0   2   9  176.28    8.30
   0   2   9  177.58    9.50
   0   2   9  188.48    9.40
   0   2   9  178.58    8.60
   0   2   9  177.68    7.70
   0   2   9  174.98    8.70
   0   2   9  183.28    8.50
  -1  -2  -9  150.58    8.40
  -1  -2  -9  147.39    7.40
  -1  -2  -9  151.28    8.50
  -1  -2  -9  157.38    7.90
  -1  -2  -9  156.68    7.90
   1   2   9  170.88    7.90
   1   2   9  151.28    7.20
   1   2   9  163.88    8.00
   1   2   9  134.59    8.80
   1   2   9  142.59    7.00
   1   2   9  151.18    8.20
   1   2   9  153.98    7.70
   1   2   9  152.88    6.90
   1   2   9  157.18    8.10
   1   2   9  159.38    6.90
  -2  -2  -9   89.09    5.10
  -2  -2  -9   76.59    6.00
  -2  -2  -9   85.89    5.30
  -2  -2  -9   76.59    6.20
  -2  -2  -9   78.19    5.00
  -2  -2  -9   86.49    5.40
  -2  -2  -9   75.29    5.50
  -2  -2  -9   84.79    5.90
   2   2   9   82.99    5.20
   2   2   9   94.89    5.90
   2   2   9   74.09    5.40
   2   2   9   77.79    4.30
   2   2   9   77.19    4.40
   2   2   9   81.99    4.40
   2   2   9   61.19    7.00
   2   2   9   78.59    4.90
   2   2   9   81.79    5.50
  -3  -2  -9   50.99    4.00
  -3  -2  -9   55.59    5.10
  -3  -2  -9   49.60    5.20
  -3  -2  -9   51.59    4.20
  -3  -2  -9   52.79    4.60
  -3  -2  -9   52.99    4.10
  -3  -2  -9   55.39    4.90
   3   2   9   52.79    4.90
   3   2   9   53.49    4.30
   3   2   9   54.49    3.50
   3   2   9   48.60    4.60
   3   2   9   48.10    3.80
   3   2   9   56.39    4.40
   3   2   9   50.99    4.30
   3   2   9   46.40    4.30
   3   2   9   56.79    4.60
  -4  -2  -9   -0.20    2.00
  -4  -2  -9    0.90    2.60
  -4  -2  -9    1.20    2.80
  -4  -2  -9    0.00    2.60
  -4  -2  -9    2.60    2.00
   4   2   9    3.10    2.10
   4   2   9    4.50    1.60
   4   2   9    1.00    2.80
   4   2   9    2.70    2.20
   4   2   9    3.90    2.30
   4   2   9    1.00    2.30
   4   2   9    2.50    2.90
   4   2   9    4.10    2.20
  -5  -2  -9    4.40    2.80
  -5  -2  -9    6.10    2.90
  -5  -2  -9    1.30    2.40
  -5  -2  -9    5.10    2.30
  -5  -2  -9    2.20    2.60
  -5  -2  -9    2.90    3.10
   5   2   9    1.20    2.40
   5   2   9    5.10    2.90
   5   2   9    3.70    2.50
   5   2   9    4.70    2.50
   5   2   9    0.10    3.00
  -6  -2  -9    4.60    3.00
  -6  -2  -9   -0.10    2.60
  -6  -2  -9   -0.20    2.60
   6   2   9    0.00    3.00
   6   2   9    0.20    2.20
   6   2   9    0.10    2.90
   6   2   9   -3.40    2.10
  -7  -2  -9    7.00    2.80
  -7  -2  -9   12.10    3.00
  -7  -2  -9   12.30    2.60
   7   2   9    7.70    2.40
   7   2   9    8.00    2.80
   7   2   9    7.20    2.60
   4  -3  -9   66.19    4.80
   4  -3  -9   67.09    4.30
   4  -3  -9   61.19    4.10
  -4   3   9   65.89    4.90
  -4   3   9   71.49    4.70
   3  -3  -9   12.60    3.20
   3  -3  -9   13.40    2.90
   3  -3  -9   13.20    2.70
  -3   3   9    9.90    3.30
  -3   3   9   13.70    3.00
  -3   3   9   10.10    3.20
   2  -3  -9  368.96   15.90
   2  -3  -9  395.56   17.00
   2  -3  -9  359.86   15.90
  -2   3   9  374.86   15.70
  -2   3   9  390.26   16.80
  -2   3   9  370.16   14.80
  -2   3   9  393.06   16.10
   1  -3  -9   60.19    4.90
   1  -3  -9   67.69    5.10
   1  -3  -9   61.79    6.10
   1  -3  -9   57.59    4.60
   1  -3  -9   65.99    6.20
  -1   3   9   52.69    4.40
  -1   3   9   57.89    3.90
  -1   3   9   56.89    4.50
  -1   3   9   54.49    4.10
  -1   3   9   55.59    4.80
  -1   3   9   59.29    5.60
  -1   3   9   52.09    4.30
   0  -3  -9  105.39    7.40
   0  -3  -9   96.29    6.20
   0  -3  -9  114.19    7.80
   0  -3  -9  100.89    5.90
   0  -3  -9   97.49    6.90
   0   3   9  100.49    6.00
   0   3   9   97.69    5.60
   0   3   9  105.79    6.00
   0   3   9  104.29    5.30
   0   3   9   89.39    6.70
   0   3   9  106.19    5.70
   0   3   9  103.79    6.10
   0   3   9  103.19    5.40
  -1  -3  -9   12.30    2.90
  -1  -3  -9   11.20    2.40
  -1  -3  -9   11.90    3.40
  -1  -3  -9    9.10    2.60
  -1  -3  -9    9.80    3.10
  -1  -3  -9   10.60    4.10
  -1  -3  -9   12.80    3.60
   1   3   9    8.30    2.40
   1   3   9   12.90    2.50
   1   3   9   10.10    2.30
   1   3   9   11.20    2.50
   1   3   9   10.90    2.00
   1   3   9   10.90    2.00
   1   3   9    7.70    2.40
   1   3   9   11.60    3.00
  -2  -3  -9    5.20    3.00
  -2  -3  -9    3.60    2.40
  -2  -3  -9    5.80    2.40
  -2  -3  -9    7.20    2.50
  -2  -3  -9    6.10    2.20
  -2  -3  -9    8.70    3.10
  -2  -3  -9    6.20    3.20
  -2  -3  -9    5.80    3.30
   2   3   9    6.70    1.90
   2   3   9    2.20    2.50
   2   3   9    6.90    2.40
   2   3   9    7.80    1.90
   2   3   9    7.70    2.30
   2   3   9    9.80    2.60
   2   3   9    8.10    2.00
  -3  -3  -9  197.18   10.50
  -3  -3  -9  199.08   10.50
  -3  -3  -9  212.48    9.30
  -3  -3  -9  201.08    9.60
  -3  -3  -9  203.58   10.00
  -3  -3  -9  186.88   10.50
  -3  -3  -9  199.28   10.40
   3   3   9  199.18    9.70
   3   3   9  180.08    8.70
   3   3   9  194.18    8.60
   3   3   9  194.08    9.30
   3   3   9  215.38   10.00
   3   3   9  208.98    9.50
   3   3   9  214.98    9.70
   3   3   9  209.68    8.60
   3   3   9  186.98    8.90
  -4  -3  -9  323.57   13.10
  -4  -3  -9  320.67   13.50
  -4  -3  -9  305.57   14.10
  -4  -3  -9  282.97   13.80
  -4  -3  -9  279.67   12.90
  -4  -3  -9  286.17   14.60
   4   3   9  283.17   12.70
   4   3   9  309.57   12.30
   4   3   9  309.47   13.40
   4   3   9  308.07   13.20
   4   3   9  300.87   12.30
   4   3   9  301.37   13.40
   4   3   9  313.87   13.70
   4   3   9  325.97   14.10
  -5  -3  -9   31.70    4.10
  -5  -3  -9   23.60    3.10
  -5  -3  -9   26.20    3.90
  -5  -3  -9   26.10    3.80
  -5  -3  -9   33.10    5.70
  -5  -3  -9   21.80    3.80
   5   3   9   24.60    3.90
   5   3   9   31.80    3.60
   5   3   9   26.90    2.50
   5   3   9   24.70    3.90
   5   3   9   30.80    3.90
   5   3   9   26.80    3.60
   5   3   9   32.30    3.90
  -6  -3  -9  166.88    8.70
  -6  -3  -9  180.38    9.00
  -6  -3  -9  174.88    9.30
  -6  -3  -9  163.38    9.10
   6   3   9  177.08    9.00
   6   3   9  181.78    8.50
   6   3   9  142.39    8.80
   6   3   9  169.08    8.60
   6   3   9  175.98    9.00
  -7  -3  -9   -2.30    2.20
  -7  -3  -9   -0.40    2.40
  -7  -3  -9   -0.20    2.50
  -7  -3  -9   -0.60    3.10
   7   3   9   -2.40    2.00
   7   3   9    0.90    2.40
  -4   4   9   12.40    2.60
   3  -4  -9   11.10    2.90
   3  -4  -9    8.70    2.40
  -3   4   9    7.00    3.20
  -3   4   9    6.90    3.00
  -3   4   9    9.40    2.70
   2  -4  -9    0.70    3.00
   2  -4  -9    1.30    2.40
   2  -4  -9    2.00    2.00
  -2   4   9    1.50    2.00
  -2   4   9    1.60    1.80
  -2   4   9   -0.70    2.40
  -2   4   9    5.30    3.40
   1  -4  -9   90.19    6.20
   1  -4  -9   89.99    7.30
   1  -4  -9  100.29    7.50
   1  -4  -9   92.69    7.30
  -1   4   9   79.99    6.80
  -1   4   9   85.19    5.60
  -1   4   9   85.89    6.00
  -1   4   9   95.19    5.10
  -1   4   9   96.69    7.00
  -1   4   9   87.19    5.20
   0  -4  -9   60.99    6.40
   0  -4  -9   59.19    4.80
   0  -4  -9   65.29    6.40
   0  -4  -9   59.39    5.60
   0  -4  -9   68.29    6.50
   0  -4  -9   51.49    4.50
   0   4   9   54.09    4.40
   0   4   9   57.09    4.40
   0   4   9   54.59    4.00
   0   4   9   62.39    4.60
   0   4   9   62.99    4.30
   0   4   9   60.69    5.80
   0   4   9   54.99    4.80
  -1  -4  -9   74.49    5.00
  -1  -4  -9   70.49    6.40
  -1  -4  -9   85.49    7.40
  -1  -4  -9   78.19    6.30
  -1  -4  -9   71.19    6.30
  -1  -4  -9   81.19    6.10
  -1  -4  -9   61.59    6.10
  -1  -4  -9   75.09    5.70
  -1  -4  -9   72.69    6.80
   1   4   9   79.69    4.50
   1   4   9   79.59    4.60
   1   4   9   71.49    4.90
   1   4   9   74.89    5.30
   1   4   9   72.29    5.00
   1   4   9   74.39    5.40
   1   4   9   82.39    5.20
  -2  -4  -9    9.70    3.20
  -2  -4  -9    8.80    3.60
  -2  -4  -9    8.00    2.60
  -2  -4  -9   13.00    3.80
  -2  -4  -9   10.10    2.50
  -2  -4  -9   10.50    3.90
  -2  -4  -9   11.00    3.00
  -2  -4  -9   11.60    3.90
  -2  -4  -9   15.90    3.40
  -2  -4  -9   12.30    4.00
   2   4   9   12.70    2.40
   2   4   9    9.30    2.00
   2   4   9   10.20    2.60
   2   4   9   10.00    2.50
   2   4   9   10.60    2.70
   2   4   9    6.40    2.80
   2   4   9   12.90    2.20
  -3  -4  -9    7.00    2.80
  -3  -4  -9    9.50    3.10
  -3  -4  -9   11.80    4.20
  -3  -4  -9    8.90    2.60
  -3  -4  -9    8.80    3.00
  -3  -4  -9    6.70    3.50
  -3  -4  -9    8.90    2.50
  -3  -4  -9    8.00    3.60
  -3  -4  -9    9.50    3.90
  -3  -4  -9    8.30    3.30
   3   4   9    8.00    2.00
   3   4   9    5.70    2.80
   3   4   9    9.80    2.30
   3   4   9   13.10    3.10
   3   4   9    7.70    2.50
   3   4   9   13.50    2.80
   3   4   9   11.50    2.10
   3   4   9    5.40    2.40
  -4  -4  -9  127.79    8.80
  -4  -4  -9  122.39    7.70
  -4  -4  -9  121.69    6.70
  -4  -4  -9  119.39    7.10
  -4  -4  -9  114.99    8.20
  -4  -4  -9  114.19    6.70
  -4  -4  -9  122.49    8.10
  -4  -4  -9  120.89    7.70
  -4  -4  -9  119.69    8.50
  -4  -4  -9  124.79    7.80
   4   4   9  114.39    6.70
   4   4   9  121.29    6.00
   4   4   9  115.59    6.80
   4   4   9  126.89    6.00
   4   4   9  116.09    6.80
   4   4   9  125.29    7.40
   4   4   9  121.79    7.60
   4   4   9  106.99    6.20
  -5  -4  -9   10.50    3.30
  -5  -4  -9    9.50    3.30
  -5  -4  -9   16.10    4.40
  -5  -4  -9   10.30    3.10
  -5  -4  -9    9.60    2.80
  -5  -4  -9   11.50    3.20
  -5  -4  -9    8.20    4.20
   5   4   9    8.30    3.40
   5   4   9   10.70    3.40
   5   4   9   11.00    2.10
   5   4   9    7.40    1.90
   5   4   9   10.60    3.00
   5   4   9    6.90    2.50
   5   4   9   11.90    3.00
   5   4   9   10.70    2.60
  -6  -4  -9   17.30    3.50
  -6  -4  -9   19.80    3.50
  -6  -4  -9   14.70    3.90
  -6  -4  -9   12.40    2.70
  -6  -4  -9   11.00    2.90
   6   4   9   21.70    3.10
   6   4   9   17.40    2.00
   6   4   9   14.50    3.00
   6   4   9   11.40    3.10
  -7  -4  -9   29.90    3.60
  -7  -4  -9   18.00    3.60
  -7  -4  -9   20.90    3.00
  -7  -4  -9   18.70    2.50
   7   4   9   20.30    2.90
   7   4   9   18.90    2.60
   3  -5  -9    0.20    1.90
  -3   5   9    0.50    2.30
  -3   5   9    1.80    1.90
  -3   5   9   -1.40    2.40
   2  -5  -9    2.80    2.70
   2  -5  -9   -0.10    2.30
  -2   5   9    2.10    2.30
  -2   5   9    3.20    2.00
  -2   5   9    4.60    2.90
  -2   5   9    4.50    1.70
   1  -5  -9   10.00    3.80
   1  -5  -9   13.50    4.20
   1  -5  -9    9.60    3.70
   1  -5  -9   12.10    3.80
   1  -5  -9    7.60    2.80
  -1   5   9   12.30    2.70
  -1   5   9    9.80    2.40
  -1   5   9   10.30    2.00
  -1   5   9    8.30    3.30
  -1   5   9   11.60    2.30
   0  -5  -9   61.39    6.80
   0  -5  -9   40.80    5.30
   0  -5  -9   46.00    4.90
   0  -5  -9   62.39    6.70
   0  -5  -9   47.20    5.50
   0  -5  -9   64.49    6.50
   0   5   9   53.29    4.70
   0   5   9   69.49    5.80
   0   5   9   57.39    3.90
   0   5   9   55.89    4.30
   0   5   9   66.49    4.40
  -1  -5  -9   -0.30    3.50
  -1  -5  -9   -1.10    2.50
  -1  -5  -9    8.60    4.50
  -1  -5  -9   -3.20    2.70
  -1  -5  -9    2.00    3.50
  -1  -5  -9   -2.40    3.50
  -1  -5  -9    0.20    3.40
   1   5   9    0.90    2.10
   1   5   9    0.90    1.70
   1   5   9    0.50    1.90
   1   5   9    0.20    1.90
  -2  -5  -9  189.28   10.50
  -2  -5  -9  189.28   10.70
  -2  -5  -9  191.98   10.70
  -2  -5  -9  182.08    9.80
  -2  -5  -9  189.68    9.60
  -2  -5  -9  180.48   10.70
  -2  -5  -9  203.88   10.90
  -2  -5  -9  195.28   11.20
   2   5   9  192.88    9.70
   2   5   9  191.38    9.50
   2   5   9  193.48    8.40
   2   5   9  185.48    8.90
   2   5   9  198.88    8.40
   2   5   9  197.98    9.30
  -3  -5  -9   16.50    3.70
  -3  -5  -9   16.80    4.80
  -3  -5  -9   16.60    3.60
  -3  -5  -9   17.50    4.50
  -3  -5  -9   21.70    4.10
  -3  -5  -9   17.20    4.90
  -3  -5  -9   13.70    4.20
   3   5   9   18.90    3.70
   3   5   9   15.40    2.30
   3   5   9   14.70    2.80
   3   5   9   11.60    2.10
   3   5   9   18.50    3.30
  -4  -5  -9  165.78    9.20
  -4  -5  -9  156.68   10.10
  -4  -5  -9  166.68    9.60
  -4  -5  -9  166.78    9.30
  -4  -5  -9  145.99    8.60
  -4  -5  -9  173.28   10.10
  -4  -5  -9  152.18    9.80
   4   5   9  168.28    7.40
   4   5   9  159.38    9.10
   4   5   9  161.38    8.70
   4   5   9  167.68    8.40
   4   5   9  137.29    7.90
   4   5   9  153.78    8.10
   4   5   9  166.38    7.40
  -5  -5  -9  166.58   10.30
  -5  -5  -9  172.08    9.50
  -5  -5  -9  185.48   10.10
  -5  -5  -9  173.68    9.80
  -5  -5  -9  166.08    9.10
  -5  -5  -9  175.88   10.30
  -5  -5  -9  185.98    9.80
   5   5   9  181.28    8.70
   5   5   9  175.18    7.80
   5   5   9  188.78    7.80
   5   5   9  163.78    8.50
   5   5   9  179.18    9.20
   5   5   9  161.78    9.10
   5   5   9  183.58    9.40
  -6  -5  -9   21.30    3.50
  -6  -5  -9   18.10    4.00
  -6  -5  -9   26.60    4.00
   6   5   9   16.30    2.00
   6   5   9   17.90    3.10
   6   5   9   23.80    2.80
   6   5   9   20.40    2.20
  -7  -5  -9   61.59    4.60
  -7  -5  -9   78.19    5.60
  -7  -5  -9   64.89    5.10
   7   5   9   67.59    4.20
   7   5   9   67.79    4.20
   2  -6  -9   -0.50    2.70
  -2   6   9    1.90    2.10
  -2   6   9    1.20    1.40
   1  -6  -9   21.20    3.70
   1  -6  -9   23.50    4.20
   1  -6  -9   13.10    4.10
   1  -6  -9   25.20    4.50
  -1   6   9   22.10    2.50
  -1   6   9   19.50    2.20
  -1   6   9   19.70    3.40
   0  -6  -9    2.60    3.90
   0  -6  -9    3.10    3.80
   0  -6  -9    3.50    3.30
   0  -6  -9    5.10    3.70
   0  -6  -9    1.40    3.70
   0   6   9    3.50    1.80
   0   6   9    0.80    2.00
   0   6   9    0.50    1.90
  -1  -6  -9   12.00    3.60
  -1  -6  -9   12.30    4.40
  -1  -6  -9   13.80    4.50
  -1  -6  -9   12.20    3.80
  -1  -6  -9   19.70    4.80
  -1  -6  -9   17.50    4.60
   1   6   9    7.80    2.30
   1   6   9   15.80    2.30
   1   6   9   15.60    2.10
  -2  -6  -9   61.19    5.50
  -2  -6  -9   60.39    6.40
  -2  -6  -9   74.29    5.80
  -2  -6  -9   70.19    6.20
  -2  -6  -9   76.99    6.80
  -2  -6  -9   63.29    7.10
  -2  -6  -9   80.79    7.40
   2   6   9   66.99    4.10
   2   6   9   65.19    4.90
   2   6   9   76.69    4.40
   2   6   9   59.99    5.60
  -3  -6  -9   66.79    6.80
  -3  -6  -9   89.29    7.50
  -3  -6  -9   89.99    7.60
  -3  -6  -9   81.29    6.20
  -3  -6  -9   82.49    8.10
  -3  -6  -9   83.09    7.00
  -3  -6  -9   83.29    6.60
   3   6   9   83.29    4.70
   3   6   9   78.89    5.70
   3   6   9   78.69    5.30
   3   6   9   77.99    4.50
  -4  -6  -9    1.30    2.60
  -4  -6  -9    1.20    2.90
  -4  -6  -9    3.40    3.90
  -4  -6  -9   -0.60    2.80
  -4  -6  -9   -1.40    2.80
  -4  -6  -9    0.20    4.00
  -4  -6  -9    5.60    4.50
   4   6   9    2.10    2.20
   4   6   9   -2.50    2.10
   4   6   9    0.00    3.20
   4   6   9   -0.60    1.60
   4   6   9    0.70    1.70
  -5  -6  -9    5.90    3.40
  -5  -6  -9    4.50    3.60
  -5  -6  -9    3.40    3.10
  -5  -6  -9    2.00    2.60
  -5  -6  -9    2.70    3.80
   5   6   9    1.90    1.50
   5   6   9    3.00    1.70
   5   6   9    2.20    2.80
  -6  -6  -9    8.00    2.70
  -6  -6  -9    4.30    3.20
  -6  -6  -9    7.60    3.00
   6   6   9    1.20    2.20
   6   6   9    7.70    1.60
   1  -7  -9   94.39    6.40
   1  -7  -9   91.09    6.10
  -1   7   9  107.49    4.70
   0  -7  -9   76.49    6.50
   0  -7  -9   84.49    6.60
   0  -7  -9   84.89    6.80
   0   7   9   86.09    4.50
   0   7   9   83.79    4.50
  -1  -7  -9   -0.20    3.90
  -1  -7  -9    1.50    3.90
  -1  -7  -9    1.00    3.70
  -1  -7  -9    2.80    3.70
   1   7   9    1.60    1.50
   1   7   9    2.80    1.70
  -2  -7  -9   11.80    4.20
  -2  -7  -9   18.40    4.30
  -2  -7  -9   21.10    5.20
  -2  -7  -9   11.30    4.10
   2   7   9   11.70    1.90
   2   7   9   12.50    2.00
  -3  -7  -9    5.80    4.30
  -3  -7  -9    1.60    3.90
  -3  -7  -9    1.90    4.10
  -3  -7  -9    2.60    2.90
  -3  -7  -9    2.30    3.60
   3   7   9    3.60    1.60
   3   7   9    2.10    1.70
  -4  -7  -9    4.00    3.00
  -4  -7  -9    5.40    3.90
  -4  -7  -9    7.30    4.20
  -4  -7  -9    4.50    4.00
   4   7   9    0.70    2.70
   4   7   9    8.10    1.70
   4   7   9    7.60    1.70
  -5  -7  -9   52.59    5.40
  -5  -7  -9   43.20    4.30
  -5  -7  -9   44.30    5.20
   5   7   9   55.79    3.30
   5   7   9   53.99    3.30
  -6  -7  -9   12.10    2.50
   6   7   9    6.10    1.30
   0  -8  -9   -0.40    2.40
   0  -8  -9   -0.60    2.50
   0  -8  -9    0.00    2.60
   0   8   9    1.00    1.10
  -1  -8  -9   13.80    3.50
  -1  -8  -9   11.90    3.30
  -1  -8  -9   10.50    3.30
   1   8   9   11.50    1.50
  -2  -8  -9   32.20    4.70
  -2  -8  -9   21.10    3.70
  -2  -8  -9   32.50    4.30
  -2  -8  -9   26.10    4.10
   2   8   9   31.00    2.50
  -3  -8  -9    0.90    3.40
  -3  -8  -9   -0.90    2.80
  -3  -8  -9    1.40    3.50
   3   8   9    3.60    1.30
  -4  -8  -9    6.80    3.30
  -4  -8  -9    5.90    2.50
  -4  -8  -9    6.80    3.50
  -4  -8  -9    0.60    2.50
   4   8   9    6.30    1.30
  -5  -8  -9    2.90    2.60
  -5  -8  -9   -0.80    2.60
  -5  -8  -9    2.00    2.40
   5   8   9    1.30    1.10
   1  -6  10    3.50    2.10
   2   5 -10   20.30    3.20
   1   5 -10   72.39    5.00
   1   5 -10   74.89    4.80
   1   5 -10   76.69    4.60
  -1  -5  10   71.39    5.30
  -1  -5  10   70.39    4.60
  -1  -5  10   64.79    4.80
   0   5 -10    0.10    2.30
   0   5 -10    1.20    2.10
   0  -5  10    0.80    2.30
   0  -5  10    0.80    2.20
   0  -5  10   -1.60    2.40
  -1   5 -10    6.20    2.50
  -1   5 -10    6.90    2.40
  -1   5 -10    3.10    2.50
   1  -5  10    5.20    2.50
   1  -5  10    7.60    2.80
   1  -5  10    8.30    2.70
   1  -5  10    3.60    2.70
  -2   5 -10   70.99    5.10
  -2   5 -10   72.59    5.00
   2  -5  10   81.29    5.60
   2  -5  10   74.69    4.90
   2  -5  10   65.19    5.20
   2  -5  10   72.89    5.20
  -3   5 -10   -0.40    2.10
  -3   5 -10    0.60    1.90
  -3   5 -10   -1.70    1.90
   3  -5  10   -1.20    2.10
   3  -5  10    1.90    1.90
   3  -5  10   -1.60    2.30
   3   4 -10   48.20    4.20
   3   4 -10   52.29    3.50
  -3  -4  10   47.60    4.20
   2   4 -10    2.20    2.00
   2   4 -10    0.10    2.10
   2   4 -10    1.70    2.60
  -2  -4  10    0.40    1.70
  -2  -4  10    0.00    2.40
  -2  -4  10    4.30    2.40
  -2  -4  10    4.50    2.50
  -2  -4  10   -3.20    2.20
   1   4 -10   19.40    3.00
   1   4 -10   19.30    3.20
   1   4 -10   24.90    3.50
  -1  -4  10   18.60    3.10
  -1  -4  10   16.80    3.50
  -1  -4  10   17.80    3.80
  -1  -4  10   25.10    3.30
   0   4 -10   79.79    6.10
   0   4 -10   83.49    5.40
   0   4 -10   78.09    5.60
   0  -4  10   83.49    6.70
   0  -4  10   79.89    5.60
   0  -4  10   78.79    5.90
   0  -4  10   75.49    5.40
  -1   4 -10  108.09    6.30
  -1   4 -10  100.99    6.80
  -1   4 -10   90.99    6.40
   1  -4  10  108.49    7.50
   1  -4  10  110.69    7.10
   1  -4  10   99.09    6.40
   1  -4  10  110.99    6.50
  -2   4 -10   22.30    3.40
  -2   4 -10   16.20    2.90
  -2   4 -10   20.30    3.60
   2  -4  10   29.40    3.80
   2  -4  10   26.50    4.10
   2  -4  10   28.30    4.20
   2  -4  10   21.30    3.20
   2  -4  10   26.00    3.60
  -3   4 -10   57.79    4.40
  -3   4 -10   70.79    5.50
  -3   4 -10   68.59    5.40
  -3   4 -10   74.89    5.10
   3  -4  10   70.29    5.40
   3  -4  10   69.29    4.90
   3  -4  10   66.79    5.60
   3  -4  10   63.89    5.10
   3  -4  10   69.49    5.40
  -4   4 -10   28.00    3.60
  -4   4 -10   45.20    3.60
  -4   4 -10   54.59    4.20
  -4   4 -10   42.90    4.30
   4  -4  10   46.90    4.20
   4  -4  10   44.40    3.60
   4  -4  10   41.60    4.60
  -5   4 -10    1.10    2.30
   5  -4  10    2.80    2.60
   3   3 -10   35.90    3.00
   3   3 -10   34.50    3.60
  -3  -3  10   31.80    3.20
  -3  -3  10   19.60    2.70
  -3  -3  10   28.30    3.30
   2   3 -10   67.39    4.80
   2   3 -10   70.09    5.90
  -2  -3  10   63.49    5.50
  -2  -3  10   60.39    5.40
  -2  -3  10   72.19    5.50
   1   3 -10   37.10    3.70
   1   3 -10   31.40    4.00
   1   3 -10   24.20    3.40
  -1  -3  10   29.30    4.00
  -1  -3  10   28.80    4.20
  -1  -3  10   34.30    3.80
   0   3 -10    8.90    3.00
   0   3 -10   10.00    2.70
   0   3 -10   13.60    3.40
   0   3 -10   11.30    2.90
   0  -3  10    6.40    3.30
   0  -3  10   12.80    2.90
   0  -3  10   15.10    3.20
   0  -3  10    7.70    3.10
   0  -3  10    9.00    2.60
  -1   3 -10   62.99    5.40
  -1   3 -10   66.79    5.30
  -1   3 -10   74.39    6.10
  -1   3 -10   64.49    5.10
   1  -3  10   62.89    6.00
   1  -3  10   67.69    4.90
   1  -3  10   73.59    5.90
   1  -3  10   65.39    5.80
   1  -3  10   61.19    5.00
  -2   3 -10    7.80    3.20
  -2   3 -10   10.00    3.20
  -2   3 -10    6.60    2.70
  -2   3 -10    5.90    3.00
   2  -3  10    4.50    2.90
   2  -3  10    7.00    3.00
   2  -3  10    8.60    3.40
   2  -3  10    8.50    2.50
   2  -3  10    1.90    2.90
  -3   3 -10   -1.00    2.50
  -3   3 -10   -3.80    3.00
  -3   3 -10   -1.40    2.50
  -3   3 -10    2.00    2.90
  -3   3 -10    0.60    3.80
  -3   3 -10   -0.10    2.60
   3  -3  10   -1.10    2.30
   3  -3  10   -0.20    3.00
   3  -3  10    3.40    2.70
   3  -3  10    1.50    2.70
   3  -3  10    0.80    2.00
  -4   3 -10   59.09    5.40
  -4   3 -10   48.60    4.30
  -4   3 -10   59.99    5.00
  -4   3 -10   53.69    4.70
   4  -3  10   49.80    4.40
   4  -3  10   56.69    4.80
   4  -3  10   44.10    4.50
  -5   3 -10   15.00    3.10
  -5   3 -10    7.50    2.40
  -5   3 -10   10.40    2.10
   5  -3  10    7.20    2.30
   5  -3  10    9.40    2.40
   5  -3  10   12.20    3.00
   5  -3  10   15.20    2.50
  -4  -2  10    5.80    2.50
   3   2 -10    8.30    2.40
   3   2 -10   15.20    2.80
   3   2 -10   15.40    3.20
  -3  -2  10   12.00    2.90
  -3  -2  10   14.80    3.30
   2   2 -10   26.00    3.20
   2   2 -10   29.50    4.00
   2   2 -10   32.90    3.80
  -2  -2  10   34.10    4.40
  -2  -2  10   32.90    4.30
   1   2 -10   -3.10    2.40
   1   2 -10   -0.80    3.00
   1   2 -10    3.40    2.50
   1   2 -10    1.80    2.50
  -1  -2  10   -0.40    3.00
  -1  -2  10   -1.40    2.10
  -1  -2  10    0.10    2.10
  -1  -2  10   -0.40    3.20
   0   2 -10  109.79    6.80
   0   2 -10  115.29    7.20
   0   2 -10  124.89    7.80
   0   2 -10  116.69    6.80
   0  -2  10  116.89    7.60
   0  -2  10  110.19    7.00
   0  -2  10  113.39    6.40
   0  -2  10  112.49    6.40
   0  -2  10  111.59    6.90
   0  -2  10  117.69    7.70
  -1   2 -10  165.48    8.80
  -1   2 -10  172.78    8.60
  -1   2 -10  155.18    9.10
  -1   2 -10  181.28    9.20
   1  -2  10  172.28    9.30
   1  -2  10  170.28    8.80
   1  -2  10  170.38    9.10
   1  -2  10  160.58    8.40
   1  -2  10  162.48    9.30
  -2   2 -10   54.09    4.40
  -2   2 -10   49.50    4.80
  -2   2 -10   67.19    5.00
  -2   2 -10   39.20    4.80
  -2   2 -10   52.89    5.10
  -2   2 -10   53.19    5.20
   2  -2  10   61.79    5.50
   2  -2  10   54.39    4.60
   2  -2  10   65.69    6.00
   2  -2  10   54.79    5.40
   2  -2  10   53.99    4.70
  -3   2 -10   -0.30    2.40
  -3   2 -10    2.40    2.90
  -3   2 -10    0.20    2.70
  -3   2 -10    0.80    2.70
  -3   2 -10    1.40    2.00
   3  -2  10   -0.40    3.00
   3  -2  10   -0.60    2.60
   3  -2  10   -0.20    2.30
   3  -2  10    0.10    2.50
   3  -2  10    0.40    3.40
  -4   2 -10   36.90    4.00
  -4   2 -10   30.60    3.80
  -4   2 -10   45.10    4.10
  -4   2 -10   36.70    4.20
  -4   2 -10   36.90    4.00
   4  -2  10   43.70    4.40
   4  -2  10   38.60    4.40
   4  -2  10   45.70    4.20
   4  -2  10   48.70    4.60
  -5   2 -10   52.99    4.30
  -5   2 -10   51.99    5.00
  -5   2 -10   62.99    5.20
  -5   2 -10   62.79    5.40
   5  -2  10   59.19    5.00
   5  -2  10   55.99    5.10
   5  -2  10   61.09    4.90
  -6   2 -10    8.40    2.70
  -6   2 -10    7.20    2.60
  -6   2 -10   12.70    2.30
   6  -2  10    9.10    2.40
   6  -2  10    9.80    2.40
   6  -2  10    6.50    2.20
   4   1 -10   12.30    2.50
  -4  -1  10   11.80    2.60
   3   1 -10    1.40    2.50
   3   1 -10    0.60    2.30
   3   1 -10    1.80    2.80
   3   1 -10    4.00    2.70
  -3  -1  10    7.60    3.20
  -3  -1  10    3.10    3.00
   2   1 -10  103.69    7.30
   2   1 -10  100.49    7.10
   2   1 -10  109.49    6.20
   2   1 -10  110.09    7.00
  -2  -1  10  100.89    7.30
  -2  -1  10   99.69    6.30
  -2  -1  10  103.79    6.10
  -2  -1  10  102.39    7.40
   1   1 -10   77.99    5.40
   1   1 -10   82.69    6.60
   1   1 -10   63.89    5.30
   1   1 -10   74.19    5.80
  -1  -1  10   81.59    5.70
  -1  -1  10   78.99    6.60
  -1  -1  10   74.09    5.20
  -1  -1  10   72.09    5.60
  -1  -1  10   74.49    5.50
  -1  -1  10   76.69    6.20
   0   1 -10   33.00    3.90
   0   1 -10   28.50    3.40
   0   1 -10   27.60    4.10
   0   1 -10   29.80    4.20
   0   1 -10   40.70    4.20
   0  -1  10   28.50    4.30
   0  -1  10   25.10    3.50
   0  -1  10   37.60    4.60
   0  -1  10   40.40    4.30
   0  -1  10   34.00    4.10
   0  -1  10   37.30    3.80
  -1   1 -10  129.89    7.20
  -1   1 -10  118.39    7.70
  -1   1 -10  121.19    7.60
  -1   1 -10  123.39    7.30
  -1   1 -10  121.59    6.90
  -1   1 -10  105.89    6.20
   1  -1  10  116.49    7.60
   1  -1  10  121.89    7.60
   1  -1  10  129.49    6.60
   1  -1  10  118.59    7.50
   1  -1  10  116.69    6.10
   1  -1  10  128.09    6.90
   1  -1  10  126.29    7.10
   1  -1  10  120.89    6.80
  -2   1 -10   15.50    2.70
  -2   1 -10   17.80    2.80
  -2   1 -10   18.50    3.50
  -2   1 -10   17.90    3.60
  -2   1 -10   15.40    3.20
  -2   1 -10   15.60    3.10
  -2   1 -10   14.80    3.30
   2  -1  10   13.90    2.80
   2  -1  10   18.30    3.70
   2  -1  10   15.30    2.40
   2  -1  10   21.90    4.10
   2  -1  10   16.80    3.00
   2  -1  10   16.50    3.00
   2  -1  10   16.70    3.40
  -3   1 -10  127.39    7.60
  -3   1 -10  139.69    8.40
  -3   1 -10  139.59    7.20
  -3   1 -10  145.69    8.30
  -3   1 -10  119.29    7.40
  -3   1 -10  140.99    7.30
   3  -1  10  132.99    7.70
   3  -1  10  138.09    7.40
   3  -1  10  147.19    8.30
   3  -1  10  148.19    8.40
   3  -1  10  127.49    7.30
   3  -1  10  129.69    7.20
  -4   1 -10   84.39    6.30
  -4   1 -10   68.59    6.40
  -4   1 -10   70.89    5.70
  -4   1 -10   77.49    5.70
  -4   1 -10   68.69    5.30
  -4   1 -10   74.49    5.10
   4  -1  10   79.59    6.20
   4  -1  10   70.69    6.00
   4  -1  10   70.79    5.30
   4  -1  10   74.59    6.00
   4  -1  10   63.59    5.70
  -5   1 -10  258.27   11.50
  -5   1 -10  268.97   12.30
  -5   1 -10  244.98   12.30
   5  -1  10  267.07   12.30
   5  -1  10  262.47   11.70
   5  -1  10  232.98   11.80
   5  -1  10  273.37   12.20
  -6   1 -10    3.10    2.10
  -6   1 -10    0.30    2.30
  -6   1 -10    4.90    2.40
  -6   1 -10   -1.90    2.60
   6  -1  10    0.40    2.50
   6  -1  10   -0.20    2.30
   6  -1  10    1.70    2.10
   4   0 -10   45.10    4.20
   4   0 -10   39.20    3.80
  -4   0  10   40.40    3.60
   3   0 -10    3.00    2.70
   3   0 -10    3.30    2.90
   3   0 -10    4.40    2.60
  -3   0  10   -0.10    2.90
  -3   0  10    0.50    2.30
  -3   0  10    1.30    3.10
   2   0 -10   24.40    4.00
   2   0 -10   23.70    3.90
   2   0 -10   22.20    3.30
   2   0 -10   22.30    3.60
  -2   0  10   20.30    3.30
  -2   0  10   18.00    2.70
  -2   0  10   12.60    2.50
  -2   0  10   16.10    3.80
  -2   0  10   20.90    3.90
   1   0 -10  111.69    6.70
   1   0 -10  113.59    6.20
   1   0 -10  110.29    7.30
   1   0 -10  105.09    7.00
   1   0 -10  115.69    7.70
  -1   0  10  112.59    6.80
  -1   0  10  102.79    6.30
  -1   0  10  104.89    6.90
  -1   0  10  110.29    6.70
  -1   0  10  111.19    7.40
  -1   0  10  106.99    7.50
   0   0 -10  165.38    8.70
   0   0 -10  160.78    8.20
   0   0 -10  162.58    9.10
   0   0 -10  169.68    9.60
   0   0  10  160.08    9.20
   0   0  10  156.98    8.60
   0   0  10  175.18    8.90
   0   0  10  175.78    9.30
   0   0  10  177.88    8.50
   0   0  10  177.98    9.10
  -1   0 -10   10.50    3.20
  -1   0 -10   15.10    2.80
  -1   0 -10    9.10    2.20
  -1   0 -10   12.70    3.40
  -1   0 -10   11.40    2.90
  -1   0 -10   16.50    3.40
   1   0  10   16.90    3.50
   1   0  10   11.70    2.30
   1   0  10   13.90    2.80
   1   0  10   18.30    3.90
   1   0  10   14.30    3.40
   1   0  10   14.70    3.20
   1   0  10   15.60    2.60
   1   0  10   13.90    3.00
  -2   0 -10   25.70    3.20
  -2   0 -10   29.60    4.00
  -2   0 -10   25.20    3.00
  -2   0 -10   32.70    3.70
  -2   0 -10   32.50    4.20
  -2   0 -10   22.00    3.00
  -2   0 -10   31.60    3.80
   2   0  10   29.80    4.40
   2   0  10   27.60    3.80
   2   0  10   26.60    3.30
   2   0  10   30.50    3.50
   2   0  10   30.70    4.20
   2   0  10   24.80    2.80
   2   0  10   35.00    3.40
   2   0  10   33.70    4.00
  -3   0 -10    4.70    2.90
  -3   0 -10   -0.80    2.20
  -3   0 -10    2.00    2.20
  -3   0 -10   -1.50    2.40
  -3   0 -10    0.60    2.70
  -3   0 -10   -3.20    2.70
  -3   0 -10    0.20    2.30
   3   0  10    0.70    2.70
   3   0  10   -1.50    2.30
   3   0  10   -1.20    2.90
   3   0  10    0.70    2.30
   3   0  10    1.00    2.30
   3   0  10    1.30    1.90
   3   0  10    2.90    2.80
  -4   0 -10  181.68    9.10
  -4   0 -10  152.48    8.50
  -4   0 -10  170.38    9.50
  -4   0 -10  160.18    8.10
  -4   0 -10  159.78    8.10
   4   0  10  150.58    8.30
   4   0  10  158.88    8.90
   4   0  10  161.88    8.40
   4   0  10  165.68    9.10
   4   0  10  149.29    8.20
   4   0  10  161.28    8.50
   4   0  10  172.08    8.80
  -5   0 -10  179.58    9.30
  -5   0 -10  160.28    8.60
  -5   0 -10  184.98    9.70
  -5   0 -10  170.68    9.10
  -5   0 -10  163.28    8.10
   5   0  10  160.38    8.50
   5   0  10  157.78    8.30
   5   0  10  173.28    9.20
   5   0  10  161.38    8.50
   5   0  10  174.08    8.60
   5   0  10  166.18    9.20
  -6   0 -10   30.90    3.80
  -6   0 -10   16.70    3.30
  -6   0 -10   27.00    3.30
   6   0  10   27.20    3.00
   6   0  10   26.90    3.30
   6   0  10   18.30    3.10
   6   0  10   29.20    3.70
  -7   0 -10   11.40    2.60
  -7   0 -10    5.10    2.20
   7   0  10    6.20    2.00
   7   0  10    7.10    2.00
   7   0  10   10.00    2.30
   4  -1 -10    6.90    2.50
   4  -1 -10    1.50    1.80
  -4   1  10    5.10    3.00
  -4   1  10    6.90    2.40
   3  -1 -10   32.70    4.10
   3  -1 -10   30.00    3.70
  -3   1  10   34.20    3.50
  -3   1  10   42.80    4.50
   2  -1 -10    3.70    2.70
   2  -1 -10    0.90    2.60
   2  -1 -10    2.40    2.70
   2  -1 -10    1.20    2.90
  -2   1  10   -1.60    3.10
  -2   1  10    1.90    2.00
  -2   1  10    2.50    3.10
  -2   1  10    2.40    2.80
   1  -1 -10   62.39    5.90
   1  -1 -10   52.29    5.10
   1  -1 -10   60.49    5.40
   1  -1 -10   61.99    6.20
  -1   1  10   64.29    5.10
  -1   1  10   67.49    4.90
  -1   1  10   66.49    6.30
  -1   1  10   64.39    4.90
  -1   1  10   66.49    5.70
   0  -1 -10   26.50    3.80
   0  -1 -10   17.10    2.50
   0  -1 -10   33.40    3.80
   0  -1 -10   25.50    4.00
   0   1  10   26.70    4.00
   0   1  10   28.10    3.60
   0   1  10   25.10    4.20
   0   1  10   28.70    3.70
   0   1  10   18.10    2.90
  -1  -1 -10  107.19    6.70
  -1  -1 -10  112.39    7.20
  -1  -1 -10  106.19    7.50
  -1  -1 -10  113.29    6.30
  -1  -1 -10  111.59    6.50
  -1  -1 -10  109.49    7.30
   1   1  10  112.29    7.20
   1   1  10  114.19    6.80
   1   1  10  111.99    7.30
   1   1  10  114.59    6.30
   1   1  10  101.89    6.70
   1   1  10  115.19    6.80
  -2  -1 -10   -2.70    2.40
  -2  -1 -10   -0.90    1.90
  -2  -1 -10    1.40    2.20
  -2  -1 -10   -1.90    1.70
  -2  -1 -10    1.80    2.70
  -2  -1 -10   -1.30    2.70
   2   1  10   -0.70    2.10
   2   1  10   -0.30    2.40
   2   1  10    0.30    1.60
   2   1  10    1.40    2.50
   2   1  10   -0.70    2.20
   2   1  10   -0.70    2.70
   2   1  10    1.90    2.70
  -3  -1 -10   -1.80    2.30
  -3  -1 -10   -3.20    2.60
  -3  -1 -10   -2.10    2.70
  -3  -1 -10    3.10    2.20
  -3  -1 -10   -1.40    2.50
  -3  -1 -10   -0.40    2.10
   3   1  10   -0.60    2.10
   3   1  10   -1.70    2.30
   3   1  10   -0.80    2.10
   3   1  10    0.50    2.80
   3   1  10   -1.40    2.90
   3   1  10   -2.20    2.70
   3   1  10   -0.90    1.70
   3   1  10   -0.20    2.40
  -4  -1 -10   19.00    3.60
  -4  -1 -10   13.50    3.20
  -4  -1 -10   15.20    3.60
  -4  -1 -10   21.10    3.10
   4   1  10   23.30    4.00
   4   1  10   20.90    3.40
   4   1  10   18.40    3.10
   4   1  10   17.60    3.00
   4   1  10   23.10    3.40
   4   1  10   16.90    3.30
  -5  -1 -10   66.89    5.80
  -5  -1 -10   42.00    4.80
  -5  -1 -10   56.79    4.50
  -5  -1 -10   56.49    5.20
   5   1  10   59.99    5.10
   5   1  10   48.20    4.60
   5   1  10   51.99    4.90
   5   1  10   59.19    5.70
  -6  -1 -10    9.20    3.20
  -6  -1 -10    3.00    2.50
  -6  -1 -10   10.20    3.10
   6   1  10    1.40    2.40
   6   1  10    5.50    3.10
   6   1  10    2.10    2.70
  -7  -1 -10    1.40    1.90
  -7  -1 -10    1.90    2.30
  -7  -1 -10   -3.30    2.30
   7   1  10   -2.90    1.60
   7   1  10    1.40    2.00
   7   1  10   -1.10    2.30
   3  -2 -10   16.80    3.60
   3  -2 -10   11.90    2.70
  -3   2  10   12.70    2.80
  -3   2  10   15.30    3.60
   2  -2 -10    3.40    3.20
   2  -2 -10   -2.00    2.40
  -2   2  10    1.70    2.80
  -2   2  10    0.20    1.90
  -2   2  10   -0.20    2.60
  -2   2  10    4.60    3.00
  -2   2  10    3.10    3.10
   1  -2 -10   76.99    6.60
   1  -2 -10   80.19    5.90
   1  -2 -10   64.99    5.90
   1  -2 -10   76.99    5.60
  -1   2  10   65.99    4.80
  -1   2  10   72.29    6.20
  -1   2  10   78.39    6.50
  -1   2  10   71.69    5.10
  -1   2  10   76.99    5.50
   0  -2 -10  423.06   18.30
   0  -2 -10  427.66   18.20
   0  -2 -10  423.76   17.60
   0   2  10  442.66   17.50
   0   2  10  398.56   16.10
   0   2  10  406.06   17.90
   0   2  10  424.76   17.30
   0   2  10  422.76   17.90
   0   2  10  415.46   17.50
   0   2  10  394.16   16.80
  -1  -2 -10   44.70    4.00
  -1  -2 -10   55.69    5.40
  -1  -2 -10   54.49    5.40
  -1  -2 -10   51.79    4.70
  -1  -2 -10   50.89    4.80
   1   2  10   51.09    4.30
   1   2  10   49.30    4.80
   1   2  10   43.00    4.60
   1   2  10   56.89    5.00
   1   2  10   48.10    4.50
   1   2  10   47.20    3.50
  -2  -2 -10  176.58    9.70
  -2  -2 -10  170.78    8.70
  -2  -2 -10  175.48    9.80
  -2  -2 -10  191.28    9.40
  -2  -2 -10  170.18    9.00
  -2  -2 -10  177.08    8.60
   2   2  10  178.58    8.80
   2   2  10  181.08    9.20
   2   2  10  174.98    8.70
   2   2  10  172.58    9.10
   2   2  10  170.88    7.60
  -3  -2 -10   12.60    2.80
  -3  -2 -10    9.80    3.20
  -3  -2 -10    9.80    2.40
  -3  -2 -10   12.80    3.20
  -3  -2 -10   11.00    2.30
  -3  -2 -10   18.10    4.10
  -3  -2 -10   10.30    3.10
   3   2  10    9.00    3.40
   3   2  10   11.30    2.90
   3   2  10   18.60    3.40
   3   2  10    7.30    2.50
   3   2  10    8.90    2.90
   3   2  10    9.90    1.80
   3   2  10    8.20    2.00
   3   2  10   14.60    3.60
  -4  -2 -10   -0.40    2.70
  -4  -2 -10   -0.70    2.90
  -4  -2 -10   -1.60    2.60
  -4  -2 -10    0.90    2.10
   4   2  10    0.90    2.40
   4   2  10    0.90    2.30
   4   2  10    0.10    2.30
   4   2  10   -2.90    2.20
   4   2  10   -3.00    2.70
   4   2  10    2.80    3.20
   4   2  10   -3.60    3.40
   4   2  10   -0.70    2.60
  -5  -2 -10  162.18    8.80
  -5  -2 -10  152.18    8.00
  -5  -2 -10  171.98    9.20
  -5  -2 -10  174.88    9.40
  -5  -2 -10  163.68    9.10
   5   2  10  178.48    8.70
   5   2  10  169.58    8.60
   5   2  10  148.69    8.60
   5   2  10  174.48    9.00
   5   2  10  181.78    9.40
  -6  -2 -10   36.80    4.00
  -6  -2 -10   34.40    3.60
  -6  -2 -10   36.50    4.20
  -6  -2 -10   34.20    4.20
   6   2  10   41.50    3.80
   6   2  10   42.90    4.30
   6   2  10   33.40    3.90
  -7  -2 -10    1.00    2.20
  -7  -2 -10   -0.70    2.10
  -7  -2 -10    1.90    2.00
  -7  -2 -10   -0.40    2.90
   7   2  10   -0.50    2.10
   7   2  10    0.20    1.80
   7   2  10    2.30    2.30
   3  -3 -10    1.50    2.60
   3  -3 -10    0.50    1.80
  -3   3  10   -1.90    2.60
  -3   3  10   -0.40    2.30
   2  -3 -10  101.69    6.20
   2  -3 -10  112.89    6.30
   2  -3 -10  106.79    7.40
  -2   3  10  107.59    6.50
  -2   3  10  101.29    6.70
  -2   3  10  109.59    7.20
   1  -3 -10    0.30    2.90
   1  -3 -10    0.20    2.30
  -1   3  10    1.60    2.50
  -1   3  10    1.30    3.10
  -1   3  10    5.30    3.40
  -1   3  10    2.90    1.80
  -1   3  10    1.60    2.10
  -1   3  10   -0.20    1.90
   0  -3 -10  359.96   16.40
   0  -3 -10  348.37   15.40
   0  -3 -10  370.26   15.30
   0  -3 -10  362.46   16.00
   0   3  10  351.06   14.90
   0   3  10  368.46   14.30
   0   3  10  359.56   15.80
   0   3  10  354.96   15.10
   0   3  10  336.77   15.60
   0   3  10  357.66   15.20
  -1  -3 -10   14.90    3.00
  -1  -3 -10   16.60    3.80
  -1  -3 -10   14.30    3.10
  -1  -3 -10   19.10    3.80
   1   3  10   15.90    2.30
   1   3  10   15.30    2.80
   1   3  10   16.60    2.40
   1   3  10   20.40    3.90
   1   3  10   14.50    3.10
   1   3  10   16.20    2.70
   1   3  10   16.20    2.70
   1   3  10   18.10    3.00
  -2  -3 -10   61.79    6.40
  -2  -3 -10   62.29    4.70
  -2  -3 -10   66.79    6.40
  -2  -3 -10   68.09    5.40
  -2  -3 -10   66.79    5.20
  -2  -3 -10   73.39    6.40
  -2  -3 -10   62.59    6.10
   2   3  10   68.59    4.30
   2   3  10   70.29    5.30
   2   3  10   71.29    5.00
   2   3  10   73.89    5.90
   2   3  10   64.99    4.50
   2   3  10   68.69    5.20
   2   3  10   65.79    4.30
  -3  -3 -10   56.49    5.50
  -3  -3 -10   64.49    6.50
  -3  -3 -10   64.49    4.90
  -3  -3 -10   67.19    6.50
  -3  -3 -10   60.59    6.30
  -3  -3 -10   62.59    5.90
  -3  -3 -10   65.49    5.40
   3   3  10   69.19    5.50
   3   3  10   59.79    5.40
   3   3  10   56.99    4.60
   3   3  10   72.69    6.50
   3   3  10   59.39    4.10
   3   3  10   63.39    4.10
   3   3  10   59.59    5.40
   3   3  10   61.99    4.70
  -4  -3 -10    0.80    2.80
  -4  -3 -10   -0.80    2.80
  -4  -3 -10    0.00    2.60
  -4  -3 -10    2.90    2.20
   4   3  10   -0.80    2.30
   4   3  10    1.30    1.60
   4   3  10    1.20    2.30
   4   3  10    1.50    2.30
   4   3  10    2.90    2.40
   4   3  10    3.90    3.50
  -5  -3 -10   56.69    5.20
  -5  -3 -10   54.39    4.40
  -5  -3 -10   51.89    5.20
  -5  -3 -10   54.89    5.80
  -5  -3 -10   60.89    5.30
   5   3  10   55.09    4.50
   5   3  10   63.19    5.60
   5   3  10   51.79    3.40
   5   3  10   62.29    5.90
   5   3  10   55.69    5.00
   5   3  10   54.19    4.70
   5   3  10   55.79    5.10
  -6  -3 -10   52.69    5.10
  -6  -3 -10   56.89    4.90
  -6  -3 -10   61.49    5.20
   6   3  10   56.89    4.70
   6   3  10   52.89    4.70
   6   3  10   55.79    5.10
  -7  -3 -10    2.90    2.30
  -7  -3 -10   -2.40    2.50
  -7  -3 -10    0.80    2.00
  -7  -3 -10    0.70    2.00
   7   3  10    0.90    2.00
   7   3  10    3.10    2.10
   7   3  10    2.10    2.10
   3  -4 -10   36.90    3.20
   3  -4 -10   31.30    3.50
  -3   4  10   42.40    3.60
  -3   4  10   41.40    3.90
   2  -4 -10    5.50    2.20
   2  -4 -10    5.80    2.30
   2  -4 -10    5.90    3.00
  -2   4  10    6.40    2.90
  -2   4  10    8.70    3.20
  -2   4  10    7.10    2.70
   1  -4 -10   21.30    4.50
   1  -4 -10   10.30    2.60
   1  -4 -10   13.00    2.90
   1  -4 -10   13.50    3.90
  -1   4  10   18.40    2.30
  -1   4  10   15.40    2.70
  -1   4  10   18.50    3.60
  -1   4  10   16.80    3.10
  -1   4  10   10.50    3.20
   0  -4 -10   18.10    3.00
   0  -4 -10   20.20    4.30
   0  -4 -10   22.70    3.70
   0  -4 -10   21.40    4.70
   0  -4 -10   21.50    4.20
   0   4  10   21.10    3.10
   0   4  10   14.70    2.50
   0   4  10   21.60    2.60
   0   4  10   24.10    3.90
   0   4  10   13.90    3.60
   0   4  10   21.50    2.50
   0   4  10   21.00    3.20
  -1  -4 -10   -2.00    3.30
  -1  -4 -10    4.40    2.80
  -1  -4 -10    2.70    3.90
  -1  -4 -10    3.10    2.90
  -1  -4 -10    0.70    3.40
  -1  -4 -10    1.90    2.40
  -1  -4 -10   -1.00    3.60
   1   4  10    4.20    2.20
   1   4  10    1.90    1.90
   1   4  10    1.50    2.20
   1   4  10    5.80    3.10
   1   4  10    1.90    2.50
   1   4  10    0.90    2.80
   1   4  10    1.30    1.90
  -2  -4 -10    4.80    2.90
  -2  -4 -10    3.60    3.60
  -2  -4 -10    4.10    3.80
  -2  -4 -10    6.90    4.30
  -2  -4 -10    2.00    2.50
  -2  -4 -10    3.40    3.70
  -2  -4 -10    1.70    2.90
   2   4  10    7.20    2.40
   2   4  10    4.90    2.50
   2   4  10    2.50    2.60
   2   4  10    5.70    2.00
   2   4  10    5.00    2.50
   2   4  10    2.30    1.90
   2   4  10    6.10    3.00
  -3  -4 -10   13.50    3.90
  -3  -4 -10   11.40    3.20
  -3  -4 -10   11.80    2.70
  -3  -4 -10   15.00    3.80
  -3  -4 -10    9.40    2.80
  -3  -4 -10   11.70    4.30
  -3  -4 -10    9.70    4.00
  -3  -4 -10   12.50    3.50
   3   4  10   10.70    3.10
   3   4  10    9.20    2.10
   3   4  10   10.70    2.90
   3   4  10    8.00    2.80
   3   4  10   14.30    2.30
   3   4  10   11.60    2.80
  -4  -4 -10   62.99    5.90
  -4  -4 -10   58.39    5.00
  -4  -4 -10   51.19    5.10
  -4  -4 -10   58.39    4.50
  -4  -4 -10   53.79    6.10
  -4  -4 -10   59.09    5.80
   4   4  10   60.79    5.20
   4   4  10   66.09    4.80
   4   4  10   64.29    4.20
   4   4  10   68.99    5.70
   4   4  10   59.29    5.30
   4   4  10   65.39    4.10
   4   4  10   46.20    4.50
  -5  -4 -10   20.00    3.60
  -5  -4 -10   21.80    3.10
  -5  -4 -10   24.40    4.20
  -5  -4 -10   29.60    4.20
  -5  -4 -10   26.60    4.10
   5   4  10   21.70    2.30
   5   4  10   19.90    3.40
   5   4  10   21.10    3.40
   5   4  10   19.30    3.50
   5   4  10   24.10    3.90
   5   4  10   21.30    3.20
   5   4  10   20.90    2.90
  -6  -4 -10    8.80    3.10
  -6  -4 -10    5.90    2.90
  -6  -4 -10    8.50    2.40
  -6  -4 -10    8.90    3.60
   6   4  10    7.10    2.80
   6   4  10    6.50    2.80
   6   4  10    9.10    2.50
  -7  -4 -10   72.79    5.40
  -7  -4 -10   73.29    5.00
   7   4  10   74.19    4.40
   7   4  10   70.69    4.70
   2  -5 -10    4.00    2.30
  -2   5  10   -0.80    1.20
  -2   5  10   -0.70    1.90
  -2   5  10    2.50    2.70
  -2   5  10    0.40    2.10
   1  -5 -10    9.60    3.50
   1  -5 -10    6.00    3.60
   1  -5 -10    3.40    3.30
  -1   5  10    8.10    1.90
  -1   5  10    4.70    2.30
  -1   5  10    9.50    2.10
  -1   5  10    8.00    2.80
   0  -5 -10   41.00    5.20
   0  -5 -10   42.60    5.10
   0  -5 -10   50.09    6.20
   0   5  10   29.60    3.40
   0   5  10   31.70    2.90
   0   5  10   41.20    3.60
  -1  -5 -10   -3.70    3.20
  -1  -5 -10    2.60    3.90
  -1  -5 -10   -0.40    3.20
  -1  -5 -10   -0.10    2.70
  -1  -5 -10    2.70    3.90
   1   5  10    0.90    2.20
   1   5  10   -1.20    1.80
   1   5  10   -0.30    2.00
   1   5  10   -1.30    2.10
   1   5  10    5.50    3.40
   1   5  10   -2.50    2.30
  -2  -5 -10  105.19    7.70
  -2  -5 -10  100.39    7.70
  -2  -5 -10  100.39    7.60
  -2  -5 -10  108.39    6.90
  -2  -5 -10   97.99    8.30
  -2  -5 -10   85.09    7.30
  -2  -5 -10  114.59    8.30
   2   5  10  107.49    5.50
   2   5  10  105.29    6.20
   2   5  10   84.99    6.20
   2   5  10  105.69    6.80
   2   5  10  104.09    6.40
   2   5  10  109.19    5.50
   2   5  10   97.99    6.00
  -3  -5 -10    6.40    4.70
  -3  -5 -10   -1.40    3.80
  -3  -5 -10    4.60    3.30
  -3  -5 -10    8.50    4.20
  -3  -5 -10   -1.00    2.80
  -3  -5 -10    4.80    3.70
   3   5  10    2.60    2.50
   3   5  10    2.60    1.80
   3   5  10    6.60    2.30
   3   5  10    3.30    2.00
   3   5  10    4.10    2.60
  -4  -5 -10  122.99    8.00
  -4  -5 -10  136.69    8.40
  -4  -5 -10  109.89    7.60
  -4  -5 -10  121.89    7.90
  -4  -5 -10  106.29    7.90
  -4  -5 -10  125.49    7.80
  -4  -5 -10  121.79    8.90
   4   5  10  141.59    8.00
   4   5  10  131.29    6.10
   4   5  10  109.09    7.10
   4   5  10  126.49    6.20
   4   5  10  118.89    6.80
   4   5  10  124.09    6.80
  -5  -5 -10   -0.50    2.80
  -5  -5 -10    1.40    2.60
  -5  -5 -10   -4.90    3.70
  -5  -5 -10    3.70    3.10
  -5  -5 -10    2.10    3.30
  -5  -5 -10    0.80    2.70
   5   5  10    2.90    2.80
   5   5  10    3.60    1.60
   5   5  10   -2.30    2.80
   5   5  10    1.50    2.20
   5   5  10    0.90    1.60
  -6  -5 -10   -0.70    3.00
  -6  -5 -10    1.20    2.60
  -6  -5 -10    2.20    2.50
   6   5  10    0.80    1.30
   6   5  10   -1.90    1.90
   6   5  10   -1.00    2.40
   6   5  10    0.60    3.90
  -7  -5 -10   19.00    3.00
   1  -6 -10   49.40    4.70
   1  -6 -10   31.00    4.10
  -1   6  10   40.20    2.90
   0  -6 -10    9.20    3.40
   0  -6 -10    9.00    3.50
   0  -6 -10    9.40    3.90
   0  -6 -10    7.80    3.30
   0  -6 -10    4.00    3.80
   0   6  10    4.10    1.70
   0   6  10    6.00    1.90
  -1  -6 -10    1.80    3.30
  -1  -6 -10    2.50    3.60
  -1  -6 -10    8.90    4.00
  -1  -6 -10   -0.40    3.40
  -1  -6 -10   -2.00    3.80
   1   6  10    0.40    1.80
   1   6  10    1.50    1.70
   1   6  10    0.50    3.10
  -2  -6 -10   16.70    4.30
  -2  -6 -10   32.00    5.80
  -2  -6 -10   22.90    3.70
  -2  -6 -10   18.70    4.70
  -2  -6 -10   12.40    3.90
   2   6  10   19.60    3.50
   2   6  10   22.00    2.40
   2   6  10   17.80    2.30
  -3  -6 -10   25.00    4.70
  -3  -6 -10   27.30    4.00
  -3  -6 -10   29.10    4.80
  -3  -6 -10   32.70    4.10
  -3  -6 -10   33.90    5.20
   3   6  10   27.40    2.70
   3   6  10   32.20    4.40
   3   6  10   26.20    2.50
  -4  -6 -10    2.70    4.10
  -4  -6 -10   -1.70    2.60
  -4  -6 -10   -2.50    3.60
  -4  -6 -10    0.40    2.60
  -4  -6 -10   -1.30    3.30
   4   6  10   -0.40    1.50
   4   6  10    2.30    1.70
   4   6  10   -1.50    3.00
  -5  -6 -10    0.00    3.50
  -5  -6 -10    4.10    2.40
  -5  -6 -10   -1.20    2.50
  -5  -6 -10    1.50    3.10
   5   6  10    4.30    1.50
   5   6  10   -1.20    2.50
   5   6  10    2.10    1.50
   5   6  10    5.10    2.80
  -6  -6 -10    5.60    2.70
  -6  -6 -10   -1.50    2.00
  -6  -6 -10    0.80    2.10
   6   6  10    0.30    1.10
   6   6  10    2.00    2.00
   0  -7 -10   31.20    4.00
   0  -7 -10   27.60    3.70
   0  -7 -10   26.80    3.50
   0   7  10   26.40    3.20
   0   7  10   35.70    2.70
  -1  -7 -10   -2.70    2.90
  -1  -7 -10    2.40    3.50
  -1  -7 -10   -4.60    2.90
  -1  -7 -10   -2.70    3.30
   1   7  10   -4.10    2.20
   1   7  10    0.90    1.50
   1   7  10    2.10    1.50
  -2  -7 -10   14.10    3.80
  -2  -7 -10   12.10    4.20
  -2  -7 -10    9.10    3.70
  -2  -7 -10   12.00    3.90
   2   7  10   13.90    1.90
   2   7  10   11.00    1.80
  -3  -7 -10   25.00    4.40
  -3  -7 -10   31.40    4.70
  -3  -7 -10   42.10    5.90
  -3  -7 -10   32.40    3.70
   3   7  10   37.20    2.90
   3   7  10   33.40    2.90
  -4  -7 -10    6.60    2.80
  -4  -7 -10    3.60    3.50
  -4  -7 -10    3.20    3.50
  -4  -7 -10    1.30    3.80
   4   7  10    3.20    1.60
   4   7  10    4.30    1.50
   4   7  10    1.80    2.40
  -5  -7 -10    8.70    2.60
  -5  -7 -10    1.30    2.40
  -5  -7 -10    0.50    3.00
   5   7  10    3.30    2.10
   5   7  10    7.10    1.40
  -2  -8 -10   32.10    3.80
  -2  -8 -10   47.70    6.30
   2   8  10   40.20    2.60
  -3  -8 -10   80.19    5.20
  -3  -8 -10   84.29    6.00
  -3  -8 -10   58.99    5.00
   3   8  10   79.29    3.60
  -4  -8 -10    1.60    3.60
   4   8  10    1.20    1.50
   0   5 -11    2.10    2.40
  -1   5 -11    2.60    1.70
  -1   5 -11    0.50    1.80
   1  -5  11    3.90    2.00
   1  -5  11    0.30    1.80
  -2   5 -11   76.09    4.80
   1   4 -11    0.70    1.90
   1   4 -11    0.90    2.00
   1   4 -11   -1.20    1.90
  -1  -4  11    2.30    2.30
  -1  -4  11   -2.00    2.60
  -1  -4  11    1.50    1.70
  -1  -4  11   -1.60    2.10
   0   4 -11    3.00    2.20
   0   4 -11    5.70    2.20
   0   4 -11    6.20    2.60
   0  -4  11    3.90    2.20
   0  -4  11    6.50    3.00
   0  -4  11    7.00    2.20
  -1   4 -11    0.40    2.40
  -1   4 -11   -1.30    2.20
   1  -4  11    2.80    2.50
   1  -4  11    2.50    2.40
   1  -4  11   -1.30    2.00
   1  -4  11    0.30    2.40
  -2   4 -11   29.20    3.20
  -2   4 -11   32.40    3.20
  -2   4 -11   23.50    2.90
   2  -4  11   27.50    3.00
   2  -4  11   34.30    3.60
   2  -4  11   35.70    3.50
   2  -4  11   32.90    3.50
  -3   4 -11   14.60    2.60
  -3   4 -11   10.30    2.20
  -3   4 -11    8.00    2.30
   3  -4  11   13.60    2.80
   3  -4  11   10.70    2.10
   3  -4  11   13.90    3.00
   3  -4  11    6.60    2.10
  -4   4 -11    4.70    2.10
   4  -4  11    3.60    2.30
   4  -4  11    5.70    2.30
   2   3 -11    7.60    2.50
   2   3 -11    9.00    2.20
  -2  -3  11    3.00    2.30
  -2  -3  11   13.10    2.50
  -2  -3  11    9.10    2.60
  -2  -3  11    9.20    2.60
   1   3 -11   -0.70    2.50
   1   3 -11    2.60    2.30
   1   3 -11    0.00    2.20
  -1  -3  11    0.00    2.60
  -1  -3  11    1.50    2.10
  -1  -3  11   -0.80    2.80
   0   3 -11   50.19    5.00
   0   3 -11   52.39    4.50
   0   3 -11   48.70    4.90
   0  -3  11   49.10    4.60
   0  -3  11   32.90    4.00
  -1   3 -11    3.40    2.40
  -1   3 -11   11.80    3.00
  -1   3 -11   10.80    2.80
   1  -3  11   10.00    3.10
   1  -3  11    5.80    2.90
   1  -3  11    9.00    2.90
  -2   3 -11    5.80    2.50
  -2   3 -11    3.80    2.70
   2  -3  11    2.20    2.80
   2  -3  11    4.30    2.70
   2  -3  11    7.30    2.80
   2  -3  11    0.70    2.60
  -3   3 -11    0.70    2.60
  -3   3 -11    2.90    2.50
  -3   3 -11   -1.60    2.40
   3  -3  11    0.50    2.10
   3  -3  11    2.90    2.50
   3  -3  11    0.80    2.80
  -4   3 -11   49.60    4.30
  -4   3 -11   48.80    4.30
  -4   3 -11   47.00    4.10
   4  -3  11   47.70    4.40
   4  -3  11   40.40    4.50
   4  -3  11   34.10    3.60
  -5   3 -11   15.40    3.30
   5  -3  11   11.30    2.00
   5  -3  11    4.30    2.10
  -3  -2  11   57.39    4.30
   2   2 -11  132.49    7.50
  -2  -2  11  131.89    7.30
  -2  -2  11  134.89    6.90
  -2  -2  11  124.49    7.20
   1   2 -11   32.30    4.00
   1   2 -11   25.60    3.10
  -1  -2  11   22.10    3.60
  -1  -2  11   25.20    3.30
  -1  -2  11   25.40    3.80
   0   2 -11   14.70    2.90
   0   2 -11   11.10    3.10
   0   2 -11    7.40    3.30
   0   2 -11   13.70    3.50
   0  -2  11   10.40    3.10
   0  -2  11   13.50    3.70
   0  -2  11   15.00    3.20
  -1   2 -11   57.79    5.60
  -1   2 -11   51.09    4.70
  -1   2 -11   58.79    5.10
  -1   2 -11   62.79    5.60
   1  -2  11   55.79    5.10
   1  -2  11   65.99    4.70
   1  -2  11   63.39    5.50
   1  -2  11   54.39    4.80
   1  -2  11   54.99    5.50
  -2   2 -11    6.00    2.70
  -2   2 -11    5.20    2.60
  -2   2 -11    4.80    3.10
  -2   2 -11    4.10    2.70
   2  -2  11    1.70    2.90
   2  -2  11    6.40    3.50
   2  -2  11    5.20    3.40
   2  -2  11    3.80    2.20
   2  -2  11    4.60    2.70
  -3   2 -11  101.29    6.10
  -3   2 -11  108.89    6.90
  -3   2 -11   81.29    5.90
   3  -2  11   96.89    6.60
   3  -2  11   96.49    6.60
   3  -2  11   82.49    6.20
  -4   2 -11  201.48    9.60
  -4   2 -11  197.78    9.10
  -4   2 -11  177.88    9.20
   4  -2  11  198.68    9.50
   4  -2  11  170.08    8.80
   4  -2  11  190.18    9.30
  -5   2 -11   27.00    3.30
  -5   2 -11   32.00    3.10
  -5   2 -11   27.60    3.00
   5  -2  11   34.50    3.50
   5  -2  11   22.60    2.80
   5  -2  11   36.40    3.40
   3   1 -11   13.60    3.90
   3   1 -11    3.20    1.80
  -3  -1  11    6.10    2.40
  -3  -1  11    8.70    2.50
   2   1 -11    1.90    2.20
   2   1 -11    0.70    2.70
   2   1 -11    4.10    2.30
  -2  -1  11    4.40    3.00
  -2  -1  11    2.20    2.70
   1   1 -11   30.50    3.30
   1   1 -11   31.90    4.20
   1   1 -11   26.90    3.90
  -1  -1  11   33.50    4.20
  -1  -1  11   29.10    3.90
   0   1 -11   24.80    3.80
   0   1 -11   27.90    4.40
   0   1 -11   18.60    3.10
   0   1 -11   26.90    3.40
   0   1 -11   32.30    3.80
   0  -1  11   28.10    3.50
   0  -1  11   33.00    4.10
   0  -1  11   35.40    4.70
   0  -1  11   31.20    3.40
   0  -1  11   26.70    4.10
  -1   1 -11  357.66   15.30
  -1   1 -11  344.17   15.50
  -1   1 -11  369.06   15.80
  -1   1 -11  357.16   14.70
   1  -1  11  365.06   15.40
   1  -1  11  353.06   15.30
   1  -1  11  373.46   15.80
   1  -1  11  321.97   14.40
   1  -1  11  306.77   14.60
   1  -1  11  360.36   15.40
   1  -1  11  331.87   14.60
  -2   1 -11  103.29    6.00
  -2   1 -11  100.69    7.10
  -2   1 -11  102.89    6.60
  -2   1 -11  113.29    6.50
  -2   1 -11  101.79    6.90
  -2   1 -11  105.99    7.20
   2  -1  11  103.59    6.70
   2  -1  11  108.29    7.40
   2  -1  11  111.89    6.70
   2  -1  11  102.29    6.30
   2  -1  11  118.49    7.60
   2  -1  11  100.09    6.20
  -3   1 -11   22.30    3.70
  -3   1 -11   20.70    3.20
  -3   1 -11   18.70    2.70
  -3   1 -11   19.90    4.10
  -3   1 -11   24.10    3.50
   3  -1  11   27.60    4.10
   3  -1  11   18.30    2.80
   3  -1  11   26.60    3.40
   3  -1  11   19.90    3.40
   3  -1  11   20.50    3.80
  -4   1 -11    1.40    3.00
  -4   1 -11    0.00    2.40
  -4   1 -11    1.70    2.70
  -4   1 -11    0.50    2.70
   4  -1  11   -0.80    3.00
   4  -1  11    7.20    2.90
   4  -1  11    5.80    3.10
  -5   1 -11   26.80    3.50
  -5   1 -11   29.60    3.60
  -5   1 -11   23.80    3.20
  -5   1 -11   19.30    3.60
   5  -1  11   15.80    3.00
   5  -1  11   16.50    2.80
   5  -1  11   30.00    3.60
  -6   1 -11   -2.40    1.90
  -6   1 -11   -1.10    2.00
  -6   1 -11    2.30    2.70
   6  -1  11   -0.50    2.00
   6  -1  11   -0.40    1.80
   6  -1  11    1.50    2.00
   3   0 -11    9.20    2.40
  -3   0  11    6.50    2.30
  -3   0  11    6.80    2.60
   2   0 -11   -0.70    2.60
   2   0 -11   -1.80    2.40
  -2   0  11   -3.60    2.90
  -2   0  11    0.50    2.70
  -2   0  11   -3.30    2.10
   1   0 -11   10.60    2.90
   1   0 -11   14.90    3.70
   1   0 -11    7.80    2.90
  -1   0  11    8.50    2.30
  -1   0  11   12.60    2.90
  -1   0  11   11.60    3.20
  -1   0  11    9.20    3.60
  -1   0  11   11.30    3.40
   0   0 -11    8.80    3.60
   0   0 -11    8.80    2.80
   0   0 -11    9.40    4.20
   0   0 -11    5.90    3.10
   0   0 -11    7.60    2.70
   0   0  11    6.40    3.00
   0   0  11    9.40    3.60
   0   0  11   10.50    2.70
   0   0  11    4.30    3.40
   0   0  11    8.50    3.20
   0   0  11   12.00    2.80
  -1   0 -11   48.70    4.50
  -1   0 -11   41.70    4.30
  -1   0 -11   29.90    4.30
  -1   0 -11   32.80    3.40
  -1   0 -11   34.90    3.60
  -1   0 -11   47.70    4.90
   1   0  11   33.90    4.10
   1   0  11   28.70    3.70
   1   0  11   43.00    4.00
   1   0  11   44.10    4.80
   1   0  11   46.10    4.50
   1   0  11   39.40    5.00
  -2   0 -11  111.89    7.30
  -2   0 -11  107.39    7.20
  -2   0 -11  116.89    7.70
  -2   0 -11  105.99    6.10
  -2   0 -11  107.59    6.50
  -2   0 -11  111.59    6.40
   2   0  11  111.89    7.20
   2   0  11  106.29    6.40
   2   0  11  107.59    6.20
   2   0  11  117.39    7.40
   2   0  11  110.19    6.90
   2   0  11  107.69    6.80
  -3   0 -11   10.20    3.00
  -3   0 -11   12.60    2.50
  -3   0 -11   14.90    3.50
  -3   0 -11   16.80    3.40
  -3   0 -11   12.00    2.80
  -3   0 -11   14.80    3.80
   3   0  11   14.40    3.00
   3   0  11   15.30    2.80
   3   0  11   13.40    3.50
   3   0  11    7.30    3.60
   3   0  11   12.20    3.20
   3   0  11   13.20    3.10
  -4   0 -11    0.20    2.00
  -4   0 -11    3.00    2.70
  -4   0 -11   -2.80    3.00
   4   0  11    0.70    2.40
   4   0  11    1.60    2.90
   4   0  11    1.70    2.10
   4   0  11   -0.70    2.50
   4   0  11   -0.20    2.80
   4   0  11    0.70    2.10
  -5   0 -11   73.99    6.00
  -5   0 -11   66.49    5.70
  -5   0 -11   64.39    5.20
   5   0  11   68.29    5.00
   5   0  11   61.29    4.70
   5   0  11   64.39    4.70
   5   0  11   66.69    5.60
   5   0  11   69.99    5.60
  -6   0 -11    9.60    2.70
  -6   0 -11   17.30    2.80
  -6   0 -11   16.30    2.70
   6   0  11   13.50    3.00
   6   0  11    5.50    2.30
   3  -1 -11    4.10    2.50
  -3   1  11    7.20    2.50
  -3   1  11    7.40    2.00
   2  -1 -11   30.70    3.60
   2  -1 -11   33.20    4.30
  -2   1  11   24.30    3.10
  -2   1  11   38.00    4.30
   1  -1 -11   44.40    4.40
   1  -1 -11   51.29    4.90
   1  -1 -11   50.99    5.20
  -1   1  11   34.80    4.30
  -1   1  11   50.49    4.70
  -1   1  11   54.89    4.90
  -1   1  11   51.49    4.10
   0  -1 -11   86.59    6.80
   0  -1 -11   83.19    5.60
   0  -1 -11   83.59    6.40
   0  -1 -11   89.89    6.70
   0   1  11   87.29    6.50
   0   1  11   81.99    6.60
   0   1  11   81.89    5.50
   0   1  11   86.59    6.00
  -1  -1 -11  221.28   10.60
  -1  -1 -11  223.28   11.40
  -1  -1 -11  203.48   10.90
  -1  -1 -11  211.68   10.00
  -1  -1 -11  234.78   11.20
   1   1  11  221.68   10.70
   1   1  11  227.18   10.30
   1   1  11  233.98   10.70
   1   1  11  218.08   10.90
   1   1  11  217.28   10.80
  -2  -1 -11   13.60    2.50
  -2  -1 -11   23.20    3.70
  -2  -1 -11   17.70    3.70
  -2  -1 -11   21.00    3.50
  -2  -1 -11   16.60    3.70
   2   1  11   22.10    3.50
   2   1  11   17.00    3.10
   2   1  11   21.80    3.80
   2   1  11   23.20    4.20
   2   1  11   14.50    3.30
   2   1  11   22.00    3.20
  -3  -1 -11    7.30    3.40
  -3  -1 -11    8.00    2.40
  -3  -1 -11    6.50    2.90
  -3  -1 -11    4.40    2.50
  -3  -1 -11    4.00    2.90
   3   1  11    5.30    3.20
   3   1  11    8.00    2.70
   3   1  11    5.50    2.50
   3   1  11    5.60    2.50
   3   1  11    5.70    3.20
   3   1  11    4.00    2.60
  -4  -1 -11   10.80    2.50
  -4  -1 -11    3.50    2.70
  -4  -1 -11    5.40    3.00
  -4  -1 -11    9.40    3.20
   4   1  11    5.40    2.50
   4   1  11    8.30    3.10
   4   1  11    8.70    3.40
   4   1  11    7.00    2.70
   4   1  11    5.30    2.90
   4   1  11    5.30    2.40
  -5  -1 -11  201.78   10.40
  -5  -1 -11  204.08   10.30
   5   1  11  217.68    9.80
   5   1  11  195.98    9.70
   5   1  11  202.28   10.20
  -6  -1 -11  105.19    6.50
  -6  -1 -11  131.79    7.10
   6   1  11  122.49    6.30
   6   1  11  120.99    6.30
   6   1  11  113.29    6.70
  -7  -1 -11    6.30    2.70
  -3   2  11   29.20    2.80
  -3   2  11   32.40    3.20
   2  -2 -11   15.40    3.60
  -2   2  11   17.00    3.30
  -2   2  11   11.80    2.80
  -2   2  11    6.50    2.50
   1  -2 -11   42.20    6.00
   1  -2 -11   19.90    3.80
   1  -2 -11   30.30    3.80
  -1   2  11   30.30    4.10
  -1   2  11   24.30    3.00
  -1   2  11   20.20    3.30
  -1   2  11   19.40    3.50
   0  -2 -11  316.37   14.40
   0  -2 -11  292.47   13.50
   0  -2 -11  308.37   14.20
   0  -2 -11  326.37   13.80
   0   2  11  313.57   13.50
   0   2  11  296.07   13.20
   0   2  11  287.47   13.30
   0   2  11  324.77   14.00
   0   2  11  287.77   13.70
  -1  -2 -11  118.39    7.00
  -1  -2 -11  127.39    7.30
  -1  -2 -11  119.59    7.90
  -1  -2 -11  117.99    7.90
   1   2  11  117.59    6.90
   1   2  11  110.69    6.70
   1   2  11  124.69    7.50
   1   2  11  112.49    7.30
  -2  -2 -11   12.80    3.40
  -2  -2 -11    9.60    3.70
  -2  -2 -11    9.00    2.30
  -2  -2 -11   12.30    3.00
  -2  -2 -11   10.80    3.10
  -2  -2 -11   15.70    3.70
  -2  -2 -11   11.00    3.50
   2   2  11   13.00    3.60
   2   2  11   12.40    3.50
   2   2  11   11.20    2.90
   2   2  11   10.10    2.70
   2   2  11   11.70    3.00
  -3  -2 -11    9.20    2.50
  -3  -2 -11    6.60    3.20
  -3  -2 -11    7.60    3.80
  -3  -2 -11    7.50    3.40
  -3  -2 -11    9.30    3.40
   3   2  11    3.90    2.60
   3   2  11    9.00    3.30
   3   2  11    6.30    3.00
   3   2  11    4.70    3.20
   3   2  11    4.00    3.40
   3   2  11    6.90    2.70
   3   2  11    7.10    2.90
  -4  -2 -11   14.30    3.50
  -4  -2 -11   12.30    3.40
  -4  -2 -11   17.90    2.90
  -4  -2 -11   12.50    3.30
   4   2  11   14.70    3.40
   4   2  11   15.00    3.20
   4   2  11   11.80    3.70
   4   2  11   10.90    2.90
   4   2  11   12.10    2.80
   4   2  11    6.40    2.70
   4   2  11   10.60    2.80
  -5  -2 -11    5.90    3.20
  -5  -2 -11    1.90    2.90
  -5  -2 -11    2.00    2.60
  -5  -2 -11    3.40    2.60
   5   2  11    2.40    2.90
   5   2  11    4.90    2.60
   5   2  11    8.00    3.10
  -6  -2 -11   26.70    3.30
  -6  -2 -11   21.80    3.40
   6   2  11   32.10    3.70
   6   2  11   31.90    3.60
   6   2  11   26.90    3.10
  -7  -2 -11   98.09    6.50
  -7  -2 -11  104.19    5.60
   7   2  11  128.29    6.60
   2  -3 -11   45.00    4.00
   2  -3 -11   44.80    4.70
   2  -3 -11   43.90    4.50
  -2   3  11   45.90    4.30
  -2   3  11   40.00    3.80
  -2   3  11   48.90    4.00
   1  -3 -11   -2.80    2.50
   1  -3 -11   -0.30    3.10
   1  -3 -11   -1.50    3.20
  -1   3  11    0.90    2.60
  -1   3  11   -3.20    2.30
  -1   3  11    0.00    3.20
   0  -3 -11    7.70    3.30
   0  -3 -11   13.60    3.20
   0  -3 -11   11.80    2.80
   0  -3 -11    8.90    3.10
   0   3  11    5.00    2.10
   0   3  11    7.70    3.40
   0   3  11    8.10    2.90
   0   3  11   10.60    3.10
   0   3  11   11.40    2.60
   0   3  11   11.70    2.90
  -1  -3 -11   11.70    3.90
  -1  -3 -11   11.10    3.40
  -1  -3 -11   10.30    3.00
  -1  -3 -11   11.20    4.00
  -1  -3 -11   10.50    2.80
   1   3  11   10.80    3.50
   1   3  11    9.20    2.80
   1   3  11    8.90    2.50
   1   3  11    8.70    2.00
   1   3  11   13.30    2.70
  -2  -3 -11    2.60    2.80
  -2  -3 -11    2.00    3.00
  -2  -3 -11    4.30    2.40
  -2  -3 -11   -3.10    3.20
  -2  -3 -11   -0.30    3.10
  -2  -3 -11    0.30    1.90
   2   3  11   -2.10    2.80
   2   3  11   -1.40    2.20
   2   3  11   -0.40    2.10
   2   3  11    1.30    2.60
   2   3  11   -1.70    1.60
  -3  -3 -11    1.20    3.40
  -3  -3 -11    3.70    3.00
  -3  -3 -11    5.30    2.30
  -3  -3 -11    1.30    2.80
  -3  -3 -11    5.60    3.00
   3   3  11    6.80    3.10
   3   3  11    3.30    2.40
   3   3  11    9.00    3.60
   3   3  11    4.40    2.60
   3   3  11   -0.40    2.60
   3   3  11    6.00    1.80
  -4  -3 -11   77.29    6.50
  -4  -3 -11   67.99    5.70
  -4  -3 -11   67.89    6.10
  -4  -3 -11   69.19    4.80
  -4  -3 -11   59.49    5.70
   4   3  11   71.99    5.40
   4   3  11   62.79    5.00
   4   3  11   75.49    6.20
   4   3  11   64.19    5.40
   4   3  11   64.09    5.00
   4   3  11   76.29    5.60
  -5  -3 -11    8.80    3.00
  -5  -3 -11   22.20    3.70
  -5  -3 -11   15.60    3.50
  -5  -3 -11   15.80    3.50
   5   3  11   10.90    2.80
   5   3  11   14.60    3.50
   5   3  11   14.50    3.40
  -6  -3 -11   36.30    4.10
  -6  -3 -11   42.10    4.10
  -6  -3 -11   44.70    4.00
  -6  -3 -11   35.20    3.70
   6   3  11   35.40    3.90
   6   3  11   43.50    3.60
   6   3  11   31.10    3.50
  -7  -3 -11   -3.10    2.40
   7   3  11    0.60    1.90
   7   3  11    3.10    1.70
   2  -4 -11   22.70    3.10
  -2   4  11   11.30    2.60
  -2   4  11   24.90    3.00
  -2   4  11   20.00    2.70
   1  -4 -11   22.80    4.30
   1  -4 -11   19.20    2.50
   1  -4 -11   18.20    3.60
  -1   4  11    7.90    2.40
  -1   4  11   15.90    2.80
  -1   4  11   20.10    3.50
   0  -4 -11   52.49    4.20
   0  -4 -11   55.99    5.80
   0  -4 -11   51.99    6.20
   0  -4 -11   56.49    5.60
   0   4  11   59.59    4.90
   0   4  11   51.39    3.60
   0   4  11   42.00    4.50
  -1  -4 -11   92.29    7.10
  -1  -4 -11   84.89    6.90
  -1  -4 -11   92.49    7.70
  -1  -4 -11   86.99    5.50
   1   4  11   87.79    5.50
   1   4  11   90.99    6.00
   1   4  11   86.19    4.70
   1   4  11   74.89    5.20
   1   4  11   84.09    5.70
   1   4  11   91.89    6.60
  -2  -4 -11   11.10    2.70
  -2  -4 -11    9.90    3.90
  -2  -4 -11    8.10    3.70
  -2  -4 -11    9.30    2.80
  -2  -4 -11   10.00    3.50
  -2  -4 -11    4.10    3.70
   2   4  11    5.00    2.20
   2   4  11    8.80    2.00
   2   4  11   11.20    2.10
   2   4  11   12.10    2.90
   2   4  11    7.40    2.50
   2   4  11    7.30    2.90
   2   4  11   11.50    3.30
  -3  -4 -11    4.70    3.40
  -3  -4 -11    1.50    3.80
  -3  -4 -11    3.90    2.60
  -3  -4 -11    5.50    3.20
   3   4  11    1.70    2.50
   3   4  11    1.40    2.20
   3   4  11    2.00    1.80
   3   4  11   -1.20    2.10
   3   4  11    2.80    2.80
   3   4  11   -0.60    3.10
   3   4  11    2.30    1.70
  -4  -4 -11   82.59    6.20
  -4  -4 -11   69.99    6.90
  -4  -4 -11   74.99    5.20
  -4  -4 -11   74.99    6.40
  -4  -4 -11   76.59    6.10
   4   4  11   72.99    4.20
   4   4  11   85.59    6.40
   4   4  11   77.79    5.20
   4   4  11   80.99    5.70
   4   4  11   65.99    7.70
  -5  -4 -11    1.20    2.70
  -5  -4 -11   -1.90    2.80
  -5  -4 -11    2.30    2.70
  -5  -4 -11   -0.80    2.20
  -5  -4 -11    0.00    3.00
   5   4  11    0.90    2.30
   5   4  11    4.40    3.00
   5   4  11    3.10    2.80
   5   4  11    4.00    1.40
  -6  -4 -11   20.70    3.50
  -6  -4 -11   14.30    2.70
  -6  -4 -11   19.80    3.20
  -6  -4 -11   14.50    2.40
   6   4  11   15.50    2.40
   6   4  11   13.50    2.90
   6   4  11   19.00    2.80
   1  -5 -11   19.60    3.30
   1  -5 -11   36.30    3.90
  -1   5  11   25.40    2.70
  -1   5  11   14.30    2.30
  -1   5  11   27.60    2.20
  -1   5  11   24.00    3.20
   0  -5 -11   14.30    3.60
   0  -5 -11   12.10    4.00
   0   5  11   11.80    3.10
   0   5  11   12.80    1.90
   0   5  11   10.90    2.50
  -1  -5 -11   -1.80    2.90
  -1  -5 -11    2.80    3.70
  -1  -5 -11   -0.10    2.80
   1   5  11    0.90    3.00
   1   5  11    0.80    1.70
   1   5  11    1.60    1.80
   1   5  11    0.60    2.30
  -2  -5 -11  280.47   12.60
  -2  -5 -11  295.07   13.70
  -2  -5 -11  297.97   13.80
  -2  -5 -11  293.07   14.50
  -2  -5 -11  264.57   13.00
   2   5  11  276.67   11.60
   2   5  11  285.27   12.80
   2   5  11  293.27   11.50
   2   5  11  270.07   12.20
  -3  -5 -11    8.30    3.40
  -3  -5 -11    2.50    3.60
  -3  -5 -11    3.60    3.60
  -3  -5 -11    6.40    2.90
   3   5  11    6.60    2.00
   3   5  11    3.80    2.40
   3   5  11    5.20    1.70
  -4  -5 -11  142.59    8.50
  -4  -5 -11  143.19    8.20
  -4  -5 -11  139.59    7.90
  -4  -5 -11  142.69    9.00
   4   5  11  140.59    6.40
   4   5  11  142.69    8.00
   4   5  11  144.69    7.20
   4   5  11  136.99    6.50
  -5  -5 -11   23.40    3.60
  -5  -5 -11   21.80    3.30
  -5  -5 -11   33.80    3.80
   5   5  11   24.30    3.50
   5   5  11   27.60    2.40
   5   5  11   20.30    3.10
   5   5  11   23.10    2.90
  -6  -5 -11   11.40    2.40
  -6  -5 -11   13.40    2.70
   6   5  11   11.10    2.00
   6   5  11   11.30    2.80
   6   5  11   10.10    2.40
   0  -6 -11   11.20    2.90
   0  -6 -11   19.60    3.60
   0   6  11   15.40    3.10
   0   6  11   12.00    1.70
  -1  -6 -11    9.80    4.00
  -1  -6 -11    1.40    3.30
   1   6  11    4.30    1.60
   1   6  11    6.50    2.80
   1   6  11    5.50    1.90
  -2  -6 -11   70.59    7.00
  -2  -6 -11   70.69    5.40
  -2  -6 -11   65.99    6.00
   2   6  11   68.89    4.00
   2   6  11   60.39    5.10
   2   6  11   69.29    4.20
  -3  -6 -11   10.40    4.00
  -3  -6 -11   20.90    3.40
  -3  -6 -11    9.10    3.90
  -3  -6 -11   11.30    3.10
   3   6  11   15.10    2.00
   3   6  11   11.40    1.90
  -4  -6 -11    1.40    3.30
  -4  -6 -11    4.00    3.40
  -4  -6 -11    2.50    2.80
  -4  -6 -11    3.30    2.50
   4   6  11    3.30    1.40
   4   6  11    4.20    2.20
   4   6  11    5.10    2.90
  -5  -6 -11   -0.50    2.10
  -5  -6 -11  -10.00    3.10
  -5  -6 -11   -1.20    2.20
  -5  -6 -11    0.00    2.00
   5   6  11   -0.60    2.10
   5   6  11   -0.40    2.20
   5   6  11    0.10    1.20
  -1  -7 -11   31.40    5.20
   1   7  11   19.60    1.70
  -2  -7 -11    0.90    3.20
  -2  -7 -11   -1.00    3.90
  -2  -7 -11    1.40    2.60
   2   7  11    1.60    1.20
  -3  -7 -11   -1.60    2.80
  -3  -7 -11    0.20    3.20
  -3  -7 -11   -1.10    2.60
   3   7  11    2.90    2.30
   3   7  11   -0.10    1.10
  -4  -7 -11    3.30    2.70
  -4  -7 -11    2.10    2.20
   4   7  11    2.40    3.20
   4   7  11    3.50    2.20
   4   7  11    1.50    1.10
  -1   4 -12   17.10    3.10
   1   3 -12   16.50    2.60
  -1  -3  12   18.10    2.90
  -1  -3  12   16.20    2.30
   0   3 -12   16.60    2.40
   0   3 -12   22.30    2.70
   0   3 -12   19.30    2.70
   0  -3  12   18.20    2.90
   0  -3  12   18.40    2.80
   0  -3  12   19.10    3.20
  -1   3 -12    3.10    2.30
  -1   3 -12   -2.30    2.10
  -1   3 -12    0.60    2.00
   1  -3  12   -0.20    2.10
   1  -3  12   -1.70    2.20
   1  -3  12    0.80    2.20
   1  -3  12   -0.60    2.10
  -2   3 -12    0.70    2.30
  -2   3 -12   -0.80    2.00
   2  -3  12   -0.90    2.10
   2  -3  12   -2.40    2.10
   2  -3  12    2.70    2.00
   2  -3  12    1.50    2.10
  -3   3 -12   25.30    2.80
  -3   3 -12   36.80    3.00
   3  -3  12   26.00    3.30
   3  -3  12   20.20    3.50
   3  -3  12   18.30    2.60
   3  -3  12   36.20    3.40
   4  -3  12   17.80    3.00
   1   2 -12  128.39    6.20
   1   2 -12  129.09    7.00
  -1  -2  12  130.39    6.90
   0   2 -12    7.70    2.40
   0   2 -12    9.20    2.50
   0   2 -12   11.80    3.00
   0  -2  12    3.20    2.30
   0  -2  12   10.90    2.80
   0  -2  12    7.00    2.80
  -1   2 -12   43.10    4.50
  -1   2 -12   51.09    4.40
  -1   2 -12   32.10    3.30
   1  -2  12   47.50    4.50
   1  -2  12   43.30    4.40
   1  -2  12   36.00    3.80
  -2   2 -12   -0.80    2.30
  -2   2 -12   -5.40    2.50
   2  -2  12   -0.30    2.20
   2  -2  12   -1.50    2.20
   2  -2  12    0.70    2.80
   2  -2  12    0.40    2.50
  -3   2 -12   30.60    3.60
  -3   2 -12   26.90    3.10
   3  -2  12   21.10    3.10
   3  -2  12   21.10    3.20
  -4   2 -12   10.70    2.50
  -4   2 -12    6.00    2.20
   4  -2  12    4.60    2.30
   4  -2  12    9.70    2.40
   5  -2  12   36.60    4.30
   2   1 -12    4.50    2.00
  -2  -1  12    4.40    2.20
  -2  -1  12    1.30    2.20
   1   1 -12   14.30    3.00
   1   1 -12    8.00    2.60
  -1  -1  12    6.60    2.60
  -1  -1  12   14.90    3.10
   0   1 -12   42.60    4.50
   0   1 -12   49.20    4.60
   0   1 -12   34.90    3.40
   0  -1  12   44.10    4.20
   0  -1  12   40.90    4.70
   0  -1  12   48.70    4.80
  -1   1 -12   26.20    4.00
  -1   1 -12   25.20    3.50
  -1   1 -12   22.80    3.10
  -1   1 -12   10.10    3.40
   1  -1  12   21.30    3.80
   1  -1  12   17.90    3.70
   1  -1  12   12.60    2.90
  -2   1 -12   26.50    3.20
  -2   1 -12   20.80    3.40
  -2   1 -12   30.60    3.90
  -2   1 -12   26.90    3.90
   2  -1  12   27.40    4.00
   2  -1  12   24.20    3.90
  -3   1 -12   12.10    3.10
  -3   1 -12    8.30    3.10
  -3   1 -12    6.80    2.50
   3  -1  12   13.10    3.50
   3  -1  12    8.90    3.20
  -4   1 -12   19.80    3.40
  -4   1 -12   21.40    2.90
  -4   1 -12   21.00    3.00
   4  -1  12   21.40    3.40
   4  -1  12   23.20    3.50
   4  -1  12   18.50    2.90
  -5   1 -12   47.60    4.30
  -5   1 -12   46.40    4.10
   5  -1  12   41.10    3.50
   5  -1  12   39.00    3.70
   2   0 -12    0.70    2.30
   2   0 -12    0.70    1.70
   2   0 -12   -1.30    1.70
  -2   0  12   -4.00    2.00
  -2   0  12    0.70    2.20
   1   0 -12   69.49    5.60
   1   0 -12   56.59    4.70
  -1   0  12   55.89    4.50
  -1   0  12   59.19    5.10
  -1   0  12   66.19    5.30
   0   0 -12    6.80    3.30
   0   0 -12    3.20    2.90
   0   0  12    6.60    2.80
   0   0  12    9.60    3.10
   0   0  12    6.60    3.10
   0   0  12    3.40    2.60
  -1   0 -12   16.80    3.10
  -1   0 -12   11.70    3.20
  -1   0 -12   13.70    3.60
   1   0  12   11.50    2.90
   1   0  12   14.50    3.50
   1   0  12    9.60    2.60
   1   0  12   11.40    3.50
  -2   0 -12  485.25   19.90
  -2   0 -12  477.65   19.50
  -2   0 -12  479.15   19.80
   2   0  12  435.16   19.60
   2   0  12  462.25   19.00
   2   0  12  482.95   19.60
  -3   0 -12   63.99    5.50
  -3   0 -12   72.19    6.00
  -3   0 -12   69.89    6.10
   3   0  12   77.89    5.30
   3   0  12   76.19    6.00
   3   0  12   72.49    5.40
   3   0  12   65.69    5.50
  -4   0 -12   19.60    3.70
  -4   0 -12   23.10    3.70
   4   0  12   15.00    3.10
   4   0  12   15.10    2.70
   4   0  12   16.10    3.30
   4   0  12   12.60    2.90
  -5   0 -12   -0.10    2.20
  -5   0 -12   -0.40    2.40
   5   0  12    1.20    2.40
   5   0  12    2.30    2.10
   5   0  12   -0.70    1.90
  -6   0 -12    0.30    2.30
   6   0  12    0.20    2.50
   2  -1 -12    4.50    2.20
   2  -1 -12    6.10    2.30
  -2   1  12    4.50    1.90
  -2   1  12    4.10    2.10
   1  -1 -12   51.09    5.00
   1  -1 -12   57.59    4.90
   1  -1 -12   50.19    4.90
  -1   1  12   40.00    4.00
  -1   1  12   47.90    4.70
  -1   1  12   48.90    4.40
   0  -1 -12    1.70    2.80
   0  -1 -12   -3.20    2.70
   0  -1 -12    3.30    2.60
   0   1  12   -1.70    2.40
   0   1  12    0.70    3.00
   0   1  12   -1.90    2.50
  -1  -1 -12   -3.50    2.80
  -1  -1 -12    2.30    3.00
   1   1  12    0.00    2.20
   1   1  12    1.90    3.10
   1   1  12   -0.70    2.70
   1   1  12   -1.70    1.90
  -2  -1 -12  105.29    6.90
  -2  -1 -12  107.29    7.40
  -2  -1 -12   99.09    6.90
  -2  -1 -12  106.49    6.80
  -2  -1 -12  106.69    6.90
  -2  -1 -12  107.49    7.40
   2   1  12  116.49    7.20
   2   1  12  110.29    6.70
   2   1  12  108.69    6.60
   2   1  12   99.49    6.00
   2   1  12   98.99    6.50
  -3  -1 -12   38.60    4.40
  -3  -1 -12   33.40    4.00
  -3  -1 -12   33.30    4.10
   3   1  12   27.20    3.90
   3   1  12   35.30    3.80
   3   1  12   33.30    4.00
  -4  -1 -12    2.20    2.90
  -4  -1 -12    1.40    2.80
  -4  -1 -12    0.90    2.40
   4   1  12    1.30    2.50
   4   1  12    3.00    2.50
   4   1  12    2.90    2.90
  -5  -1 -12  133.79    6.80
  -5  -1 -12  131.89    7.20
  -5  -1 -12  126.99    7.10
   5   1  12  107.19    6.10
   5   1  12  114.59    7.00
   5   1  12  119.59    6.50
  -6  -1 -12  115.89    6.10
  -6  -1 -12  113.59    6.10
   6   1  12   95.29    5.80
   6   1  12  110.89    5.90
   2  -2 -12   -0.60    1.90
   2  -2 -12   -0.30    2.30
   2  -2 -12    2.30    2.20
  -2   2  12   -2.60    2.10
  -2   2  12    0.20    1.90
   1  -2 -12    4.90    2.90
   1  -2 -12    8.10    3.00
   1  -2 -12    7.10    2.60
  -1   2  12    3.40    2.40
  -1   2  12    4.20    2.60
  -1   2  12   11.00    3.00
   0  -2 -12   63.39    5.80
   0  -2 -12   52.39    5.40
   0  -2 -12   59.49    5.30
   0   2  12   56.29    5.00
   0   2  12   64.19    5.60
   0   2  12   49.99    4.80
  -1  -2 -12   23.30    3.80
  -1  -2 -12   16.40    3.40
  -1  -2 -12   19.50    3.60
  -1  -2 -12   23.40    4.40
   1   2  12   18.60    2.90
   1   2  12   17.40    3.10
   1   2  12   19.90    3.80
  -2  -2 -12  167.48    9.80
  -2  -2 -12  177.18    9.20
  -2  -2 -12  176.68    9.70
   2   2  12  173.48    8.40
   2   2  12  176.78    9.20
   2   2  12  153.38    9.00
   2   2  12  167.58    9.00
   2   2  12  179.88    8.80
  -3  -2 -12    0.80    3.00
  -3  -2 -12    3.40    2.80
  -3  -2 -12    4.80    3.30
  -3  -2 -12    0.60    3.00
   3   2  12    5.50    3.10
   3   2  12    2.30    2.50
   3   2  12    5.70    3.10
  -4  -2 -12    0.90    2.70
  -4  -2 -12    0.50    2.90
  -4  -2 -12    0.20    2.70
   4   2  12    0.30    2.50
   4   2  12   -0.10    3.00
   4   2  12    2.40    2.40
   4   2  12    0.20    2.70
  -5  -2 -12   -1.00    2.50
  -5  -2 -12   -4.00    2.40
  -5  -2 -12    1.80    2.40
   5   2  12   -0.10    2.20
   5   2  12   -1.10    2.30
   5   2  12    1.00    2.60
  -6  -2 -12   15.80    2.90
  -6  -2 -12   21.20    3.10
  -6  -2 -12   11.80    2.50
  -6  -2 -12    8.90    2.20
   6   2  12    7.70    2.10
   6   2  12    9.00    2.00
   6   2  12    9.10    2.20
  -2   3  12   19.90    3.10
   1  -3 -12   41.10    4.50
   1  -3 -12   42.60    3.80
   1  -3 -12   48.00    4.90
  -1   3  12   37.10    3.40
  -1   3  12   37.50    3.80
  -1   3  12   41.30    3.90
   0  -3 -12   37.90    3.70
   0  -3 -12   36.10    3.90
   0  -3 -12   35.10    4.40
   0  -3 -12   35.30    4.60
   0   3  12   40.20    4.20
   0   3  12   30.40    3.40
   0   3  12   32.90    3.60
  -1  -3 -12   17.00    3.50
  -1  -3 -12   17.10    3.90
  -1  -3 -12   25.00    4.00
  -1  -3 -12   16.90    3.30
   1   3  12   15.40    3.50
   1   3  12   10.40    3.00
   1   3  12   16.00    3.00
  -2  -3 -12   53.89    5.10
  -2  -3 -12   47.80    5.60
  -2  -3 -12   58.69    5.40
  -2  -3 -12   43.70    4.80
   2   3  12   62.09    5.80
   2   3  12   40.90    4.20
   2   3  12   57.79    5.30
   2   3  12   37.60    4.00
  -3  -3 -12  129.29    8.70
  -3  -3 -12  129.69    7.50
  -3  -3 -12  134.99    8.30
  -3  -3 -12  139.19    7.60
  -3  -3 -12  128.39    7.40
   3   3  12  148.39    7.50
   3   3  12  140.99    8.00
   3   3  12  138.49    7.70
   3   3  12  126.99    7.40
  -4  -3 -12   20.70    3.60
  -4  -3 -12   10.50    3.00
  -4  -3 -12   17.80    3.20
  -4  -3 -12   20.10    3.30
   4   3  12   18.50    3.10
   4   3  12   21.30    3.50
   4   3  12   18.40    3.50
   4   3  12   16.30    3.30
  -5  -3 -12    3.90    2.40
  -5  -3 -12    8.30    2.70
  -5  -3 -12    5.20    2.40
  -5  -3 -12    2.10    2.30
   5   3  12    2.90    2.30
   5   3  12    1.90    2.50
   5   3  12    6.20    2.70
  -6  -3 -12   72.09    6.60
  -6  -3 -12   60.69    4.50
  -6  -3 -12   57.19    3.90
   6   3  12   51.49    4.10
   6   3  12   55.89    4.00
   6   3  12   57.59    4.00
   1  -4 -12    1.60    2.40
   1  -4 -12    1.50    2.30
  -1   4  12    1.90    2.10
  -1   4  12    2.10    2.40
  -1   4  12    1.10    2.00
   0  -4 -12  220.28   11.20
   0  -4 -12  218.18   10.60
   0   4  12  215.48   10.10
   0   4  12  218.78    9.80
  -1  -4 -12   29.80    4.30
  -1  -4 -12   30.70    4.80
  -1  -4 -12   30.30    3.00
  -1  -4 -12   40.30    4.40
   1   4  12   26.70    3.70
   1   4  12   28.40    3.10
   1   4  12   34.70    3.60
  -2  -4 -12   51.79    5.80
  -2  -4 -12   38.70    4.60
  -2  -4 -12   54.59    4.20
  -2  -4 -12   55.79    4.70
  -2  -4 -12   59.49    6.00
   2   4  12   51.39    3.20
   2   4  12   53.39    5.20
   2   4  12   62.59    5.00
   2   4  12   33.40    4.00
  -3  -4 -12   58.79    6.20
  -3  -4 -12   40.20    4.40
  -3  -4 -12   49.99    4.00
  -3  -4 -12   53.69    5.00
   3   4  12   56.19    4.80
   3   4  12   45.30    3.00
   3   4  12   41.00    4.20
   3   4  12   28.60    3.70
  -4  -4 -12   23.20    3.80
  -4  -4 -12   15.40    2.50
  -4  -4 -12   13.50    2.90
  -4  -4 -12   12.80    3.30
  -4  -4 -12   21.90    3.50
   4   4  12   18.80    2.90
   4   4  12   18.10    3.40
   4   4  12   18.90    3.30
  -5  -4 -12   -3.80    2.10
  -5  -4 -12    3.70    2.40
  -5  -4 -12   -0.50    2.30
   5   4  12    2.70    2.50
   5   4  12    2.80    2.20
   5   4  12    1.20    2.20
  -6  -4 -12   55.69    4.70
  -6  -4 -12   55.59    4.90
   6   4  12   55.59    3.80
   6   4  12   59.29    3.90
   0  -5 -12   11.00    3.00
   0  -5 -12    6.90    2.70
   0   5  12    5.40    2.50
   0   5  12    7.80    2.00
  -1  -5 -12   -0.10    3.20
  -1  -5 -12    1.70    1.90
  -1  -5 -12   -1.80    2.80
   1   5  12   -2.20    2.50
   1   5  12    2.40    1.30
   1   5  12    0.30    2.00
  -2  -5 -12   56.79    5.10
  -2  -5 -12   63.29    6.20
   2   5  12   61.69    3.40
   2   5  12   58.19    5.10
   2   5  12   53.49    4.70
   2   5  12   60.09    4.60
  -3  -5 -12    1.10    3.50
  -3  -5 -12    0.90    2.60
  -3  -5 -12    0.40    2.40
   3   5  12   -1.60    2.00
   3   5  12   -1.80    2.80
   3   5  12   -1.80    1.30
  -4  -5 -12   24.30    3.40
  -4  -5 -12   18.20    3.10
  -4  -5 -12   15.80    3.50
   4   5  12   23.00    3.30
   4   5  12   16.90    3.10
   4   5  12   14.40    1.60
   4   5  12   24.20    2.70
  -5  -5 -12    2.80    2.10
  -5  -5 -12    8.30    2.40
   5   5  12    5.40    1.90
   5   5  12    5.30    2.10
   5   5  12    3.00    2.20
  -1  -6 -12    1.70    2.60
   1   6  12   -1.20    1.90
   1   6  12    2.70    1.20
  -2  -6 -12    6.30    3.20
  -2  -6 -12    3.00    2.00
   2   6  12    4.00    1.90
   2   6  12    6.00    2.50
   2   6  12    3.80    1.30
  -3  -6 -12    0.70    2.90
  -3  -6 -12   -2.20    1.90
   3   6  12   -1.10    2.20
   3   6  12   -0.20    1.10
  -4  -6 -12    1.70    2.50
  -4  -6 -12   -0.50    2.00
   4   6  12    0.70    1.00
   4   6  12    0.70    2.10
   4   6  12    1.20    1.90
  -1   2 -13    0.70    1.70
   1  -2  13   -1.90    1.80
   1  -2  13   -0.30    2.80
   1  -2  13    1.60    1.70
  -2   2 -13    6.30    2.40
  -2   2 -13    5.10    2.00
   2  -2  13    9.80    3.10
   2  -2  13    4.40    2.10
   2  -2  13    7.70    2.20
  -3   2 -13   -1.20    1.80
   3  -2  13   -2.40    1.50
   3  -2  13   -0.90    1.90
   0   1 -13   82.59    5.30
   0   1 -13   64.59    4.80
   0  -1  13   74.29    5.00
  -1   1 -13   10.80    2.60
  -1   1 -13    5.50    2.20
  -1   1 -13   12.20    2.30
   1  -1  13    8.00    2.60
   1  -1  13    5.90    2.10
   1  -1  13    6.30    2.40
  -2   1 -13    4.60    2.50
  -2   1 -13    3.30    2.00
  -2   1 -13    5.90    2.40
   2  -1  13    7.90    2.80
   2  -1  13    3.30    2.40
  -3   1 -13    0.10    2.30
  -3   1 -13   -0.60    2.00
   3  -1  13    0.10    2.00
   3  -1  13   -1.20    2.20
  -4   1 -13    0.30    2.10
  -4   1 -13    1.90    1.70
   4  -1  13    1.40    1.80
   4  -1  13    2.50    2.00
  -1   0  13  123.29    6.90
   0   0 -13   17.10    3.00
   0   0 -13   11.40    2.80
   0   0  13    5.20    2.30
   0   0  13   10.10    2.40
   0   0  13   13.30    2.30
  -1   0 -13   10.20    2.90
  -1   0 -13   10.70    2.90
   1   0  13   13.40    3.10
   1   0  13    4.70    1.80
   1   0  13    6.60    2.40
   1   0  13   10.30    2.30
  -2   0 -13   24.40    3.40
  -2   0 -13   24.20    3.20
  -2   0 -13   19.50    3.30
   2   0  13   22.80    3.50
   2   0  13   21.00    3.30
   2   0  13   16.80    2.50
  -3   0 -13    5.30    2.70
  -3   0 -13   13.10    2.90
  -3   0 -13    2.40    2.10
   3   0  13    4.50    2.60
   3   0  13    3.30    2.30
   3   0  13    5.80    2.40
  -4   0 -13   26.10    3.00
  -4   0 -13   24.90    3.20
   4   0  13   31.30    3.10
   4   0  13   28.70    2.90
   4   0  13   24.40    3.10
   1  -1 -13   61.69    4.20
   1  -1 -13   55.49    4.80
  -1   1  13   57.09    5.40
   0  -1 -13   14.90    2.80
   0  -1 -13   13.50    2.80
   0   1  13   20.30    2.60
   0   1  13   10.20    2.00
   0   1  13   14.20    2.70
  -1  -1 -13   31.40    4.10
  -1  -1 -13   16.50    3.10
  -1  -1 -13   23.50    3.60
   1   1  13   19.50    2.80
   1   1  13   20.80    3.30
  -2  -1 -13   59.79    5.10
  -2  -1 -13   68.89    5.40
  -2  -1 -13   63.49    5.50
   2   1  13   60.69    4.70
   2   1  13   66.19    5.20
  -3  -1 -13  132.99    7.00
  -3  -1 -13  126.59    7.20
   3   1  13  126.39    6.50
   3   1  13  129.19    7.10
   3   1  13  110.99    6.60
  -4  -1 -13    3.50    2.50
  -4  -1 -13    0.90    2.00
  -4  -1 -13    1.60    2.50
   4   1  13   -0.10    2.00
   4   1  13    0.70    2.20
   4   1  13    1.10    2.30
  -5  -1 -13    1.30    2.70
  -5  -1 -13    1.00    2.00
  -5  -1 -13    0.20    2.00
   5   1  13    1.50    2.00
   1  -2 -13   -0.80    2.90
   0  -2 -13    8.80    2.30
   0  -2 -13    7.40    2.50
   0  -2 -13    5.80    2.90
   0  -2 -13    6.40    2.30
   0   2  13    4.90    2.50
   0   2  13    5.10    2.20
   0   2  13    5.70    1.70
  -1  -2 -13    1.00    3.30
  -1  -2 -13    2.00    2.70
  -1  -2 -13   -0.20    2.50
  -1  -2 -13   -1.00    2.50
   1   2  13    0.00    2.50
   1   2  13    0.50    2.40
  -2  -2 -13   27.10    4.10
  -2  -2 -13   22.40    3.50
  -2  -2 -13   16.90    3.20
   2   2  13   17.80    3.30
   2   2  13   17.30    4.30
   2   2  13   17.20    2.80
  -3  -2 -13   57.39    4.60
  -3  -2 -13   62.39    5.10
  -3  -2 -13   63.19    5.50
   3   2  13   59.59    4.80
   3   2  13   60.39    5.00
   3   2  13   61.99    4.80
  -4  -2 -13   27.00    3.20
  -4  -2 -13   25.20    3.10
  -4  -2 -13   19.30    2.90
  -4  -2 -13   17.60    3.00
   4   2  13   24.00    2.90
   4   2  13   18.70    2.70
   4   2  13   18.30    3.00
  -5  -2 -13   13.90    2.40
  -5  -2 -13    8.80    2.30
  -5  -2 -13    8.70    2.30
   5   2  13   11.20    2.40
   5   2  13   10.10    2.10
   0  -3 -13   28.40    4.60
   0  -3 -13   27.00    2.70
   0  -3 -13   25.70    3.70
   0  -3 -13   32.50    3.40
   0   3  13   27.60    2.90
   0   3  13   22.90    2.90
  -1  -3 -13    6.00    2.40
  -1  -3 -13    6.50    3.30
  -1  -3 -13    4.00    2.20
  -1  -3 -13   10.20    3.00
   1   3  13    6.60    2.40
   1   3  13    3.40    2.70
  -2  -3 -13   57.49    5.60
  -2  -3 -13   32.40    3.50
  -2  -3 -13   43.90    4.50
  -2  -3 -13   45.70    4.10
   2   3  13   50.29    4.30
   2   3  13   39.70    3.90
   2   3  13   55.19    4.40
  -3  -3 -13  106.69    6.90
  -3  -3 -13  105.59    6.20
  -3  -3 -13  107.09    5.80
  -3  -3 -13  105.59    6.80
   3   3  13   99.39    6.00
   3   3  13   90.59    6.00
   3   3  13  109.79    6.00
  -4  -3 -13    6.10    2.40
  -4  -3 -13    4.10    2.10
  -4  -3 -13    2.90    2.40
  -4  -3 -13    1.70    2.10
   4   3  13    4.40    2.20
   4   3  13    4.20    2.40
   4   3  13    3.80    2.20
  -5  -3 -13   34.10    3.20
  -5  -3 -13   43.20    4.00
  -5  -3 -13   40.80    3.60
   5   3  13   35.90    3.60
   5   3  13   39.60    3.70
   5   3  13   45.90    3.60
   0   4  13   18.60    3.20
   0   4  13   15.40    2.90
  -1  -4 -13   42.30    4.20
  -1  -4 -13   46.70    4.80
  -1  -4 -13   35.10    3.60
   1   4  13   34.70    3.40
   1   4  13   34.10    3.70
   1   4  13   44.30    3.90
  -2  -4 -13   56.39    5.00
  -2  -4 -13   60.59    5.50
   2   4  13   47.20    4.50
   2   4  13   58.49    4.50
  -3  -4 -13   53.79    5.00
  -3  -4 -13   50.09    5.00
  -3  -4 -13   50.39    4.20
   3   4  13   51.69    3.90
   3   4  13   37.50    3.50
   3   4  13   54.29    4.10
   3   4  13   49.00    4.50
  -4  -4 -13    6.40    2.30
  -4  -4 -13    4.80    2.40
   4   4  13    1.40    2.30
   4   4  13    3.80    2.20
   4   4  13    2.00    2.00
  -5  -4 -13    3.60    2.00
   5   4  13    1.80    2.60
   5   4  13    4.80    2.40
  -2  -5 -13    1.30    1.90
  -2  -5 -13    1.90    2.60
   2   5  13    5.90    3.20
   2   5  13    0.10    1.90
   2   5  13   -1.40    2.10
  -3  -5 -13    5.10    2.00
  -3  -5 -13    6.60    2.90
   3   5  13    2.60    2.10
   3   5  13    6.60    2.40
   3   5  13    2.10    2.00
  -4  -5 -13   18.60    4.10
   4   5  13   13.50    3.10
  -1  -1 -14   81.79    6.20
  -2  -1 -14   -0.50    2.20
  -2  -1 -14    3.20    2.20
   2   1  14    3.70    1.90
  -3  -1 -14    3.80    2.10
   3   1  14   -0.40    2.20
  -2  -2 -14    6.10    2.20
  -2  -2 -14    7.20    2.30
   2   2  14    7.10    2.00
   2   2  14    7.10    2.20
  -3  -2 -14   72.19    4.60
  -3  -2 -14   85.89    5.60
  -3  -2 -14   87.89    5.80
   3   2  14   70.09    4.90
   2   3  14   15.80    3.10
   3   3  14    4.70    2.60
   0   0   0    0.00    0.00
_computing_structure_solution     'SHELXT 2014/5 (Sheldrick, 2014)'
;
_shelx_hkl_checksum              42183
_shelx_res_file
;
TITL d17133_a.res in P-1
    d17133_a.res
    created by SHELXL-2016/6 at 14:32:03 on 13-Dec-2017
REM Old TITL d17133 in P-1
REM SHELXT solution in P-1
REM R1 0.102,  Rweak 0.005,  Alpha 0.024,  Orientation as input
REM Formula found by SHELXT:  C16 B N2 O2 F2
CELL  1.54178   7.2833   8.5450  11.8803   81.093   74.358   78.581
ZERR    2.000   0.0002   0.0003   0.0004    0.002    0.002    0.002
LATT  1
SFAC C H B N O F
UNIT 30 20 2 6 4 4
TEMP -123.140
SIZE 0.03 0.08 0.12
ACTA
L.S. 5
BOND $H
CONF
FMAP 2
HTAB
EQIV $1 -x+2, -y+1, -z+1
HTAB C9 F1_$1
HTAB C9 O1_$1
PLAN 20
WGHT    0.046100    0.226300
FVAR       0.83170
F1    6    0.860319    0.707450    0.515982    11.00000    0.01709    0.02690 =
         0.02547   -0.00311   -0.00433   -0.00428
F2    6    0.772418    0.513131    0.440062    11.00000    0.02884    0.02519 =
         0.02614   -0.01075   -0.00495    0.00178
O1    5    0.805764    0.785095    0.286390    11.00000    0.02384    0.05159 =
         0.02525    0.00095    0.00232    0.00760
O2    5    0.589318    0.950221    0.214106    11.00000    0.03605    0.03899 =
         0.01961    0.00555   -0.00433   -0.00025
N1    4    0.652604    0.535330    0.645321    11.00000    0.01783    0.02246 =
         0.02239   -0.00181   -0.00477   -0.00195
N2    4    0.529439    0.744776    0.500341    11.00000    0.01673    0.02101 =
         0.01628   -0.00378   -0.00229   -0.00315
N3    4    0.642044    0.859689    0.295156    11.00000    0.02503    0.02606 =
         0.01704   -0.00259   -0.00251   -0.00398
C1    1    0.499726    0.847922    0.405035    11.00000    0.02095    0.02157 =
         0.01517   -0.00195   -0.00343   -0.00488
C2    1    0.321096    0.944478    0.427477    11.00000    0.02154    0.02126 =
         0.02248   -0.00076   -0.00697   -0.00220
AFIX  43
H2A   2    0.268753    1.023807    0.374059    11.00000   -1.20000
AFIX   0
C3    1    0.233942    0.901769    0.544010    11.00000    0.01672    0.02303 =
         0.02003   -0.00367   -0.00234   -0.00201
AFIX  43
H3A   2    0.109960    0.948262    0.586527    11.00000   -1.20000
AFIX   0
C4    1    0.361233    0.777889    0.587871    11.00000    0.01569    0.02140 =
         0.01823   -0.00561   -0.00193   -0.00419
C5    1    0.334732    0.690705    0.702044    11.00000    0.01914    0.02215 =
         0.01786   -0.00463   -0.00393   -0.00636
C6    1    0.478074    0.571030    0.728725    11.00000    0.01974    0.02518 =
         0.01847   -0.00235   -0.00264   -0.00613
C7    1    0.482604    0.456379    0.829136    11.00000    0.02598    0.03227 =
         0.02376    0.00374   -0.00449   -0.00597
AFIX  43
H7A   2    0.383249    0.450623    0.899664    11.00000   -1.20000
AFIX   0
C8    1    0.655668    0.356652    0.805258    11.00000    0.03252    0.03302 =
         0.03011    0.00859   -0.00954   -0.00074
AFIX  43
H8A   2    0.699713    0.268516    0.856070    11.00000   -1.20000
AFIX   0
C9    1    0.757444    0.408529    0.691023    11.00000    0.02233    0.02854 =
         0.03140    0.00136   -0.00752    0.00074
AFIX  43
H9A   2    0.882959    0.359803    0.652302    11.00000   -1.20000
AFIX   0
C10   1    0.149662    0.728204    0.790033    11.00000    0.02035    0.02112 =
         0.01791   -0.00159   -0.00131   -0.00433
C11   1    0.146376    0.766591    0.900556    11.00000    0.02685    0.03845 =
         0.01970   -0.00443   -0.00449   -0.00863
AFIX  43
H11A  2    0.264368    0.765447    0.920678    11.00000   -1.20000
AFIX   0
C12   1   -0.027459    0.806257    0.980906    11.00000    0.03822    0.04187 =
         0.01892   -0.00813    0.00058   -0.01097
AFIX  43
H12A  2   -0.028448    0.832137    1.056029    11.00000   -1.20000
AFIX   0
C13   1   -0.200087    0.808470    0.952491    11.00000    0.02712    0.03397 =
         0.02559   -0.00379    0.00611   -0.00475
AFIX  43
H13A  2   -0.319480    0.838283    1.007220    11.00000   -1.20000
AFIX   0
C14   1   -0.198276    0.767164    0.844215    11.00000    0.01935    0.03494 =
         0.02969   -0.00139   -0.00221   -0.00434
AFIX  43
H14A  2   -0.316824    0.766233    0.825435    11.00000   -1.20000
AFIX   0
C15   1   -0.024867    0.727081    0.762795    11.00000    0.02236    0.02921 =
         0.02100   -0.00354   -0.00332   -0.00589
AFIX  43
H15A  2   -0.024785    0.698866    0.688511    11.00000   -1.20000
AFIX   0
B1    3    0.713676    0.624630    0.519375    11.00000    0.01816    0.02028 =
         0.01888   -0.00449   -0.00265   -0.00136
HKLF 4
REM  d17133_a.res in P-1
REM R1 =  0.0330 for    2109 Fo > 4sig(Fo)  and  0.0396 for all    2453 data
REM    208 parameters refined using      0 restraints
END
WGHT      0.0462      0.2267
REM Instructions for potential hydrogen bonds
HTAB C9 F1_$1
HTAB C9 O1_$1
REM Highest difference peak  0.144,  deepest hole -0.244,  1-sigma level  0.043
Q1    1   0.2822  0.8206  0.8979  11.00000  0.05    0.14
Q2    1   0.2543  0.7212  0.7428  11.00000  0.05    0.14
Q3    1   0.0649  0.7319  0.7752  11.00000  0.05    0.14
Q4    1   0.8741  0.8440  0.5622  11.00000  0.05    0.13
Q5    1   0.4045  0.8635  0.3976  11.00000  0.05    0.13
Q6    1   0.5221  0.8388  0.1597  11.00000  0.05    0.13
Q7    1   0.2348  0.8999  0.4626  11.00000  0.05    0.12
Q8    1   0.4332  0.9210  0.4183  11.00000  0.05    0.12
Q9    1   0.7494  0.3763  0.3960  11.00000  0.05    0.12
Q10   1   0.4553  0.7608  0.5404  11.00000  0.05    0.12
Q11   1   0.3245  0.7113  0.6343  11.00000  0.05    0.12
Q12   1   0.8540  0.3449  0.6172  11.00000  0.05    0.12
Q13   1  -0.1920  0.8347  0.8808  11.00000  0.05    0.11
Q14   1  -0.1023  0.7584  0.7960  11.00000  0.05    0.11
Q15   1   0.1479  0.7311  0.8401  11.00000  0.05    0.11
Q16   1  -0.1208  0.8595  0.9532  11.00000  0.05    0.11
Q17   1  -0.4106  0.8120  0.7031  11.00000  0.05    0.11
Q18   1   0.1456  0.7815  0.8205  11.00000  0.05    0.11
Q19   1   0.2925  0.9660  0.4963  11.00000  0.05    0.11
Q20   1   0.9830  0.7618  0.4145  11.00000  0.05    0.11
;
_shelx_res_checksum              81536
loop_
_space_group_symop_operation_xyz
'x, y, z'
'-x, -y, -z'
loop_
_atom_site_type_symbol
_atom_site_label
_atom_site_fract_x
_atom_site_fract_y
_atom_site_fract_z
_atom_site_U_iso_or_equiv
_atom_site_adp_type
_atom_site_calc_flag
_atom_site_occupancy
F F1 0.86032(11) 0.70745(10) 0.51598(7) 0.0232(2) Uani d 1
F F2 0.77242(12) 0.51313(10) 0.44006(7) 0.0271(2) Uani d 1
O O1 0.80576(16) 0.78510(15) 0.28639(10) 0.0377(3) Uani d 1
O O2 0.58932(16) 0.95022(14) 0.21411(9) 0.0339(3) Uani d 1
N N1 0.65260(16) 0.53533(14) 0.64532(10) 0.0212(3) Uani d 1
N N2 0.52944(16) 0.74478(14) 0.50034(10) 0.0182(3) Uani d 1
N N3 0.64204(18) 0.85969(15) 0.29516(10) 0.0232(3) Uani d 1
C C1 0.4997(2) 0.84792(17) 0.40503(12) 0.0192(3) Uani d 1
C C2 0.3211(2) 0.94448(17) 0.42748(13) 0.0218(3) Uani d 1
H H2A 0.268753 1.023807 0.374059 0.026 Uiso calc 1
C C3 0.2339(2) 0.90177(17) 0.54401(12) 0.0204(3) Uani d 1
H H3A 0.109960 0.948262 0.586527 0.024 Uiso calc 1
C C4 0.36123(19) 0.77789(17) 0.58787(12) 0.0183(3) Uani d 1
C C5 0.3347(2) 0.69070(17) 0.70204(12) 0.0191(3) Uani d 1
C C6 0.4781(2) 0.57103(18) 0.72872(12) 0.0212(3) Uani d 1
C C7 0.4826(2) 0.45638(19) 0.82914(13) 0.0282(4) Uani d 1
H H7A 0.383249 0.450623 0.899664 0.034 Uiso calc 1
C C8 0.6557(2) 0.3567(2) 0.80526(14) 0.0335(4) Uani d 1
H H8A 0.699713 0.268516 0.856070 0.040 Uiso calc 1
C C9 0.7574(2) 0.40853(19) 0.69102(14) 0.0285(4) Uani d 1
H H9A 0.882959 0.359803 0.652302 0.034 Uiso calc 1
C C10 0.1497(2) 0.72820(17) 0.79003(12) 0.0204(3) Uani d 1
C C11 0.1464(2) 0.7666(2) 0.90056(13) 0.0280(4) Uani d 1
H H11A 0.264368 0.765447 0.920678 0.034 Uiso calc 1
C C12 -0.0275(2) 0.8063(2) 0.98091(14) 0.0333(4) Uani d 1
H H12A -0.028448 0.832137 1.056029 0.040 Uiso calc 1
C C13 -0.2001(2) 0.8085(2) 0.95249(14) 0.0314(4) Uani d 1
H H13A -0.319480 0.838283 1.007220 0.038 Uiso calc 1
C C14 -0.1983(2) 0.7672(2) 0.84422(14) 0.0290(4) Uani d 1
H H14A -0.316824 0.766233 0.825435 0.035 Uiso calc 1
C C15 -0.0249(2) 0.72708(18) 0.76279(13) 0.0243(3) Uani d 1
H H15A -0.024785 0.698866 0.688511 0.029 Uiso calc 1
B B1 0.7137(2) 0.62463(19) 0.51937(14) 0.0195(3) Uani d 1
loop_
_atom_site_aniso_label
_atom_site_aniso_U_11
_atom_site_aniso_U_22
_atom_site_aniso_U_33
_atom_site_aniso_U_12
_atom_site_aniso_U_13
_atom_site_aniso_U_23
F1 0.0171(4) 0.0269(5) 0.0255(4) -0.0043(3) -0.0043(3) -0.0031(3)
F2 0.0288(5) 0.0252(5) 0.0261(5) 0.0018(3) -0.0049(4) -0.0107(4)
O1 0.0238(6) 0.0516(8) 0.0253(6) 0.0076(5) 0.0023(5) 0.0010(5)
O2 0.0361(6) 0.0390(7) 0.0196(5) -0.0002(5) -0.0043(5) 0.0056(5)
N1 0.0178(6) 0.0225(6) 0.0224(6) -0.0020(5) -0.0048(5) -0.0018(5)
N2 0.0167(6) 0.0210(6) 0.0163(6) -0.0031(5) -0.0023(5) -0.0038(5)
N3 0.0250(7) 0.0261(7) 0.0170(6) -0.0040(5) -0.0025(5) -0.0026(5)
C1 0.0210(7) 0.0216(7) 0.0152(7) -0.0049(6) -0.0034(5) -0.0020(5)
C2 0.0215(7) 0.0213(7) 0.0225(7) -0.0022(6) -0.0070(6) -0.0008(6)
C3 0.0167(7) 0.0230(8) 0.0200(7) -0.0020(5) -0.0023(5) -0.0037(6)
C4 0.0157(7) 0.0214(7) 0.0182(7) -0.0042(5) -0.0019(5) -0.0056(5)
C5 0.0191(7) 0.0221(8) 0.0179(7) -0.0064(6) -0.0039(5) -0.0046(6)
C6 0.0197(7) 0.0252(8) 0.0185(7) -0.0061(6) -0.0026(6) -0.0023(6)
C7 0.0260(8) 0.0323(9) 0.0238(8) -0.0060(6) -0.0045(6) 0.0037(6)
C8 0.0325(9) 0.0330(9) 0.0301(9) -0.0007(7) -0.0095(7) 0.0086(7)
C9 0.0223(8) 0.0285(8) 0.0314(8) 0.0007(6) -0.0075(6) 0.0014(7)
C10 0.0203(7) 0.0211(7) 0.0179(7) -0.0043(6) -0.0013(6) -0.0016(5)
C11 0.0268(8) 0.0384(9) 0.0197(7) -0.0086(7) -0.0045(6) -0.0044(6)
C12 0.0382(9) 0.0419(10) 0.0189(8) -0.0110(7) 0.0006(7) -0.0081(7)
C13 0.0271(8) 0.0340(9) 0.0256(8) -0.0048(7) 0.0061(6) -0.0038(7)
C14 0.0193(7) 0.0349(9) 0.0297(8) -0.0043(6) -0.0022(6) -0.0014(7)
C15 0.0224(7) 0.0292(8) 0.0210(7) -0.0059(6) -0.0033(6) -0.0035(6)
B1 0.0182(8) 0.0203(8) 0.0189(8) -0.0014(6) -0.0026(6) -0.0045(6)
loop_
_atom_type_symbol
_atom_type_description
_atom_type_scat_dispersion_real
_atom_type_scat_dispersion_imag
_atom_type_scat_source
C C 0.0181 0.0091 'International Tables Vol C Tables 4.2.6.8 and 6.1.1.4'
H H 0.0000 0.0000 'International Tables Vol C Tables 4.2.6.8 and 6.1.1.4'
B B 0.0090 0.0039 'International Tables Vol C Tables 4.2.6.8 and 6.1.1.4'
N N 0.0311 0.0180 'International Tables Vol C Tables 4.2.6.8 and 6.1.1.4'
O O 0.0492 0.0322 'International Tables Vol C Tables 4.2.6.8 and 6.1.1.4'
F F 0.0727 0.0534 'International Tables Vol C Tables 4.2.6.8 and 6.1.1.4'
loop_
_geom_angle_atom_site_label_1
_geom_angle_atom_site_label_2
_geom_angle_atom_site_label_3
_geom_angle
C9 N1 C6 107.79(12)
C9 N1 B1 125.56(12)
C6 N1 B1 126.63(11)
C1 N2 C4 104.81(11)
C1 N2 B1 130.53(12)
C4 N2 B1 124.41(11)
O1 N3 O2 123.67(12)
O1 N3 C1 120.11(12)
O2 N3 C1 116.21(12)
N2 C1 C2 112.49(12)
N2 C1 N3 123.66(12)
C2 C1 N3 123.79(13)
C1 C2 C3 105.65(12)
C1 C2 H2A 127.2
C3 C2 H2A 127.2
C2 C3 C4 107.64(12)
C2 C3 H3A 126.2
C4 C3 H3A 126.2
N2 C4 C3 109.40(12)
N2 C4 C5 121.78(12)
C3 C4 C5 128.82(13)
C6 C5 C4 120.28(13)
C6 C5 C10 120.61(13)
C4 C5 C10 119.09(12)
C5 C6 N1 120.54(13)
C5 C6 C7 131.83(14)
N1 C6 C7 107.41(12)
C8 C7 C6 107.29(14)
C8 C7 H7A 126.4
C6 C7 H7A 126.4
C7 C8 C9 107.24(14)
C7 C8 H8A 126.4
C9 C8 H8A 126.4
N1 C9 C8 110.26(14)
N1 C9 H9A 124.9
C8 C9 H9A 124.9
C11 C10 C15 119.09(13)
C11 C10 C5 120.78(13)
C15 C10 C5 120.13(12)
C12 C11 C10 120.37(14)
C12 C11 H11A 119.8
C10 C11 H11A 119.8
C11 C12 C13 120.30(14)
C11 C12 H12A 119.9
C13 C12 H12A 119.9
C14 C13 C12 119.76(14)
C14 C13 H13A 120.1
C12 C13 H13A 120.1
C13 C14 C15 120.52(14)
C13 C14 H14A 119.7
C15 C14 H14A 119.7
C14 C15 C10 119.94(14)
C14 C15 H15A 120.0
C10 C15 H15A 120.0
F2 B1 F1 111.50(12)
F2 B1 N1 108.45(12)
F1 B1 N1 108.76(11)
F2 B1 N2 111.91(12)
F1 B1 N2 110.28(12)
N1 B1 N2 105.71(11)
loop_
_geom_bond_atom_site_label_1
_geom_bond_atom_site_label_2
_geom_bond_distance
F1 B1 1.3822(18)
F2 B1 1.3703(18)
O1 N3 1.2213(16)
O2 N3 1.2346(16)
N1 C9 1.3288(19)
N1 C6 1.3970(18)
N1 B1 1.5623(19)
N2 C1 1.3614(18)
N2 C4 1.3889(17)
N2 B1 1.5659(19)
N3 C1 1.4351(18)
C1 C2 1.379(2)
C2 C3 1.384(2)
C2 H2A 0.9500
C3 C4 1.397(2)
C3 H3A 0.9500
C4 C5 1.427(2)
C5 C6 1.375(2)
C5 C10 1.4782(19)
C6 C7 1.425(2)
C7 C8 1.361(2)
C7 H7A 0.9500
C8 C9 1.410(2)
C8 H8A 0.9500
C9 H9A 0.9500
C10 C11 1.395(2)
C10 C15 1.396(2)
C11 C12 1.381(2)
C11 H11A 0.9500
C12 C13 1.383(2)
C12 H12A 0.9500
C13 C14 1.382(2)
C13 H13A 0.9500
C14 C15 1.386(2)
C14 H14A 0.9500
C15 H15A 0.9500
loop_
_geom_hbond_atom_site_label_D
_geom_hbond_atom_site_label_H
_geom_hbond_atom_site_label_A
_geom_hbond_site_symmetry_A
_geom_hbond_distance_DH
_geom_hbond_distance_HA
_geom_hbond_distance_DA
_geom_hbond_angle_DHA
C9 H9A F1 2_766 0.95 2.40 3.2788(18) 155
C9 H9A O1 2_766 0.95 2.59 3.3420(19) 136
C15 H15A F1 1_455 0.95 2.40 3.2946(17) 157
loop_
_geom_torsion_atom_site_label_1
_geom_torsion_atom_site_label_2
_geom_torsion_atom_site_label_3
_geom_torsion_atom_site_label_4
_geom_torsion
C4 N2 C1 C2 -0.17(16)
B1 N2 C1 C2 -174.36(13)
C4 N2 C1 N3 177.18(12)
B1 N2 C1 N3 3.0(2)
O1 N3 C1 N2 -6.6(2)
O2 N3 C1 N2 174.85(13)
O1 N3 C1 C2 170.45(14)
O2 N3 C1 C2 -8.1(2)
N2 C1 C2 C3 0.92(16)
N3 C1 C2 C3 -176.43(13)
C1 C2 C3 C4 -1.28(16)
C1 N2 C4 C3 -0.65(15)
B1 N2 C4 C3 173.99(12)
C1 N2 C4 C5 178.59(12)
B1 N2 C4 C5 -6.8(2)
C2 C3 C4 N2 1.23(16)
C2 C3 C4 C5 -177.94(14)
N2 C4 C5 C6 0.6(2)
C3 C4 C5 C6 179.67(14)
N2 C4 C5 C10 -177.97(12)
C3 C4 C5 C10 1.1(2)
C4 C5 C6 N1 1.2(2)
C10 C5 C6 N1 179.75(12)
C4 C5 C6 C7 -172.63(15)
C10 C5 C6 C7 5.9(2)
C9 N1 C6 C5 -175.45(13)
B1 N1 C6 C5 3.2(2)
C9 N1 C6 C7 -0.25(16)
B1 N1 C6 C7 178.36(13)
C5 C6 C7 C8 174.70(16)
N1 C6 C7 C8 0.26(17)
C6 C7 C8 C9 -0.16(19)
C6 N1 C9 C8 0.16(18)
B1 N1 C9 C8 -178.48(14)
C7 C8 C9 N1 0.0(2)
C6 C5 C10 C11 55.5(2)
C4 C5 C10 C11 -125.98(15)
C6 C5 C10 C15 -125.16(15)
C4 C5 C10 C15 53.40(19)
C15 C10 C11 C12 -1.4(2)
C5 C10 C11 C12 178.01(14)
C10 C11 C12 C13 -0.1(3)
C11 C12 C13 C14 1.5(3)
C12 C13 C14 C15 -1.5(2)
C13 C14 C15 C10 0.0(2)
C11 C10 C15 C14 1.4(2)
C5 C10 C15 C14 -178.00(14)
C9 N1 B1 F2 50.52(18)
C6 N1 B1 F2 -127.86(14)
C9 N1 B1 F1 -70.91(17)
C6 N1 B1 F1 110.71(14)
C9 N1 B1 N2 170.68(13)
C6 N1 B1 N2 -7.70(18)
C1 N2 B1 F2 -59.63(19)
C4 N2 B1 F2 127.19(13)
C1 N2 B1 F1 65.10(18)
C4 N2 B1 F1 -108.08(14)
C1 N2 B1 N1 -177.50(13)
C4 N2 B1 N1 9.32(17)

_cod_database_fobs_code 2242319
