#------------------------------------------------------------------------------
#$Date: 2018-10-20 05:44:19 +0300 (Sat, 20 Oct 2018) $
#$Revision: 211564 $
#$URL: file:///home/coder/svn-repositories/cod/cif/2/24/26/2242680.cif $
#------------------------------------------------------------------------------
#
# This file is available in the Crystallography Open Database (COD),
# http://www.crystallography.net/. The original data for this entry
# were provided by IUCr Journals, http://journals.iucr.org/.
#
# The file may be used within the scientific community so long as
# proper attribution is given to the journal article from which the
# data were obtained.
#
data_2242680
loop_
_publ_author_name
'de Moraes, Lygia S.'
'Kennedy, Alan R.'
'Logan, Charlie R.'
_publ_section_title
;
 Crystal structures of three halide salts of <small>L</small>-asparagine:
 an isostructural series
;
_journal_issue                   11
_journal_name_full               'Acta Crystallographica Section E'
_journal_page_first              1619
_journal_page_last               1623
_journal_paper_doi               10.1107/S2056989018014603
_journal_volume                  74
_journal_year                    2018
_chemical_absolute_configuration ad
_chemical_formula_iupac          'C4 H9 N2 O3 +, Cl -, H2 O'
_chemical_formula_moiety         'C4 H9 N2 O3 +, Cl -, H2 O'
_chemical_formula_sum            'C4 H11 Cl N2 O4'
_chemical_formula_weight         186.60
_chemical_name_systematic
;
<i>L</i>-Asparaginium chloride monohydrate
;
_space_group_crystal_system      monoclinic
_space_group_IT_number           4
_space_group_name_Hall           'P 2yb'
_space_group_name_H-M_alt        'P 1 21 1'
_symmetry_space_group_name_Hall  'P 2yb'
_symmetry_space_group_name_H-M   'P 1 21 1'
_atom_sites_solution_hydrogens   mixed
_atom_sites_solution_primary     direct
_audit_creation_method           SHELXL-2014/7
_cell_angle_alpha                90
_cell_angle_beta                 103.834(2)
_cell_angle_gamma                90
_cell_formula_units_Z            2
_cell_length_a                   5.09220(10)
_cell_length_b                   10.1450(2)
_cell_length_c                   8.1950(2)
_cell_measurement_reflns_used    3444
_cell_measurement_temperature    123(2)
_cell_measurement_theta_max      29.6985
_cell_measurement_theta_min      3.2472
_cell_volume                     411.076(16)
_computing_cell_refinement
;
Crysalis PRO (Agilent, 2014)
;
_computing_data_collection
;
Crysalis PRO (Agilent, 2014)
;
_computing_data_reduction
;
Crysalis PRO (Agilent, 2014)
;
_computing_molecular_graphics
;
Mercury (Macrae <i>et al.</i>,  2008)
;
_computing_publication_material
;
SHELXL2014 (Sheldrick, 2015)
;
_computing_structure_refinement
;
SHELXL2014 (Sheldrick, 2015)
;
_computing_structure_solution
;
SIR92 (Altomare <i>et al.</i>,  1994)
;
_diffrn_ambient_temperature      123(2)
_diffrn_measured_fraction_theta_full 0.999
_diffrn_measured_fraction_theta_max 0.921
_diffrn_measurement_device_type  'Oxford Diffraction Xcalibur E'
_diffrn_measurement_method       'omega scans'
_diffrn_radiation_type           MoK\a
_diffrn_radiation_wavelength     0.71073
_diffrn_reflns_av_R_equivalents  0.0125
_diffrn_reflns_av_unetI/netI     0.0217
_diffrn_reflns_limit_h_max       7
_diffrn_reflns_limit_h_min       -7
_diffrn_reflns_limit_k_max       13
_diffrn_reflns_limit_k_min       -14
_diffrn_reflns_limit_l_max       10
_diffrn_reflns_limit_l_min       -10
_diffrn_reflns_number            4053
_diffrn_reflns_theta_full        27.000
_diffrn_reflns_theta_max         29.764
_diffrn_reflns_theta_min         3.254
_diffrn_source                   'sealed tube'
_diffrn_standards_decay_%        0
_diffrn_standards_interval_count 0
_diffrn_standards_number         0
_exptl_absorpt_coefficient_mu    0.438
_exptl_absorpt_correction_T_max  1.00000
_exptl_absorpt_correction_T_min  0.89949
_exptl_absorpt_correction_type   multi-scan
_exptl_absorpt_process_details
;
[CrysAlis PRO (Agilent, 2014), based on expressions derived
by
Clark & Reid (1995)]
;
_exptl_crystal_colour            colourless
_exptl_crystal_density_diffrn    1.508
_exptl_crystal_description       prism
_exptl_crystal_F_000             196
_exptl_crystal_size_max          0.45
_exptl_crystal_size_mid          0.30
_exptl_crystal_size_min          0.25
_refine_diff_density_max         0.262
_refine_diff_density_min         -0.201
_refine_ls_abs_structure_details
;
Flack <i>x</i> determined using 897 quotients
[(<i>I</i>^+^)-(<i>I</i>^-^)]/[(<i>I</i>^+^)+(<i>I</i>^-^)]
(Parsons et al., 2013)
;
_refine_ls_abs_structure_Flack   -0.02(2)
_refine_ls_extinction_coef       0.029(8)
_refine_ls_extinction_expression Fc^*^=kFc[1+0.001xFc^2^\l^3^/sin(2\q)]^-1/4^
_refine_ls_extinction_method
;
SHELXL-2014/7 (Sheldrick 2015)
;
_refine_ls_goodness_of_fit_ref   1.073
_refine_ls_hydrogen_treatment    mixed
_refine_ls_matrix_type           full
_refine_ls_number_parameters     128
_refine_ls_number_reflns         2079
_refine_ls_number_restraints     9
_refine_ls_restrained_S_all      1.073
_refine_ls_R_factor_all          0.0225
_refine_ls_R_factor_gt           0.0216
_refine_ls_shift/su_max          0.000
_refine_ls_shift/su_mean         0.000
_refine_ls_structure_factor_coef Fsqd
_refine_ls_weighting_details
'w=1/[\s^2^(Fo^2^)+(0.0331P)^2^+0.0289P] where P=(Fo^2^+2Fc^2^)/3'
_refine_ls_weighting_scheme      calc
_refine_ls_wR_factor_gt          0.0573
_refine_ls_wR_factor_ref         0.0579
_reflns_number_gt                2032
_reflns_number_total             2079
_reflns_threshold_expression     'I > 2\s(I)'
_cod_data_source_file            hb7779sup1.cif
_cod_data_source_block           I
_cod_database_code               2242680
_shelx_space_group_comment
;
The symmetry employed for this shelxl refinement is uniquely defined
by the following loop, which should always be used as a source of
symmetry information in preference to the above space-group names.
They are only intended as comments.
;
_shelx_hkl_file
;
   0 -14   0 15873.7 978.302   2
   0 -14   1 3408.56 489.994   2
   0 -13   0-64.0577 184.831   2
   0 -13  -1 5734.26 554.858   2
   0 -13   1 5410.65 568.099   2
   0 -13   2 2337.55 396.335   2
   0 -13   3 4610.88 562.256   2
   0 -12   0 104.762 131.744   2
   0 -12  -1 20684.9 974.990   2
   0 -12   1 20685.4 1035.86   2
   0 -12   2 13005.9 864.165   2
   0 -12  -2 14565.5 791.393   2
   0 -12   3 8348.74 717.472   2
   0 -12   4 1310.68 327.892   2
   0 -11   0 172.281 155.634   2
   0 -11  -1 30213.0 1110.58   2
   0 -11   1 27851.7 1133.05   2
   0 -11   2 21266.2 1025.68   2
   0 -11  -2 21216.6 903.916   2
   0 -11   3 8313.17 677.366   2
   0 -11   4 22173.4 1139.83   2
   0 -11   5 1410.16 353.892   2
   0 -10   0 85864.6 1803.68   2
   0 -10  -1 20443.0 858.167   2
   0 -10   1 20591.3 914.770   2
   0 -10   2 16043.4 842.892   2
   0 -10  -2 17244.3 766.729   2
   0 -10  -3 6991.67 478.118   2
   0 -10   3 7756.88 625.702   2
   0 -10   4 2319.77 370.521   2
   0 -10   5 8908.00 736.461   2
   0 -10   6 16655.8 1034.00   2
   0 -10   7 9892.44 804.787   1
   0  -9   0 6.08840 109.756   2
   0  -9   1 9282.88 577.177   2
   0  -9  -1 9440.84 545.090   2
   0  -9   2 26526.1 1017.88   2
   0  -9  -2 27315.6 897.425   2
   0  -9   3 58430.2 1572.36   2
   0  -9  -3 56446.9 1253.42   2
   0  -9  -4 27447.2 849.496   2
   0  -9   4 26809.8 1123.84   2
   0  -9   5 11022.1 768.869   2
   0  -9   6 13747.5 899.764   2
   0  -9   7 4250.37 535.477   2
   0  -9   7 4668.93 550.579   1
   0  -8   0 31571.7 958.489   2
   0  -8   1 11333.7 598.896   2
   0  -8  -1 10927.6 549.360   2
   0  -8   2 1136.98 220.984   2
   0  -8  -2 1647.26 213.006   2
   0  -8  -3 32557.4 879.610   2
   0  -8   3 32888.6 1113.29   2
   0  -8  -4 28981.2 814.159   2
   0  -8   4 30372.1 1122.66   2
   0  -8   5 48678.3 1519.63   2
   0  -8   6 3927.84 466.564   2
   0  -8   7 74886.7 2063.66   1
   0  -8   8 9263.54 773.963   1
   0  -7   0-0.43550 85.5625   2
   0  -7  -1 4836.74 336.239   2
   0  -7   1 5715.16 400.850   2
   0  -7   2 71903.5 1463.34   2
   0  -7  -2 72897.6 1240.51   2
   0  -7  -3 17532.8 603.333   2
   0  -7   3 18248.6 437.969   5
   0  -7   3 17735.9 773.482   2
   0  -7   4 59360.7 938.806   5
   0  -7   4 57522.9 1458.27   2
   0  -7  -4 57412.2 1065.91   2
   0  -7  -5 28939.9 766.715   2
   0  -7   5 29675.6 1124.50   2
   0  -7   6 4646.00 479.357   2
   0  -7   7 3902.53 470.543   1
   0  -7   8 8217.71 709.051   1
   0  -7  -9 792.267 281.379   6
   0  -6   0 31204.9 803.097   2
   0  -6  -1 239297. 2115.13   2
   0  -6   1 236007. 2320.66   2
   0  -6   2 890.269 171.818   2
   0  -6  -2 919.056 142.088   2
   0  -6   2 601.472 73.8167   5
   0  -6  -3 796.665 130.078   2
   0  -6   3 677.358 99.1291   5
   0  -6   3 802.311 117.402   6
   0  -6   3 1088.04 195.670   2
   0  -6   4 64677.9 1470.46   2
   0  -6  -4 63227.5 1067.90   2
   0  -6   4 64390.9 886.188   6
   0  -6   4 65337.7 1035.36   5
   0  -6   5 33735.1 865.058   5
   0  -6  -5 34086.8 783.015   2
   0  -6   5 34244.8 1143.20   2
   0  -6   6 25976.6 1051.36   2
   0  -6   6 24788.2 819.504   5
   0  -6   7 11073.9 616.969   5
   0  -6   7 11362.4 758.994   1
   0  -6   8 5958.28 595.571   1
   0  -6  -9 12536.3 930.398   6
   0  -6   9 12390.1 892.370   1
   0  -5   0 237.308 84.8084   2
   0  -5  -1 270601. 2020.79   2
   0  -5   1 276460. 2290.76   2
   0  -5   2 98664.1 883.281   5
   0  -5  -2 100147. 1196.94   2
   0  -5   2 99055.6 1471.99   2
   0  -5   3 142160. 1278.73   6
   0  -5   3 140987. 1883.85   2
   0  -5  -3 141846. 1427.45   2
   0  -5   3 136346. 1293.01   5
   0  -5   4 27268.9 895.717   2
   0  -5   4 27238.1 679.622   5
   0  -5  -4 27450.8 646.015   2
   0  -5   4 27037.1 537.871   6
   0  -5  -5 12211.0 455.989   2
   0  -5   5 12972.7 671.686   2
   0  -5   5 12104.9 522.232   5
   0  -5   6 3478.82 390.144   1
   0  -5   6 3394.73 373.820   2
   0  -5   6 3516.98 327.383   5
   0  -5   7 4924.52 420.065   5
   0  -5   7 5486.59 520.398   1
   0  -5   8 19512.3 1029.42   1
   0  -5   8 19744.8 904.924   5
   0  -5   9 6273.54 568.699   5
   0  -5   9 5568.06 591.270   1
   0  -5  -9 5804.47 609.749   6
   0  -5 -10 2513.00 436.145   6
   0  -4   0 32673.8 661.200   2
   0  -4   1 290834. 1237.77   5
   0  -4   1 285713. 2114.65   2
   0  -4  -1 286369. 1848.65   2
   0  -4  -2 101465. 1076.06   2
   0  -4   2 102257. 1366.63   2
   0  -4   2 97079.7 888.134   5
   0  -4   3 16960.2 618.007   2
   0  -4   3 16330.1 455.410   5
   0  -4   3 17641.0 405.086   6
   0  -4  -3 16733.5 448.148   2
   0  -4   4 38189.0 817.276   5
   0  -4   4 40115.8 1021.56   2
   0  -4   4 39380.9 638.886   6
   0  -4   5 3416.91 332.071   2
   0  -4   5 3437.01 296.399   5
   0  -4   6 120594. 1859.68   5
   0  -4   6 123421. 2165.42   1
   0  -4   7 4653.22 465.641   1
   0  -4   7 5102.48 434.096   5
   0  -4   8 15835.9 904.902   1
   0  -4  -8 16161.6 911.847   6
   0  -4   8 15846.7 829.093   5
   0  -4   8 16536.9 763.559   3
   0  -4   9 16410.5 915.252   5
   0  -4  -9 16864.4 976.204   6
   0  -4   9 16634.9 990.813   1
   0  -4  10 2735.60 413.305   5
   0  -4 -10 2400.18 407.776   6
   0  -3   0 161.693 117.481   3
   0  -3   0 88.0158 42.4574   2
   0  -3  -1 60389.9 862.526   3
   0  -3   1 57524.2 506.886   5
   0  -3   1 59692.8 843.225   2
   0  -3  -1 59078.8 710.770   2
   0  -3   2 13269.3 326.308   5
   0  -3   2 13851.8 318.951   6
   0  -3  -2 13438.8 344.174   2
   0  -3   2 13627.7 460.265   2
   0  -3  -3 6535.66 282.679   4
   0  -3   3 6994.85 303.881   5
   0  -3   3 7046.17 365.734   2
   0  -3   3 6462.84 230.978   6
   0  -3   4 275623. 2241.48   5
   0  -3  -4 280082. 1879.74   4
   0  -3   4 282523. 2556.07   2
   0  -3   5 137239. 2039.96   1
   0  -3  -5 137991. 1368.65   4
   0  -3   5 140061. 1823.17   5
   0  -3   6 5304.03 446.420   1
   0  -3   6 5144.63 405.732   5
   0  -3   7 6271.88 524.414   1
   0  -3   7 6731.91 447.118   3
   0  -3   7 6735.81 511.971   5
   0  -3   8 47410.2 1445.32   5
   0  -3   8 49477.2 1544.77   1
   0  -3   8 47318.2 1245.09   3
   0  -3  -8 45303.1 1454.09   6
   0  -3   9 19098.7 999.974   5
   0  -3   9 17808.9 1006.82   1
   0  -3  -9 20968.9 1041.31   6
   0  -3  10 9386.19 778.765   1
   0  -3  10 9176.91 744.759   5
   0  -3 -10 9485.21 748.171   6
   0  -2   0 25456.5 488.776   3
   0  -2   0 24917.7 395.829   2
   0  -2   1 60117.3 724.642   2
   0  -2  -1 62176.9 722.397   3
   0  -2  -1 61451.0 585.337   2
   0  -2   1 62107.1 497.653   5
   0  -2   2 358353. 2103.06   2
   0  -2  -2 367507. 1964.77   3
   0  -2  -2 365638. 1696.06   4
   0  -2   2 371257. 1772.81   5
   0  -2   2 361523. 1441.88   6
   0  -2   3 42757.6 612.854   6
   0  -2  -3 41002.5 727.311   1
   0  -2  -3 41802.7 609.951   4
   0  -2   3 42138.4 822.890   2
   0  -2   3 40137.6 734.715   5
   0  -2   4 56972.6 1075.73   2
   0  -2   4 53488.6 1000.68   5
   0  -2  -4 55940.6 749.472   4
   0  -2   4 52968.0 1118.37   1
   0  -2   5 27649.7 893.763   1
   0  -2  -5 28820.5 568.343   4
   0  -2   5 28302.3 828.194   5
   0  -2   6 48589.0 1290.02   1
   0  -2   6 45760.7 1037.32   3
   0  -2   6 48269.1 1214.13   5
   0  -2   7 81415.1 1489.81   3
   0  -2   7 80776.8 1727.11   5
   0  -2   7 80095.2 1795.19   1
   0  -2  -7 79889.8 1724.49   6
   0  -2   8 31444.2 1183.12   5
   0  -2   8 32317.3 1228.96   1
   0  -2  -8 31704.7 1154.46   6
   0  -2   8 31183.8 987.374   3
   0  -2  -9 463.656 185.232   6
   0  -2   9 396.144 185.295   1
   0  -2   9 80.7467 162.112   5
   0  -2  10 598.883 251.151   5
   0  -2 -10 912.386 240.614   6
   0  -2  10 793.987 258.172   1
   0  -1   1 173738. 848.060   5
   0  -1  -1 168410. 948.962   3
   0  -1   2 355557. 1850.16   2
   0  -1  -2 354811. 1694.64   3
   0  -1  -2 349510. 1365.80   4
   0  -1  -2 354289. 1739.19   1
   0  -1  -3 522272. 2648.53   1
   0  -1  -3 521744. 1883.32   4
   0  -1  -3 521443. 2462.04   3
   0  -1   3 528575. 2907.52   1
   0  -1  -4 15336.8 361.590   4
   0  -1   4 15517.2 482.402   3
   0  -1   4 15456.9 577.438   1
   0  -1   5 65073.2 1319.50   1
   0  -1   5 63951.9 1267.46   5
   0  -1  -5 64206.5 803.109   4
   0  -1   5 65835.2 1100.78   3
   0  -1   6 7287.44 491.077   1
   0  -1   6 7695.31 421.858   3
   0  -1  -6 7644.66 480.369   6
   0  -1  -6 7407.70 289.004   4
   0  -1   6 7814.27 507.806   5
   0  -1   7 29262.3 1062.76   5
   0  -1  -7 28071.3 967.381   6
   0  -1   7 28026.8 866.573   3
   0  -1   7 28850.2 1057.11   1
   0  -1   8 2689.98 366.838   1
   0  -1  -8 3019.98 353.576   6
   0  -1   8 3286.18 321.682   3
   0  -1   8 3408.21 422.739   5
   0  -1   9 25680.3 1164.83   1
   0  -1  -9 27147.3 1096.64   6
   0  -1   9 27052.9 1211.10   5
   0  -1  10 13703.6 937.531   5
   0   0  -2 20383.8 303.143   4
   0   0  -2 22311.0 409.877   2
   0   0   2 20298.4 444.411   1
   0   0   2 20838.7 381.245   3
   0   0  -3 145895. 983.688   4
   0   0   3 146186. 1457.23   1
   0   0   3 143253. 1232.39   3
   0   0  -4 44.5414 61.1790   6
   0   0   4 247.616 72.8315   3
   0   0  -4 176.388 48.6856   4
   0   0   4 55.1395 60.4522   1
   0   0   5 106574. 1641.61   1
   0   0  -5 103189. 1474.35   6
   0   0  -5 105721. 1059.66   4
   0   0   5 101853. 1367.10   3
   0   0  -6 15653.5 637.506   6
   0   0  -6 15499.8 438.625   4
   0   0   6 15198.5 691.498   1
   0   0   6 15282.1 584.186   3
   0   0   7 6420.58 414.005   3
   0   0   7 6298.84 508.637   5
   0   0   7 7258.94 529.595   1
   0   0  -7 7198.57 471.799   6
   0   0  -8 17429.4 788.832   6
   0   0   8 18449.0 927.690   5
   0   0   8 17330.5 728.762   3
   0   0   9 175.328 202.388   5
   0   0  -9 1084.37 243.172   6
   0   0  10 251.130 198.765   5
   0   1   1 166944. 807.619   4
   0   1  -2 362885. 1485.88   6
   0   1   2 363975. 1704.76   3
   0   1   2 360245. 1376.24   4
   0   1  -2 361704. 1852.34   2
   0   1   3 513114. 2443.54   3
   0   1   3 514736. 2660.41   1
   0   1   3 516078. 1863.20   4
   0   1  -3 517371. 2278.43   6
   0   1  -3 518137. 2605.16   2
   0   1   4 16753.6 564.123   1
   0   1   4 17359.8 511.125   3
   0   1  -4 17269.0 497.432   6
   0   1   5 62188.8 1079.75   3
   0   1  -5 60968.6 1057.86   6
   0   1   5 61422.4 1223.47   1
   0   1  -5 61624.9 873.233   4
   0   1   6 8263.53 437.985   3
   0   1  -6 7640.98 420.789   6
   0   1   7 28465.7 877.924   3
   0   1  -7 29181.9 900.959   6
   0   1   8 2371.34 361.449   5
   0   1  -8 3110.06 327.353   6
   0   1   8 3068.82 322.487   3
   0   1   9 26568.8 1226.22   5
   0   1  10 13419.7 957.648   5
   0   2   0 25373.7 408.740   2
   0   2   1 65264.4 691.401   4
   0   2  -1 64182.0 760.591   2
   0   2   1 66224.5 765.491   3
   0   2  -1 65133.2 512.884   5
   0   2  -2 358776. 1466.71   6
   0   2   2 355041. 1703.98   4
   0   2   2 357840. 1942.48   3
   0   2  -2 359217. 2089.29   2
   0   2   3 38027.4 714.694   3
   0   2  -3 40370.0 595.217   6
   0   2   3 40390.5 598.193   4
   0   2   4 54118.8 750.309   4
   0   2  -4 53569.3 818.489   6
   0   2   4 54312.9 964.185   3
   0   2   5 28044.8 768.410   3
   0   2  -5 28508.1 690.290   6
   0   2   6 46990.3 1084.00   3
   0   2  -6 46344.9 986.101   6
   0   2  -7 82412.6 1444.76   6
   0   2   7 80467.1 1520.34   3
   0   2   8 32310.9 1029.41   3
   0   2   8 30274.7 1229.01   5
   0   2  -8 31405.7 970.029   6
   0   2   9 272.624 150.891   3
   0   2   9 227.029 201.880   5
   0   2  10 674.241 287.514   5
   0   3   0 35.1795 33.9368   2
   0   3   0 59.9549 27.9118   5
   0   3  -1 57273.2 828.893   2
   0   3   1 56962.6 705.851   2
   0   3  -1 56674.5 499.108   5
   0   3   1 58061.8 800.501   4
   0   3   1 57718.8 914.834   3
   0   3   2 13745.0 398.207   4
   0   3   2 13689.0 444.657   3
   0   3   3 5619.64 307.959   3
   0   3   3 5451.42 258.078   4
   0   3   4 282463. 2342.06   3
   0   3  -4 282367. 1799.48   6
   0   3  -5 135802. 1439.48   6
   0   3   5 137834. 1772.18   3
   0   3   5 137672. 1379.42   4
   0   3   6 4168.37 338.188   3
   0   3   6 4333.63 255.611   4
   0   3  -6 4816.82 310.096   6
   0   3   7 7318.28 483.062   3
   0   3  -7 6505.71 393.294   6
   0   3   8 45449.2 1268.91   3
   0   3   9 20060.7 893.441   3
   0   3   9 17403.4 1024.95   5
   0   3  10 9648.92 827.162   5
   0   4   0 32258.0 466.158   5
   0   4  -1 277202. 1234.71   5
   0   4   1 280849. 2338.65   3
   0   4   1 277434. 2034.83   4
   0   4   1 280916. 1824.75   2
   0   4  -2 105523. 898.478   5
   0   4   2 102998. 1250.00   4
   0   4   2 103214. 1433.69   3
   0   4   3 17108.1 598.710   3
   0   4   3 17188.0 522.938   4
   0   4   4 38651.2 944.312   3
   0   4   4 39156.8 795.073   4
   0   4   5 4234.63 271.066   4
   0   4   5 3736.50 321.705   3
   0   4  -6 130612. 1472.66   6
   0   4   6 124481. 1926.63   3
   0   4   6 126118. 1491.16   4
   0   4   7 5649.94 443.402   3
   0   4   8 15534.3 778.705   3
   0   4   9 16986.0 864.482   3
   0   4   9 16295.3 1012.32   5
   0   5   0 109.242 43.1995   5
   0   5   1 267598. 2258.82   4
   0   5  -1 266516. 1308.35   5
   0   5   1 266908. 2537.84   3
   0   5   2 99659.0 1388.47   4
   0   5  -2 103639. 897.865   5
   0   5   2 99775.3 1617.55   3
   0   5   3 137639. 1645.01   4
   0   5   3 138973. 1921.07   3
   0   5   4 28524.5 747.589   4
   0   5   4 30216.4 921.951   3
   0   5   5 11262.2 479.283   4
   0   5   5 12635.5 632.231   3
   0   5   6 2947.92 258.974   4
   0   5   6 3343.58 346.830   3
   0   5   7 5846.36 480.283   3
   0   5   8 20309.8 939.405   3
   0   5   9 5478.57 530.737   3
   0   5   9 5598.87 629.227   5
   0   6   0 29372.5 533.487   5
   0   6  -1 236443. 1325.55   5
   0   6   1 229859. 2319.17   4
   0   6   2 539.084 143.836   4
   0   6  -2 573.527 73.6321   5
   0   6   2 421.929 203.993   3
   0   6   3 775.887 151.043   4
   0   6   3 1270.21 324.466   3
   0   6   4 63097.0 1497.54   3
   0   6   4 62840.1 1239.54   4
   0   6   5 34474.1 1137.40   3
   0   6   5 35049.8 922.436   4
   0   6   6 22897.0 755.057   4
   0   6   6 23242.2 980.536   3
   0   6   7 11515.3 724.868   3
   0   6   8 7451.65 625.506   3
   0   6   9 12401.7 918.556   5
   0   6   9 12687.4 854.297   3
   0   7   0-37.8032 127.598   4
   0   7   0 219.236 67.0081   5
   0   7  -1 5431.16 216.687   5
   0   7   1 5180.22 392.455   4
   0   7   2 74909.7 1451.64   4
   0   7  -2 75255.0 767.276   5
   0   7   2 74073.6 1650.13   3
   0   7   3 16216.9 679.137   4
   0   7   3 16625.5 834.835   3
   0   7   4 54849.2 1256.53   4
   0   7   4 55317.9 1544.72   3
   0   7   5 31452.6 950.096   4
   0   7   5 30990.8 1186.65   3
   0   7   6 5366.28 546.434   3
   0   7   6 4469.33 364.753   4
   0   7   7 4372.40 531.160   3
   0   7   8 9101.73 751.469   3
   0   7   9 1837.47 408.928   3
   0   8   0 28918.7 983.440   4
   0   8  -1 10973.7 620.812   4
   0   8   1 11345.3 617.890   4
   0   8   2 1659.59 253.325   4
   0   8   3 33163.9 1043.69   4
   0   8   3 33893.0 1238.33   3
   0   8   4 29783.8 1208.85   3
   0   8   4 29342.0 994.968   4
   0   8   5 44424.9 1212.59   4
   0   8   5 46588.9 1561.90   3
   0   8   6 2938.83 325.200   4
   0   8   6 3273.85 480.248   3
   0   8   7 74618.2 2149.89   3
   0   8   8 9420.82 828.557   3
   0   8   9 3159.90 538.468   3
   0   9   0 42.5083 100.963   4
   0   9   1 9217.88 597.103   4
   0   9  -1 8376.15 587.008   4
   0   9   2 25453.5 986.448   4
   0   9   3 54665.4 1444.32   4
   0   9   4 25886.2 996.248   4
   0   9   4 24849.6 1168.12   3
   0   9   5 10357.8 634.276   4
   0   9   5 11223.9 839.295   3
   0   9   6 13094.3 930.659   3
   0   9   7 4418.26 602.118   3
   0   9   8 2356.84 493.545   3
   0  10   0 81412.1 1899.73   4
   0  10   1 18944.0 915.244   4
   0  10  -1 19367.8 941.829   4
   0  10   2 15068.1 814.755   4
   0  10  -2 15646.5 857.818   4
   0  10   3 6062.14 523.319   4
   0  10  -3 6966.22 589.670   4
   0  10   4 2028.65 308.612   4
   0  10   5 8165.99 598.211   4
   0  10   6 16497.1 1085.27   3
   0  10   7 8419.62 835.657   3
   0  10  -7 9152.75 716.799   4
   0  11   0 267.952 204.047   4
   0  11  -1 28376.8 1211.66   4
   0  11   1 28867.5 1206.47   4
   0  11  -2 22815.3 1099.84   4
   0  11   2 20479.9 1013.73   4
   0  11   3 7174.93 606.728   4
   0  11  -3 9323.51 727.510   4
   0  11  -4 21248.3 1097.77   4
   0  11   4 21533.6 1041.80   4
   0  11   5 964.020 250.368   4
   0  11  -5 807.079 265.673   4
   0  11  -6 2264.15 387.934   4
   0  11  -7 4024.64 504.582   4
   0  12   0 45.1369 189.616   4
   0  12  -1 18729.9 1056.21   4
   0  12   1 21521.5 1107.05   4
   0  12  -2 13151.6 891.209   4
   0  12   2 12267.3 834.793   4
   0  12  -3 7757.72 699.573   4
   0  12   3 6950.24 632.789   4
   0  12  -4 1441.46 337.244   4
   0  12   4 1434.72 316.308   4
   0  12   5 4235.94 495.572   4
   0  12  -5 5076.32 587.606   4
   0  13   0-39.3535 186.230   4
   0  13  -1 5640.99 622.097   4
   0  13   1 5161.87 578.032   4
   0  13   2 1573.65 352.313   4
   0  13   3 3296.09 467.599   4
   0  13   4 12154.8 880.313   4
   1 -14  -1 5138.93 577.631   2
  -1 -13   3 16632.1 1040.13   2
  -1 -13   2 2705.07 434.567   2
   1 -13  -2 3671.01 467.456   2
  -1 -13   1 781.178 260.038   2
   1 -13  -1 541.111 225.294   2
   1 -13   0 36292.8 1460.14   2
   1 -13   1 11527.7 850.557   2
  -1 -12   4 6767.99 665.200   2
   1 -12  -3 6951.45 586.091   2
  -1 -12   3 7456.67 679.023   2
  -1 -12   2 5557.90 566.482   2
   1 -12  -2 5447.80 523.632   2
  -1 -12   1 32938.4 1278.38   2
   1 -12  -1 34149.5 1324.52   2
   1 -12   0 2593.80 401.622   2
  -1 -12   0 3117.46 388.563   2
   1 -12   1 5640.96 573.783   2
   1 -12   2 4570.18 537.860   2
   1 -12   3 2166.74 390.193   2
  -1 -11   7 10186.9 808.324   1
  -1 -11   6 12829.3 859.332   1
  -1 -11   5 28656.4 1346.14   2
  -1 -11   5 28295.2 1191.62   1
  -1 -11   4 5190.68 565.351   2
   1 -11  -4 4860.47 458.042   2
  -1 -11   3 8780.01 691.168   2
   1 -11  -3 8457.26 611.978   2
  -1 -11   2 13127.7 801.269   2
   1 -11  -2 12425.2 743.452   2
  -1 -11   1 903.390 215.869   2
   1 -11  -1 711.973 203.278   2
  -1 -11   0 2877.38 353.275   2
   1 -11   0 2692.75 373.300   2
   1 -11   1 529.367 189.886   2
  -1 -11  -1 929.611 205.754   2
   1 -11   2 43328.9 1514.69   2
   1 -11   3 5634.59 571.466   2
   1 -11   4 10382.2 807.070   2
   1 -11   5 13986.7 955.269   2
  -1 -10   7 3272.71 463.814   1
  -1 -10   6 1124.08 265.336   1
  -1 -10   5 1035.11 239.497   1
  -1 -10   5 1061.55 280.898   2
  -1 -10   4 7471.28 640.305   2
   1 -10  -4 7645.55 541.052   2
   1 -10  -3 33076.1 1118.64   2
  -1 -10   3 33690.3 1263.33   2
  -1 -10   2 10786.5 684.162   2
   1 -10  -2 10433.6 641.166   2
  -1 -10   1 5098.51 452.788   2
   1 -10  -1 4890.42 455.117   2
  -1 -10   0 25336.1 950.850   2
   1 -10   0 23461.1 1001.67   2
   1 -10   1 12020.9 734.933   2
  -1 -10  -1 11708.0 614.209   2
   1 -10   2 6443.49 562.414   2
   1 -10   3 1532.26 316.768   2
   1 -10   4 28922.7 1258.35   2
   1 -10   5 17350.7 1015.85   2
   1 -10   6 28197.4 1355.88   2
  -1  -9   8 3063.31 452.562   1
  -1  -9   7 2981.57 427.933   1
  -1  -9   6 29627.3 1216.15   1
  -1  -9   5 32195.9 1189.92   1
   1  -9  -5 32060.0 1047.87   2
  -1  -9   4 5297.04 508.022   2
   1  -9  -4 4811.47 414.159   2
  -1  -9   3 20146.6 925.321   2
   1  -9  -3 19180.8 812.886   2
  -1  -9   2 1888.81 283.130   2
   1  -9  -2 1981.44 272.440   2
   1  -9  -1 2635.43 321.982   2
  -1  -9   1 2639.27 310.334   2
   1  -9   0 31292.5 1076.54   2
  -1  -9   0 30300.4 969.208   2
   1  -9   1 43840.7 1313.86   2
  -1  -9  -1 44285.7 1103.99   2
   1  -9   2 35135.4 1212.86   2
  -1  -9  -2 35803.3 938.449   2
   1  -9   3 21194.3 976.534   2
   1  -9   4 3345.67 422.021   2
   1  -9   5 1622.18 324.346   2
   1  -9   6 8103.15 702.606   2
  -1  -9  -7 2546.66 465.544   6
   1  -9   7 2981.26 469.231   2
  -1  -8   8 9766.49 769.064   1
  -1  -8   7 2836.12 406.758   1
  -1  -8   6 9749.50 681.978   1
   1  -8  -6 9916.32 573.497   2
  -1  -8   5 9264.15 616.197   1
  -1  -8   5 9479.65 501.868   5
  -1  -8   5 8527.64 643.679   2
   1  -8  -5 8420.48 527.103   2
  -1  -8   4 7138.95 405.494   5
  -1  -8   4 7641.41 578.381   2
   1  -8  -4 7368.65 484.878   2
   1  -8  -3 24521.2 864.203   2
  -1  -8   3 23930.2 687.125   5
  -1  -8   3 25393.2 981.733   2
  -1  -8   2 95740.3 1782.14   2
   1  -8  -2 93676.1 1689.85   2
   1  -8  -1 86347.7 1639.29   2
  -1  -8   1 90079.7 1627.84   2
   1  -8   0 47954.8 1251.92   2
  -1  -8   0 46597.4 1103.92   2
   1  -8   1 15539.5 737.529   2
  -1  -8  -1 15158.1 592.922   2
  -1  -8  -2 4110.07 298.001   2
   1  -8   2 5153.80 448.302   2
  -1  -8  -3 61702.1 1033.61   2
   1  -8   3 60378.4 1546.35   2
   1  -8   4 5206.85 491.586   2
   1  -8   5 35896.9 1307.68   2
   1  -8   6 1971.37 340.228   2
   1  -8   7 2230.75 381.041   2
  -1  -8  -7 2283.81 426.407   6
  -1  -7   9 10156.9 817.609   1
  -1  -7   8 6700.09 624.528   1
  -1  -7   7 13218.1 701.240   5
  -1  -7   7 12267.0 786.181   1
   1  -7  -6 18258.6 750.984   2
  -1  -7   6 18165.5 752.129   5
  -1  -7   6 18511.5 902.807   1
   1  -7  -5 14300.6 646.392   2
  -1  -7   5 14313.4 784.324   2
  -1  -7   5 14084.3 726.005   1
  -1  -7   5 14154.7 615.222   5
  -1  -7   4 123998. 2165.14   2
   1  -7  -4 118319. 1817.53   2
  -1  -7   4 120026. 1636.41   5
  -1  -7   3 2775.37 243.518   5
  -1  -7   3 2361.07 295.696   2
   1  -7  -3 2579.65 269.764   2
  -1  -7   2 16437.7 543.650   5
  -1  -7   2 17114.9 711.573   2
   1  -7  -2 16649.5 672.586   2
  -1  -7   1 58928.6 1227.29   2
   1  -7  -1 57262.4 1253.11   2
   1  -7   0 29031.8 906.566   2
  -1  -7   0 28381.5 792.330   2
  -1  -7  -1 107057. 1428.25   2
   1  -7   1 105435. 1782.82   2
  -1  -7  -2 46714.1 874.500   2
   1  -7   2 45335.0 1221.07   2
   1  -7   3 21341.3 871.730   2
  -1  -7  -3 22827.1 560.291   2
   1  -7   4 2879.56 345.607   2
   1  -7   5 4044.00 429.583   2
   1  -7   6 26635.8 1132.60   2
  -1  -7  -7 4569.95 552.500   6
   1  -7   7 4538.56 509.457   2
  -1  -7  -8 30084.7 1441.23   6
   1  -7   8 29009.6 1369.19   1
  -1  -6   9 9722.90 778.271   1
  -1  -6   8 29477.7 1136.76   5
  -1  -6   8 30705.5 1295.10   1
  -1  -6   7 15553.9 854.861   1
  -1  -6   7 16437.4 787.735   5
  -1  -6   6 32714.2 1011.14   5
  -1  -6   6 32044.4 1135.91   1
  -1  -6   5 80479.7 1455.06   5
  -1  -6   5 78211.9 1642.71   1
   1  -6  -5 76848.7 1432.88   2
  -1  -6   4 29216.3 1003.99   2
   1  -6  -4 28162.9 837.185   2
  -1  -6   4 27742.9 782.301   5
  -1  -6   3 93202.0 1316.29   5
  -1  -6   3 97681.1 1702.75   2
   1  -6  -3 94714.0 1495.47   2
  -1  -6   2 62213.2 1259.33   2
  -1  -6   2 58631.8 979.382   5
   1  -6  -2 60170.8 1188.18   2
   1  -6  -1 14264.1 580.794   2
  -1  -6   1 15216.4 578.237   2
   1  -6   0 87432.8 1451.54   2
  -1  -6   0 88605.5 1273.28   2
  -1  -6  -1 5446.19 292.418   2
   1  -6   1 5325.61 378.127   2
  -1  -6  -2 36858.7 687.032   2
   1  -6   2 38378.9 1041.51   2
   1  -6   3 65073.3 638.640   5
  -1  -6  -3 66996.6 826.264   2
  -1  -6  -3 68105.3 862.155   1
   1  -6   3 68076.2 1441.23   2
  -1  -6  -4 8410.46 258.593   2
   1  -6   4 8585.15 546.332   2
   1  -6   4 7867.32 324.441   5
   1  -6   5 72455.4 1181.73   5
   1  -6   5 73373.3 1675.77   2
  -1  -6  -6 41507.3 1477.44   6
   1  -6   6 44307.4 1390.98   2
  -1  -6  -7 19476.8 1068.73   6
   1  -6   7 19736.1 987.333   2
  -1  -6  -8 3685.04 508.482   6
   1  -6   8 3437.54 468.884   1
  -1  -5  10 3366.78 472.079   5
  -1  -5   9 14149.8 926.128   1
  -1  -5   9 14105.3 853.455   5
  -1  -5   8 3212.83 397.092   5
  -1  -5   8 2923.06 412.195   1
  -1  -5   7 31553.2 1079.16   5
  -1  -5   7 32554.0 1199.25   1
  -1  -5   6 96226.9 1911.81   1
  -1  -5   6 92333.6 1702.22   5
  -1  -5   5 32955.8 927.220   5
  -1  -5   5 33210.3 1039.39   1
  -1  -5   4 28511.6 874.689   1
  -1  -5   4 27073.1 763.211   5
  -1  -5   4 28400.0 937.309   2
   1  -5  -3 37538.4 889.138   2
  -1  -5   3 38702.6 827.710   5
  -1  -5   3 40148.3 1030.66   2
   1  -5  -2 13897.8 531.454   2
  -1  -5   2 14457.1 471.645   5
  -1  -5   2 15334.7 590.158   2
  -1  -5   1 17060.5 563.441   2
  -1  -5   1 17005.8 500.009   5
   1  -5  -1 16323.3 577.905   2
  -1  -5   0 41855.1 795.106   2
   1  -5   0 44098.8 958.314   2
  -1  -5  -1 25079.0 544.566   2
   1  -5   1 26553.4 771.022   2
  -1  -5  -2 6894.01 222.007   1
  -1  -5  -2 6928.11 254.282   2
   1  -5   2 7132.39 420.881   2
   1  -5   3 203538. 2332.00   2
  -1  -5  -3 203794. 1178.04   2
   1  -5   3 203436. 1377.64   5
  -1  -5  -3 206113. 1478.34   1
   1  -5   4 67811.4 1430.61   2
  -1  -5  -4 68426.8 591.097   2
   1  -5   4 69138.8 1041.44   5
   1  -5   5 10758.4 490.224   5
   1  -5   5 11384.4 629.475   2
   1  -5   6 45321.8 1330.64   2
  -1  -5  -6 42983.5 1440.08   6
   1  -5   6 43377.6 1102.48   5
   1  -5   7 24206.3 914.178   5
  -1  -5  -7 25548.7 1165.42   6
   1  -5   7 25844.6 1076.01   2
  -1  -5  -8 12765.4 879.427   6
   1  -5   8 13650.9 895.563   1
   1  -5   9 25380.9 1284.92   1
  -1  -5  -9 24714.2 1282.89   6
  -1  -4  10 6589.33 640.351   5
   1  -4 -10 7775.32 693.717   6
  -1  -4   9 17520.8 953.754   5
  -1  -4   9 18188.1 1025.55   1
  -1  -4   8 22572.6 996.747   5
  -1  -4   8 26455.4 1149.25   1
  -1  -4   7 8653.56 615.722   1
  -1  -4   7 8330.22 566.243   5
  -1  -4   6 44390.1 1275.33   1
  -1  -4   6 43412.6 1158.31   5
  -1  -4   5 16425.5 655.234   5
  -1  -4   5 17276.9 731.199   1
  -1  -4   4 63921.7 1257.97   1
  -1  -4   4 64624.8 1171.10   5
  -1  -4   3 100585. 1536.54   2
  -1  -4   3 101280. 1424.60   1
   1  -4  -2 45703.8 889.590   2
  -1  -4   2 47699.3 516.811   6
  -1  -4   2 46990.3 953.248   2
  -1  -4   2 46555.6 813.446   5
   1  -4  -1 32185.3 738.230   2
  -1  -4   1 31626.0 642.314   5
  -1  -4   1 33274.5 721.203   2
  -1  -4   0 130178. 1235.09   2
   1  -4   0 128649. 1486.30   2
   1  -4   1 103422. 1377.07   2
  -1  -4  -1 101522. 919.896   2
   1  -4   2 37635.6 473.450   5
  -1  -4  -2 36796.9 453.469   2
  -1  -4  -2 37792.3 489.920   1
   1  -4   2 38578.0 888.902   2
  -1  -4  -3 113803. 634.280   2
   1  -4   3 116618. 1162.33   5
   1  -4   4 25215.5 650.901   5
  -1  -4  -4 23895.6 278.765   2
   1  -4   5 13096.0 635.197   2
   1  -4   5 12768.6 543.204   5
  -1  -4  -5 13293.0 258.008   2
  -1  -4  -5 12986.0 717.113   6
   1  -4   6 43054.1 1118.18   5
   1  -4   6 44370.8 1241.62   2
  -1  -4  -6 41716.9 1352.07   6
  -1  -4  -7 18898.0 964.712   6
   1  -4   7 19289.1 840.136   5
   1  -4   7 19896.4 976.317   1
  -1  -4  -8 14059.5 889.386   6
   1  -4   8 14213.0 788.138   5
   1  -4   8 12914.3 845.707   1
   1  -4   8 13917.3 797.020   3
  -1  -4  -9 7837.01 701.231   6
   1  -4   9 8800.72 670.645   3
   1  -4   9 9648.02 707.982   5
   1  -4   9 7702.73 698.073   1
  -1  -3  10 10661.6 816.613   5
   1  -3 -10 10444.7 762.983   6
  -1  -3   9 2109.53 366.838   5
  -1  -3   9 2705.94 411.794   1
  -1  -3   8 1140.89 269.876   5
  -1  -3   8 1207.32 275.183   1
  -1  -3   7 24188.8 968.499   5
  -1  -3   7 25516.7 705.687   3
  -1  -3   7 27054.9 1055.13   1
  -1  -3   6 35746.9 1122.15   1
  -1  -3   6 32549.6 1018.14   5
  -1  -3   5 48611.4 1124.27   5
  -1  -3   5 50211.3 1206.11   1
  -1  -3   4 153197. 1880.18   1
  -1  -3   4 148737. 1766.85   5
  -1  -3   3 215920. 1986.20   1
  -1  -3   3 215662. 1891.69   5
  -1  -3   2 493217. 2502.01   1
   1  -3  -2 504119. 2699.46   3
  -1  -3   2 492006. 2527.70   5
  -1  -3   2 494099. 2433.11   3
  -1  -3   1 716196. 2346.69   6
   1  -3  -1 735740. 3178.02   2
  -1  -3   1 719981. 3045.34   2
  -1  -3   1 733247. 2811.62   3
  -1  -3   1 731265. 2909.84   5
   1  -3   0 369584. 1100.13   5
  -1  -3   0 368506. 2136.53   3
  -1  -3   0 364730. 1810.04   2
   1  -3   1 346224. 1099.61   5
  -1  -3  -1 344816. 1352.14   2
   1  -3   2 272863. 2141.34   2
   1  -3   3 18730.1 602.072   2
  -1  -3  -3 18012.3 689.634   6
  -1  -3  -4 5857.83 154.386   2
  -1  -3  -4 6282.56 452.464   6
   1  -3   4 6707.67 392.714   2
   1  -3   5 15119.8 641.442   2
  -1  -3  -5 13411.1 697.581   6
  -1  -3  -5 14477.6 317.665   2
  -1  -3  -6 6668.42 523.522   6
   1  -3   6 6766.04 459.321   5
   1  -3   6 7539.07 491.259   2
   1  -3   7 13027.0 769.307   1
  -1  -3  -7 12513.4 767.710   6
   1  -3   7 13252.5 708.462   5
   1  -3   7 12776.2 704.403   3
  -1  -3  -8 13445.4 836.463   6
   1  -3   8 14551.0 813.208   5
   1  -3   8 13501.3 838.354   1
   1  -3   8 13605.9 770.008   3
  -1  -3  -9 3759.75 483.414   6
   1  -3   9 4189.44 484.791   5
   1  -3   9 3851.99 440.030   3
   1  -3   9 4133.49 503.561   1
   1  -3  10 16659.6 1008.69   5
  -1  -3 -10 17107.8 1059.29   6
  -1  -2  10 13636.2 925.231   5
  -1  -2   9 10511.1 756.867   5
   1  -2  -9 10114.2 677.367   6
  -1  -2   8 6905.69 571.052   1
  -1  -2   8 6689.84 565.436   5
  -1  -2   7 52919.2 965.780   3
  -1  -2   7 48702.3 1362.78   5
  -1  -2   7 49614.9 1410.54   1
  -1  -2   6 2384.21 306.970   5
  -1  -2   6 2468.05 298.893   1
  -1  -2   6 2350.16 190.833   3
  -1  -2   5 55124.8 1235.89   1
  -1  -2   5 53718.2 1180.93   5
  -1  -2   4 46624.8 987.359   5
   1  -2  -4 46836.7 733.063   3
  -1  -2   4 47961.3 1033.89   1
  -1  -2   3 15368.2 511.097   1
  -1  -2   3 15500.1 505.526   5
   1  -2  -3 16328.0 394.347   3
  -1  -2   2 405434. 2244.31   5
  -1  -2   2 399015. 1656.18   3
   1  -2  -2 410300. 2299.63   4
   1  -2  -2 399773. 2011.32   3
  -1  -2   2 395439. 2119.47   1
   1  -2  -1 955793. 2662.24   5
   1  -2  -1 950903. 3340.98   4
  -1  -2   1 920559. 2575.83   3
  -1  -2   1 977361. 2374.27   6
  -1  -2   1 954422. 3115.04   5
  -1  -2   0 328342. 1774.77   3
  -1  -2   0 328984. 1851.83   5
   1  -2   0 326853. 1883.19   2
  -1  -2   0 323795. 1803.84   6
   1  -2   0 329696. 1862.49   4
   1  -2   0 330662. 1199.92   5
  -1  -2  -1 102477. 1135.31   3
  -1  -2  -1 104959. 1224.33   6
   1  -2   1 105866. 1007.85   4
   1  -2   1 102869. 1089.32   2
   1  -2   1 104001. 1171.23   6
   1  -2   2 211822. 1779.24   6
  -1  -2  -2 211758. 1997.43   6
   1  -2   2 209301. 1666.34   2
   1  -2   3 8265.28 363.282   2
  -1  -2  -3 7770.28 430.955   6
  -1  -2  -4 150515. 2040.15   6
  -1  -2  -4 149774. 984.198   2
   1  -2   4 148618. 1696.12   2
   1  -2   5 33200.6 885.457   2
  -1  -2  -5 32772.4 1027.94   6
  -1  -2  -5 33489.9 569.888   2
  -1  -2  -6 33521.5 1123.32   6
   1  -2   6 33614.0 1045.05   3
   1  -2   6 32333.9 1084.46   1
   1  -2   7 51527.5 1473.55   1
  -1  -2  -7 50751.4 1464.21   6
   1  -2   7 52070.8 1383.53   3
   1  -2   8 2389.63 349.239   5
   1  -2   8 1607.79 299.716   1
  -1  -2  -8 2620.04 367.946   6
   1  -2   8 2052.83 303.565   3
   1  -2   9-19.7844 145.655   3
   1  -2   9 269.083 172.567   5
   1  -2   9 124.188 142.264   1
  -1  -2  -9 324.205 181.385   6
   1  -2  10 14422.0 965.834   1
  -1  -2 -10 15627.5 989.580   6
  -1  -1  10 10853.5 836.742   5
   1  -1  -9 278.918 136.752   6
  -1  -1   9 385.000 219.205   5
  -1  -1   8 26282.0 1098.79   5
  -1  -1   7 14911.9 775.234   5
  -1  -1   7 13661.5 487.160   3
  -1  -1   6 52765.4 1316.76   5
  -1  -1   6 54581.6 861.244   3
  -1  -1   6 55206.3 1338.04   1
   1  -1  -5 218826. 1632.86   3
  -1  -1   5 221173. 2423.75   1
  -1  -1   5 215345. 1489.68   3
  -1  -1   5 219899. 2409.27   5
  -1  -1   4 40777.9 931.553   5
   1  -1  -4 41024.8 603.230   3
  -1  -1   4 41494.8 529.385   3
  -1  -1   4 40499.7 929.852   1
   1  -1  -3 17983.7 491.836   4
  -1  -1   3 16330.6 524.290   5
   1  -1  -3 16912.8 321.655   3
   1  -1  -2 47926.6 509.474   3
  -1  -1   2 47299.4 748.694   5
   1  -1  -2 49585.4 753.507   5
   1  -1  -2 47614.3 738.025   4
   1  -1  -1 214394. 1419.90   4
  -1  -1   1 212106. 965.928   3
  -1  -1   1 213469. 1123.09   6
   1  -1  -1 212295. 1274.19   5
  -1  -1   1 213937. 1375.42   5
  -1  -1   0 152006. 1071.42   3
   1  -1   0 148009. 1239.06   6
   1  -1   0 149466. 932.329   5
   1  -1   0 151676. 1088.09   2
  -1  -1   0 149713. 1140.52   6
   1  -1   0 152150. 1080.04   4
  -1  -1   0 148421. 1139.77   5
   1  -1   1 109813. 1143.11   6
  -1  -1  -1 111254. 1108.16   3
  -1  -1  -1 107811. 1152.80   6
   1  -1   1 107836. 848.398   4
   1  -1   1 109773. 944.704   2
  -1  -1  -2 248456. 2021.36   6
   1  -1   2 246505. 1874.55   6
   1  -1   2 244968. 1552.95   2
  -1  -1  -2 240939. 872.810   2
  -1  -1  -3 64173.5 1159.37   6
  -1  -1  -3 62852.2 610.397   2
   1  -1   3 63048.4 886.278   2
  -1  -1  -4 61470.0 755.327   2
  -1  -1  -4 59597.2 1228.01   6
   1  -1   4 59436.6 987.327   2
   1  -1   4 57548.5 1155.76   3
   1  -1   5 41103.7 1080.17   1
  -1  -1  -5 40000.6 714.714   2
   1  -1   5 40242.8 1045.19   3
  -1  -1  -5 39671.1 1086.58   6
  -1  -1  -6 1530.02 248.706   6
   1  -1   6 1463.47 237.448   3
   1  -1   7 54814.7 1397.22   3
   1  -1   7 53961.6 1464.51   1
  -1  -1  -7 57137.7 1507.30   6
   1  -1   8 36120.4 1212.56   3
  -1  -1  -8 35641.9 1279.63   6
   1  -1   8 35439.4 1283.97   1
  -1  -1  -9 16078.6 918.046   6
   1  -1   9 16486.5 950.082   1
   1  -1   9 16902.2 880.487   3
   1  -1   9 15249.5 929.665   5
   1  -1  10 8831.84 765.303   5
   1  -1  10 8166.07 718.372   1
  -1  -1 -10 7359.51 666.864   6
  -1   0  10 181.982 201.050   5
  -1   0   9 51390.2 1690.69   5
   1   0  -8 58230.1 1327.59   6
  -1   0   8 60411.7 1695.59   5
  -1   0   7 55677.2 993.323   3
  -1   0   7 53748.5 1472.75   5
  -1   0   6 16604.8 484.693   3
  -1   0   6 17224.5 769.506   5
  -1   0   5 1306.62 122.919   3
  -1   0   5 1366.31 228.191   5
  -1   0   4 113729. 1582.35   5
  -1   0   4 114943. 885.809   3
  -1   0   3 115255. 1374.86   5
  -1   0   3 114877. 623.124   3
   1   0  -3 115343. 1220.69   4
  -1   0   2 135811. 1263.32   5
   1   0  -2 135075. 1194.13   4
   1   0  -2 135443. 1246.51   5
  -1   0   1 45051.2 613.729   4
   1   0  -1 45552.8 612.146   5
  -1   0   1 45291.5 609.008   5
   1   0  -1 44566.6 611.698   4
   1   0   0 8090.20 271.793   6
  -1   0   0 8208.15 273.252   6
  -1   0   0 8145.26 240.759   5
  -1   0   0 8218.89 226.916   4
   1   0   0 8012.61 242.648   5
   1   0   0 8054.53 226.689   4
  -1   0  -1 91251.2 1029.83   6
   1   0   1 92551.6 1024.12   6
  -1   0  -1 92806.8 697.980   2
   1   0   1 92041.7 620.384   4
   1   0   1 91908.7 679.286   2
  -1   0  -1 93484.6 621.464   4
  -1   0  -2 5347.10 291.372   6
   1   0   2 6024.96 300.081   6
   1   0   2 5417.74 189.936   2
  -1   0  -2 5758.67 195.820   2
   1   0   2 5602.13 287.669   3
   1   0   3 108589. 1022.91   2
  -1   0  -3 107142. 988.340   2
   1   0   3 106587. 1378.05   3
  -1   0  -3 107681. 1445.39   6
  -1   0  -4 169551. 1449.45   2
  -1   0  -4 166233. 1980.92   6
   1   0   4 165966. 1867.52   1
   1   0   4 168833. 1942.15   3
   1   0   5 90970.9 1541.49   3
   1   0   5 89039.3 1533.61   1
  -1   0  -5 89045.4 1585.53   6
  -1   0  -6 150025. 2222.08   6
   1   0   6 147569. 2129.08   3
   1   0   6 152214. 2207.06   1
  -1   0  -7 2798.53 342.259   6
   1   0   7 2961.30 351.092   1
   1   0   7 2423.44 301.072   3
   1   0   8 6064.74 531.995   1
   1   0   8 6259.33 511.564   3
  -1   0  -8 6614.85 547.754   6
  -1   0  -9 1183.36 266.303   6
   1   0   9 1733.99 313.893   1
   1   0   9 1718.95 358.128   5
   1   0   9 1241.35 270.906   3
   1   0  10 12933.7 932.166   5
  -1   1  10 9778.01 812.042   5
  -1   1   9 609.997 235.223   5
   1   1  -8 26676.9 833.809   6
  -1   1   8 25771.7 1118.67   5
  -1   1   7 13599.3 757.428   5
  -1   1   7 14755.0 535.560   3
   1   1  -7 13601.3 551.433   6
   1   1  -6 54315.8 996.534   6
  -1   1   6 53638.4 907.463   3
  -1   1   6 53340.5 1351.73   5
  -1   1   5 221015. 2483.62   5
  -1   1   5 226363. 1635.27   3
  -1   1   4 40238.2 789.386   4
  -1   1   4 41746.9 967.445   5
  -1   1   4 41004.0 600.529   3
  -1   1   3 15141.5 452.337   4
  -1   1   3 17164.1 544.656   5
  -1   1   3 16390.6 338.185   3
  -1   1   2 47618.0 748.075   5
   1   1  -2 47518.4 738.395   5
   1   1  -2 47875.6 704.548   1
  -1   1   2 48977.5 748.078   4
   1   1  -1 209476. 1120.46   6
   1   1  -1 215398. 923.253   3
   1   1  -1 212364. 1381.90   5
  -1   1   1 207959. 1273.92   5
  -1   1   1 209266. 1409.93   4
  -1   1   0 151720. 937.497   5
   1   1   0 157182. 1167.28   5
   1   1   0 156525. 1071.81   3
   1   1   0 155617. 1149.00   6
  -1   1   0 155072. 1090.15   4
   1   1   1 109266. 1154.68   6
   1   1   1 107059. 1066.59   3
  -1   1  -1 107151. 966.319   2
  -1   1  -1 104395. 814.343   4
  -1   1  -1 107369. 1147.46   6
   1   1   2 244281. 903.950   2
   1   1   2 242768. 1888.51   3
  -1   1  -2 242161. 1911.03   6
  -1   1  -2 245567. 1179.63   4
  -1   1  -2 247330. 1572.33   2
  -1   1  -3 61424.9 1066.14   6
   1   1   3 60933.8 928.112   1
   1   1   3 62122.8 1071.29   3
  -1   1  -3 61599.4 869.277   2
  -1   1  -3 61373.6 579.474   4
  -1   1  -4 60201.1 1159.86   6
   1   1   4 61470.5 1082.87   1
   1   1   4 61775.9 1168.74   3
  -1   1  -4 58635.0 565.676   4
  -1   1  -5 40645.4 1044.93   6
   1   1   5 39657.5 1033.04   3
  -1   1  -5 38789.5 448.927   4
   1   1   5 41598.8 1001.53   1
  -1   1  -5 41028.7 473.187   4
  -1   1  -6 2258.85 275.355   6
   1   1   6 2159.67 264.572   1
   1   1   6 2205.21 270.842   3
  -1   1  -7 54833.7 1416.37   6
   1   1   7 56403.1 1422.23   1
   1   1   7 56124.8 1403.90   3
   1   1   8 35244.5 1197.40   3
  -1   1  -8 37064.8 1243.86   6
   1   1   8 37358.3 1261.28   1
  -1   1  -9 17491.9 910.258   6
   1   1   9 15359.4 838.739   3
   1   1  10 7721.86 739.315   5
  -1   2  10 13858.3 983.832   5
  -1   2   9 11465.8 822.595   5
  -1   2   8 6347.26 566.376   5
  -1   2   8 6491.85 406.493   3
  -1   2   7 50988.5 1052.23   3
   1   2  -7 53081.2 965.057   6
  -1   2   7 52459.3 1477.90   5
  -1   2   6 2662.11 224.008   3
   1   2  -6 3087.07 208.810   6
  -1   2   6 2464.32 319.298   5
   1   2  -5 54367.0 739.260   6
  -1   2   5 52048.8 992.062   4
  -1   2   5 54011.5 1246.55   5
  -1   2   5 54933.8 902.261   3
   1   2  -4 44502.8 528.934   6
  -1   2   4 44767.0 754.560   3
  -1   2   4 44774.7 1014.77   5
  -1   2   4 44032.7 865.694   4
  -1   2   3 15409.0 520.028   5
  -1   2   3 14641.7 424.512   3
  -1   2   3 14811.8 468.487   4
   1   2  -2 407693. 2209.22   5
  -1   2   2 409467. 2307.34   4
  -1   2   1 951886. 2667.97   5
   1   2  -1 954868. 3084.19   5
   1   2  -1 949646. 2733.24   3
  -1   2   1 947572. 3314.54   4
  -1   2   0 325457. 1175.99   5
  -1   2   0 324543. 1894.68   2
   1   2   0 325050. 1825.68   5
   1   2   0 323709. 1422.17   2
  -1   2   0 329355. 1868.35   4
   1   2   0 326053. 1733.36   3
  -1   2  -1 104089. 1107.45   2
   1   2   1 99821.1 1115.59   3
  -1   2  -1 103075. 1009.90   4
  -1   2  -2 202012. 1776.05   6
   1   2   2 203095. 1230.65   1
   1   2   2 202642. 1785.41   3
  -1   2  -2 207591. 1414.84   4
  -1   2  -3 9132.72 301.213   4
   1   2   3 9029.11 336.788   1
  -1   2  -3 9806.85 428.099   6
   1   2   3 9703.75 436.826   3
   1   2   3 9086.98 206.324   4
  -1   2  -4 147682. 1223.55   4
   1   2   4 149638. 1861.80   3
   1   2   4 149911. 1624.67   1
  -1   2  -4 149809. 1793.40   6
  -1   2  -5 32716.1 918.122   6
   1   2   5 33692.2 959.104   3
  -1   2  -5 33185.4 587.382   4
   1   2   5 32922.3 865.449   1
   1   2   6 35470.0 1004.15   1
   1   2   6 36005.9 1067.57   3
  -1   2  -6 34029.6 1016.40   6
  -1   2  -6 36908.2 612.329   4
  -1   2  -7 48681.8 1299.53   6
   1   2   7 46441.2 1306.37   3
  -1   2  -8 1892.14 286.902   6
   1   2   8 2729.93 346.970   3
   1   2   9 27.7993 118.958   3
  -1   3  10 10582.8 864.243   5
  -1   3   9 3323.37 468.833   5
  -1   3   8 1544.10 340.383   5
  -1   3   8 1416.52 217.553   3
  -1   3   7 26805.5 824.857   3
  -1   3   7 25497.5 1045.48   5
  -1   3   6 32564.4 864.605   4
   1   3  -6 32846.5 559.543   6
  -1   3   6 32102.1 1075.27   5
  -1   3   6 33826.8 865.710   3
  -1   3   5 52608.6 1027.60   3
  -1   3   5 53783.0 1257.52   5
   1   3  -5 50557.0 534.762   6
  -1   3   5 52796.3 1043.82   4
  -1   3   4 145380. 1848.44   5
  -1   3   4 148475. 1675.61   4
  -1   3   4 142433. 1618.96   3
  -1   3   3 214196. 1961.28   5
  -1   3   3 218796. 1907.76   3
  -1   3   3 215433. 1919.89   4
   1   3  -2 486465. 2473.56   5
  -1   3   2 485888. 2772.67   4
   1   3  -1 716052. 3072.42   3
  -1   3   1 726222. 2338.90   5
   1   3  -1 727821. 2864.31   5
   1   3  -1 725669. 2952.61   2
  -1   3   1 718766. 3279.79   4
   1   3   0 369860. 1763.38   2
   1   3   0 373404. 2168.67   3
   1   3   0 379205. 2129.36   5
  -1   3   0 370679. 2282.87   4
   1   3   1 347079. 2278.96   3
   1   3   1 345499. 1322.49   2
  -1   3  -1 348260. 2193.13   4
  -1   3  -2 271197. 1921.67   4
   1   3   2 270130. 2204.67   3
   1   3   3 16639.8 385.241   4
   1   3   3 16114.4 596.700   3
  -1   3  -3 16091.4 551.982   6
  -1   3  -3 17302.9 493.128   4
  -1   3  -4 5576.34 287.601   4
   1   3   4 5966.47 392.872   3
  -1   3  -4 5968.30 367.948   6
   1   3   4 5784.79 209.966   4
  -1   3  -5 15081.6 478.124   4
   1   3   5 14766.8 664.473   3
   1   3   5 14311.9 288.357   4
  -1   3  -5 14946.5 613.416   6
   1   3   6 6799.51 488.895   3
  -1   3  -6 7391.33 336.885   4
  -1   3  -6 6602.96 447.435   6
   1   3   7 11886.6 680.004   3
  -1   3  -7 12905.2 660.380   6
   1   3   8 15146.5 809.780   3
   1   3   9 4077.98 457.091   3
  -1   4  10 6517.01 684.145   5
  -1   4   9 18129.9 1055.74   5
  -1   4   8 23925.0 1118.02   5
  -1   4   8 24577.7 926.221   3
  -1   4   7 6597.21 434.468   4
  -1   4   7 6600.39 552.414   5
  -1   4   7 7598.46 504.613   3
  -1   4   6 43729.1 1271.81   5
  -1   4   6 44541.1 1121.27   3
  -1   4   6 44789.3 1048.84   4
  -1   4   5 16142.9 652.213   3
  -1   4   5 17270.6 732.455   5
  -1   4   5 16995.2 630.232   4
  -1   4   4 63699.4 1249.72   5
  -1   4   4 62139.7 1214.70   3
  -1   4   4 63047.2 1160.62   4
  -1   4   3 91906.4 1320.20   5
  -1   4   3 92911.5 1369.23   4
  -1   4   2 47799.2 806.433   5
  -1   4   2 48700.7 965.289   4
   1   4  -1 32201.4 764.207   3
  -1   4   1 33558.9 520.573   5
   1   4  -1 32536.0 646.972   5
  -1   4   1 32410.7 773.541   4
   1   4   0 128352. 1520.32   3
   1   4   0 129337. 1196.27   2
  -1   4   0 131084. 1527.26   4
  -1   4  -1 99213.0 1322.05   4
   1   4   1 100473. 1364.45   3
   1   4   1 101731. 918.986   2
   1   4   2 35482.4 860.932   3
  -1   4  -2 35471.1 793.201   4
   1   4   3 119942. 1696.51   3
  -1   4  -3 116323. 1454.36   4
   1   4   3 119175. 1252.67   4
   1   4   4 27412.1 868.823   3
  -1   4  -4 26352.6 703.728   4
   1   4   4 27422.5 581.572   4
   1   4   5 12540.2 633.883   3
  -1   4  -5 11877.4 483.407   4
   1   4   5 12635.0 368.799   4
   1   4   6 44247.6 1256.51   3
  -1   4  -6 44282.4 1118.77   6
  -1   4  -6 43899.7 943.245   4
   1   4   7 19945.4 903.900   3
  -1   4  -7 18904.1 778.512   6
   1   4   8 13987.9 804.826   3
   1   4   9 8724.58 678.669   3
  -1   5   9 14436.8 950.127   5
  -1   5   8 3292.92 414.723   3
  -1   5   8 3404.37 459.441   5
  -1   5   7 33503.5 1141.17   3
  -1   5   7 32784.7 1222.08   5
  -1   5   7 34021.2 1000.33   4
  -1   5   6 97883.8 1917.07   5
  -1   5   6 96716.8 1624.54   4
  -1   5   6 96061.9 1833.09   3
  -1   5   5 30852.8 1001.74   5
  -1   5   5 31303.7 905.867   4
  -1   5   5 33621.3 1038.25   3
  -1   5   4 25650.7 815.781   5
  -1   5   4 23926.1 767.589   4
  -1   5   4 25283.0 855.034   3
  -1   5   3 39984.9 897.785   5
  -1   5   3 39615.6 966.576   4
  -1   5   2 14732.4 459.799   5
  -1   5   2 13860.2 569.111   4
  -1   5   1 18495.0 643.471   4
  -1   5   1 18076.7 392.875   5
  -1   5   0 42992.4 973.516   4
   1   5   0 43107.1 1024.67   3
  -1   5  -1 23196.3 711.974   4
   1   5   1 23918.5 753.286   3
   1   5   1 22560.7 515.913   2
   1   5   2 7126.09 428.719   3
  -1   5  -2 7533.62 414.067   4
  -1   5  -3 201149. 2128.01   4
   1   5   3 200360. 1855.07   4
   1   5   3 199659. 2331.21   3
   1   5   4 64820.2 1412.54   3
   1   5   4 66666.0 1047.80   4
  -1   5  -4 68176.8 1261.33   4
   1   5   5 10079.9 601.118   3
  -1   5  -5 11003.6 521.744   4
   1   5   5 11080.3 414.712   4
   1   5   6 40989.9 1264.39   3
  -1   5  -6 44819.0 1057.64   4
   1   5   7 23680.2 1023.26   3
   1   5   8 13681.6 820.496   3
   1   5   9 24787.2 1161.73   3
  -1   6   9 8021.63 732.801   5
  -1   6   8 28614.3 1263.91   5
  -1   6   8 29953.6 1207.52   3
  -1   6   7 16424.9 867.947   3
  -1   6   7 15251.6 850.859   5
  -1   6   7 16014.6 720.423   4
  -1   6   6 29985.0 1106.14   3
  -1   6   6 31293.2 1115.80   5
  -1   6   6 30331.0 975.123   4
  -1   6   5 75243.4 1582.41   5
  -1   6   5 75790.9 1496.95   4
  -1   6   5 75900.5 1665.86   3
  -1   6   4 28745.0 909.008   4
  -1   6   3 92773.4 1595.95   4
  -1   6   2 56843.1 928.648   5
  -1   6   2 56613.2 1239.56   4
  -1   6   1 12904.4 349.431   5
  -1   6   1 12670.2 587.142   4
  -1   6   0 86918.5 1511.95   4
   1   6   0 85846.3 1590.73   3
  -1   6  -1 4591.28 353.275   4
   1   6   1 6879.13 498.562   3
   1   6   2 36639.1 895.369   4
   1   6   2 37230.2 1076.67   3
  -1   6  -2 34988.3 962.423   4
   1   6   3 66277.2 1470.83   3
  -1   6  -3 66931.7 1348.34   4
   1   6   3 65117.2 1180.94   4
   1   6   4 7024.71 508.819   3
   1   6   4 7038.91 387.672   4
  -1   6  -4 7599.15 469.180   4
   1   6   5 72199.0 1670.09   3
  -1   6  -5 72643.0 1454.37   4
   1   6   5 72707.5 1205.11   4
   1   6   6 42971.5 1357.45   3
  -1   6  -6 41110.5 1114.99   4
   1   6   7 20254.7 992.459   3
   1   6   8 3601.48 461.634   3
   1   6   9 9589.15 761.881   3
  -1   7   9 8543.06 765.549   5
  -1   7   8 7502.07 665.272   3
  -1   7   8 8666.64 717.922   5
  -1   7   7 10970.7 747.453   5
  -1   7   7 11551.3 776.278   3
  -1   7   7 11007.1 632.021   4
  -1   7   6 19453.8 948.977   3
  -1   7   6 19150.8 902.001   5
  -1   7   6 19244.3 822.800   4
  -1   7   5 13187.4 687.071   5
  -1   7   5 11975.8 638.039   4
  -1   7   4 113671. 1798.06   5
  -1   7   4 118282. 1961.36   4
  -1   7   3 2427.78 244.700   5
  -1   7   3 3022.31 330.121   4
  -1   7   2 16135.4 515.775   5
  -1   7   2 16724.1 724.831   4
  -1   7   1 60651.6 769.733   5
  -1   7   1 58023.7 1335.25   4
   1   7   0 26539.1 970.435   3
  -1   7   0 27197.1 917.196   4
   1   7   1 99694.3 1925.43   3
  -1   7  -1 105995. 1805.85   4
   1   7   2 44559.1 1310.23   3
   1   7   2 44076.9 1074.94   4
  -1   7  -2 43978.2 1171.37   4
   1   7   3 24192.8 984.168   3
  -1   7  -3 23410.5 868.853   4
   1   7   3 22543.2 770.156   4
  -1   7  -4 2505.21 303.760   4
   1   7   4 2411.33 258.906   4
   1   7   4 2366.81 363.019   3
  -1   7  -5 3640.04 361.365   4
   1   7   5 4033.39 326.543   4
   1   7   5 3126.44 395.408   3
   1   7   6 25479.1 1123.38   3
  -1   7  -6 26223.0 959.010   4
   1   7   7 5437.56 555.572   3
   1   7   8 28859.3 1310.94   3
   1   7   9 4739.87 573.091   3
  -1   8   9 4825.01 581.166   5
  -1   8   8 9240.91 764.911   3
  -1   8   8 9886.57 773.358   5
  -1   8   7 3957.69 463.921   5
  -1   8   7 3436.01 385.857   4
  -1   8   6 9182.11 639.738   5
  -1   8   6 9715.67 619.821   4
  -1   8   5 8308.74 557.751   5
  -1   8   5 8002.02 560.969   4
  -1   8   4 6816.70 457.241   5
  -1   8   4 6868.46 509.172   4
  -1   8   3 23799.7 754.891   5
  -1   8   3 23023.7 921.508   4
  -1   8   2 92427.9 1247.44   5
  -1   8   2 88675.9 1784.37   4
  -1   8   1 86421.5 926.624   5
  -1   8   1 83998.1 1725.54   4
  -1   8   0 48396.6 1310.61   4
   1   8   1 14377.1 811.796   3
  -1   8  -1 14928.4 736.278   4
   1   8   2 3942.09 364.412   4
  -1   8  -2 4758.87 432.271   4
   1   8   2 3914.63 486.208   3
   1   8   3 56472.4 1632.86   3
  -1   8  -3 58993.2 1484.98   4
   1   8   3 57616.8 1336.15   4
   1   8   4 5779.74 576.910   3
  -1   8  -4 4736.52 437.280   4
   1   8   4 5236.12 403.803   4
   1   8   5 36164.1 1393.35   3
  -1   8  -5 35203.7 1184.63   4
   1   8   5 36615.7 1049.97   4
  -1   8  -6 1493.55 255.674   4
   1   8   6 1907.89 385.433   3
   1   8   7 1743.11 387.120   3
   1   8   8 447.404 227.079   3
  -1   9   8 2974.44 458.181   5
  -1   9   7 3574.08 453.306   5
  -1   9   6 29562.2 1162.13   5
  -1   9   6 26993.5 1088.80   4
  -1   9   5 31701.3 1102.62   5
  -1   9   5 30626.8 1155.43   4
  -1   9   4 5152.25 406.698   5
  -1   9   4 5311.70 481.008   4
  -1   9   3 18323.4 666.929   5
  -1   9   3 17053.5 847.750   4
  -1   9   2 1673.53 283.631   4
  -1   9   1 2211.23 321.020   4
  -1   9   0 28660.4 1083.60   4
  -1   9  -1 45841.6 1375.81   4
   1   9   1 45808.5 1298.22   4
   1   9   2 31203.1 1265.47   3
   1   9   2 32207.6 1084.94   4
  -1   9  -2 33759.5 1201.91   4
   1   9   3 20954.7 1085.74   3
  -1   9  -3 21477.6 967.751   4
   1   9   3 20284.6 860.928   4
  -1   9  -4 3792.38 421.523   4
   1   9   4 3627.70 372.175   4
   1   9   4 4091.11 541.775   3
  -1   9  -5 1553.23 276.675   4
   1   9   5 2157.13 462.693   3
   1   9   6 7601.84 743.696   3
  -1   9  -6 8100.85 622.939   4
   1   9   7 3566.97 555.303   3
  -1  10   8 20245.5 1138.37   5
  -1  10   7 2840.70 419.344   5
  -1  10   6 533.590 201.196   4
  -1  10   6 547.618 194.026   5
  -1  10   5 1503.32 290.263   4
  -1  10   4 7201.20 590.768   4
  -1  10   3 30579.9 1204.55   4
  -1  10   2 10720.0 710.740   4
  -1  10   1 4961.17 493.793   4
  -1  10   0 21377.4 998.609   4
   1  10   1 12042.5 722.505   4
  -1  10  -1 12913.0 791.597   4
  -1  10  -2 5284.83 519.791   4
   1  10   2 5433.71 489.326   4
   1  10   3 1901.81 302.955   4
  -1  10  -3 1569.43 307.419   4
   1  10   3 1984.36 408.212   3
  -1  10  -4 27144.8 1174.62   4
   1  10   4 27773.4 1071.21   4
   1  10   4 29369.2 1403.21   3
   1  10   5 15805.4 1075.98   3
  -1  10  -5 17018.4 940.948   4
   1  10   6 26832.1 1448.13   3
  -1  10  -6 27617.2 1203.95   4
  -1  11   6 10714.2 771.022   4
  -1  11   5 26236.1 1186.01   4
  -1  11   4 4780.80 515.485   4
  -1  11   3 9093.92 705.242   4
  -1  11   2 10369.9 744.505   4
  -1  11   1 467.760 205.280   4
   1  11   0 2866.58 390.937   4
  -1  11   0 3125.26 424.354   4
  -1  11  -1 597.068 221.736   4
   1  11   1 906.230 235.738   4
   1  11   2 43579.4 1449.39   4
  -1  11  -2 42017.2 1523.85   4
  -1  11  -3 4802.16 537.356   4
   1  11   3 5213.05 506.922   4
   1  11   4 10408.9 704.810   4
   1  11   4 9787.16 877.457   3
  -1  11  -4 8570.62 714.720   4
   1  11   5 13676.9 1052.71   3
  -1  11  -5 13384.2 896.182   4
  -1  11  -6 1766.92 345.263   4
  -1  12   5 1019.88 280.857   4
  -1  12   4 5999.21 604.393   4
  -1  12   3 6913.80 656.568   4
   1  12  -2 5173.14 570.474   4
  -1  12   2 5021.40 562.981   4
   1  12  -1 32123.2 1366.39   4
  -1  12   1 30466.5 1349.12   4
   1  12   0 1936.21 355.753   4
  -1  12   0 2156.89 377.426   4
   1  12   1 5739.44 584.441   4
  -1  12  -1 5878.49 610.220   4
   1  12   2 5763.64 571.111   4
  -1  12  -2 6131.72 634.713   4
  -1  12  -3 2519.52 423.553   4
   1  12   3 2570.97 381.889   4
  -1  12  -4 22069.3 1200.19   4
   1  12   4 21031.0 1060.90   4
  -1  13   2 3109.88 490.281   4
   1  13  -1 416.310 241.565   4
  -1  13   1 595.049 265.638   4
   1  13   0 34508.7 1476.67   4
  -1  13   0 35377.2 1535.71   4
   1  13   1 11195.7 841.723   4
   1  13   2 6823.18 654.174   4
   1  13   3 1168.01 290.693   4
   2 -13  -3 5634.07 598.111   2
   2 -13  -2 5347.56 589.807   2
   2 -13  -1 465.545 229.626   2
   2 -12  -4 8500.91 688.125   2
   2 -12  -3 4874.37 527.107   2
   2 -12  -2 5548.47 563.314   2
   2 -12  -1 5799.05 589.096   2
   2 -12   0 2063.44 369.455   2
   2 -12   1 1089.00 284.259   2
   2 -12   2 17187.0 1043.58   2
  -2 -12  -2 15439.3 995.624   6
  -2 -12  -3 9443.62 818.519   6
   2 -11  -5 11335.7 763.038   2
   2 -11  -4 8165.69 653.772   2
   2 -11  -3 611.930 222.252   2
   2 -11  -2 12780.0 806.749   2
   2 -11  -1 37186.1 1379.76   2
  -2 -11   0 45087.6 1409.74   6
   2 -11   0 44543.9 1530.06   2
   2 -11   1 9537.29 735.303   2
  -2 -11  -1 8808.14 683.409   6
  -2 -11  -2-59.3136 168.179   6
   2 -11   2-61.2298 169.772   2
  -2 -11  -3 4264.63 540.332   6
   2 -11   3 3697.13 492.798   2
   2 -11   4 15728.8 1004.03   2
  -2 -11  -4 15762.3 1067.95   6
  -2 -10   8 4898.31 556.873   1
  -2 -10   7 2885.08 412.980   1
  -2 -10   6 1652.27 294.283   1
   2 -10  -6 1952.82 315.734   2
   2 -10  -5 9720.83 680.037   2
  -2 -10   5 10038.7 655.927   1
   2 -10  -4 8765.42 643.539   2
   2 -10  -3 47405.1 1467.46   2
   2 -10  -2 28426.2 1143.43   2
   2 -10  -1 2434.03 358.583   2
  -2 -10   0 948.544 213.772   6
   2 -10   0 979.205 251.040   2
  -2 -10   0 631.054 174.526   2
  -2 -10  -1 12818.9 775.967   6
   2 -10   1 11414.3 759.168   2
   2 -10   2 33489.3 1325.32   2
  -2 -10  -2 33345.4 1326.41   6
   2 -10   3 25052.0 1174.28   2
  -2 -10  -3 23317.2 1179.40   6
  -2 -10  -4 12063.2 899.687   6
   2 -10   4 12358.2 861.708   2
  -2 -10  -5 2363.04 437.102   6
   2 -10   5 2981.91 456.534   2
  -2  -9   8 10521.4 804.949   1
  -2  -9   7 7543.64 640.454   1
   2  -9  -6 39425.1 1321.15   2
  -2  -9   6 37352.1 1314.03   1
   2  -9  -5 10323.6 679.152   2
  -2  -9   5 10266.8 642.955   1
  -2  -9   4 8357.96 532.376   1
  -2  -9   4 8317.92 524.655   5
   2  -9  -4 7796.73 581.930   2
  -2  -9   3 8972.55 496.782   1
   2  -9  -3 8947.69 614.855   2
   2  -9  -2 11549.5 694.382   2
  -2  -9   1 43059.2 1121.15   6
   2  -9  -1 42222.9 1315.88   2
  -2  -9   0 8981.68 574.613   6
   2  -9   0 9269.31 633.248   2
  -2  -9  -1 57612.5 1552.60   6
   2  -9   1 54965.8 1551.17   2
  -2  -9  -2 5642.14 526.460   6
   2  -9   2 5824.20 534.555   2
  -2  -9  -3 8442.99 689.789   6
   2  -9   3 8266.50 642.598   2
  -2  -9  -4 3592.49 480.339   6
   2  -9   4 2330.88 369.346   2
  -2  -9  -5 2646.94 436.241   6
   2  -9   5 2320.82 386.595   2
   2  -9   6 41392.7 1595.44   2
  -2  -9  -6 39555.3 1698.99   6
  -2  -8   8 18371.9 1040.04   1
  -2  -8   7 7497.74 626.210   1
   2  -8  -7 7773.71 591.119   2
   2  -8  -6 15552.2 812.454   2
  -2  -8   6 15131.7 773.014   5
  -2  -8   6 14553.8 798.136   1
  -2  -8   5 4455.10 406.170   5
  -2  -8   5 3731.00 382.161   1
   2  -8  -5 4023.16 413.778   2
  -2  -8   4 73227.6 1505.46   1
   2  -8  -4 72256.3 1669.72   2
  -2  -8   4 75398.1 1545.56   5
  -2  -8   3 15982.9 635.195   1
  -2  -8   3 15466.1 680.603   5
   2  -8  -3 14871.6 752.244   2
  -2  -8   2 2170.39 213.624   6
  -2  -8   2 2003.47 201.748   1
   2  -8  -2 2146.72 292.248   2
  -2  -8   1 239.734 62.2567   1
  -2  -8   1 224.998 79.2410   6
   2  -8  -1 18.7644 124.558   2
  -2  -8   0 18547.0 774.615   6
   2  -8   0 17445.1 814.560   2
   2  -8   1 34441.8 1157.23   2
  -2  -8  -1 33543.1 1123.46   6
  -2  -8  -2 7656.80 580.108   6
   2  -8   2 7723.69 574.686   2
  -2  -8  -3 19726.2 994.101   6
   2  -8   3 19840.5 935.485   2
  -2  -8  -4 92038.3 2247.95   6
   2  -8   4 93617.9 2085.74   2
  -2  -8  -5 8396.97 727.969   6
   2  -8   5 8127.81 646.403   2
  -2  -8  -6 379.844 222.359   6
   2  -8   6 154.999 115.505   2
   2  -8   7 2644.23 421.098   2
  -2  -7   9 7513.26 695.503   1
  -2  -7   8 3900.66 486.026   1
  -2  -7   8 3003.04 393.181   5
  -2  -7   7 43587.4 1365.21   5
   2  -7  -7 43448.2 1333.43   2
  -2  -7   7 45977.8 1491.38   1
   2  -7  -6 35420.2 1181.22   2
  -2  -7   6 38254.0 1207.06   5
  -2  -7   6 38690.9 1267.73   1
  -2  -7   5 174.062 116.392   5
   2  -7  -5 498.438 173.773   2
  -2  -7   5 356.364 149.399   1
   2  -7  -4 1418.07 239.518   2
  -2  -7   4 2167.95 269.866   5
  -2  -7   4 2032.40 250.977   1
   2  -7  -3 4040.69 376.485   2
  -2  -7   3 3886.32 335.869   5
  -2  -7   3 3443.58 190.834   6
  -2  -7   3 3447.78 284.632   1
   2  -7  -2 2146.87 279.993   2
  -2  -7   2 2191.47 259.133   5
  -2  -7   2 2203.38 202.303   6
  -2  -7   2 2494.77 210.829   1
  -2  -7   1 96536.6 1496.32   6
  -2  -7   1 100500. 1039.97   1
   2  -7  -1 94937.5 1768.11   2
  -2  -7   0 6995.33 448.404   6
   2  -7   0 6595.22 484.120   2
  -2  -7  -1 23858.9 902.503   6
   2  -7   1 23208.6 897.814   2
  -2  -7  -2 46965.7 1359.45   6
   2  -7   2 46148.7 1302.76   2
  -2  -7  -3 796.876 224.946   6
   2  -7   3 1046.22 223.781   2
  -2  -7  -4 3806.84 449.550   6
   2  -7   4 3871.93 420.520   2
   2  -7   5 14733.5 829.142   2
  -2  -7  -5 13437.8 882.681   6
   2  -7   6 16362.9 910.617   2
  -2  -7  -6 16824.1 1038.47   6
  -2  -7  -7 25156.4 1324.40   6
   2  -7   7 26332.2 1214.29   2
   2  -7   8 4808.91 562.694   2
  -2  -6  10 6204.19 630.098   5
  -2  -6   9 12010.7 815.669   5
  -2  -6   8 5580.16 559.660   1
  -2  -6   8 4937.14 502.532   5
  -2  -6   7 4331.24 448.336   5
  -2  -6   7 4155.44 444.912   1
  -2  -6   6 20601.0 901.823   1
  -2  -6   6 21485.9 893.430   5
  -2  -6   5 5117.33 419.049   5
  -2  -6   5 5113.88 417.311   1
   2  -6  -4 103726. 1819.72   2
  -2  -6   4 109902. 1785.52   5
  -2  -6   4 106183. 1685.14   1
  -2  -6   3 12738.2 328.247   6
   2  -6  -3 13216.8 639.289   2
  -2  -6   3 13056.3 592.728   5
  -2  -6   3 12683.8 525.327   1
  -2  -6   2 145555. 1459.76   6
   2  -6  -2 149082. 2097.01   2
  -2  -6   2 146579. 1902.30   5
  -2  -6   2 149178. 1511.88   1
  -2  -6   1 8975.30 432.399   6
  -2  -6   1 9706.77 299.221   1
   2  -6  -1 8987.61 522.252   2
  -2  -6   0 3877.62 324.544   6
   2  -6   0 3339.19 325.402   2
  -2  -6  -1 91533.9 1663.89   6
   2  -6   1 93617.5 1669.80   2
  -2  -6  -2 65137.6 1521.32   6
   2  -6   2 65133.6 1445.77   2
  -2  -6  -3 21971.8 947.864   6
   2  -6   3 20340.6 842.830   2
  -2  -6  -4 12778.2 775.316   6
   2  -6   4 12715.8 689.696   2
  -2  -6  -5 943.644 252.739   6
   2  -6   5 780.973 216.045   2
  -2  -6  -6 3704.98 484.175   6
   2  -6   6 3189.32 398.751   2
   2  -6   7 4533.23 487.944   2
  -2  -6  -7 4058.67 529.900   6
   2  -6   8 4214.07 500.968   2
  -2  -6  -8 3415.27 501.471   6
  -2  -5  10 4447.13 545.938   5
  -2  -5   9 2373.65 384.081   5
  -2  -5   8 12780.6 789.637   5
  -2  -5   7 3870.91 423.064   1
  -2  -5   7 3786.64 407.054   5
  -2  -5   6 3202.26 359.782   1
  -2  -5   6 3564.32 376.008   5
  -2  -5   5 125467. 1978.19   1
  -2  -5   5 125988. 1991.45   5
  -2  -5   4 37148.9 972.986   1
  -2  -5   4 38172.6 1031.68   5
  -2  -5   3 25251.1 710.254   1
  -2  -5   3 24205.6 790.481   5
  -2  -5   3 23624.1 410.510   6
   2  -5  -3 24291.2 817.282   2
  -2  -5   2 143317. 1419.08   1
   2  -5  -2 141798. 1942.13   2
  -2  -5   2 143070. 1812.99   5
  -2  -5   2 146406. 1371.10   6
   2  -5  -1 32477.2 919.742   2
  -2  -5   1 31961.5 756.848   6
  -2  -5   1 31371.9 849.532   5
  -2  -5   0 266070. 2456.98   6
   2  -5   0 269464. 1290.71   5
   2  -5   0 271851. 2661.67   2
  -2  -5  -1 75986.1 1448.45   6
   2  -5   1 72302.5 616.548   5
   2  -5   1 75824.1 1416.82   2
  -2  -5  -2 19656.1 803.745   6
   2  -5   2 17688.5 362.975   5
   2  -5   2 18019.2 705.784   2
  -2  -5  -3 22030.1 925.954   6
   2  -5   3 23311.1 843.137   2
  -2  -5  -4 11502.5 716.719   6
   2  -5   4 11368.0 620.118   2
  -2  -5  -5 62997.1 1744.49   6
   2  -5   5 61234.5 1481.50   2
  -2  -5  -6 829.057 234.639   6
   2  -5   6 628.780 191.724   2
  -2  -5  -7 14726.4 947.744   6
   2  -5   7 15906.1 858.601   2
  -2  -5  -8 342.630 202.403   6
   2  -5   8 674.833 251.257   1
   2  -5   8 594.185 226.653   3
   2  -5   9 23667.9 1215.32   3
  -2  -4  10 3520.80 499.480   5
  -2  -4   9 19112.7 1041.45   5
  -2  -4   8 3898.49 452.335   5
  -2  -4   7 26616.7 1058.46   5
  -2  -4   6 53410.0 1389.88   1
  -2  -4   6 51753.1 1356.00   5
  -2  -4   5 66115.1 1407.30   1
  -2  -4   5 67238.5 875.888   3
  -2  -4   5 67010.2 1442.63   5
  -2  -4   4 29024.2 584.285   3
  -2  -4   4 28662.9 869.881   5
  -2  -4   4 28688.0 830.498   1
  -2  -4   3 1605.69 148.852   3
  -2  -4   3 1595.18 217.249   5
  -2  -4   2 360668. 2804.68   5
  -2  -4   2 369086. 2072.43   6
  -2  -4   1 14196.1 482.383   6
   2  -4  -1 14494.9 403.783   5
   2  -4  -1 13379.4 556.259   2
  -2  -4   1 13447.1 533.816   5
  -2  -4   0 7802.84 403.172   6
   2  -4   0 6852.02 399.642   2
   2  -4   0 7566.40 258.226   5
  -2  -4  -1 25118.5 794.482   6
   2  -4   1 25313.3 456.668   5
   2  -4   1 23843.6 743.232   2
   2  -4   2 57268.4 1162.57   2
  -2  -4  -2 56061.1 1302.71   6
   2  -4   2 55856.1 767.566   5
  -2  -4  -3 81922.9 1688.74   6
   2  -4   3 83612.9 1472.92   2
   2  -4   4 13219.1 618.396   2
  -2  -4  -4 13230.4 738.060   6
  -2  -4  -5 24530.8 1048.76   6
   2  -4   5 23808.2 872.918   2
  -2  -4  -6 19382.1 999.798   6
   2  -4   6 20062.9 856.018   2
  -2  -4  -7 24665.3 1194.73   6
   2  -4   7 26460.6 1038.47   2
   2  -4   7 25786.4 1146.81   3
  -2  -4  -8 8375.39 740.478   6
   2  -4   8 9042.37 737.778   1
   2  -4   8 9351.13 729.051   3
   2  -4   9 13632.9 912.282   3
  -2  -3  10 1651.31 381.653   5
  -2  -3   9 6581.77 623.997   5
  -2  -3   8 39425.2 1382.13   5
  -2  -3   7 110451. 2128.45   5
  -2  -3   6 10768.0 633.804   5
  -2  -3   6 12469.8 283.887   3
  -2  -3   5 13204.0 289.618   3
  -2  -3   5 14375.1 673.585   5
  -2  -3   4 11618.3 557.813   5
  -2  -3   4 11788.4 288.881   3
  -2  -3   3 106441. 1534.39   5
  -2  -3   3 108512. 991.543   3
  -2  -3   2 74767.9 1228.07   5
  -2  -3   2 76706.0 932.114   3
  -2  -3   2 74242.6 925.318   6
   2  -3  -1 31616.2 622.373   5
   2  -3  -1 30784.8 785.006   2
  -2  -3   1 30998.6 769.031   5
  -2  -3   1 31508.1 689.933   6
  -2  -3   0 45513.6 934.539   6
   2  -3   0 43972.7 924.882   2
   2  -3   0 45202.1 681.376   5
  -2  -3  -1 37672.4 941.129   6
   2  -3   1 38799.7 639.229   5
   2  -3   1 37463.5 853.145   2
  -2  -3  -2 240896. 2591.91   6
   2  -3   2 244441. 2217.04   2
  -2  -3  -3 40009.6 1147.28   6
   2  -3   3 39018.0 932.097   2
  -2  -3  -4 1368.14 245.944   6
   2  -3   4 1503.99 204.036   2
  -2  -3  -5 104840. 2121.64   6
   2  -3   5 106177. 1728.15   2
  -2  -3  -6 20913.0 1008.29   6
   2  -3   6 22565.1 849.681   2
   2  -3   6 21670.4 971.258   3
  -2  -3  -7 23279.7 1131.85   6
   2  -3   7 24151.2 1084.65   3
   2  -3   7 22993.7 920.489   2
   2  -3   8 31815.4 1337.24   1
  -2  -3  -8 31529.6 1392.49   6
   2  -3   8 31123.8 1296.04   3
  -2  -3  -9 152.472 212.091   6
   2  -3   9 108.808 180.230   1
   2  -3   9 90.0469 166.337   3
  -2  -2  10 29792.2 1380.07   5
  -2  -2   9 21337.4 1099.09   5
  -2  -2   8 6048.85 557.998   5
  -2  -2   7 4907.36 475.747   5
  -2  -2   6 12706.5 687.565   5
  -2  -2   5 101551. 1757.32   5
   2  -2  -5 105163. 1007.17   3
   2  -2  -4 68427.8 802.132   3
  -2  -2   4 66676.6 1295.39   5
   2  -2  -3 71406.7 923.320   3
  -2  -2   3 73743.0 629.506   3
  -2  -2   3 73596.1 1258.88   5
  -2  -2   2 51428.6 992.613   5
  -2  -2   2 52413.8 675.981   3
  -2  -2   1 78028.4 1078.35   6
   2  -2  -1 79805.5 1007.57   5
  -2  -2   1 77180.9 1174.91   5
  -2  -2   1 78670.8 987.148   3
   2  -2   0 27050.4 664.546   2
  -2  -2   0 27033.6 701.080   6
   2  -2   0 26799.1 554.100   5
  -2  -2   0 26150.7 696.040   5
  -2  -2  -1 97594.5 1480.72   6
   2  -2   1 98753.4 1107.73   5
   2  -2   1 94673.9 1235.13   2
  -2  -2  -2 35285.0 973.122   6
   2  -2   2 35825.8 670.155   4
   2  -2   2 35922.9 770.836   2
  -2  -2  -3 79732.6 1572.85   6
   2  -2   3 78139.0 1199.39   2
  -2  -2  -4 44749.3 1269.79   6
   2  -2   4 45198.2 959.191   2
   2  -2   5 112075. 1630.44   2
   2  -2   5 112329. 2040.02   3
  -2  -2  -6 1328.66 281.763   6
   2  -2   6 1086.45 195.562   2
   2  -2   6 565.291 168.210   3
  -2  -2  -7 11826.3 793.887   6
   2  -2   7 11490.9 736.893   1
   2  -2   7 11458.0 733.892   3
   2  -2   8 18111.3 980.301   1
  -2  -2  -8 17007.5 1004.73   6
   2  -2   8 18345.1 977.409   3
  -2  -2  -9 11427.8 872.707   6
   2  -2   9 11276.9 807.881   5
   2  -2   9 12420.1 865.658   1
   2  -2   9 11604.3 827.883   3
  -2  -1  10 229.791 217.194   5
  -2  -1   9 20020.0 1065.76   5
  -2  -1   8 20531.0 1004.43   5
  -2  -1   7 9933.32 663.065   5
  -2  -1   6 137319. 2207.76   5
  -2  -1   5 2070.56 272.712   5
   2  -1  -5 2688.87 123.367   3
  -2  -1   4 2676.36 287.615   5
   2  -1  -4 2663.48 113.567   3
   2  -1  -3 9390.42 265.995   3
  -2  -1   3 9779.14 459.161   5
  -2  -1   2 97733.6 1304.69   5
  -2  -1   1 377790. 2468.29   5
  -2  -1   1 374553. 2398.29   6
  -2  -1   0 209401. 1938.51   6
   2  -1   0 211160. 1664.22   5
  -2  -1   0 208742. 1843.84   5
   2  -1   1 123734. 1275.26   2
   2  -1   1 126525. 1213.52   4
  -2  -1  -1 121254. 1608.53   6
  -2  -1  -2 45957.9 1088.67   6
   2  -1   2 44911.0 777.699   2
   2  -1   2 46810.2 675.362   4
  -2  -1  -3 17840.6 738.834   6
   2  -1   3 17029.5 503.792   2
   2  -1   4 87364.9 1205.37   2
  -2  -1  -4 85676.3 1732.65   6
   2  -1   4 85747.3 1633.32   3
   2  -1   5 11342.2 482.713   2
   2  -1   5 11616.9 654.998   3
  -2  -1  -5 10719.7 664.303   6
  -2  -1  -6 110958. 2232.93   6
   2  -1   6 111934. 2126.76   3
  -2  -1  -7 7481.52 621.686   6
   2  -1   7 6475.32 554.694   3
   2  -1   7 7427.51 566.149   1
  -2  -1  -8 10370.8 771.860   6
   2  -1   8 9964.39 708.470   1
   2  -1   8 10308.4 738.477   3
  -2  -1  -9 352.624 205.797   6
   2  -1   9 308.502 194.282   1
   2  -1   9 302.332 145.557   3
  -2   0  10 984.044 334.159   5
  -2   0   9 2547.11 423.585   5
  -2   0   8 32039.9 1259.35   5
  -2   0   7 32835.0 1183.90   5
  -2   0   6 41672.1 1228.14   5
  -2   0   5 15809.1 699.508   5
  -2   0   4 5805.31 398.274   5
  -2   0   3 999999. 4527.78   5
  -2   0   2 1257.32 166.857   5
  -2   0   1 107797. 1269.73   5
  -2   0   0 29196.8 611.963   4
  -2   0   0 27186.5 631.358   5
  -2   0   0 28598.4 733.524   6
   2   0   0 28766.0 639.651   3
   2   0   0 28024.5 595.515   4
   2   0   1 218563. 1502.18   2
   2   0   1 221182. 1999.32   3
   2   0   1 224481. 1529.13   4
  -2   0  -1 217290. 2157.42   6
  -2   0  -2 59878.6 1217.10   6
   2   0   2 60125.7 777.645   2
   2   0   2 61347.6 1161.64   3
   2   0   2 60733.2 687.821   4
   2   0   3 150782. 1271.16   2
  -2   0  -3 148830. 1296.28   2
  -2   0  -3 147201. 2057.10   6
   2   0   3 149746. 1977.46   3
  -2   0  -4 39868.3 1148.75   6
  -2   0  -4 38454.6 712.171   2
   2   0   4 37054.3 1068.32   3
   2   0   4 37892.6 706.501   2
   2   0   5 9316.95 575.030   3
  -2   0  -5 9031.17 594.222   6
  -2   0  -6 15032.9 811.153   6
   2   0   6 14798.9 775.233   3
   2   0   6 15450.4 728.640   1
  -2   0  -7 18367.9 949.884   6
   2   0   7 19839.6 891.218   1
   2   0   7 20479.1 955.814   3
   2   0   8 203.407 125.814   1
  -2   0  -8 208.313 147.466   6
   2   0   8 18.7170 152.715   3
   2   0   9 24269.4 1143.70   1
  -2   0  -9 24326.1 1219.06   6
   2   0   9 23405.0 1147.91   3
  -2   1  10 111.026 241.256   5
  -2   1   9 20087.5 1088.77   5
  -2   1   8 19835.4 1007.56   5
  -2   1   7 11594.8 714.789   5
  -2   1   6 141107. 2275.15   5
  -2   1   5 2706.32 324.640   5
  -2   1   4 2559.50 249.592   4
  -2   1   4 2633.84 282.016   5
  -2   1   3 10034.7 457.324   4
  -2   1   3 8619.57 431.360   5
  -2   1   2 92454.0 1222.30   5
  -2   1   2 94054.7 1312.92   4
   2   1  -2 96831.8 772.932   3
   2   1  -2 93975.0 1121.95   6
   2   1  -1 384765. 2379.95   6
  -2   1   1 377490. 2291.25   5
   2   1  -1 379413. 1948.99   3
  -2   1   1 374352. 2462.84   4
   2   1   0 210547. 1626.53   4
  -2   1   0 208754. 1661.18   5
   2   1   0 211495. 1713.35   3
  -2   1   0 210249. 1711.48   4
  -2   1  -1 126167. 1672.69   6
   2   1   1 127900. 1145.81   4
   2   1   1 124818. 1486.71   3
  -2   1  -1 125027. 1228.81   4
   2   1   2 44237.9 985.498   3
   2   1   2 43227.8 530.077   2
  -2   1  -2 43578.8 1039.96   6
   2   1   2 44572.4 580.841   4
  -2   1  -2 43076.2 662.154   4
   2   1   3 16782.4 669.939   3
  -2   1  -3 16553.7 690.284   6
   2   1   3 17894.0 349.911   2
  -2   1  -3 18208.4 376.698   4
  -2   1  -4 86776.8 1681.22   6
   2   1   4 86102.9 1623.10   3
  -2   1  -5 10815.2 636.711   6
   2   1   5 10758.9 614.783   3
   2   1   5 10778.0 536.974   1
   2   1   6 107971. 1866.16   1
  -2   1  -6 113883. 2174.98   6
   2   1   6 112744. 2113.07   3
   2   1   7 7465.35 594.949   3
   2   1   7 8812.41 585.084   1
  -2   1  -7 8072.09 621.856   6
  -2   1  -8 9403.57 710.639   6
   2   1   8 9863.58 708.323   3
   2   1   8 9918.72 665.788   1
  -2   1  -9 278.857 174.314   6
   2   1   9 243.564 127.528   1
   2   1   9 421.490 191.335   3
  -2   2  10 30294.5 1428.12   5
  -2   2   9 24950.3 1218.03   5
  -2   2   8 5696.95 552.073   5
  -2   2   7 4177.92 447.038   5
  -2   2   6 13123.3 720.941   5
  -2   2   5 101123. 1630.95   4
  -2   2   5 101650. 1782.85   5
  -2   2   4 68879.5 1317.27   5
   2   2  -4 69134.4 789.954   6
  -2   2   4 68999.3 1284.42   4
  -2   2   3 71970.9 1207.33   5
   2   2  -3 75109.9 856.112   6
  -2   2   3 72870.2 1265.07   4
   2   2  -2 53050.6 779.645   6
  -2   2   2 50920.3 898.344   5
   2   2  -2 52865.7 809.891   1
   2   2  -2 53663.1 658.566   3
  -2   2   2 52563.1 1014.78   4
   2   2  -1 80250.8 1055.39   6
  -2   2   1 75673.9 990.191   5
   2   2  -1 78696.7 946.304   3
  -2   2   1 78052.4 1179.76   4
  -2   2   0 26654.3 560.264   5
   2   2   0 26970.7 634.613   3
  -2   2   0 26950.7 655.217   4
   2   2   1 91588.4 1310.50   3
  -2   2  -1 89257.8 1131.81   4
  -2   2  -2 35376.2 955.742   6
   2   2   2 34638.0 888.661   3
  -2   2  -2 35673.4 688.743   4
  -2   2  -3 77862.0 1489.35   6
   2   2   3 78680.4 1458.39   3
   2   2   3 77599.8 1045.88   1
  -2   2  -3 77119.7 949.892   4
   2   2   3 77757.4 664.647   4
  -2   2  -4 45290.1 1206.35   6
   2   2   4 44270.6 1172.23   3
  -2   2  -4 44360.6 659.904   4
   2   2   4 42536.6 893.660   1
  -2   2  -5 107232. 1974.35   6
   2   2   5 106437. 1942.16   3
   2   2   5 107010. 1586.93   1
  -2   2  -6 782.742 217.135   6
   2   2   6 1161.74 197.352   1
   2   2   6 972.948 233.331   3
  -2   2  -7 11306.3 729.509   6
   2   2   7 12067.5 653.937   1
   2   2   7 10545.8 704.716   3
   2   2   8 18853.3 983.061   3
  -2   2  -8 18197.5 974.968   6
   2   2   9 11282.2 810.730   3
  -2   3  10 1497.08 376.849   5
  -2   3   9 6902.49 648.348   5
  -2   3   8 40602.8 1445.90   5
  -2   3   7 114469. 2247.32   5
  -2   3   6 12693.6 616.464   4
  -2   3   6 12410.5 699.576   5
  -2   3   5 14632.0 640.052   4
  -2   3   5 15747.0 717.145   5
   2   3  -4 10660.0 206.740   6
  -2   3   4 11945.5 562.482   5
  -2   3   4 11550.8 551.461   4
   2   3  -3 108985. 869.150   6
  -2   3   3 105650. 1455.70   5
  -2   3   3 108383. 1605.44   4
   2   3  -2 75644.7 890.458   6
   2   3  -2 74845.7 965.459   1
   2   3  -2 75347.6 967.318   3
  -2   3   2 71637.4 1057.70   5
  -2   3   2 72524.9 1263.07   4
   2   3  -1 36681.3 728.082   6
   2   3  -1 32377.1 673.604   3
  -2   3   1 32137.4 617.365   5
   2   3  -1 34939.8 514.096   1
  -2   3   1 33837.4 827.702   4
   2   3   0 43315.2 861.542   3
   2   3   0 41944.2 360.948   1
  -2   3   0 43001.2 654.356   5
   2   3   0 46164.6 701.460   2
  -2   3   0 43049.0 899.372   4
   2   3   1 41718.6 510.367   2
   2   3   1 40875.7 915.149   3
  -2   3  -1 40361.3 843.832   4
   2   3   2 237031. 2372.79   3
   2   3   2 237706. 1213.81   1
  -2   3  -2 234762. 1974.32   4
  -2   3  -3 38158.1 1056.40   6
   2   3   3 39628.8 667.620   1
   2   3   3 38817.7 1045.03   3
  -2   3  -3 38711.7 782.233   4
  -2   3  -4 1367.73 238.581   6
   2   3   4 1647.33 171.217   1
   2   3   4 1135.42 76.7883   4
   2   3   4 1559.84 84.1649   4
  -2   3  -4 1664.90 161.961   4
   2   3   4 1430.10 235.070   3
  -2   3  -5 106911. 1948.55   6
   2   3   5 107570. 1524.61   1
   2   3   5 104467. 1944.25   3
  -2   3  -5 108485. 1209.25   4
   2   3   6 20553.8 929.695   3
  -2   3  -6 20657.9 914.267   6
   2   3   7 23553.8 1053.80   3
  -2   3  -7 24207.2 1043.97   6
  -2   3  -8 29986.7 1217.45   6
   2   3   8 31952.1 1307.42   3
   2   3   9 42.0714 162.228   3
  -2   4  10 3861.60 544.550   5
  -2   4   9 18166.4 1066.19   5
  -2   4   8 4260.48 492.525   5
  -2   4   7 25594.0 1077.55   5
  -2   4   7 27052.8 967.676   4
  -2   4   6 51696.8 1287.99   4
  -2   4   6 51689.5 1419.28   5
  -2   4   5 65863.1 1453.25   5
  -2   4   5 64217.4 1388.26   4
  -2   4   4 29901.4 894.196   5
  -2   4   4 30553.7 923.106   4
  -2   4   3 2027.96 220.376   5
  -2   4   3 1855.97 241.424   4
   2   4  -2 360674. 2582.13   3
  -2   4   2 366016. 2347.36   5
  -2   4   2 359760. 2979.55   4
   2   4  -1 13219.1 487.819   3
  -2   4   1 12402.9 368.338   5
  -2   4   1 12574.1 546.182   4
   2   4   0 7231.39 296.658   2
   2   4   0 6379.12 357.827   3
  -2   4   0 7165.31 242.830   5
  -2   4   0 7771.66 423.402   4
   2   4   1 24838.0 751.484   3
   2   4   1 24357.6 429.854   2
  -2   4  -1 23429.5 715.708   4
   2   4   2 57580.4 1226.04   3
  -2   4  -2 57435.7 1106.56   4
   2   4   3 79672.5 1559.07   3
  -2   4  -3 79879.9 1286.53   4
   2   4   4 14091.7 709.377   3
   2   4   4 14728.6 380.953   4
  -2   4  -4 14427.4 541.832   4
   2   4   5 23566.5 965.507   3
  -2   4  -5 25528.2 708.922   4
   2   4   6 19299.1 925.499   3
  -2   4  -7 25581.3 1059.88   6
   2   4   7 26300.2 1146.23   3
   2   4   8 9416.44 722.319   3
   2   4   9 14367.8 932.195   3
  -2   5   9 2065.19 402.732   5
  -2   5   8 14028.4 738.487   4
  -2   5   8 12849.4 845.735   5
  -2   5   7 4178.17 392.428   4
  -2   5   7 3405.85 414.143   5
  -2   5   6 2180.80 285.947   4
  -2   5   6 2970.61 377.420   5
  -2   5   5 126662. 2036.95   5
  -2   5   5 125508. 2013.31   4
  -2   5   4 37335.5 998.254   5
  -2   5   4 36174.1 1063.85   4
  -2   5   3 25839.1 732.023   5
  -2   5   3 24327.2 844.778   4
  -2   5   2 138782. 1441.22   5
   2   5  -2 140536. 1793.81   3
  -2   5   2 140873. 1979.83   4
   2   5  -1 34492.8 906.472   3
  -2   5   1 31796.1 565.484   5
  -2   5   1 32256.0 928.378   4
   2   5   0 269531. 2532.93   3
  -2   5   0 276210. 2684.34   4
   2   5   1 74312.6 1378.38   3
   2   5   1 74705.4 846.187   2
  -2   5  -1 75299.5 1389.77   4
   2   5   2 16190.6 687.936   3
  -2   5  -2 17241.5 664.728   4
   2   5   3 20875.5 836.036   3
  -2   5  -3 23418.3 767.350   4
   2   5   4 11555.4 656.684   3
   2   5   4 12174.4 423.771   4
  -2   5  -4 12489.9 565.576   4
   2   5   5 61268.6 1588.37   3
  -2   5  -5 66144.0 1283.05   4
   2   5   6 835.932 242.299   3
   2   5   7 13011.0 825.294   3
   2   5   8 405.499 184.062   3
  -2   6   9 12093.0 883.710   5
  -2   6   8 6264.59 606.037   5
  -2   6   8 5818.71 510.516   4
  -2   6   7 3659.20 445.824   5
  -2   6   7 4738.65 447.137   4
  -2   6   6 21248.8 938.149   5
  -2   6   6 20775.1 885.203   4
  -2   6   5 4284.45 393.732   5
  -2   6   5 3844.03 389.282   4
  -2   6   4 103175. 1684.21   5
  -2   6   4 102861. 1878.63   4
  -2   6   3 12422.4 517.316   5
  -2   6   3 11804.5 627.350   4
   2   6  -2 146078. 2012.16   3
  -2   6   2 143678. 1452.87   5
  -2   6   1 9748.88 296.411   5
  -2   6   1 9097.05 535.513   4
   2   6   0 4618.45 400.970   3
  -2   6   0 3640.14 348.308   4
   2   6   1 92148.7 1685.66   3
  -2   6  -1 91281.6 1654.24   4
   2   6   2 66596.5 1474.45   3
  -2   6  -2 67616.5 1424.14   4
   2   6   3 18592.9 825.077   3
  -2   6  -3 18920.7 758.345   4
   2   6   4 12458.3 712.312   3
   2   6   4 12888.7 502.662   4
  -2   6  -4 13328.7 641.886   4
  -2   6  -5 1398.93 222.286   4
   2   6   5 1195.03 253.242   3
   2   6   6 3059.93 396.658   3
   2   6   7 3202.18 441.836   3
   2   6   8 3837.42 502.718   3
  -2   7   9 8106.40 746.112   5
  -2   7   8 4646.81 466.359   4
  -2   7   8 3488.52 482.885   5
  -2   7   7 41343.5 1433.72   5
  -2   7   7 42380.3 1354.43   4
  -2   7   6 35935.0 1229.59   5
  -2   7   6 36670.4 1238.32   4
  -2   7   5 266.672 159.552   4
  -2   7   5 362.286 170.467   5
  -2   7   4 1599.47 277.041   4
  -2   7   4 1710.27 245.320   5
  -2   7   3 3369.14 282.176   5
  -2   7   3 3437.03 374.493   4
  -2   7   2 2295.54 300.553   4
  -2   7   2 2429.02 202.430   5
   2   7  -1 93614.9 1826.45   3
  -2   7   1 97012.8 1857.04   4
  -2   7   1 94288.3 824.153   5
   2   7   0 6202.43 537.429   3
  -2   7   0 6096.13 473.225   4
   2   7   1 24919.8 965.449   3
  -2   7  -1 22967.7 896.395   4
   2   7   2 48149.3 1356.27   3
  -2   7  -2 47423.9 1285.27   4
   2   7   3 884.274 165.841   4
  -2   7  -3 1259.05 231.785   4
   2   7   3 1032.82 253.977   3
   2   7   4 3732.44 424.901   3
   2   7   4 4139.96 322.591   4
  -2   7  -4 4449.88 408.089   4
   2   7   5 13620.5 821.134   3
  -2   7  -5 14672.1 729.255   4
   2   7   6 16359.0 945.933   3
   2   7   7 23625.6 1190.94   3
  -2   8   9 7440.95 726.337   5
  -2   8   8 18589.3 1051.83   5
  -2   8   8 17560.3 934.143   4
  -2   8   7 8069.78 655.854   5
  -2   8   7 6600.48 569.501   4
  -2   8   6 15210.9 814.782   5
  -2   8   6 15158.3 841.983   4
  -2   8   5 3911.48 386.399   5
  -2   8   5 3659.22 420.110   4
  -2   8   4 73439.2 1445.31   5
  -2   8   4 72490.5 1757.10   4
  -2   8   3 14644.0 558.950   5
  -2   8   3 14469.4 779.036   4
  -2   8   2 2141.22 320.474   4
  -2   8   1 1095.10 241.858   4
   2   8  -1 59.5532 200.696   3
   2   8   0 18871.7 928.075   3
  -2   8   0 17307.7 835.651   4
   2   8   1 33708.8 1256.38   3
  -2   8  -1 34797.4 1172.57   4
   2   8   2 7918.45 625.230   3
  -2   8  -2 6864.76 529.376   4
   2   8   3 17029.1 912.655   3
   2   8   3 17121.7 722.302   4
  -2   8  -3 17075.4 838.043   4
   2   8   4 91496.7 2156.50   3
  -2   8  -4 89249.2 1904.69   4
   2   8   5 8136.54 687.397   3
  -2   8  -5 8167.86 586.085   4
   2   8   6 230.683 219.460   3
   2   8   7 2662.91 447.495   3
  -2   9   8 8678.10 733.814   5
  -2   9   7 7172.45 619.232   5
  -2   9   7 7447.80 633.005   4
  -2   9   6 40884.9 1336.56   5
  -2   9   6 37466.9 1379.36   4
  -2   9   5 9902.79 702.112   4
  -2   9   4 8248.04 629.647   4
  -2   9   3 7849.30 611.691   4
  -2   9   2 12494.8 760.463   4
  -2   9   1 39764.6 1348.96   4
   2   9   0 8799.99 687.578   3
  -2   9   0 9805.94 668.329   4
   2   9   1 56438.8 1721.14   3
  -2   9  -1 55111.9 1572.41   4
   2   9   2 6771.49 658.225   3
  -2   9  -2 7243.94 580.411   4
   2   9   3 8683.79 725.815   3
   2   9   3 8267.08 547.622   4
  -2   9  -3 8140.81 619.485   4
  -2   9  -4 2847.59 381.662   4
   2   9   4 3924.22 535.114   3
  -2   9  -5 2512.69 358.717   4
   2   9   5 2850.64 491.478   3
   2   9   6 38764.5 1634.41   3
  -2  10   7 3592.09 471.104   4
  -2  10   6 1905.72 344.931   4
  -2  10   5 8946.40 703.431   4
  -2  10   4 9038.64 701.499   4
  -2  10   3 42171.6 1469.70   4
  -2  10   2 26435.2 1163.05   4
  -2  10   1 3000.28 410.699   4
  -2  10   0 492.326 198.971   4
   2  10   1 12250.9 868.943   3
  -2  10  -1 12539.3 805.336   4
   2  10   2 29458.3 1366.51   3
   2  10   2 29267.6 1113.70   4
  -2  10  -2 31229.5 1272.75   4
   2  10   3 25612.6 1329.82   3
   2  10   3 23678.1 988.294   4
  -2  10  -3 25767.3 1167.77   4
   2  10   4 12147.4 954.193   3
  -2  10  -4 11974.0 805.802   4
  -2  10  -5 2174.32 363.217   4
   2  10   5 2602.32 495.094   3
  -2  11   7 11256.2 842.776   4
  -2  11   6 273.437 189.991   4
  -2  11   5 10119.7 787.691   4
  -2  11   4 8370.95 709.045   4
  -2  11   3 314.742 204.895   4
  -2  11   2 11080.4 804.924   4
  -2  11   1 34712.6 1418.41   4
  -2  11   0 47104.3 1640.46   4
   2  11   1 7883.87 629.050   4
  -2  11  -1 8842.81 715.908   4
   2  11   2 34.2980 115.541   4
  -2  11  -2-167.662 201.991   4
   2  11   2 138.945 285.372   3
  -2  11  -3 3874.49 495.178   4
   2  11   3 3502.38 416.938   4
   2  11   3 3832.41 582.481   3
   2  11   4 16509.8 1165.86   3
  -2  11  -4 15377.3 960.639   4
  -2  11  -5 8012.59 697.658   4
  -2  12   4 8288.56 740.842   4
  -2  12   3 4710.02 561.565   4
  -2  12   2 5017.55 577.061   4
  -2  12   1 4909.13 576.156   4
  -2  12   0 1937.35 377.314   4
   2  12   0 1959.67 354.247   4
  -2  12  -1 1208.97 301.794   4
   2  12   1 1512.40 313.445   4
   2  12   2 15036.2 904.291   4
  -2  12  -2 16369.4 1037.97   4
  -2  12  -3 8748.59 771.168   4
   2  13   1 3207.97 460.713   4
   2  13   2 8097.75 709.488   4
   3 -12  -4 23278.5 1216.72   2
   3 -12  -3 1471.43 341.668   2
   3 -12  -2 1471.99 336.099   2
   3 -11  -6 6600.25 640.212   2
   3 -11  -5 18514.3 1049.11   2
   3 -11  -4 5734.80 588.592   2
   3 -11  -3 9119.00 741.648   2
   3 -11  -2 1878.96 343.969   2
   3 -11  -1 9866.53 758.472   2
   3 -11   0 924.813 265.019   2
  -3 -11  -1 3738.20 463.478   6
   3 -11   1 3229.18 460.546   2
  -3 -11  -2 1583.70 337.449   6
   3 -11   2 932.093 290.634   2
  -3 -11  -3 5501.56 629.233   6
   3 -10  -7 22964.1 1165.26   2
   3 -10  -6 17300.7 1002.95   2
   3 -10  -5 12431.1 836.184   2
   3 -10  -4 4886.86 517.108   2
   3 -10  -3 2715.17 396.396   2
   3 -10  -2 13491.8 852.507   2
   3 -10  -1 1156.56 264.778   2
  -3 -10   0 88.2590 116.994   6
   3 -10   0 466.413 219.533   2
  -3 -10  -1 29271.1 1225.07   6
   3 -10   1 27665.3 1238.23   2
  -3 -10  -2 5919.09 594.651   6
   3 -10   2 5680.29 581.271   2
  -3 -10  -3 13165.0 930.011   6
   3 -10   3 13058.4 890.798   2
  -3 -10  -4 7083.35 728.296   6
   3  -9  -7 79.4200 129.215   2
   3  -9  -6 7493.31 639.263   2
  -3  -9   6 8692.07 660.638   5
   3  -9  -5 8871.14 683.001   2
  -3  -9   5 9419.04 659.933   5
  -3  -9   4 462.822 177.822   5
   3  -9  -4 316.437 160.812   2
   3  -9  -3 22631.9 1060.49   2
   3  -9  -2 51073.6 1572.80   2
  -3  -9   1 22761.0 882.545   6
   3  -9  -1 24213.0 1082.15   2
  -3  -9   0 4537.62 436.998   6
   3  -9   0 4055.10 454.125   2
  -3  -9  -1 590.280 213.215   6
   3  -9   1 486.857 191.631   2
  -3  -9  -2 2916.37 406.519   6
   3  -9   2 2872.97 410.379   2
  -3  -9  -3 20230.8 1106.57   6
   3  -9   3 22080.1 1103.91   2
  -3  -9  -4 15626.5 1034.45   6
   3  -9   4 14461.6 919.810   2
  -3  -9  -5 2914.91 487.281   6
   3  -9   5 2439.14 402.689   2
   3  -8  -8-57.4815 128.724   2
  -3  -8   8 71.0612 146.868   5
   3  -8  -7 2509.71 385.268   2
  -3  -8   7 2813.65 404.330   5
   3  -8  -6 13637.0 836.542   2
  -3  -8   6 15759.6 870.743   5
   3  -8  -5 25939.3 1123.79   2
  -3  -8   5 28487.2 1122.93   5
   3  -8  -4 23029.8 1031.29   2
  -3  -8   4 22762.3 967.473   5
   3  -8  -3 50833.7 1502.51   2
  -3  -8   3 52857.9 1445.04   5
   3  -8  -2 12231.3 741.859   2
  -3  -8   1 1393.39 242.114   6
   3  -8  -1 1294.21 267.365   2
  -3  -8   0 81827.3 1753.70   6
   3  -8   0 82955.0 1914.20   2
  -3  -8  -1 25974.1 1068.07   6
   3  -8   1 25405.1 1060.24   2
  -3  -8  -2 52821.9 1610.73   6
   3  -8   2 51866.8 1542.42   2
  -3  -8  -3 3677.12 469.984   6
   3  -8   3 3404.76 425.858   2
  -3  -8  -4 2917.45 450.017   6
   3  -8   4 3050.17 409.599   2
  -3  -8  -5 4409.40 567.759   6
   3  -8   5 3592.20 465.814   2
   3  -8   6 2588.67 416.670   2
  -3  -7   9 15476.7 973.300   5
  -3  -7   8 7974.71 688.046   5
  -3  -7   7 25148.1 1132.95   5
   3  -7  -6 14752.8 834.691   2
  -3  -7   6 14417.6 825.318   5
   3  -7  -5 134.797 124.297   2
  -3  -7   5 114.481 138.848   5
   3  -7  -4 17724.1 871.788   2
  -3  -7   4 18468.8 861.897   5
   3  -7  -3 35350.5 1209.76   2
  -3  -7   3 34805.1 1134.77   5
  -3  -7   2 26676.4 801.377   6
   3  -7  -2 26100.4 1023.73   2
  -3  -7   2 26046.4 973.136   5
  -3  -7   1 68078.3 1423.10   6
   3  -7  -1 62930.8 1576.18   2
  -3  -7   0 34108.2 1090.88   6
   3  -7   0 35233.8 1175.44   2
  -3  -7  -1 26611.9 1040.90   6
   3  -7   1 26881.0 1035.21   2
  -3  -7  -2 1304.12 275.440   6
   3  -7   2 1209.38 240.870   2
  -3  -7  -3 23649.5 1108.04   6
   3  -7   3 22492.2 999.049   2
  -3  -7  -4 11537.3 829.113   6
   3  -7   4 11946.1 750.957   2
  -3  -7  -5 26908.8 1324.43   6
   3  -7   5 24622.0 1115.26   2
   3  -7   6 6157.81 593.283   2
  -3  -7  -6 5875.31 665.651   6
   3  -7   7 2921.45 424.713   2
  -3  -6   9 7086.52 665.565   5
  -3  -6   8 17793.5 984.792   5
  -3  -6   7 14043.3 837.018   5
  -3  -6   6 28564.1 1133.25   5
  -3  -6   5 26402.8 1035.46   5
   3  -6  -4 4116.13 421.063   2
  -3  -6   4 5096.83 447.880   5
   3  -6  -3 26898.8 1006.84   2
  -3  -6   3 28803.3 692.367   6
  -3  -6   3 28042.1 987.252   5
  -3  -6   2 36298.8 908.503   6
   3  -6  -2 37993.5 1184.31   2
  -3  -6   2 38818.7 1148.33   5
  -3  -6   1 34340.6 974.109   6
   3  -6  -1 35721.8 1133.16   2
  -3  -6   0 75383.9 1572.86   6
   3  -6   0 74118.5 1626.28   2
  -3  -6  -1 5183.43 452.083   6
   3  -6   1 5925.82 469.346   2
  -3  -6  -2 75802.9 1804.23   6
   3  -6   2 76464.1 1673.47   2
  -3  -6  -3 28820.6 1185.59   6
   3  -6   3 27976.0 1050.01   2
  -3  -6  -4 22515.9 1113.49   6
   3  -6   4 22755.9 981.025   2
  -3  -6  -5 4731.61 555.935   6
   3  -6   5 4858.19 473.231   2
  -3  -6  -6 23972.5 1281.75   6
   3  -6   6 22690.1 1056.82   2
   3  -6   7 29866.7 1267.54   2
  -3  -5  10 9128.72 800.371   5
  -3  -5   9 11095.0 830.593   5
  -3  -5   8 32758.8 1332.10   5
  -3  -5   7 16882.4 907.133   5
  -3  -5   6 8242.77 606.431   5
  -3  -5   5 10225.9 644.827   5
  -3  -5   4 63357.7 1495.39   5
  -3  -5   3 16614.1 747.833   5
   3  -5  -3 16418.0 756.815   2
  -3  -5   3 16455.8 525.848   6
   3  -5  -2 19532.3 808.130   2
  -3  -5   2 19524.8 797.960   5
  -3  -5   2 19305.1 655.844   6
  -3  -5   1 10740.5 535.745   6
   3  -5  -1 10242.0 587.567   2
  -3  -5   1 10802.7 590.685   5
  -3  -5   0 60221.2 1359.85   6
   3  -5   0 60316.3 1384.76   2
  -3  -5  -1 39241.5 1192.43   6
   3  -5   1 39656.5 1123.29   2
  -3  -5  -2 4513.84 451.427   6
   3  -5   2 4599.06 391.745   2
  -3  -5  -3 38460.0 1337.34   6
   3  -5   3 38618.1 1164.58   2
  -3  -5  -4 37952.5 1407.81   6
   3  -5   4 37838.8 1187.46   2
  -3  -5  -5 26774.7 1251.44   6
   3  -5   5 26620.9 1033.47   2
  -3  -5  -6 25869.0 1302.94   6
   3  -5   6 27494.1 1101.01   2
  -3  -5  -7 8058.45 769.172   6
   3  -5   7 7539.84 707.464   3
  -3  -4  10 2504.29 436.739   5
  -3  -4   9 6287.00 638.066   5
  -3  -4   8 12713.3 837.326   5
  -3  -4   7 12682.9 783.479   5
  -3  -4   6 21011.0 941.995   5
  -3  -4   5 39655.4 1215.20   5
  -3  -4   4 14093.8 707.208   5
  -3  -4   3 6657.74 471.606   5
  -3  -4   2 12629.7 527.257   6
  -3  -4   2 13700.1 646.111   5
   3  -4  -1 24441.2 850.081   2
  -3  -4   1 25055.9 793.664   6
  -3  -4   1 25876.4 881.043   5
  -3  -4   0 78544.9 1526.59   6
   3  -4   0 81369.2 1523.15   2
  -3  -4  -1 34115.1 1082.43   6
   3  -4   1 34227.9 989.496   2
  -3  -4  -2 6595.48 523.878   6
   3  -4   2 6483.31 437.075   2
  -3  -4  -3 39440.5 1325.22   6
   3  -4   3 39131.8 1089.50   2
  -3  -4  -4 25022.0 1121.04   6
   3  -4   4 25493.2 911.509   2
  -3  -4  -5 8642.67 705.683   6
   3  -4   5 9431.50 579.238   2
  -3  -4  -6 15522.7 997.873   6
   3  -4   6 15537.1 779.717   2
   3  -4   6 15252.8 928.892   3
  -3  -4  -7 11166.0 886.459   6
   3  -4   7 11220.3 836.786   3
   3  -4   8 12882.2 929.548   3
  -3  -3  10 17533.8 1105.00   5
  -3  -3   9 11107.7 833.196   5
  -3  -3   8 10754.7 767.803   5
  -3  -3   7 39749.6 1366.02   5
  -3  -3   6 18545.3 888.863   5
  -3  -3   5 6848.86 517.010   5
  -3  -3   4 44110.3 1206.63   5
  -3  -3   3 62357.1 1369.20   5
  -3  -3   3 64397.3 922.476   3
  -3  -3   2 129195. 1664.75   6
  -3  -3   2 130248. 1907.82   5
   3  -3  -1 102235. 1636.97   2
  -3  -3   1 99651.2 1666.31   5
  -3  -3   1 101219. 1581.13   6
  -3  -3   0 39182.8 1056.42   6
   3  -3   0 38089.1 990.917   2
  -3  -3  -1 35537.6 1087.86   6
   3  -3   1 37750.9 970.945   2
  -3  -3  -2 45199.7 1317.43   6
   3  -3   2 42713.0 1045.28   2
  -3  -3  -3 69467.1 1724.77   6
   3  -3   3 67057.1 1333.96   2
  -3  -3  -4 6131.16 558.628   6
   3  -3   4 5586.99 402.415   2
  -3  -3  -5 37243.7 1418.05   6
   3  -3   5 37073.0 1074.42   2
   3  -3   5 37425.3 1338.93   3
  -3  -3  -6 11493.1 842.394   6
   3  -3   6 12802.0 833.836   3
  -3  -3  -7 2155.71 407.304   6
   3  -3   7 1896.08 361.630   3
   3  -3   8 1402.58 316.955   1
  -3  -3  -8 1639.86 387.970   6
   3  -3   8 1401.90 334.085   3
  -3  -2  10 5906.79 664.637   5
  -3  -2   9 383.871 232.968   5
  -3  -2   8 1246.12 300.677   5
  -3  -2   7 62293.5 1702.72   5
  -3  -2   6 45888.1 1367.66   5
  -3  -2   5 30277.1 1049.68   5
   3  -2  -4 135289. 1343.99   3
  -3  -2   4 138578. 2083.52   5
  -3  -2   3 61118.5 1332.57   5
  -3  -2   2 16670.4 678.957   5
  -3  -2   1 70121.3 1347.97   5
  -3  -2   1 69078.0 1302.94   6
  -3  -2   0 67183.4 1380.18   6
   3  -2   0 66831.2 1229.21   2
   3  -2   1 148837. 1796.21   2
  -3  -2  -1 143396. 2144.26   6
  -3  -2  -2 45689.1 1294.85   6
   3  -2   2 45384.0 993.689   2
  -3  -2  -3 16671.3 839.298   6
   3  -2   3 17378.3 627.742   2
  -3  -2  -4 74818.6 1872.93   6
   3  -2   4 76213.7 1360.72   2
   3  -2   4 76094.2 1774.79   3
  -3  -2  -5 27304.6 1198.87   6
   3  -2   5 28182.6 854.160   2
   3  -2   5 26573.4 1109.05   3
  -3  -2  -6 6645.33 633.793   6
   3  -2   6 6618.13 593.919   3
  -3  -2  -7 7476.16 701.966   6
   3  -2   7 6511.31 626.720   3
  -3  -2  -8 14417.5 1017.07   6
   3  -2   8 17653.8 1066.42   3
   3  -2   8 15447.2 944.315   1
  -3  -1  10 15778.0 1048.90   5
  -3  -1   9 20198.7 1120.24   5
  -3  -1   8 66295.8 1888.66   5
  -3  -1   7 4822.83 493.743   5
  -3  -1   6 959.948 249.609   5
  -3  -1   5 553.501 205.512   5
   3  -1  -4 60239.6 724.067   3
  -3  -1   4 60083.4 1355.04   5
  -3  -1   3 123083. 1827.58   5
  -3  -1   2 67951.0 1308.25   5
  -3  -1   1 96975.8 1570.18   6
  -3  -1   1 96186.5 1525.45   5
  -3  -1   0 1032.82 194.290   6
  -3  -1   0 803.156 168.776   5
   3  -1   1 22242.6 651.609   2
  -3  -1  -1 22987.4 863.178   6
   3  -1   2 14485.7 677.695   3
   3  -1   2 14695.6 521.487   2
  -3  -1  -2 14438.0 729.522   6
  -3  -1  -3 3874.15 422.030   6
   3  -1   3 3111.25 246.371   2
   3  -1   3 3001.74 335.250   3
  -3  -1  -4 93818.3 2063.43   6
   3  -1   4 94783.0 1361.90   2
   3  -1   4 89633.0 1903.88   3
   3  -1   5 45971.5 1001.66   2
  -3  -1  -5 45763.4 1522.32   6
   3  -1   5 46716.9 1451.18   3
  -3  -1  -6 24120.6 1175.30   6
   3  -1   6 23440.7 1098.91   3
   3  -1   7 5733.17 528.780   1
  -3  -1  -7 5762.41 616.162   6
   3  -1   7 5761.92 586.838   3
  -3  -1  -8 7068.12 712.585   6
   3  -1   8 5273.11 539.048   1
   3  -1   8 7062.42 673.186   3
  -3   0  10 12404.8 939.272   5
  -3   0   9 13918.3 939.288   5
  -3   0   8 8626.69 690.528   5
  -3   0   7 42121.0 1400.54   5
  -3   0   6 46184.5 1379.81   5
  -3   0   5 126747. 2099.53   5
  -3   0   4 185.171 134.376   5
   3   0  -4 212.912 40.7455   3
   3   0  -4 214.729 30.2685   3
  -3   0   3 31229.9 910.872   5
   3   0  -3 31881.0 544.713   3
  -3   0   2 3884.14 313.530   5
   3   0  -2 3588.43 225.682   3
  -3   0   1 10278.2 488.271   5
   3   0  -1 10462.0 433.708   3
  -3   0   0 39394.7 1071.91   6
  -3   0   0 41500.6 976.359   5
   3   0   0 41814.9 946.736   3
  -3   0  -1 173137. 2353.79   6
   3   0   1 175843. 1689.58   2
   3   0   1 177498. 2133.14   3
  -3   0  -2 43643.0 1251.32   6
   3   0   2 44255.3 1154.08   3
   3   0   2 43750.3 813.674   2
  -3   0  -3 41127.7 1293.18   6
   3   0   3 41027.3 776.693   2
   3   0   3 41084.9 1190.17   3
   3   0   4 38918.1 767.083   2
   3   0   4 37108.5 1214.50   3
  -3   0  -4 38321.0 1313.28   6
  -3   0  -5 5392.91 531.288   6
   3   0   5 5142.82 487.367   3
   3   0   6 7017.91 599.323   3
   3   0   6 7622.33 540.768   1
  -3   0  -6 8078.76 682.166   6
  -3   0  -7 52081.9 1789.52   6
   3   0   7 52163.6 1509.77   1
   3   0   7 52977.0 1718.54   3
  -3   0  -8 8876.34 784.263   6
   3   0   8 7683.56 700.660   3
  -3   1  10 16502.5 1078.43   5
  -3   1   9 20512.1 1130.02   5
  -3   1   8 68950.0 1920.49   5
  -3   1   7 5400.93 532.325   5
  -3   1   6 852.329 239.496   5
  -3   1   5 866.541 225.576   5
  -3   1   4 59255.0 1328.71   5
  -3   1   3 130182. 1906.64   4
  -3   1   3 125400. 1786.18   5
   3   1  -3 128224. 1035.26   3
  -3   1   2 68118.5 1325.75   4
  -3   1   2 69653.4 1257.71   5
   3   1  -2 67193.8 941.929   3
  -3   1   1 96979.5 1498.78   4
  -3   1   1 96354.1 1429.98   5
   3   1  -1 97431.5 1296.74   3
  -3   1   0 841.706 144.714   4
  -3   1   0 1044.62 160.259   5
   3   1   0 1361.10 182.150   3
  -3   1  -1 22785.6 656.039   4
   3   1   1 23249.5 566.624   2
  -3   1  -1 22701.3 866.790   6
   3   1   1 23314.4 769.484   3
  -3   1  -2 13605.9 475.934   4
  -3   1  -2 13159.4 694.098   6
   3   1   2 14294.7 654.867   3
   3   1   2 13252.6 399.213   2
  -3   1  -3 4058.72 416.308   6
   3   1   3 4077.70 209.447   2
   3   1   3 3808.93 372.271   3
  -3   1  -4 93633.5 2034.95   6
   3   1   4 90365.1 1873.53   3
  -3   1  -5 46507.6 1505.42   6
   3   1   5 43889.9 1394.46   3
  -3   1  -6 23654.4 1141.93   6
   3   1   6 22806.9 1064.79   3
   3   1   6 23575.8 908.630   1
  -3   1  -7 5003.18 562.573   6
   3   1   7 5910.92 595.689   3
  -3   1  -8 5377.37 613.175   6
   3   1   8 6929.69 667.344   3
  -3   2  10 5624.68 642.612   5
  -3   2   9 487.646 274.004   5
  -3   2   8 1766.15 344.445   5
  -3   2   7 60919.7 1696.60   5
  -3   2   6 49863.1 1423.35   5
  -3   2   5 33325.3 1066.72   4
  -3   2   5 33628.0 1095.34   5
  -3   2   4 140999. 2102.16   4
  -3   2   4 138844. 2011.50   5
   3   2  -3 60673.4 772.125   3
  -3   2   3 61636.8 1243.05   5
  -3   2   3 61728.5 1342.81   4
  -3   2   2 17317.5 620.004   5
   3   2  -2 16700.9 482.553   3
  -3   2   2 17302.3 686.188   4
  -3   2   1 68378.2 1174.01   5
   3   2  -1 70759.2 1115.74   3
  -3   2   1 69935.9 1324.76   4
  -3   2   0 67216.9 1146.14   5
   3   2   0 66331.6 1204.99   3
  -3   2   0 66713.6 1224.29   4
   3   2   1 146358. 1938.29   3
  -3   2  -1 142836. 1729.98   4
   3   2   2 44477.0 1160.39   3
   3   2   2 45789.5 617.208   2
  -3   2  -2 45478.6 1292.43   6
  -3   2  -2 45438.2 919.498   4
  -3   2  -3 18327.9 863.763   6
   3   2   3 17709.9 287.748   2
   3   2   3 18813.0 814.302   3
  -3   2  -3 18890.9 557.454   4
  -3   2  -4 75347.8 1811.68   6
   3   2   4 75926.2 1739.78   3
  -3   2  -5 26674.9 1138.13   6
   3   2   5 27932.6 855.574   1
   3   2   5 25710.6 1077.36   3
  -3   2  -6 7342.47 640.419   6
   3   2   6 7845.54 637.751   3
   3   2   7 6367.28 613.734   3
  -3   2  -7 6186.76 613.254   6
   3   2   8 17450.1 1040.16   3
  -3   2  -8 17458.8 1060.88   6
  -3   3  10 16317.1 1082.77   5
  -3   3   9 11883.2 870.541   5
  -3   3   8 10870.5 782.357   5
  -3   3   7 39179.5 1364.14   5
  -3   3   6 19075.1 893.519   5
  -3   3   6 19085.4 862.539   4
  -3   3   5 6704.63 499.506   4
  -3   3   5 7314.84 521.076   5
  -3   3   4 43252.0 1204.47   4
   3   3  -4 42082.0 762.870   6
  -3   3   4 42759.8 1119.60   5
   3   3  -3 65730.2 928.038   3
  -3   3   3 65105.8 1265.27   5
  -3   3   3 65527.2 1425.83   4
   3   3  -2 128416. 1418.72   3
  -3   3   2 130395. 1647.94   5
  -3   3   2 130293. 1941.76   4
   3   3  -1 102447. 1405.39   3
  -3   3   1 98720.9 1368.90   5
  -3   3   1 104438. 1670.23   4
   3   3   0 38171.5 936.724   3
  -3   3   0 39626.0 840.450   5
  -3   3   0 37446.1 977.786   4
   3   3   1 36854.3 993.121   3
  -3   3  -1 36461.3 931.305   4
   3   3   2 40122.6 458.652   2
   3   3   2 42313.2 1146.42   3
   3   3   2 41830.6 454.720   2
   3   3   3 66204.8 1542.01   3
   3   3   3 67561.0 939.900   1
  -3   3  -3 63831.2 1135.58   4
  -3   3  -4 5797.88 522.308   6
   3   3   4 5360.09 474.345   3
   3   3   4 5750.44 317.981   1
  -3   3  -5 39052.7 1370.60   6
   3   3   5 37364.1 1299.47   3
  -3   3  -6 12915.0 831.215   6
   3   3   6 10932.1 755.581   3
  -3   3  -7 3026.96 428.774   6
   3   3   7 2067.98 376.567   3
  -3   3  -8 1498.38 340.741   6
   3   3   8 2009.08 371.656   3
  -3   4   9 5703.35 631.343   5
  -3   4   8 11328.5 817.225   5
  -3   4   7 12100.6 773.491   5
  -3   4   7 13883.0 771.678   4
  -3   4   6 20957.9 914.534   4
  -3   4   6 20465.4 921.986   5
  -3   4   5 41752.0 1203.61   5
  -3   4   5 41062.9 1242.79   4
  -3   4   4 13265.1 633.109   5
  -3   4   4 13434.5 694.337   4
   3   4  -3 7770.73 397.253   3
  -3   4   3 7606.56 436.900   5
  -3   4   3 6956.54 484.765   4
   3   4  -2 13427.9 506.641   3
  -3   4   2 12384.4 506.489   5
  -3   4   2 12632.0 635.778   4
   3   4  -1 25325.3 468.657   1
   3   4  -1 25242.1 738.838   3
  -3   4   1 26456.4 682.731   5
  -3   4   1 24927.6 868.548   4
   3   4   0 74098.9 1357.61   3
  -3   4   0 77828.0 1473.19   4
   3   4   1 36116.0 599.366   2
   3   4   1 35269.1 1021.85   3
  -3   4  -1 34370.3 955.279   4
   3   4   2 6195.42 465.554   3
  -3   4  -2 6282.74 403.915   4
   3   4   3 38911.1 1211.32   3
  -3   4  -3 39836.4 976.815   4
   3   4   4 23482.3 1000.38   3
  -3   4  -4 24568.5 734.982   4
   3   4   5 8518.22 644.900   3
   3   4   6 14835.8 903.117   3
   3   4   7 11673.5 847.133   3
  -3   5   9 12233.4 904.698   5
  -3   5   8 32199.4 1237.38   4
  -3   5   8 29430.5 1293.57   5
  -3   5   7 17691.2 934.354   5
  -3   5   7 17284.9 881.637   4
  -3   5   6 8420.29 607.940   5
  -3   5   6 10134.1 668.636   4
  -3   5   5 10344.0 617.497   5
  -3   5   5 10705.0 661.590   4
  -3   5   4 59495.1 1330.04   5
  -3   5   4 59242.4 1500.21   4
   3   5  -3 17265.7 655.523   3
  -3   5   3 17820.4 654.951   5
  -3   5   3 16365.1 776.842   4
   3   5  -2 18809.3 682.987   3
  -3   5   2 19733.4 620.518   5
  -3   5   2 18167.9 789.942   4
   3   5  -1 10498.1 516.329   3
  -3   5   1 10113.1 414.491   5
  -3   5   1 10900.7 604.923   4
   3   5   0 58643.2 1282.47   3
  -3   5   0 60066.2 1382.18   4
   3   5   1 39106.2 1111.53   3
  -3   5  -1 38585.3 1084.33   4
   3   5   2 4170.89 400.723   3
  -3   5  -2 4526.86 378.654   4
   3   5   3 38865.8 1232.42   3
  -3   5  -3 39948.2 1078.99   4
   3   5   4 35494.5 1259.01   3
  -3   5  -4 38425.8 1024.64   4
   3   5   5 26902.0 1158.31   3
   3   5   6 26045.4 1193.21   3
   3   5   7 7053.07 672.959   3
  -3   6   9 6789.71 607.450   4
  -3   6   9 6920.53 686.885   5
  -3   6   8 17025.4 997.510   5
  -3   6   8 16606.3 932.801   4
  -3   6   7 14911.5 857.300   4
  -3   6   7 14773.3 868.354   5
  -3   6   6 28338.6 1097.33   5
  -3   6   6 30059.5 1167.42   4
  -3   6   5 24211.0 930.202   5
  -3   6   5 23551.3 1010.84   4
  -3   6   4 5323.25 407.975   5
  -3   6   4 4963.36 468.368   4
   3   6  -3 27354.5 891.687   3
  -3   6   3 28197.8 816.401   5
  -3   6   3 28190.0 1060.38   4
   3   6  -2 36329.6 1072.07   3
  -3   6   2 38585.9 843.655   5
  -3   6   2 38844.3 1212.57   4
   3   6  -1 33478.4 1005.46   3
  -3   6   1 34849.0 690.080   5
  -3   6   1 34805.7 1131.08   4
   3   6   0 77161.2 1564.67   3
  -3   6   0 77497.6 1669.77   4
   3   6   1 4230.67 391.267   3
  -3   6  -1 4644.99 416.069   4
   3   6   2 75372.9 1697.42   3
  -3   6  -2 70094.5 1565.60   4
   3   6   3 28113.8 1097.12   3
  -3   6  -3 27446.9 968.091   4
   3   6   4 20402.1 987.593   3
  -3   6  -4 22537.0 864.390   4
   3   6   5 4289.62 477.895   3
   3   6   6 23917.8 1183.58   3
  -3   7   9 16240.3 952.381   4
  -3   7   9 15448.1 1024.79   5
  -3   7   8 7180.12 628.103   4
  -3   7   8 7194.08 663.652   5
  -3   7   7 25238.4 1131.17   5
  -3   7   7 24667.4 1132.88   4
  -3   7   6 13797.8 771.283   5
  -3   7   6 14448.0 850.872   4
  -3   7   5 448.917 189.454   4
  -3   7   5 269.856 135.574   5
  -3   7   4 19328.5 749.277   5
  -3   7   4 18502.3 919.262   4
  -3   7   3 35107.3 895.715   5
  -3   7   3 33566.1 1204.26   4
   3   7  -2 24282.6 960.247   3
  -3   7   2 26061.8 664.378   5
  -3   7   2 23524.3 996.399   4
   3   7  -1 62507.2 1530.83   3
  -3   7   1 65909.0 1641.67   4
   3   7   0 36423.8 1165.57   3
  -3   7   0 33283.2 1156.55   4
   3   7   1 25619.4 1013.70   3
  -3   7  -1 26069.1 1016.77   4
  -3   7  -2 1229.81 246.176   4
   3   7   2 814.199 190.861   3
   3   7   3 23525.6 1041.54   3
  -3   7  -3 22668.4 937.601   4
   3   7   4 10779.1 753.051   3
  -3   7  -4 11536.0 666.074   4
   3   7   5 25981.8 1209.68   3
   3   7   6 5903.88 616.387   3
  -3   8   9 1417.32 345.414   5
  -3   8   8-105.919 146.685   4
  -3   8   8 197.424 156.325   5
  -3   8   7 2552.82 397.227   4
  -3   8   7 2880.49 401.243   5
  -3   8   6 13837.5 772.419   5
  -3   8   6 15262.5 907.078   4
  -3   8   5 27587.9 986.889   5
  -3   8   5 27916.5 1205.35   4
  -3   8   4 21565.3 1032.64   4
  -3   8   3 51117.2 1560.28   4
   3   8  -2 11184.1 707.603   3
  -3   8   2 9354.38 672.391   4
  -3   8   1 1484.38 284.056   4
   3   8  -1 1992.87 380.621   3
   3   8   0 81396.9 1940.58   3
  -3   8   0 80658.1 1894.94   4
   3   8   1 23308.4 1044.76   3
  -3   8  -1 23187.8 1017.55   4
   3   8   2 53262.4 1597.79   3
  -3   8  -2 50070.9 1490.22   4
  -3   8  -3 2609.42 351.032   4
   3   8   3 3118.13 425.715   3
  -3   8  -4 2351.89 329.711   4
   3   8   4 2502.44 400.795   3
   3   8   5 3055.79 445.153   3
  -3   9   8 16985.1 1033.94   4
  -3   9   7 107.287 127.266   4
  -3   9   6 7306.24 665.122   4
  -3   9   5 8312.87 699.213   4
  -3   9   4 512.282 216.096   4
  -3   9   3 20614.7 1048.38   4
  -3   9   2 49594.7 1600.18   4
   3   9  -1 22574.2 1084.07   3
  -3   9   1 22473.9 1077.21   4
  -3   9   0 5442.35 532.037   4
   3   9   0 4089.44 529.219   3
  -3   9  -1 333.225 174.256   4
   3   9   1 1920.48 406.544   3
  -3   9  -2 2495.34 375.813   4
   3   9   2 3619.00 504.133   3
   3   9   3 19079.3 1076.36   3
  -3   9  -3 19874.7 996.606   4
   3   9   4 14933.4 995.101   3
  -3   9  -4 15145.7 863.167   4
  -3  10   6 18269.4 1079.76   4
  -3  10   5 9924.41 785.018   4
  -3  10   4 4983.66 558.205   4
  -3  10   3 3474.93 462.803   4
  -3  10   2 13639.2 886.017   4
  -3  10   1 1521.29 319.178   4
  -3  10   0 146.829 130.088   4
   3  10   0 161.849 229.114   3
   3  10   1 28749.8 1379.86   3
  -3  10  -1 28306.6 1250.58   4
   3  10   2 6060.48 688.563   3
  -3  10  -2 5067.96 542.931   4
   3  10   3 11717.5 928.397   3
  -3  10  -3 13126.6 857.711   4
  -3  10  -4 6039.92 587.946   4
  -3  11   4 5702.80 619.658   4
  -3  11   3 9200.38 772.542   4
  -3  11   2 1786.57 350.908   4
  -3  11   1 8625.46 746.521   4
  -3  11   0 1143.42 291.001   4
   3  11   0 911.514 369.993   3
  -3  11  -1 2842.47 436.326   4
   3  11   1 3282.61 552.135   3
   3  11   2 1034.43 250.668   4
  -3  11  -2 1004.05 290.403   4
  -3  11  -3 4841.89 555.210   4
   4 -10  -5 9561.11 791.620   2
  -4 -10   5 9912.03 772.199   5
   4 -10  -4-30.0782 156.873   2
   4 -10  -3 1680.66 345.728   2
   4 -10  -2 12020.8 868.450   2
   4 -10  -1 38887.1 1541.58   2
   4 -10   0 12078.4 861.431   2
  -4 -10  -1 11750.9 841.654   6
   4 -10   1 12020.6 871.492   2
  -4 -10  -2 2198.63 410.386   6
  -4  -9   7 176.071 169.086   5
   4  -9  -6 8114.06 725.452   2
  -4  -9   6 9238.48 749.185   5
   4  -9  -5 10736.2 811.074   2
  -4  -9   5 11292.5 807.195   5
   4  -9  -4 30922.6 1356.54   2
  -4  -9   4 30051.0 1279.41   5
   4  -9  -3 2555.02 399.038   2
   4  -9  -2 31850.5 1346.85   2
   4  -9  -1 2119.26 372.907   2
  -4  -9   0 4435.91 482.575   6
   4  -9   0 4277.90 515.371   2
  -4  -9  -1 5775.61 585.846   6
   4  -9   1 5530.77 571.158   2
  -4  -9  -2 7256.39 691.572   6
   4  -9   2 7847.86 693.654   2
  -4  -9  -3 26709.2 1382.61   6
   4  -9   3 26085.0 1264.60   2
  -4  -8   8 11273.1 873.884   5
   4  -8  -7 45151.4 1673.21   2
  -4  -8   7 48977.7 1735.52   5
   4  -8  -6 1525.37 327.136   2
  -4  -8   6 2041.64 369.321   5
   4  -8  -5 3814.38 484.231   2
  -4  -8   5 3627.20 459.678   5
   4  -8  -4 2545.47 405.539   2
  -4  -8   4 2704.46 403.288   5
   4  -8  -3 4143.94 485.905   2
  -4  -8   3 4549.51 494.924   5
   4  -8  -2 5326.65 541.697   2
  -4  -8   1 619.096 179.385   6
   4  -8  -1 525.899 201.573   2
  -4  -8   0 29362.8 1186.82   6
   4  -8   0 28581.4 1219.28   2
  -4  -8  -1 21267.6 1075.74   6
   4  -8   1 19652.4 1007.23   2
  -4  -8  -2 3088.67 451.779   6
   4  -8   2 2470.26 381.924   2
  -4  -8  -3 3809.96 526.340   6
   4  -8   3 4168.02 497.109   2
  -4  -8  -4 760.706 262.530   6
   4  -8   4 857.222 255.497   2
  -4  -7   8 2472.63 435.852   5
  -4  -7   7 394.613 237.556   5
   4  -7  -6 5638.29 568.524   2
  -4  -7   6 5120.35 551.907   5
   4  -7  -5 11825.8 796.383   2
  -4  -7   5 12654.4 825.683   5
   4  -7  -4 20237.3 1018.84   2
  -4  -7   4 21402.0 1026.91   5
   4  -7  -3 12219.0 784.041   2
  -4  -7   3 13327.1 802.155   5
  -4  -7   2 7133.76 493.190   6
   4  -7  -2 6681.16 573.585   2
  -4  -7   1 6998.45 534.879   6
   4  -7  -1 6659.64 568.293   2
  -4  -7   0 345.426 162.462   6
   4  -7   0 112.633 137.152   2
  -4  -7  -1 2387.39 371.566   6
   4  -7   1 2555.82 360.012   2
  -4  -7  -2 24370.9 1182.62   6
   4  -7   2 24714.3 1094.29   2
  -4  -7  -3 26069.6 1291.82   6
   4  -7   3 27817.7 1187.23   2
  -4  -7  -4 7444.20 732.599   6
   4  -7   4 8536.75 675.418   2
   4  -7   5 3417.70 441.367   2
  -4  -6   9 11484.2 897.729   5
  -4  -6   8 419.518 266.847   5
  -4  -6   7 23853.7 1184.57   5
  -4  -6   6 7220.12 635.853   5
  -4  -6   5 31683.8 1265.33   5
   4  -6  -4 3197.80 406.462   2
  -4  -6   4 3682.59 436.150   5
   4  -6  -3 3758.31 425.599   2
  -4  -6   3 3753.76 438.517   5
  -4  -6   2 33773.0 1049.12   6
   4  -6  -2 33717.4 1228.10   2
  -4  -6   2 34119.2 1221.44   5
  -4  -6   1 72916.3 1668.71   6
   4  -6  -1 71223.6 1757.85   2
  -4  -6   0 22694.3 990.273   6
   4  -6   0 22970.5 998.061   2
  -4  -6  -1 15014.8 862.469   6
   4  -6   1 15960.9 833.252   2
  -4  -6  -2 3552.05 464.296   6
   4  -6   2 2839.43 368.493   2
  -4  -6  -3 2884.39 446.338   6
   4  -6   3 3032.97 384.742   2
  -4  -6  -4 13403.6 962.369   6
   4  -6   4 13217.7 803.036   2
  -4  -6  -5 5839.05 677.237   6
   4  -6   5 7268.34 610.984   2
  -4  -5   9 1192.07 346.440   5
  -4  -5   8 38160.1 1550.25   5
  -4  -5   7 1139.02 304.394   5
  -4  -5   6 5484.48 555.783   5
  -4  -5   5 14606.5 840.871   5
  -4  -5   4 22030.9 1001.51   5
   4  -5  -3 80472.3 1840.67   2
  -4  -5   3 76968.8 1807.73   5
  -4  -5   2 39727.8 1134.23   6
   4  -5  -2 39532.4 1274.30   2
  -4  -5   2 39719.8 1289.40   5
  -4  -5   1 15020.6 749.882   6
   4  -5  -1 15363.6 790.030   2
   4  -5   0 40268.3 1252.47   2
  -4  -5   0 40986.8 1304.95   6
  -4  -5  -1 37806.3 1335.14   6
   4  -5   1 37384.4 1205.13   2
  -4  -5  -2 71320.1 1932.90   6
   4  -5   2 72793.0 1682.20   2
  -4  -5  -3 4556.90 542.946   6
   4  -5   3 5109.43 460.214   2
  -4  -5  -4 30546.4 1415.12   6
   4  -5   4 31579.8 1168.76   2
  -4  -5  -5 913.665 281.823   6
   4  -5   5 996.053 236.581   2
  -4  -4   9 30281.7 1431.27   5
  -4  -4   8 12416.2 883.336   5
  -4  -4   7 10035.6 756.765   5
  -4  -4   6 15906.6 900.704   5
  -4  -4   5 40956.9 1374.04   5
  -4  -4   4 3594.55 414.317   5
  -4  -4   3 11495.7 685.182   5
   4  -4  -2 23851.4 953.271   2
  -4  -4   2 23673.8 871.730   6
  -4  -4   2 22584.9 947.406   5
  -4  -4   1 96330.5 1864.27   6
   4  -4  -1 99415.5 1915.44   2
  -4  -4   1 93756.7 1916.72   5
  -4  -4   0 11284.8 686.634   6
   4  -4   0 11667.9 647.551   2
  -4  -4  -1 41527.6 1371.24   6
   4  -4   1 39707.6 1181.66   2
  -4  -4  -2 16073.2 909.414   6
   4  -4   2 15259.8 743.187   2
  -4  -4  -3 738.379 256.777   6
   4  -4   3 480.514 159.427   2
  -4  -4  -4 31462.3 1416.01   6
   4  -4   4 34559.7 1146.39   2
  -4  -4  -5 5827.43 654.876   6
   4  -4   5 5756.00 607.486   3
  -4  -4  -6 24935.5 1371.21   6
   4  -4   6 23930.0 1258.56   3
  -4  -3   9 17295.1 1093.13   5
  -4  -3   8 9811.65 779.991   5
  -4  -3   7 5887.49 584.115   5
  -4  -3   6 19756.9 984.853   5
  -4  -3   5 38280.3 1308.78   5
  -4  -3   4 33400.5 1174.47   5
  -4  -3   3 38669.7 1232.29   5
  -4  -3   2 8478.78 572.964   5
  -4  -3   1 64920.4 1514.10   6
   4  -3  -1 67303.4 1503.12   2
  -4  -3   1 64384.4 1551.49   5
  -4  -3   0 22123.1 941.069   6
   4  -3   0 23048.3 871.333   2
  -4  -3  -1 15064.9 830.510   6
   4  -3   1 15263.5 697.668   2
  -4  -3  -2 30739.9 1241.59   6
   4  -3   2 32677.2 1019.45   2
  -4  -3  -3 26919.5 1222.42   6
   4  -3   3 26677.2 924.734   2
  -4  -3  -4 35236.1 1473.14   6
   4  -3   4 34850.3 1076.68   2
   4  -3   4 33392.4 1325.92   3
  -4  -3  -5 23891.1 1286.54   6
   4  -3   5 24712.5 1203.44   3
  -4  -3  -6 811.411 317.690   6
   4  -3   6 342.116 187.471   3
  -4  -2   9 3896.62 549.583   5
  -4  -2   8 31351.6 1372.58   5
  -4  -2   7 20084.2 1044.05   5
  -4  -2   6 60449.7 1691.27   5
  -4  -2   5 9978.40 669.039   5
  -4  -2   4 802.292 219.379   5
  -4  -2   3 4022.54 409.035   5
  -4  -2   2 42155.4 1216.88   5
  -4  -2   1 19183.9 834.117   6
  -4  -2   1 18385.4 813.641   5
   4  -2   0 59103.9 1326.91   2
  -4  -2   0 58258.7 1509.21   6
  -4  -2  -1 4156.08 444.965   6
   4  -2   1 3816.43 336.866   2
  -4  -2  -2 51636.6 1602.75   6
   4  -2   2 53457.4 1219.30   2
   4  -2   2 50600.8 1441.84   3
  -4  -2  -3 3160.76 433.470   6
   4  -2   3 2561.37 276.597   2
   4  -2   3 2736.87 377.032   3
  -4  -2  -4 8745.26 732.716   6
   4  -2   4 8085.68 654.731   3
  -4  -2  -5 28709.8 1387.75   6
   4  -2   5 29980.7 1307.45   3
  -4  -2  -6 35201.2 1597.17   6
   4  -2   6 35534.0 1501.83   3
  -4  -1   9 21366.1 1204.02   5
  -4  -1   8 5250.00 576.748   5
  -4  -1   7 4806.81 524.999   5
  -4  -1   6 1893.68 335.485   5
  -4  -1   5 19210.5 902.877   5
  -4  -1   4 82511.5 1785.60   5
   4  -1  -4 82635.7 1053.94   3
  -4  -1   3 40152.5 1191.36   5
   4  -1  -3 39133.1 853.207   3
  -4  -1   2 59972.8 1422.44   5
   4  -1  -2 59004.5 1151.70   3
  -4  -1   1 6380.48 471.255   5
   4  -1  -1 6701.43 427.372   3
  -4  -1   0 4667.07 455.857   6
   4  -1   0 4711.17 367.515   2
   4  -1   0 4954.05 399.017   3
  -4  -1  -1 19971.7 938.034   6
   4  -1   1 19858.7 714.809   2
   4  -1   1 18775.7 814.622   3
  -4  -1  -2 11816.8 765.888   6
   4  -1   2 11797.6 689.893   3
   4  -1   2 11335.4 532.552   2
  -4  -1  -3 113583. 2461.92   6
   4  -1   3 115560. 1640.63   2
   4  -1   3 113702. 2243.69   3
  -4  -1  -4 10.2357 158.219   6
   4  -1   4 270.668 192.561   3
  -4  -1  -5 4822.29 579.262   6
   4  -1   5 4773.38 524.259   3
  -4  -1  -6 511.097 244.515   6
   4  -1   6 397.959 192.320   3
  -4   0   9 2760.09 467.368   5
  -4   0   8 18087.3 1047.33   5
  -4   0   7 22459.2 1096.81   5
  -4   0   6 18826.0 944.137   5
  -4   0   5 19516.8 901.858   5
  -4   0   4 34384.3 1138.01   5
   4   0  -4 34840.8 614.628   3
  -4   0   3 13042.9 674.800   5
   4   0  -3 12965.4 463.863   3
  -4   0   2 53277.9 1316.25   5
   4   0  -2 54992.0 1079.55   3
  -4   0   1 33250.4 1025.68   5
   4   0  -1 32687.1 918.677   3
   4   0   0 209526. 2486.20   3
   4   0   1 12917.9 548.346   2
  -4   0  -1 13415.0 775.912   6
   4   0   1 13287.2 681.723   3
  -4   0  -2 8225.04 645.107   6
   4   0   2 7685.58 557.674   3
   4   0   2 8564.00 427.197   2
  -4   0  -3 42912.6 1511.31   6
   4   0   3 41722.9 1355.11   3
  -4   0  -4 14100.7 908.782   6
   4   0   4 15658.7 884.402   3
  -4   0  -5 26733.6 1311.89   6
   4   0   5 27549.6 1228.70   3
  -4   0  -6 2408.28 429.352   6
   4   0   6 1612.78 337.486   3
  -4   0  -7 18029.1 1174.72   6
  -4   1   9 23480.3 1272.88   5
  -4   1   8 5537.40 600.013   5
  -4   1   7 5561.56 556.291   5
  -4   1   6 1944.73 333.331   5
  -4   1   5 19414.3 895.646   5
   4   1  -4 79633.9 875.163   3
  -4   1   4 78513.5 1694.29   5
  -4   1   3 40211.8 1159.44   5
   4   1  -3 40372.3 796.337   3
  -4   1   2 61177.8 1373.32   5
   4   1  -2 60161.6 1113.39   3
  -4   1   1 5788.08 431.895   5
   4   1  -1 6688.65 417.402   3
   4   1   0 4507.97 372.308   3
   4   1   1 20151.1 640.741   2
   4   1   1 18306.4 796.060   3
  -4   1  -2 10813.8 732.988   6
   4   1   2 10894.6 654.237   3
   4   1   2 11992.0 458.223   2
  -4   1  -3 116900. 2471.77   6
   4   1   3 113520. 2221.28   3
  -4   1  -4 791.356 264.360   6
   4   1   4 597.751 201.807   3
  -4   1  -5 4974.52 584.832   6
   4   1   5 4661.36 525.178   3
  -4   1  -6 860.527 280.788   6
   4   1   6 474.293 214.798   3
  -4   1  -7 158.006 190.798   6
  -4   2   9 3560.86 536.582   5
  -4   2   8 32025.1 1395.90   5
  -4   2   7 20278.2 1035.63   5
  -4   2   6 60368.0 1673.64   5
  -4   2   5 10693.1 670.393   5
  -4   2   4 1057.41 225.392   4
  -4   2   4 1030.44 219.138   5
   4   2  -4 879.843 101.530   3
  -4   2   3 5307.43 455.748   4
   4   2  -3 4194.83 264.591   3
  -4   2   3 4765.92 409.511   5
  -4   2   2 39337.9 1170.97   4
  -4   2   2 42806.4 1132.15   5
   4   2  -2 39888.6 911.513   3
  -4   2   1 21344.5 830.606   4
  -4   2   1 21258.8 782.982   5
   4   2  -1 20706.7 722.560   3
  -4   2   0 62516.0 1363.18   4
   4   2   0 61385.6 1356.07   3
  -4   2  -1 4434.29 355.449   4
   4   2   1 4623.61 295.933   2
   4   2   1 4649.32 408.162   3
  -4   2  -2 54021.9 1167.04   4
   4   2   2 49286.8 1379.82   3
   4   2   3 2948.76 366.535   3
  -4   2  -4 8310.76 701.086   6
   4   2   4 8492.96 660.813   3
  -4   2  -5 29318.1 1358.46   6
   4   2   5 26960.4 1228.11   3
  -4   2  -6 35023.0 1545.31   6
   4   2   6 34260.8 1453.30   3
  -4   2  -7 9667.54 855.349   6
  -4   3   9 17059.0 1090.47   5
  -4   3   8 9940.10 793.961   5
  -4   3   7 6302.56 598.995   5
  -4   3   6 20591.1 980.050   5
  -4   3   5 38370.5 1307.65   4
  -4   3   5 40837.9 1280.40   5
  -4   3   4 35573.8 1212.88   4
  -4   3   4 35510.0 1121.57   5
  -4   3   3 38386.6 1222.27   4
   4   3  -3 37861.9 818.691   3
  -4   3   3 37771.5 1097.60   5
  -4   3   2 10442.9 623.695   4
   4   3  -2 10026.1 474.345   3
  -4   3   2 10470.4 562.147   5
   4   3  -1 66653.6 1319.63   3
  -4   3   1 65325.9 1331.99   5
  -4   3   1 67206.7 1512.49   4
   4   3   0 21993.9 817.375   3
  -4   3   0 21328.1 835.974   4
   4   3   1 14718.5 720.377   3
  -4   3  -1 14602.2 668.736   4
  -4   3  -2 33579.1 971.750   4
   4   3   2 31551.4 1123.72   3
   4   3   3 26249.2 1085.67   3
   4   3   4 32664.0 1281.26   3
   4   3   5 24483.6 1171.72   3
   4   3   6 365.885 193.829   3
  -4   4   9 31390.2 1477.32   5
  -4   4   8 15022.9 967.932   5
  -4   4   7 12246.0 801.231   4
  -4   4   7 13133.9 848.781   5
  -4   4   6 16126.9 891.383   4
  -4   4   6 16144.5 866.314   5
  -4   4   5 39895.1 1355.75   4
  -4   4   5 41631.2 1292.17   5
  -4   4   4 3245.44 399.494   4
  -4   4   4 3626.04 370.761   5
   4   4  -3 11136.3 488.625   3
  -4   4   3 10782.9 582.745   5
  -4   4   3 11365.8 689.706   4
   4   4  -2 22063.8 735.523   3
  -4   4   2 22971.7 803.013   5
  -4   4   2 22939.6 944.635   4
   4   4  -1 96678.6 1639.52   3
  -4   4   1 99212.9 1593.73   5
  -4   4   1 99099.5 1913.71   4
   4   4   0 10093.3 575.677   3
  -4   4   0 10211.2 606.042   4
   4   4   1 41089.1 1231.86   3
  -4   4  -1 40402.2 1158.08   4
   4   4   2 13920.9 763.391   3
  -4   4  -2 14093.0 669.987   4
   4   4   3 724.065 234.296   3
   4   4   4 33212.2 1314.37   3
   4   4   5 6818.69 638.039   3
   4   4   6 24432.7 1252.75   3
  -4   5   9 1095.82 322.674   5
  -4   5   8 37481.1 1521.81   5
  -4   5   7 1180.40 283.751   4
  -4   5   7 1352.27 315.231   5
  -4   5   6 5184.65 531.094   4
  -4   5   6 5636.90 522.795   5
  -4   5   5 14328.6 844.958   4
  -4   5   5 14109.5 759.119   5
  -4   5   4 21518.5 857.042   5
  -4   5   4 23298.9 1035.58   4
   4   5  -3 76545.1 1415.78   3
  -4   5   3 77472.5 1520.87   5
  -4   5   3 76175.8 1822.60   4
   4   5  -2 39110.9 1037.62   3
  -4   5   2 41007.8 1042.88   5
  -4   5   2 39608.4 1294.07   4
   4   5  -1 13903.8 656.614   3
  -4   5   1 14198.8 580.659   5
  -4   5   1 14056.0 756.707   4
   4   5   0 40134.1 1178.59   3
  -4   5   0 40682.0 1251.65   4
   4   5   1 35794.8 1176.11   3
  -4   5  -1 38928.5 1204.55   4
   4   5   2 68297.2 1723.41   3
  -4   5  -2 69616.4 1583.90   4
   4   5   3 4449.37 482.281   3
   4   5   4 29094.7 1258.63   3
   4   5   5 1360.84 346.563   3
  -4   6   9 10358.3 857.909   5
  -4   6   8 915.772 299.242   4
  -4   6   8 895.823 306.689   5
  -4   6   7 23053.3 1149.27   4
  -4   6   7 24107.8 1138.65   5
  -4   6   6 6416.49 600.584   4
  -4   6   6 6635.56 559.827   5
  -4   6   5 31616.0 1117.62   5
  -4   6   5 30490.1 1262.61   4
  -4   6   4 4068.19 380.021   5
  -4   6   4 4095.08 464.615   4
   4   6  -3 4774.19 424.776   3
  -4   6   3 3704.35 333.762   5
  -4   6   3 3507.45 427.266   4
   4   6  -2 33569.3 1054.92   3
  -4   6   2 34470.3 926.967   5
  -4   6   2 32365.7 1218.44   4
   4   6  -1 70981.0 1574.65   3
  -4   6   1 72541.9 1789.59   4
   4   6   0 22319.5 921.776   3
  -4   6   0 21925.1 975.475   4
   4   6   1 15060.3 805.115   3
  -4   6  -1 14911.6 790.773   4
   4   6   2 3513.82 412.177   3
  -4   6  -2 3485.63 384.879   4
   4   6   3 2526.65 398.150   3
   4   6   4 14622.0 921.577   3
   4   6   5 7620.72 700.920   3
  -4   7   8 2298.37 416.053   4
  -4   7   8 2872.61 448.837   5
  -4   7   7 588.768 226.099   4
  -4   7   7 472.299 224.911   5
  -4   7   6 4759.85 478.551   5
  -4   7   6 4812.75 547.457   4
  -4   7   5 13045.2 713.629   5
  -4   7   5 13134.6 862.196   4
  -4   7   4 19799.6 1030.66   4
   4   7  -3 11954.2 686.152   3
  -4   7   3 12526.7 818.685   4
   4   7  -2 7584.93 577.536   3
  -4   7   2 7084.69 608.363   4
   4   7  -1 7614.70 565.444   3
  -4   7   1 7250.56 600.944   4
  -4   7   0 277.621 162.151   4
   4   7   0 351.185 174.544   3
  -4   7  -1 2241.20 337.902   4
   4   7   1 2203.03 331.060   3
   4   7   2 22577.0 1065.85   3
  -4   7  -2 24082.0 1042.39   4
   4   7   3 24162.7 1156.90   3
   4   7   4 8065.14 710.713   3
  -4   8   7 46156.9 1729.37   4
  -4   8   6 1846.81 370.321   4
  -4   8   5 3317.42 460.623   4
  -4   8   4 3083.99 448.895   4
  -4   8   3 3963.60 495.882   4
   4   8  -2 6861.87 602.391   3
  -4   8   2 6932.23 628.985   4
  -4   8   1 636.708 222.766   4
   4   8  -1 1089.57 316.772   3
   4   8   0 27809.8 1165.31   3
  -4   8   0 28245.5 1212.12   4
   4   8   1 21762.3 1073.42   3
  -4   8  -1 20503.5 1024.32   4
  -4   8  -2 3063.09 407.373   4
   4   8   2 2985.96 432.912   3
   4   8   3 3797.01 498.758   3
  -4   9   6 7844.43 735.380   4
  -4   9   5 11858.1 883.494   4
  -4   9   4 29971.8 1380.54   4
  -4   9   3 2529.82 405.467   4
   4   9  -2 33627.3 1336.92   3
  -4   9   2 31236.5 1370.86   4
  -4   9   1 1641.95 334.412   4
   4   9  -1 1428.68 348.763   3
   4   9   0 5156.81 587.204   3
  -4   9   0 3946.63 484.548   4
   4   9   1 5704.58 607.626   3
  -4   9  -1 4658.45 524.770   4
   4   9   2 8487.82 737.561   3
  -4   9  -2 7703.27 665.761   4
   4   9   3 26016.5 1313.60   3
  -4  10   4 722.523 288.084   4
  -4  10   3 1982.90 382.972   4
  -4  10   2 11313.4 859.729   4
   4  10  -1 35037.0 1491.55   3
  -4  10   1 34994.1 1495.94   4
   4  10   0 12471.6 948.738   3
  -4  10   0 11768.0 870.795   4
   4  10   1 10865.0 908.132   3
  -4  10  -1 10558.0 828.967   4
  -4  10  -2 1980.30 369.758   4
   4  11  -1 476.716 310.959   3
   4  11   0 564.861 355.282   3
  -5  -9  -1 14491.2 997.614   6
  -5  -8   5 3878.22 528.583   5
   5  -8  -4 409.265 242.132   2
  -5  -8   4 520.598 239.361   5
   5  -8  -3 28722.3 1346.97   2
   5  -8  -2 49758.9 1747.59   2
   5  -8  -1 21199.4 1136.40   2
  -5  -8   0 148.819 139.152   6
   5  -8   0 304.723 211.103   2
  -5  -8  -1 8871.40 772.104   6
   5  -8   1 8775.46 735.709   2
  -5  -8  -2 8256.77 784.754   6
   5  -7  -6 11454.1 866.542   2
  -5  -7   6 11356.9 877.678   5
   5  -7  -5 11009.8 829.977   2
  -5  -7   5 11915.7 871.499   5
   5  -7  -4 15449.3 970.322   2
  -5  -7   4 15305.1 983.605   5
   5  -7  -3 11018.4 808.765   2
  -5  -7   3 11185.8 824.055   5
   5  -7  -2 10089.4 775.459   2
  -5  -7   1 9968.56 720.982   6
   5  -7  -1 10529.2 782.353   2
  -5  -7   0 12830.6 860.796   6
   5  -7   0 14044.5 896.867   2
  -5  -7  -1 21868.5 1190.10   6
   5  -7   1 23524.8 1154.32   2
  -5  -7  -2 3295.13 508.925   6
   5  -7   2 3212.22 443.157   2
   5  -7   3 23719.3 1178.85   2
  -5  -6   7 1391.43 375.702   5
  -5  -6   6 7100.76 692.296   5
   5  -6  -5 18959.7 1063.17   2
  -5  -6   5 20279.0 1112.16   5
   5  -6  -4 10006.0 758.478   2
  -5  -6   4 12768.8 861.723   5
   5  -6  -3 28011.1 1245.89   2
  -5  -6   3 25899.0 1218.56   5
   5  -6  -2 859.484 268.507   2
  -5  -6   2 1051.45 239.556   6
   5  -6  -1 29733.4 1252.20   2
  -5  -6   1 29138.8 1205.85   6
  -5  -6   0 10990.2 787.594   6
   5  -6   0 10598.3 749.294   2
  -5  -6  -1 1951.57 387.978   6
   5  -6   1 1669.56 303.961   2
  -5  -6  -2 1102.81 314.399   6
   5  -6   2 1315.08 296.623   2
  -5  -6  -3 15542.2 1085.80   6
   5  -6   3 14108.8 873.742   2
  -5  -5   7 32174.0 1457.79   5
  -5  -5   6 11221.0 856.240   5
  -5  -5   5 12278.3 855.625   5
   5  -5  -4 467.304 201.443   2
  -5  -5   4 999.067 288.880   5
   5  -5  -3 2894.17 407.908   2
  -5  -5   3 2865.00 409.423   5
   5  -5  -2 3827.41 458.234   2
  -5  -5   1 992.800 253.037   6
   5  -5  -1 1096.43 251.177   2
  -5  -5   0 10230.1 755.393   6
   5  -5   0 9776.58 695.240   2
  -5  -5  -1 11017.6 820.161   6
   5  -5   1 10488.0 716.795   2
  -5  -5  -2 29170.3 1403.68   6
   5  -5   2 29650.5 1183.83   2
  -5  -5  -3 9794.51 858.296   6
   5  -5   3 8249.63 635.115   2
  -5  -4   8 20681.6 1217.15   5
  -5  -4   7 6947.69 689.906   5
  -5  -4   6 535.072 216.148   5
  -5  -4   5 5631.70 579.649   5
  -5  -4   4 17297.6 962.787   5
   5  -4  -3 29587.0 1192.52   2
  -5  -4   3 31761.6 1266.89   5
   5  -4  -2 7662.04 605.179   2
  -5  -4   2 6508.94 589.945   5
  -5  -4   1 21554.9 1021.34   6
   5  -4  -1 22640.6 1019.27   2
  -5  -4   0 8811.03 688.566   6
   5  -4   0 8486.17 623.899   2
  -5  -4  -1 4472.93 531.405   6
   5  -4   1 3887.87 417.970   2
  -5  -4  -2 6788.91 675.457   6
   5  -4   2 7266.72 567.905   2
  -5  -4  -3 13004.9 977.988   6
   5  -4   3 14386.1 788.540   2
   5  -4   3 13147.7 898.045   3
  -5  -4  -4 26649.4 1448.76   6
   5  -4   4 26044.9 1314.94   3
  -5  -3   8 1812.49 399.046   5
  -5  -3   7 7069.45 696.046   5
  -5  -3   6 17125.5 1002.57   5
  -5  -3   5 33312.9 1351.67   5
  -5  -3   4 9206.72 692.236   5
  -5  -3   3 46379.7 1507.70   5
   5  -3  -2 9140.60 640.255   2
  -5  -3   2 7900.45 637.248   5
  -5  -3   1 53758.7 1608.31   6
   5  -3  -1 55728.6 1537.17   2
  -5  -3   0 39594.3 1457.57   6
   5  -3   0 42374.4 1325.27   2
  -5  -3  -1 18714.6 1044.53   6
   5  -3   1 19373.9 880.324   2
  -5  -3  -2 23178.4 1221.72   6
   5  -3   2 22043.6 934.853   2
   5  -3   2 20674.5 1052.08   3
  -5  -3  -3 12204.6 934.647   6
   5  -3   3 9100.16 744.799   3
  -5  -3  -4 1069.41 326.440   6
   5  -3   4 1187.72 306.352   3
  -5  -2   8 6757.70 702.287   5
  -5  -2   7 6287.79 644.719   5
  -5  -2   6 10799.7 801.328   5
  -5  -2   5 775.996 269.287   5
  -5  -2   4 25689.7 1131.96   5
  -5  -2   3 33653.3 1251.74   5
   5  -2  -3 32092.0 947.606   3
  -5  -2   2 77476.1 1880.56   5
   5  -2  -2 76578.4 1578.32   3
   5  -2  -1 13935.4 750.836   2
   5  -2  -1 14395.5 730.115   3
  -5  -2   0 16806.2 948.487   6
   5  -2   0 17758.8 832.073   2
   5  -2   0 17921.2 859.431   3
  -5  -2  -1 17709.6 1016.02   6
   5  -2   1 17761.7 905.773   3
   5  -2   1 19208.2 845.036   2
  -5  -2  -2 43925.4 1660.68   6
   5  -2   2 42816.6 1222.54   2
  -5  -2  -3 7399.02 730.436   6
   5  -2   3 7457.85 665.392   3
  -5  -2  -4 11145.2 930.016   6
   5  -2   4 11934.6 870.679   3
  -5  -1   8 3993.07 547.562   5
  -5  -1   7 12353.0 886.271   5
  -5  -1   6 20977.9 1091.81   5
  -5  -1   5 29972.5 1237.93   5
  -5  -1   4 30059.8 1210.66   5
  -5  -1   3 10091.7 682.615   5
   5  -1  -3 10884.0 531.236   3
  -5  -1   2 23871.3 1022.77   5
   5  -1  -2 24158.2 863.076   3
  -5  -1   1 31058.8 1167.15   5
   5  -1  -1 29680.4 1024.50   3
   5  -1   0 8708.49 563.119   2
   5  -1   0 8041.42 572.207   3
  -5  -1  -1 53574.5 1749.91   6
   5  -1   1 56578.5 1378.04   2
   5  -1   1 52962.9 1530.39   3
  -5  -1  -2 20977.6 1152.86   6
   5  -1   2 21844.7 1045.13   3
  -5  -1  -3 12536.1 933.259   6
   5  -1   3 12401.6 840.399   3
  -5  -1  -4 2398.63 458.782   6
   5  -1   4 2312.72 396.296   3
  -5   0   8 15757.1 1036.09   5
  -5   0   7 18457.3 1064.47   5
  -5   0   6 25322.2 1194.20   5
  -5   0   5 1549.98 308.806   5
  -5   0   4 7341.11 599.584   5
  -5   0   3 34.1390 168.493   5
   5   0  -3 139.843 72.8243   3
  -5   0   2 72101.7 1746.47   5
   5   0  -2 70837.0 1442.76   3
  -5   0   1 6901.17 546.867   5
   5   0  -1 7287.13 503.774   3
   5   0   0 5.33675 100.277   2
   5   0   0 356.061 153.163   3
   5   0   1 20419.5 783.995   2
   5   0   1 18542.9 896.932   3
  -5   0  -2-27.8679 165.045   6
   5   0   2 135.721 149.485   3
  -5   0  -3 17086.2 1093.16   6
   5   0   3 16661.3 959.057   3
  -5   0  -4 31935.4 1546.24   6
   5   0   4 31961.9 1393.29   3
  -5   0  -5 40550.7 1800.93   6
  -5   1   8 4968.68 613.060   5
  -5   1   7 11903.2 860.250   5
  -5   1   6 21128.1 1081.81   5
  -5   1   5 32608.4 1263.09   5
  -5   1   4 28455.8 1150.85   5
  -5   1   3 9726.76 656.552   5
   5   1  -3 10220.0 484.569   3
  -5   1   2 26620.1 1040.72   5
   5   1  -2 23815.2 830.660   3
  -5   1   1 30005.0 1100.75   5
   5   1  -1 28851.7 989.448   3
   5   1   0 8369.39 571.567   3
   5   1   1 53702.7 1515.38   3
   5   1   2 21006.0 1008.75   3
   5   1   3 11872.9 813.379   3
  -5   1  -4 3224.44 520.799   6
   5   1   4 2157.92 373.810   3
  -5   1  -5 8597.52 849.478   6
  -5   2   8 6907.06 697.805   5
  -5   2   7 6206.28 623.743   5
  -5   2   6 10153.4 749.403   5
  -5   2   5 531.359 200.860   5
  -5   2   4 25402.4 1079.49   5
  -5   2   3 30844.5 1135.29   5
   5   2  -2 79583.4 1511.42   3
  -5   2   2 80216.1 1782.96   5
   5   2  -1 13287.2 673.875   3
  -5   2   1 13286.4 722.885   5
   5   2   0 16576.8 802.787   3
   5   2   1 16882.0 859.459   3
   5   2   2 37628.0 1357.54   3
   5   2   3 8297.94 679.959   3
   5   2   4 11262.3 825.963   3
  -5   3   8 897.789 279.933   5
  -5   3   7 7172.34 662.936   5
  -5   3   6 16115.8 922.933   5
  -5   3   5 33093.8 1258.44   5
  -5   3   4 11326.9 765.283   4
  -5   3   4 10199.6 682.114   5
  -5   3   3 49137.7 1540.95   4
  -5   3   3 48632.7 1398.42   5
  -5   3   2 9834.28 682.931   4
   5   3  -2 9434.81 533.907   3
  -5   3   2 8498.90 583.809   5
  -5   3   1 55735.4 1549.69   4
   5   3  -1 52625.2 1355.27   3
  -5   3   1 54697.8 1420.80   5
  -5   3   0 39873.6 1269.76   4
   5   3   0 39235.3 1241.89   3
  -5   3  -1 18966.7 849.378   4
   5   3   1 17799.4 891.164   3
   5   3   2 21315.5 1025.25   3
   5   3   3 9050.06 716.190   3
   5   3   4 1899.06 359.281   3
  -5   4   8 18328.4 1112.35   5
  -5   4   7 6211.21 619.528   5
  -5   4   6 342.240 174.108   5
  -5   4   5 5865.70 579.900   4
  -5   4   5 5454.73 518.877   5
  -5   4   4 17606.6 975.788   4
  -5   4   4 18284.7 885.283   5
  -5   4   3 31496.8 1257.88   4
  -5   4   3 31221.2 1110.19   5
  -5   4   2 7137.98 595.045   4
   5   4  -2 6676.19 465.463   3
  -5   4   2 6817.45 509.666   5
  -5   4   1 22588.2 1014.42   4
   5   4  -1 21618.6 878.553   3
  -5   4   0 8670.56 619.875   4
   5   4   0 8999.51 620.667   3
  -5   4  -1 3972.63 411.045   4
   5   4   1 4263.14 459.035   3
   5   4   2 6791.77 603.800   3
   5   4   3 15176.5 941.028   3
   5   4   4 26781.6 1302.96   3
  -5   5   8 7666.59 724.006   5
  -5   5   7 30996.7 1432.22   4
  -5   5   7 32160.0 1369.09   5
  -5   5   6 11599.4 863.483   4
  -5   5   6 11975.4 793.887   5
  -5   5   5 10478.6 798.630   4
  -5   5   5 10643.9 705.851   5
  -5   5   4 322.127 181.696   4
  -5   5   4 284.014 133.376   5
  -5   5   3 2300.29 375.721   4
  -5   5   3 2423.36 310.000   5
  -5   5   2 3904.43 464.242   4
   5   5  -2 3647.66 354.633   3
  -5   5   1 1183.14 255.209   4
   5   5  -1 1090.35 232.762   3
   5   5   0 10595.0 676.469   3
  -5   5   0 10612.4 710.135   4
   5   5   1 9833.76 692.501   3
  -5   5  -1 10830.9 701.061   4
   5   5   2 26659.9 1190.21   3
   5   5   3 7471.84 681.525   3
  -5   6   8 17780.6 1079.28   5
  -5   6   7 1017.47 273.209   5
  -5   6   6 7642.85 714.723   4
  -5   6   6 6440.95 582.114   5
  -5   6   5 19664.1 1111.89   4
  -5   6   4 10237.6 795.780   4
  -5   6   3 28710.2 1294.48   4
  -5   6   2 915.034 250.296   4
   5   6  -2 1070.29 221.495   3
   5   6  -1 26944.2 1061.36   3
  -5   6   1 27958.4 1220.27   4
   5   6   0 11136.6 717.828   3
  -5   6   0 11407.7 767.758   4
  -5   6  -1 2415.40 366.104   4
   5   6   1 1878.99 329.084   3
   5   6   2 446.571 182.450   3
   5   6   3 14197.6 938.361   3
  -5   7   5 11133.9 868.839   4
  -5   7   4 14204.1 960.639   4
  -5   7   3 9922.49 791.340   4
  -5   7   2 10075.9 779.834   4
   5   7  -1 10084.0 694.943   3
  -5   7   1 11227.4 808.554   4
   5   7   0 13206.7 817.088   3
  -5   7   0 14831.4 912.241   4
   5   7   1 20052.9 1048.37   3
  -5   7  -1 21401.0 1072.70   4
   5   7   2 2929.00 426.117   3
  -5   8   4 841.043 268.446   4
  -5   8   3 27969.8 1361.61   4
  -5   8   2 47247.3 1739.08   4
   5   8  -1 19504.2 1030.25   3
  -5   8   1 22427.5 1180.03   4
  -5   8   0 263.221 128.312   4
   5   8   0 133.334 154.578   3
   5   8   1 8464.49 724.922   3
  -5   8  -1 8668.46 720.681   4
  -5   9   2 387.568 194.197   4
  -5   9   1 589.808 236.814   4
   5   9  -1 709.718 313.575   3
   5   9   0 18269.6 1094.48   3
  -5   9   0 19630.2 1142.96   4
  -5   9  -1 14169.4 960.083   4
   6  -6  -2 17950.4 1077.97   2
   6  -6  -1 602.604 230.405   2
  -6  -6   0 1990.38 389.263   6
   6  -6   0 2351.07 404.963   2
   6  -6   1 17919.3 1045.72   2
   6  -5  -4 15808.6 1009.55   2
  -6  -5   4 15276.0 1033.22   5
   6  -5  -3 27584.2 1311.04   2
  -6  -5   3 26631.4 1340.87   5
   6  -5  -2 25167.5 1236.36   2
   6  -5  -1 23604.6 1191.15   2
  -6  -5   0 2110.28 405.945   6
   6  -5   0 1522.56 308.760   2
  -6  -5  -1 8685.50 823.984   6
   6  -5   1 9229.55 735.981   2
  -6  -4   5 15023.2 1017.59   5
   6  -4  -4 24980.5 1234.54   2
  -6  -4   4 27681.8 1353.03   5
   6  -4  -3 416.083 204.899   2
  -6  -4   3 558.355 250.452   5
   6  -4  -2 28724.1 1284.14   2
   6  -4  -1 2926.17 422.943   2
  -6  -4   0 8165.93 764.731   6
   6  -4   0 8244.08 679.079   3
   6  -4   0 7350.28 644.524   2
  -6  -4  -1 22264.3 1293.52   6
   6  -4   1 21186.1 1137.88   3
   6  -4   1 22373.2 1083.81   2
  -6  -3   6 4347.71 565.702   5
  -6  -3   5-62.7186 203.033   5
  -6  -3   4 6393.44 652.065   5
   6  -3  -3 7195.08 636.911   2
  -6  -3   3 6484.94 648.971   5
   6  -3  -2 10049.6 739.637   2
   6  -3  -2 11388.6 702.635   3
   6  -3  -1 3398.32 424.182   2
   6  -3  -1 3280.62 406.366   3
   6  -3   0 20382.4 1017.89   2
   6  -3   0 18561.5 991.727   3
  -6  -3  -1 18032.5 1163.93   6
   6  -3   1 17363.8 1005.95   3
   6  -3   2 3719.29 496.984   3
  -6  -2   6 4745.47 588.908   5
  -6  -2   5 20793.0 1162.89   5
  -6  -2   4 11918.7 860.771   5
  -6  -2   3 17589.1 1021.96   5
   6  -2  -2 1496.96 304.500   2
   6  -2  -1 381.804 179.317   2
   6  -2  -1 436.474 163.452   3
   6  -2   0 2400.66 358.068   3
   6  -2   0 3184.60 391.396   2
   6  -2   1 2801.06 414.386   3
  -6  -2  -2 23668.0 1374.21   6
   6  -2   2 22784.7 1187.19   3
  -6  -1   6 15258.6 1033.43   5
  -6  -1   5 4902.67 566.772   5
  -6  -1   4 1024.19 296.318   5
  -6  -1   3 14865.5 922.412   5
  -6  -1   2 15614.3 936.656   5
   6  -1  -1 26626.9 1114.12   2
   6  -1  -1 27609.0 1103.89   3
   6  -1   0 31558.9 1248.98   3
   6  -1   1 1545.80 317.786   3
   6  -1   2 1829.92 354.793   3
  -6   0   7 3424.26 520.668   5
  -6   0   6 3562.22 507.335   5
  -6   0   5 15066.8 966.288   5
  -6   0   4 23323.1 1159.03   5
  -6   0   3 79712.4 2095.84   5
  -6   0   2 915.677 254.468   5
   6   0  -1 4787.42 476.055   2
   6   0  -1 4224.92 433.144   3
   6   0   0 32090.5 1245.84   3
   6   0   1 2680.23 403.288   3
   6   0   2 23255.6 1164.28   3
  -6   1   7 11500.4 900.107   5
  -6   1   6 15907.5 1018.98   5
  -6   1   5 4841.85 561.009   5
  -6   1   4 1587.27 312.345   5
  -6   1   3 15406.6 917.872   5
  -6   1   2 17123.2 949.787   5
   6   1  -1 27809.1 1089.51   3
   6   1   0 33866.2 1280.16   3
   6   1   1 2165.49 347.958   3
   6   1   2 1744.23 345.307   3
  -6   2   7 4815.35 586.429   5
  -6   2   6 4627.07 562.431   5
  -6   2   5 20063.8 1088.82   5
  -6   2   4 12609.0 835.912   5
  -6   2   3 17023.0 952.188   5
  -6   2   2 1664.21 307.891   5
   6   2  -1 351.435 131.671   3
   6   2   0 2253.30 339.303   3
   6   2   1 2814.87 404.255   3
   6   2   2 22558.4 1166.09   3
  -6   3   7 18030.7 1114.72   5
  -6   3   6 4848.89 565.745   5
  -6   3   5-44.8494 156.208   5
  -6   3   4 6879.50 616.949   5
  -6   3   3 6501.69 583.289   5
  -6   3   2 10414.2 720.043   5
   6   3  -1 3683.05 411.640   3
   6   3   0 19016.8 972.467   3
   6   3   1 16578.5 953.561   3
   6   3   2 3963.21 513.273   3
  -6   4   7 3788.03 514.751   5
  -6   4   6 12346.5 869.474   5
  -6   4   5 16116.9 956.910   5
  -6   4   4 28114.3 1199.78   5
  -6   4   3 40.0729 145.551   5
  -6   4   2 28150.8 1277.55   4
  -6   4   1 2669.24 405.442   4
   6   4  -1 2395.86 342.437   3
   6   4   0 7928.59 637.623   3
   6   4   1 20677.2 1086.37   3
  -6   5   4 14966.9 1006.22   4
  -6   5   3 28912.6 1363.58   4
  -6   5   2 25687.5 1260.68   4
  -6   5   1 23693.1 1179.55   4
  -6   5   0 1832.02 340.495   4
   6   5   0 1985.34 337.614   3
   6   5   1 9316.90 738.861   3
  -6   6   3 12519.7 932.322   4
  -6   6   2 17847.8 1075.88   4
  -6   6   1 598.187 227.939   4
  -6   6   0 2614.50 409.846   4
   6   6   0 1630.27 318.722   3
  -6   7   1 24739.7 1279.72   4
   7  -1  -3 9653.12 764.170   2
  -7   1   3 10730.5 850.705   5
  -7   2   3 5747.38 609.730   5
;
_shelx_hkl_checksum              3264
_shelx_res_file
;
    shelx.res created by SHELXL-2014/7
TITL logan_aspar_cl in P 21
CELL  0.71073   5.0922  10.1450   8.1950   90.000  103.834   90.000
ZERR     2.00   0.0001   0.0002   0.0002    0.000    0.002    0.000
LATT  -1
SYMM  - X, 1/2 + Y, - Z
SFAC  CL   O    N    C    H
UNIT  2 8 4 8 22
MERG   2
OMIT    -3.00 180.00
dfix .88 .01 o1w h1w o1w h2w o2 h1h
dfix .90 .01 n1 h1n n1 h2n n1 h3n n2 h4n n2 h5n
EQIV $1 -x+2, y-1/2, -z+2
HTAB O1W Cl1_$1
EQIV $2 -x+1, y-1/2, -z+2
HTAB O1W Cl1_$2
HTAB N1 Cl1
EQIV $3 x+1, y, z
HTAB N1 Cl1_$3
HTAB N1 O3
HTAB N1 O1W
EQIV $4 x-1, y, z
EQIV $5 -x+2, y-1/2, -z+1
HTAB O2 O3_$5
EQIV $6 x, y, z-1
HTAB N2 Cl1_$6
EQIV $7 -x+2, y+1/2, -z+1
HTAB N2 O1_$7
EQIV $8 x-1, y, z-1
HTAB N2 O1W_$8
FMAP   2
PLAN   25
ACTA    54.00
BOND   $H
CONF
L.S.   8
TEMP  -150.00
WGHT    0.033100    0.028900
EXTI    0.028977
FVAR      16.07459
CL1   1    0.365706    0.900753    0.924005    11.00000    0.01624    0.02409 =
         0.02093   -0.00539    0.00325    0.00077
O1    2    1.114545    0.512571    0.772583    11.00000    0.01824    0.03462 =
         0.02236   -0.00588    0.00075    0.00964
O2    2    0.812985    0.489315    0.526728    11.00000    0.02110    0.02812 =
         0.02042   -0.00794    0.00200    0.00671
O3    2    0.861718    0.834940    0.568115    11.00000    0.02225    0.03590 =
         0.01989    0.00783    0.00003   -0.01278
O1W   2    1.161074    0.587023    1.160730    11.00000    0.02522    0.01996 =
         0.02697   -0.00028    0.00511   -0.00193
AFIX   2
H1W   5    1.274675    0.528292    1.141978    11.00000   -1.20000
H2W   5    1.033844    0.532469    1.169613    11.00000   -1.20000
AFIX   0
N1    3    0.828814    0.710040    0.868463    11.00000    0.01496    0.01816 =
         0.01557   -0.00195    0.00404    0.00082
AFIX   2
H1N   5    0.699445    0.757878    0.902158    11.00000   -1.20000
H2N   5    0.935629    0.763762    0.827321    11.00000   -1.20000
H3N   5    0.926565    0.664359    0.956601    11.00000   -1.20000
AFIX   0
N2    3    0.562524    0.784733    0.324686    11.00000    0.02650    0.02166 =
         0.01633    0.00113    0.00341   -0.00293
C1    4    0.896896    0.535069    0.679166    11.00000    0.01493    0.01488 =
         0.01678    0.00140    0.00517   -0.00144
C2    4    0.686438    0.619771    0.731811    11.00000    0.01233    0.01493 =
         0.01517   -0.00074    0.00388   -0.00059
AFIX  13
H1    5    0.570255    0.559748    0.781294    11.00000   -1.20000
AFIX   0
C3    4    0.500859    0.692789    0.585939    11.00000    0.01287    0.01859 =
         0.01660    0.00232    0.00263    0.00038
AFIX  23
H2    5    0.389987    0.627790    0.509099    11.00000   -1.20000
H3    5    0.376473    0.749941    0.630354    11.00000   -1.20000
AFIX   0
C4    4    0.654750    0.775871    0.488772    11.00000    0.01675    0.01629 =
         0.01829    0.00233    0.00457    0.00230
H1H   5    0.936100    0.437254    0.502996    11.00000    0.06710
H4N   5    0.642841    0.839949    0.266137    11.00000    0.01867
H5N   5    0.423432    0.736257    0.273317    11.00000    0.02312
HKLF 4
REM  logan_aspar_cl in P 21
REM R1 =  0.0216 for    2032 Fo > 4sig(Fo)  and  0.0225 for all    2079 data
REM    128 parameters refined using      9 restraints
END
WGHT      0.0328      0.0307
REM Highest difference peak  0.262,  deepest hole -0.201,  1-sigma level  0.039
Q1    1   0.7898  0.5852  0.7052  11.00000  0.05    0.26
Q2    1   0.5703  0.7357  0.5402  11.00000  0.05    0.21
Q3    1   0.6072  0.6623  0.6511  11.00000  0.05    0.21
Q4    1   0.1877  0.9110  0.9411  11.00000  0.05    0.15
Q5    1   0.5392  0.9019  0.9098  11.00000  0.05    0.15
Q6    1   0.9652  0.4812  0.7581  11.00000  0.05    0.15
Q7    1   1.0994  0.4005  0.5026  11.00000  0.05    0.14
Q8    1   0.8212  0.8234  0.6685  11.00000  0.05    0.13
Q9    1   0.8166  0.7720  0.5115  11.00000  0.05    0.12
Q10   1   0.5038  0.8374  0.9563  11.00000  0.05    0.12
Q11   1   1.2210  0.4519  1.3157  11.00000  0.05    0.12
Q12   1   0.1814  0.7160  0.2933  11.00000  0.05    0.12
Q13   1   0.8598  0.9054  0.7101  11.00000  0.05    0.12
Q14   1   1.0696  0.4679  0.8408  11.00000  0.05    0.11
Q15   1   1.1675  0.5468  0.8319  11.00000  0.05    0.11
Q16   1   0.3928  0.8894  1.0551  11.00000  0.05    0.11
Q17   1   0.7240  0.8354  0.5647  11.00000  0.05    0.11
Q18   1   0.6538  0.7445  0.3849  11.00000  0.05    0.11
Q19   1   0.0794  0.6046  0.4980  11.00000  0.05    0.11
Q20   1   1.1498  0.5437  1.2294  11.00000  0.05    0.11
Q21   1   1.1966  0.4713  0.7528  11.00000  0.05    0.11
Q22   1   0.7967  0.3418  0.5850  11.00000  0.05    0.11
Q23   1   0.7681  0.6590  0.7827  11.00000  0.05    0.11
Q24   1   0.8851  0.7549  0.3568  11.00000  0.05    0.11
Q25   1   0.3927  0.8214  0.8699  11.00000  0.05    0.11
;
_shelx_res_checksum              58980
loop_
_space_group_symop_operation_xyz
'x, y, z'
'-x, y+1/2, -z'
loop_
_atom_site_type_symbol
_atom_site_label
_atom_site_fract_x
_atom_site_fract_y
_atom_site_fract_z
_atom_site_U_iso_or_equiv
_atom_site_adp_type
_atom_site_calc_flag
_atom_site_occupancy
Cl Cl1 0.36571(8) 0.90075(4) 0.92401(5) 0.02062(13) Uani d 1
O O1 1.1145(3) 0.51257(16) 0.77258(18) 0.0258(3) Uani d 1
O O2 0.8130(3) 0.48931(15) 0.52673(18) 0.0237(3) Uani d 1
O O3 0.8617(3) 0.83494(16) 0.56812(17) 0.0269(3) Uani d 1
O O1W 1.1611(3) 0.58702(15) 1.1607(2) 0.0242(3) Uani d 1
H H1W 1.275(4) 0.528(2) 1.142(3) 0.029 Uiso d 1
H H2W 1.034(4) 0.532(2) 1.170(3) 0.029 Uiso d 1
N N1 0.8288(3) 0.71004(16) 0.8685(2) 0.0162(3) Uani d 1
H H1N 0.699(4) 0.758(2) 0.902(3) 0.019 Uiso d 1
H H2N 0.936(4) 0.764(2) 0.827(3) 0.019 Uiso d 1
H H3N 0.927(4) 0.664(2) 0.957(2) 0.019 Uiso d 1
N N2 0.5625(4) 0.78473(17) 0.3247(2) 0.0218(4) Uani d 1
C C1 0.8969(4) 0.53507(18) 0.6792(2) 0.0153(3) Uani d 1
C C2 0.6864(4) 0.61977(17) 0.7318(2) 0.0140(3) Uani d 1
H H1 0.5703 0.5597 0.7813 0.017 Uiso calc 1
C C3 0.5009(4) 0.69279(18) 0.5859(2) 0.0162(3) Uani d 1
H H2 0.3900 0.6278 0.5091 0.019 Uiso calc 1
H H3 0.3765 0.7499 0.6304 0.019 Uiso calc 1
C C4 0.6548(4) 0.77587(19) 0.4888(2) 0.0170(4) Uani d 1
H H1H 0.936(6) 0.437(3) 0.503(5) 0.067(11) Uiso d 1
H H4N 0.643(4) 0.8399(19) 0.266(3) 0.019(6) Uiso d 1
H H5N 0.423(4) 0.736(2) 0.273(3) 0.023(6) Uiso d 1
loop_
_atom_site_aniso_label
_atom_site_aniso_U_11
_atom_site_aniso_U_22
_atom_site_aniso_U_33
_atom_site_aniso_U_12
_atom_site_aniso_U_13
_atom_site_aniso_U_23
Cl1 0.01624(19) 0.0241(2) 0.0209(2) 0.00077(17) 0.00325(14) -0.00539(18)
O1 0.0182(7) 0.0346(8) 0.0224(7) 0.0096(6) 0.0008(5) -0.0059(6)
O2 0.0211(7) 0.0281(8) 0.0204(7) 0.0067(6) 0.0020(5) -0.0079(6)
O3 0.0222(7) 0.0359(8) 0.0199(7) -0.0128(6) 0.0000(6) 0.0078(6)
O1W 0.0252(8) 0.0200(7) 0.0270(8) -0.0019(6) 0.0051(6) -0.0003(6)
N1 0.0150(8) 0.0182(8) 0.0156(8) 0.0008(6) 0.0040(6) -0.0019(6)
N2 0.0265(9) 0.0217(8) 0.0163(7) -0.0029(7) 0.0034(7) 0.0011(6)
C1 0.0149(8) 0.0149(8) 0.0168(8) -0.0014(6) 0.0052(6) 0.0014(6)
C2 0.0123(8) 0.0149(8) 0.0152(8) -0.0006(6) 0.0039(6) -0.0007(6)
C3 0.0129(8) 0.0186(8) 0.0166(8) 0.0004(7) 0.0026(6) 0.0023(7)
C4 0.0168(8) 0.0163(8) 0.0183(8) 0.0023(6) 0.0046(7) 0.0023(6)
loop_
_atom_type_symbol
_atom_type_description
_atom_type_scat_dispersion_real
_atom_type_scat_dispersion_imag
_atom_type_scat_source
Cl Cl 0.1484 0.1585 'International Tables Vol C Tables 4.2.6.8 and 6.1.1.4'
O O 0.0106 0.0060 'International Tables Vol C Tables 4.2.6.8 and 6.1.1.4'
N N 0.0061 0.0033 'International Tables Vol C Tables 4.2.6.8 and 6.1.1.4'
C C 0.0033 0.0016 'International Tables Vol C Tables 4.2.6.8 and 6.1.1.4'
H H 0.0000 0.0000 'International Tables Vol C Tables 4.2.6.8 and 6.1.1.4'
loop_
_geom_angle_atom_site_label_1
_geom_angle_atom_site_label_2
_geom_angle_atom_site_label_3
_geom_angle
C1 O2 H1H 110(3)
H1W O1W H2W 97(3)
C2 N1 H1N 107.3(15)
C2 N1 H2N 108.8(17)
H1N N1 H2N 110(2)
C2 N1 H3N 111.2(16)
H1N N1 H3N 109(2)
H2N N1 H3N 110(2)
C4 N2 H4N 119.5(15)
C4 N2 H5N 119.9(17)
H4N N2 H5N 121(2)
O1 C1 O2 125.44(17)
O1 C1 C2 122.06(16)
O2 C1 C2 112.48(15)
N1 C2 C1 108.17(14)
N1 C2 C3 112.85(15)
C1 C2 C3 113.57(15)
N1 C2 H1 107.3
C1 C2 H1 107.3
C3 C2 H1 107.3
C4 C3 C2 112.56(15)
C4 C3 H2 109.1
C2 C3 H2 109.1
C4 C3 H3 109.1
C2 C3 H3 109.1
H2 C3 H3 107.8
O3 C4 N2 123.25(18)
O3 C4 C3 118.34(16)
N2 C4 C3 118.40(17)
loop_
_geom_bond_atom_site_label_1
_geom_bond_atom_site_label_2
_geom_bond_distance
O1 C1 1.209(2)
O2 C1 1.305(2)
O2 H1H 0.876(13)
O3 C4 1.251(2)
O1W H1W 0.869(13)
O1W H2W 0.868(13)
N1 C2 1.493(2)
N1 H1N 0.913(13)
N1 H2N 0.891(13)
N1 H3N 0.901(12)
N2 C4 1.317(2)
N2 H4N 0.897(12)
N2 H5N 0.882(13)
C1 C2 1.515(2)
C2 C3 1.527(2)
C2 H1 1.0000
C3 C4 1.502(3)
C3 H2 0.9900
C3 H3 0.9900
loop_
_geom_hbond_atom_site_label_D
_geom_hbond_atom_site_label_H
_geom_hbond_atom_site_label_A
_geom_hbond_site_symmetry_A
_geom_hbond_distance_DH
_geom_hbond_distance_HA
_geom_hbond_distance_DA
_geom_hbond_angle_DHA
O2 H1H O3 2_746 0.876(13) 1.662(15) 2.533(2) 172(4)
N1 H1N Cl1 . 0.913(13) 2.273(14) 3.1663(17) 166(2)
N1 H2N Cl1 1_655 0.891(13) 2.555(18) 3.2909(17) 140(2)
N1 H2N O3 . 0.891(13) 2.19(2) 2.809(2) 126(2)
N1 H3N O1W . 0.901(12) 1.971(13) 2.867(2) 172(2)
N2 H4N Cl1 1_554 0.897(12) 2.89(2) 3.4056(17) 118.2(17)
N2 H4N O1 2_756 0.897(12) 2.209(15) 3.051(2) 156(2)
N2 H5N O1W 1_454 0.882(13) 2.083(14) 2.949(2) 167(2)
O1W H1W Cl1 2_747 0.869(13) 2.407(14) 3.2650(18) 169(2)
O1W H2W Cl1 2_647 0.868(13) 2.402(16) 3.2184(17) 157(2)
loop_
_geom_torsion_atom_site_label_1
_geom_torsion_atom_site_label_2
_geom_torsion_atom_site_label_3
_geom_torsion_atom_site_label_4
_geom_torsion
O1 C1 C2 N1 24.6(2)
O2 C1 C2 N1 -156.61(16)
O1 C1 C2 C3 150.72(17)
O2 C1 C2 C3 -30.5(2)
N1 C2 C3 C4 68.1(2)
C1 C2 C3 C4 -55.4(2)
C2 C3 C4 O3 -37.7(2)
C2 C3 C4 N2 143.49(18)

_cod_database_fobs_code 2242680
