#------------------------------------------------------------------------------
#$Date: 2017-07-25 12:41:37 +0300 (Tue, 25 Jul 2017) $
#$Revision: 199165 $
#$URL: file:///home/coder/svn-repositories/cod/cif/2/24/21/2242198.cif $
#------------------------------------------------------------------------------
#
# This file is available in the Crystallography Open Database (COD),
# http://www.crystallography.net/. The original data for this entry
# were provided by IUCr Journals, http://journals.iucr.org/.
#
# The file may be used within the scientific community so long as
# proper attribution is given to the journal article from which the
# data were obtained.
#
data_2242198
loop_
_publ_author_name
'Shakuntala, K.'
'Naveen, S.'
'Lokanath, N. K.'
'Suchetan, P. A.'
_publ_section_title
;
 Crystal structures of isomeric
 3,5-dichloro-<i>N</i>-(2,3-dimethylphenyl)benzenesulfonamide,
 3,5-dichloro-<i>N</i>-(2,6-dimethylphenyl)benzenesulfonamide and
 3,5-dichloro-<i>N</i>-(3,5-dimethylphenyl)benzenesulfonamide
;
_journal_issue                   5
_journal_name_full               'Acta Crystallographica Section E'
_journal_page_first              673
_journal_page_last               677
_journal_paper_doi               10.1107/S2056989017005230
_journal_volume                  73
_journal_year                    2017
_chemical_formula_iupac          'C14 H13 Cl2 N O2 S'
_chemical_formula_moiety         'C14 H13 Cl2 N O2 S'
_chemical_formula_sum            'C14 H13 Cl2 N O2 S'
_chemical_formula_weight         330.21
_chemical_melting_point          445
_chemical_name_systematic
;
3,5-Dichloro-<i>N</i>-(2,6-dimethylphenyl)benzenesulfonamide
;
_space_group_crystal_system      triclinic
_space_group_IT_number           2
_space_group_name_Hall           '-P 1'
_space_group_name_H-M_alt        'P -1'
_symmetry_space_group_name_Hall  '-P 1'
_symmetry_space_group_name_H-M   'P -1'
_atom_sites_solution_hydrogens   mixed
_audit_creation_method           SHELXL-2016/4
_cell_angle_alpha                109.875(5)
_cell_angle_beta                 91.900(5)
_cell_angle_gamma                114.190(5)
_cell_formula_units_Z            2
_cell_length_a                   8.4817(15)
_cell_length_b                   8.6149(15)
_cell_length_c                   12.167(2)
_cell_measurement_reflns_used    127
_cell_measurement_temperature    100(2)
_cell_measurement_theta_max      63.7
_cell_measurement_theta_min      7.7
_cell_volume                     747.1(2)
_computing_cell_refinement
;
APEX2 (Bruker, 2009) and SAINT-Plus (Bruker, 2009)
;
_computing_data_collection
;
APEXII (Bruker, 2009)
;
_computing_data_reduction
;
SAINT-Plus (Bruker, 2009) and XPREP (Bruker, 2009)
;
_computing_molecular_graphics
;
Mercury (Macrae <i>et al.</i>,  2008)
;
_computing_publication_material
;
<i>SHELXL2016/4</i> (Sheldrick, 2015b)
;
_computing_structure_refinement
;
<i>SHELXL2016/4</i> (Sheldrick, 2015b)
;
_computing_structure_solution
;
SHELXT 2016/4 (Sheldrick, 2015a)
;
_diffrn_ambient_temperature      100(2)
_diffrn_measured_fraction_theta_full 0.978
_diffrn_measured_fraction_theta_max 0.978
_diffrn_measurement_device_type  'Bruker APEXII CCD area detector'
_diffrn_measurement_method       'phi and \f scans'
_diffrn_radiation_monochromator  graphite
_diffrn_radiation_type           CuK\a
_diffrn_radiation_wavelength     1.54178
_diffrn_reflns_av_R_equivalents  0.1238
_diffrn_reflns_limit_h_max       9
_diffrn_reflns_limit_h_min       -9
_diffrn_reflns_limit_k_max       9
_diffrn_reflns_limit_k_min       -9
_diffrn_reflns_limit_l_max       14
_diffrn_reflns_limit_l_min       -14
_diffrn_reflns_number            6977
_diffrn_reflns_theta_full        63.684
_diffrn_reflns_theta_max         63.684
_diffrn_reflns_theta_min         7.686
_exptl_absorpt_coefficient_mu    5.220
_exptl_absorpt_correction_T_max  0.317
_exptl_absorpt_correction_T_min  0.275
_exptl_absorpt_correction_type   multi-scan
_exptl_absorpt_process_details
;
(SADABS; Bruker, 2009)
;
_exptl_crystal_colour            Colourless
_exptl_crystal_density_diffrn    1.468
_exptl_crystal_description       Prism
_exptl_crystal_F_000             340
_exptl_crystal_size_max          0.290
_exptl_crystal_size_mid          0.260
_exptl_crystal_size_min          0.220
_refine_diff_density_max         0.993
_refine_diff_density_min         -0.598
_refine_ls_extinction_method     none
_refine_ls_goodness_of_fit_ref   1.018
_refine_ls_hydrogen_treatment    mixed
_refine_ls_matrix_type           full
_refine_ls_number_parameters     187
_refine_ls_number_reflns         2400
_refine_ls_number_restraints     1
_refine_ls_restrained_S_all      1.018
_refine_ls_R_factor_all          0.1489
_refine_ls_R_factor_gt           0.0740
_refine_ls_shift/su_max          0.000
_refine_ls_shift/su_mean         0.000
_refine_ls_structure_factor_coef Fsqd
_refine_ls_weighting_details
'w=1/[\s^2^(Fo^2^)+(0.1757P)^2^+0.6254P] where P=(Fo^2^+2Fc^2^)/3'
_refine_ls_weighting_scheme      calc
_refine_ls_wR_factor_gt          0.2218
_refine_ls_wR_factor_ref         0.2325
_reflns_number_gt                1960
_reflns_number_total             2400
_reflns_threshold_expression     'I > 2\s(I)'
_cod_data_source_file            rz5211sup1.cif
_cod_data_source_block           II
_cod_database_code               2242198
_shelx_space_group_comment
;
The symmetry employed for this shelxl refinement is uniquely defined
by the following loop, which should always be used as a source of
symmetry information in preference to the above space-group names.
They are only intended as comments.
;
_shelx_estimated_absorpt_t_min   0.313
_shelx_estimated_absorpt_t_max   0.393
_shelx_hkl_file
;
  -2   0   0  792.07   57.12
  -3   0   0  116.90    9.19
  -3   0   0  134.71    9.45
  -4   0   0   74.52    5.30
  -4   0   0   71.01    5.50
  -5   0   0    1.57    0.19
   5   0   0    1.11    0.40
   5   0   0    1.55    0.14
   5   0   0    1.43    0.16
   5   0   0    1.32    0.14
   5   0   0    1.50    0.17
  -6   0   0    1.94    0.24
   6   0   0    1.62    0.20
   6   0   0    1.08    0.46
   6   0   0    1.99    0.17
   7   0   0   11.18    1.36
  -8   0   0    0.26    0.13
   8   0   0    0.20    0.06
   8   0   0    0.36    0.10
   9  -1   0    0.04    0.05
   9  -1   0    0.01    0.04
   8  -1   0   33.83    2.36
   8  -1   0   30.32    2.31
  -8   1   0   30.25    2.40
   7  -1   0    1.36    0.50
   7  -1   0    1.12    0.17
   7  -1   0    1.47    0.16
  -7   1   0    1.63    0.23
   6  -1   0    2.78    0.28
   6  -1   0    2.90    0.24
   6  -1   0    2.53    0.27
   6  -1   0    2.87    0.25
  -6   1   0    2.68    0.29
   5  -1   0   70.29    4.88
   5  -1   0   65.84    4.86
   5  -1   0   67.03    4.91
   5  -1   0   69.54    4.86
   5  -1   0   67.33    4.89
  -5   1   0   70.61    4.90
  -5   1   0   59.60    5.13
  -4   1   0    4.28    0.48
   3  -1   0    1.49    0.22
  -3   1   0    1.33    0.19
  -3   1   0    1.55    0.31
   2  -1   0  127.91    9.52
  -2   1   0  135.75    9.57
  -1  -1   0  185.06   12.71
   1   1   0  164.62   12.80
  -2  -1   0    6.72    0.80
  -2  -1   0    6.82    0.64
   2   1   0    5.27    0.73
   4   1   0   26.17    2.12
   4   1   0   22.43    1.74
   4   1   0   23.27    1.74
  -5  -1   0   28.86    2.40
   5   1   0   29.17    2.32
   5   1   0   33.78    2.36
   5   1   0   35.99    2.88
  -6  -1   0    0.23    0.11
   6   1   0    0.41    0.08
   6   1   0    0.16    0.28
   6   1   0    0.28    0.09
  -7  -1   0    4.16    0.42
   7   1   0    3.15    0.74
   7   1   0    3.71    0.36
   8   1   0    0.49    0.11
   9  -2   0    0.27    0.06
   9  -2   0    0.32    0.09
   8  -2   0    2.31    0.25
   8  -2   0    2.16    0.21
   7  -2   0    0.80    0.14
   7  -2   0    0.65    0.13
  -7   2   0    0.66    0.17
   6  -2   0    3.41    0.28
   6  -2   0    3.71    0.32
   6  -2   0    3.34    0.30
   6  -2   0    3.21    0.28
   6  -2   0    3.22    0.34
  -6   2   0    2.77    0.34
   5  -2   0    8.97    0.67
   5  -2   0    8.28    0.69
   5  -2   0    9.20    0.67
   5  -2   0    9.93    0.73
   5  -2   0    9.06    0.68
  -5   2   0    7.64    0.80
  -4   2   0    0.90    0.15
  -3   2   0   11.55    2.60
  -2   2   0   10.14    2.32
   1  -2   0   27.59    2.19
   1  -2   0   28.59    2.12
  -1   2   0   29.03    2.13
   0  -2   0   86.90    6.67
   0  -2   0   90.32    6.54
   0   2   0   90.23    6.56
  -1  -2   0   27.47    2.17
   1   2   0   27.53    2.34
   1   2   0   26.72    2.19
  -2  -2   0   63.23    4.86
   2   2   0   63.98    5.15
  -3  -2   0    0.97    0.15
  -3  -2   0    0.98    0.35
   3   2   0    1.11    0.28
   3   2   0    1.00    0.12
  -4  -2   0    2.82    0.32
   4   2   0    2.78    0.27
  -5  -2   0    9.29    0.78
   5   2   0    8.06    0.69
  -6  -2   0    8.07    0.75
  -7  -2   0   11.60    1.06
   7   2   0   13.14    1.48
   7   2   0   13.92    1.01
   9  -3   0    0.06    0.05
   9  -3   0    0.03    0.04
   8  -3   0    1.36    0.19
   8  -3   0    1.08    0.16
   7  -3   0   18.81    1.41
   6  -3   0    4.73    0.38
   6  -3   0    4.73    0.43
   6  -3   0    4.40    0.39
   6  -3   0    4.39    0.38
   5  -3   0   48.69    3.63
   5  -3   0   53.89    3.69
   5  -3   0   47.81    3.65
   5  -3   0   50.49    3.64
   5  -3   0   49.68    3.64
   4  -3   0   24.08    1.79
  -3   3   0  587.57   47.06
   2  -3   0   15.47    1.07
   2  -3   0   12.67    1.11
  -2   3   0   13.80    1.11
   1  -3   0  186.11   14.50
  -1   3   0  214.19   14.66
   0  -3   0  188.97   14.75
   0   3   0  199.05   14.80
   0   3   0  220.24   15.00
  -1  -3   0   48.97    3.54
   1   3   0   38.53    3.27
   1   3   0   48.35    3.84
  -2  -3   0  124.48    8.77
  -2  -3   0  136.07    9.11
   2   3   0  102.13    9.39
   2   3   0  119.59    8.72
  -3  -3   0   13.21    1.05
   3   3   0   11.89    0.99
   3   3   0   13.96    1.31
  -4  -3   0    2.15    0.28
   4   3   0    1.71    0.21
   5   3   0    2.41    0.25
  -6  -3   0    1.45    0.28
   6   3   0    1.90    0.20
   9  -4   0    2.83    0.28
   9  -4   0    2.77    0.29
   9  -4   0    3.29    0.28
   8  -4   0   35.13    2.68
   8  -4   0   37.50    2.69
   7  -4   0   32.77    2.75
   7  -4   0   38.25    2.77
   7  -4   0   41.65    2.77
   6  -4   0   15.83    1.10
   6  -4   0   12.11    1.13
   6  -4   0   15.25    1.09
   6  -4   0   14.46    1.10
   5  -4   0   19.13    1.42
   5  -4   0   18.21    1.42
   5  -4   0   18.79    1.41
   5  -4   0   21.51    1.46
   5  -4   0   18.01    1.42
   4  -4   0   -0.07    0.04
   4  -4   0   -0.05    0.04
   4  -4   0   -0.05    0.03
   3  -4   0   48.98    3.58
  -2   4   0   86.17    6.45
  -1   4   0   89.30    6.65
  -1   4   0   83.15    6.21
   0  -4   0   25.07    2.00
   0  -4   0   26.97    2.07
   0   4   0   28.64    1.98
   0   4   0   26.76    2.19
  -1  -4   0   52.44    4.20
   1   4   0   58.00    4.35
   1   4   0   59.80    4.13
  -2  -4   0    9.59    0.75
   2   4   0    7.99    0.69
   2   4   0    8.56    0.94
   2   4   0    8.87    1.06
  -3  -4   0   15.99    1.32
   3   4   0   16.74    1.26
  -4  -4   0   13.37    1.09
   4   4   0   12.23    1.02
  -5  -4   0    2.28    0.32
   5   4   0    2.04    0.59
   5   4   0    2.14    0.23
   6   4   0    0.10    0.23
   9  -5   0    2.68    0.25
   9  -5   0    2.56    0.27
   8  -5   0    0.57    0.10
   8  -5   0    0.46    0.11
   8  -5   0    0.54    0.11
   8  -5   0    0.98    0.20
   7  -5   0   33.74    2.39
   7  -5   0   33.34    2.39
   7  -5   0   30.01    2.38
   6  -5   0   30.12    2.10
   6  -5   0   28.70    2.09
   6  -5   0   28.40    2.10
   6  -5   0   26.19    2.09
   5  -5   0   20.32    1.43
   5  -5   0   16.86    1.41
   5  -5   0   19.80    1.46
   5  -5   0   18.13    1.41
   5  -5   0   19.83    1.42
   4  -5   0   15.96    1.18
   4  -5   0   17.28    1.19
   4  -5   0   13.77    1.17
   4  -5   0   15.87    1.21
   3  -5   0   34.29    2.54
   3  -5   0   34.78    2.63
   3  -5   0   36.74    2.52
   3  -5   0   31.61    2.52
   3  -5   0   34.27    2.52
   2  -5   0   17.49    1.35
   2  -5   0   16.83    1.35
   2  -5   0   18.79    1.34
   2  -5   0   18.86    1.45
   2  -5   0   17.99    1.36
  -2   5   0   19.07    1.66
  -2   5   0   17.30    1.33
   1  -5   0   41.31    3.14
   1  -5   0   40.61    3.11
   1  -5   0   42.11    3.13
   1  -5   0   43.77    3.23
  -1   5   0   45.52    3.11
   0  -5   0    8.72    0.76
   0  -5   0   10.02    0.86
   0  -5   0    9.08    0.77
   0   5   0    9.29    0.97
   0   5   0   11.07    0.76
  -1  -5   0    0.61    0.17
  -1  -5   0    0.63    0.13
   1   5   0    0.24    0.08
   2   5   0    1.30    0.51
   3   5   0    7.36    0.98
   4   5   0    5.29    0.53
   4   5   0    6.46    0.49
  -5  -5   0    4.07    0.32
   5   5   0    2.77    0.60
   9  -6   0    1.04    0.16
   9  -6   0    1.12    0.14
   8  -6   0    1.72    0.19
   8  -6   0    1.78    0.20
   8  -6   0    1.93    0.27
   7  -6   0    0.44    0.10
   7  -6   0    0.52    0.11
   7  -6   0    0.34    0.12
   7  -6   0    0.54    0.11
   6  -6   0    0.02    0.04
   6  -6   0    0.01    0.05
   6  -6   0    0.00    0.05
   5  -6   0   16.67    1.24
   5  -6   0   16.09    1.23
   5  -6   0   16.17    1.28
   4  -6   0    6.46    0.53
   4  -6   0    6.54    0.56
   4  -6   0    6.44    0.52
   3  -6   0    6.13    0.49
   3  -6   0    5.72    0.49
   3  -6   0    5.67    0.51
   3  -6   0    6.23    0.61
   2  -6   0   72.52    5.73
   2  -6   0   72.10    5.71
   2  -6   0   76.59    5.74
   2  -6   0   81.12    5.86
   2  -6   0   79.34    5.71
  -2   6   0   89.12    6.01
  -2   6   0   79.83    5.71
   1  -6   0   28.02    2.13
   1  -6   0   27.66    2.14
   1  -6   0   25.98    2.11
   1  -6   0   29.45    2.26
  -1   6   0   32.00    2.13
   0  -6   0   15.45    1.31
   0  -6   0   16.35    1.20
   0  -6   0   14.57    1.30
  -2  -6   0    4.02    0.38
   2   6   0    4.31    0.41
  -3  -6   0    0.06    0.06
   3   6   0    0.01    0.08
   3   6   0    0.21    0.24
   8  -7   0    5.39    0.45
   8  -7   0    5.69    0.52
   7  -7   0    0.50    0.14
   7  -7   0    0.47    0.10
   7  -7   0    0.42    0.10
   6  -7   0    0.26    0.08
   6  -7   0    0.31    0.08
   6  -7   0    0.25    0.10
   5  -7   0    0.07    0.05
   5  -7   0    0.06    0.05
   5  -7   0    0.10    0.07
   3  -7   0    4.87    0.44
   3  -7   0    4.56    0.41
   3  -7   0    4.86    0.41
   2  -7   0    0.27    0.08
   2  -7   0    0.37    0.09
   2  -7   0    0.37    0.11
  -2   7   0    0.46    0.23
  -2   7   0    0.28    0.10
   1  -7   0    1.67    0.28
   1  -7   0    1.56    0.19
  -1   7   0    1.73    0.20
   0  -7   0   17.85    1.43
   0   7   0   18.80    1.46
   0   7   0   21.29    2.04
   0   7   0   18.82    1.80
  -1  -7   0    0.39    0.09
   1   7   0    0.47    0.12
   1   7   0    0.65    0.40
   1   7   0    0.50    0.28
   2   7   0    2.82    0.82
   2   7   0    2.37    0.54
   8  -8   0   50.55    3.72
   7  -8   0   13.90    1.05
   7  -8   0   14.46    1.10
   7  -8   0   13.11    1.04
   6  -8   0   36.56    2.61
   6  -8   0   32.27    2.55
   6  -8   0   35.59    2.56
   5  -8   0    0.71    0.12
   5  -8   0    0.41    0.09
   5  -8   0    0.24    0.10
   4  -8   0   19.87    1.47
   4  -8   0   18.86    1.43
   4  -8   0   18.31    1.42
   3  -8   0    6.63    0.55
   3  -8   0    7.09    0.56
   2  -8   0    0.24    0.07
   2  -8   0    0.07    0.05
  -2   8   0    0.02    0.08
   0  -8   0    3.22    0.27
   0   8   0    2.73    0.31
   6  -9   0    0.38    0.08
   5  -9   0   28.83    1.94
   5  -9   0   23.71    1.95
   4  -9   0    0.42    0.08
   4  -9   0    0.42    0.08
  -4   9   0    0.17    0.23
   3  -9   0   17.03    1.27
   3  -9   0   16.33    1.27
  -3   9   0   18.56    1.72
  -2   9   0    1.40    0.48
  -1   9  -1   12.55    1.39
  -2   9  -1    0.93    0.38
   3  -9   1   28.82    2.12
   4  -9   1    0.89    0.12
   5  -9   1   22.08    1.64
   6  -9   1    1.27    0.15
   7  -9   1    2.67    0.24
   1   8  -1    0.31    0.26
   1   8  -1    0.28    0.38
  -1  -8   1    0.12    0.05
   0   8  -1    0.37    0.25
   0   8  -1    0.50    0.35
  -1   8  -1    9.78    0.81
  -1   8  -1   10.92    1.11
   1  -8   1    9.89    0.79
  -2   8  -1    0.84    0.15
   2  -8   1    0.62    0.11
   2  -8   1    0.60    0.11
  -3   8  -1    8.77    0.97
   3  -8   1    8.84    0.72
   3  -8   1    9.87    0.73
   4  -8   1    6.24    0.63
   4  -8   1    6.30    0.51
   5  -8   1   12.66    0.99
   5  -8   1   13.28    1.04
   6  -8   1    1.09    0.14
   6  -8   1    1.09    0.18
   7  -8   1    1.47    0.21
   7  -8   1    1.43    0.16
   8  -8   1   13.76    1.08
   2   7  -1    1.20    0.39
   2   7  -1    0.56    0.13
  -2  -7   1    0.58    0.11
   1   7  -1    2.97    0.31
  -1  -7   1    3.17    0.39
  -1  -7   1    3.35    0.30
   0   7  -1    3.84    0.35
   0  -7   1    3.58    0.34
   0  -7   1    3.59    0.44
  -1   7  -1   15.45    1.15
  -1   7  -1   16.91    1.50
   1  -7   1   15.62    1.15
   1  -7   1   14.57    1.14
   1  -7   1   12.72    1.26
  -2   7  -1   16.13    1.24
  -2   7  -1   17.02    1.55
   2  -7   1   15.65    1.24
   2  -7   1   16.71    1.24
   3  -7   1   21.09    1.58
   3  -7   1   20.60    1.58
   3  -7   1   20.54    1.55
   4  -7   1   19.49    1.50
   4  -7   1   19.10    1.47
   4  -7   1   20.52    1.52
   5  -7   1    6.12    0.54
   5  -7   1    7.51    0.59
   5  -7   1    6.53    0.53
   5  -7   1    5.81    0.53
   6  -7   1   64.27    4.47
   6  -7   1   62.62    4.42
   6  -7   1   55.92    4.42
   6  -7   1   59.33    4.40
   7  -7   1    0.72    0.12
   7  -7   1    0.67    0.11
   7  -7   1    0.91    0.18
   8  -7   1   22.35    1.78
   8  -7   1   25.66    1.85
   4   6  -1    0.70    0.35
   4   6  -1    0.11    0.06
  -4  -6   1    0.15    0.06
   3   6  -1    0.89    0.41
   3   6  -1    1.07    0.19
  -3  -6   1    1.24    0.16
   2   6  -1   23.14    2.39
   2   6  -1   26.19    1.89
  -2  -6   1   24.76    1.87
  -1  -6   1   19.59    1.60
  -1  -6   1   19.64    1.50
   0  -6   1   64.05    4.70
   0  -6   1   61.21    4.58
  -1   6  -1  116.70    8.82
  -1   6  -1  140.31    9.18
   1  -6   1  126.43    8.98
   1  -6   1  114.40    8.82
   1  -6   1  113.08    8.83
  -2   6  -1   79.53    5.72
   2  -6   1   71.55    5.73
   2  -6   1   83.04    5.74
   2  -6   1   73.76    5.75
   2  -6   1   80.14    5.76
   2  -6   1   86.43    5.89
   3  -6   1   34.72    2.62
   3  -6   1   34.76    2.64
   3  -6   1   35.91    2.64
   3  -6   1   37.88    2.63
   3  -6   1   35.24    2.75
   4  -6   1    3.18    0.28
   4  -6   1    2.97    0.28
   4  -6   1    2.76    0.29
   4  -6   1    2.77    0.26
   5  -6   1   29.65    2.13
   5  -6   1   30.80    2.17
   5  -6   1   26.17    2.13
   5  -6   1   28.43    2.12
   6  -6   1   13.81    1.04
   6  -6   1   13.07    1.04
   6  -6   1   13.11    1.03
   6  -6   1   13.50    1.03
   6  -6   1   14.06    1.09
   7  -6   1    0.64    0.13
   7  -6   1    0.96    0.13
   7  -6   1    0.54    0.16
   7  -6   1    0.94    0.14
   8  -6   1   10.22    0.83
   8  -6   1   11.05    0.83
   8  -6   1   10.17    0.83
   8  -6   1   11.20    0.90
   9  -6   1    8.81    0.69
   4   5  -1    0.82    0.16
   4   5  -1    0.42    0.31
   2   5  -1    0.27    0.08
   2   5  -1    0.33    0.30
   2   5  -1    0.32    0.21
  -2  -5   1    0.59    0.17
   0   5  -1    0.33    0.07
  -1   5  -1   19.21    1.25
   1  -5   1   18.03    1.36
   1  -5   1   15.62    1.24
   1  -5   1   17.59    1.27
   1  -5   1   14.45    1.25
   1  -5   1   15.30    1.25
  -2   5  -1   13.11    1.20
  -2   5  -1   12.48    0.96
   2  -5   1   14.26    0.98
   2  -5   1   11.91    0.98
   2  -5   1   12.50    0.99
   2  -5   1   13.01    0.99
   2  -5   1   13.88    1.09
   3  -5   1   20.06    1.40
   3  -5   1   18.33    1.40
   3  -5   1   18.35    1.39
   3  -5   1   17.70    1.41
   3  -5   1   19.60    1.50
   4  -5   1   59.62    4.52
   4  -5   1   61.40    4.54
   4  -5   1   63.77    4.51
   4  -5   1   58.99    4.51
   4  -5   1   67.15    4.52
   5  -5   1    7.82    0.64
   5  -5   1    7.40    0.60
   5  -5   1    8.39    0.62
   5  -5   1    7.31    0.61
   5  -5   1    7.60    0.60
   6  -5   1   27.26    1.97
   6  -5   1   28.90    1.98
   6  -5   1   27.88    1.99
   6  -5   1   22.85    2.02
   7  -5   1    6.43    0.52
   7  -5   1    6.11    0.52
   7  -5   1    6.29    0.51
   8  -5   1    6.95    0.58
   8  -5   1    7.84    0.58
   8  -5   1    6.77    0.64
   8  -5   1    6.64    0.57
   9  -5   1    0.36    0.08
   9  -5   1    0.34    0.09
   9  -5   1    0.26    0.08
   5   4  -1    0.96    0.14
   5   4  -1    1.78    0.58
  -5  -4   1    0.95    0.22
   4   4  -1    8.20    0.66
   4   4  -1    6.49    1.01
  -4  -4   1    9.10    0.75
   3   4  -1    3.24    0.30
  -3  -4   1    2.90    0.34
   2   4  -1    2.89    0.27
  -2  -4   1    3.02    0.32
  -2  -4   1    2.94    0.34
   1   4  -1   12.88    0.86
  -1  -4   1   10.16    0.88
  -1  -4   1   11.15    1.14
  -1  -4   1   10.16    0.91
   0  -4   1    1.01    0.30
  -1   4  -1    4.15    0.57
  -2   4  -1   18.12    1.46
   4  -4   1    2.12    0.25
   4  -4   1    2.39    0.22
   5  -4   1   11.31    0.85
   5  -4   1   10.51    0.86
   5  -4   1   11.15    0.87
   5  -4   1   12.40    0.90
   5  -4   1   11.17    0.85
   6  -4   1   23.29    1.70
   6  -4   1   22.66    1.70
   6  -4   1   22.89    1.72
   7  -4   1    0.22    0.10
   7  -4   1    0.03    0.03
   7  -4   1    0.04    0.06
   7  -4   1    0.05    0.05
   8  -4   1   17.95    1.37
   8  -4   1   18.01    1.37
   9  -4   1    3.32    0.30
   9  -4   1    3.38    0.31
   7   3  -1    1.01    0.14
   7   3  -1    1.25    0.44
   6   3  -1   12.04    1.50
   6   3  -1   12.34    0.98
  -6  -3   1   13.25    1.08
   4   3  -1    6.77    0.54
  -4  -3   1    6.18    0.61
   3   3  -1   20.82    1.55
   3   3  -1   17.41    1.80
  -3  -3   1   24.39    1.63
   2   3  -1   76.17    5.83
  -2  -3   1   85.32    6.19
   1   3  -1  177.53   13.83
   1   3  -1  179.24   13.36
  -1  -3   1  199.88   13.61
   0   3  -1  114.98    8.23
   0  -3   1  107.92    8.19
  -1   3  -1    8.92    0.74
   1  -3   1    7.81    0.72
  -2   3  -1   74.41    5.41
  -3   3  -1   77.18    9.22
   4  -3   1    0.55    0.09
   5  -3   1    8.41    0.66
   5  -3   1    8.32    0.68
   5  -3   1    7.94    0.94
   5  -3   1    8.71    0.66
   5  -3   1    9.46    0.71
   6  -3   1   27.49    2.35
   6  -3   1   27.67    1.98
   6  -3   1   24.81    2.02
   6  -3   1   28.14    1.97
   6  -3   1   25.56    1.99
   7  -3   1    3.16    0.31
   7  -3   1    3.15    0.31
   8  -3   1    1.70    0.21
   8  -3   1    1.59    0.20
   9  -3   1   11.17    0.87
   9  -3   1   11.52    0.89
   7   2  -1   10.23    0.77
  -7  -2   1    8.64    0.82
   6   2  -1   56.99    4.30
   6   2  -1   60.36    4.94
   5   2  -1    0.10    0.21
  -5  -2   1    0.17    0.09
   4   2  -1    6.87    0.53
   4   2  -1    6.73    0.54
   3   2  -1    0.66    0.09
  -3  -2   1    1.21    0.32
  -3  -2   1    0.96    0.14
  -2  -2   1   15.99    1.39
   1   2  -1  171.24   12.05
  -1  -2   1  158.40   12.00
   0   2  -1    0.17    0.08
   0  -2   1    0.21    0.09
   0  -2   1    0.13    0.10
  -1   2  -1  225.83   16.31
  -2   2  -1    6.21    1.73
  -3   2  -1  229.81   16.44
   3  -2   1  223.89   16.36
  -4   2  -1    0.99    0.18
  -5   2  -1   31.56    2.52
   5  -2   1   33.27    2.52
   5  -2   1   34.73    2.84
   5  -2   1   35.45    2.50
   5  -2   1   35.98    2.54
   5  -2   1   34.28    2.49
  -6   2  -1    0.02    0.07
   6  -2   1    0.06    0.03
   6  -2   1    0.21    0.23
   6  -2   1    0.06    0.05
   6  -2   1    0.07    0.06
  -7   2  -1    8.01    0.70
   7  -2   1    6.57    1.01
   7  -2   1    8.57    0.66
   7  -2   1    8.13    0.63
   8  -2   1   12.06    0.93
   8  -2   1   12.26    0.97
   9  -2   1    0.02    0.04
   9  -2   1   -0.01    0.05
   8   1  -1    0.72    0.12
  -8  -1   1    0.57    0.16
   7   1  -1   18.02    1.51
   7   1  -1   19.32    1.46
  -7  -1   1   22.12    1.59
   6   1  -1    0.28    0.09
   6   1  -1    0.52    0.37
   6   1  -1    0.58    0.09
  -6  -1   1    0.35    0.12
   5   1  -1   69.50    4.82
   5   1  -1   64.22    4.78
   5   1  -1   60.86    4.77
  -5  -1   1   69.95    4.87
   4   1  -1    1.91    0.19
   4   1  -1    1.72    0.15
   4   1  -1    1.32    0.35
   4   1  -1    1.83    0.16
  -4  -1   1    2.18    0.22
  -4  -1   1    1.15    0.34
  -3  -1   1   10.92    1.02
   2   1  -1    0.08    0.10
  -2  -1   1    0.13    0.16
  -2  -1   1    0.21    0.10
   1   1  -1   14.21    1.19
  -1  -1   1   13.44    1.10
  -2   1  -1  311.34   23.11
   2  -1   1  327.41   23.09
  -3   1  -1    0.86    0.17
  -3   1  -1    0.96    0.33
  -4   1  -1   26.11    1.93
  -4   1  -1   22.99    1.76
   4  -1   1   22.04    1.76
  -5   1  -1    0.59    0.12
   5  -1   1    0.70    0.32
   5  -1   1    0.60    0.11
   5  -1   1    0.46    0.10
   5  -1   1    0.56    0.08
  -6   1  -1   29.48    2.16
   6  -1   1   25.72    2.55
   6  -1   1   28.11    2.13
   6  -1   1   29.57    2.12
   6  -1   1   28.74    2.09
  -7   1  -1    1.57    0.23
   7  -1   1    0.84    0.42
   7  -1   1    1.13    0.18
   7  -1   1    1.71    0.16
  -8   1  -1   42.76    3.46
   8  -1   1   44.55    3.37
   8  -1   1   51.77    3.43
   9  -1   1    0.13    0.06
   8   0  -1    2.52    0.24
   8   0  -1    3.12    0.29
  -8   0   1    2.38    0.32
   7   0  -1    0.17    0.07
   7   0  -1    0.12    0.05
  -7   0   1    0.10    0.09
   6   0  -1    3.22    0.27
   6   0  -1    2.58    0.23
   6   0  -1    2.00    0.25
   6   0  -1    2.68    0.22
  -6   0   1    2.37    0.28
   5   0  -1    0.38    0.07
   5   0  -1    0.30    0.08
   5   0  -1    0.37    0.08
   5   0  -1    0.37    0.27
   5   0  -1    0.33    0.06
  -5   0   1    0.34    0.10
  -4   0   1    2.50    0.41
  -3   0   1    4.64    0.63
  -3   0   1    5.02    0.52
   2   0  -1   28.63    2.19
  -1   0  -1  179.22   11.85
   1   0   1  147.48   11.82
  -2   0  -1   21.18    1.74
   2   0   1   23.27    1.89
  -3   0  -1   98.62    7.77
  -3   0  -1  111.50    7.57
   3   0   1   94.59    7.72
  -4   0  -1    2.14    0.22
   4   0   1    1.86    0.19
   4   0   1    1.81    0.18
  -5   0  -1    2.87    0.29
   5   0   1    2.83    0.25
   5   0   1    2.71    0.23
   5   0   1    1.81    0.50
  -6   0  -1    1.12    0.19
   6   0   1    0.99    0.15
   6   0   1    1.34    0.13
   6   0   1    0.55    0.37
  -7   0  -1    8.73    0.70
   7   0   1    5.95    0.61
   7   0   1    7.78    0.58
   7   0   1    7.40    1.09
  -8   0  -1    0.15    0.10
   8   0   1    0.19    0.08
   8   0   1    0.22    0.29
   9  -1  -1    8.10    0.66
   9  -1  -1    8.61    0.65
   8  -1  -1    2.16    0.21
   8  -1  -1    2.29    0.24
  -8   1   1    1.87    0.28
   7  -1  -1    1.48    0.22
   7  -1  -1    2.27    0.24
  -7   1   1    2.32    0.27
   6  -1  -1    0.04    0.06
   6  -1  -1    0.03    0.03
   6  -1  -1    0.05    0.05
   6  -1  -1    0.02    0.03
  -6   1   1    0.02    0.05
   5  -1  -1   74.68    5.48
   5  -1  -1   77.54    5.45
   5  -1  -1   77.49    5.43
   5  -1  -1   78.35    5.43
   5  -1  -1   71.04    5.45
  -5   1   1   71.57    5.45
  -4   1   1   12.66    1.09
   3  -1  -1  181.85   13.26
   3  -1  -1  196.93   13.32
  -3   1   1  177.61   13.23
  -3   1   1  174.24   13.33
   2  -1  -1  117.08    9.19
  -2   1   1  136.70    9.23
  -1   1   1   59.36    4.10
  -1   1   1   52.18    4.15
   0  -1  -1   24.82    1.92
   0   1   1   25.10    1.93
   0   1   1   25.51    2.02
  -1  -1  -1    3.52    0.50
  -1  -1  -1    2.70    0.34
   1   1   1    3.01    0.35
   1   1   1    2.85    0.46
  -2  -1  -1   21.32    1.85
   2   1   1   23.73    2.07
  -3  -1  -1    4.01    0.34
   3   1   1    3.16    0.31
  -4  -1  -1    4.67    0.40
   4   1   1    3.34    0.59
  -5  -1  -1    0.36    0.12
   5   1   1    0.58    0.11
   5   1   1    0.24    0.24
  -6  -1  -1    0.86    0.20
   6   1   1    1.31    0.17
  -7  -1  -1    1.69    0.27
   7   1   1    2.16    0.23
   8   1   1    0.04    0.25
   8   1   1    0.49    0.09
   9  -2  -1    8.58    0.69
   9  -2  -1    8.87    0.68
   8  -2  -1   50.21    3.38
   8  -2  -1   41.25    3.36
   7  -2  -1   19.85    1.40
   7  -2  -1   18.39    1.37
   7  -2  -1   16.86    1.37
   6  -2  -1   35.03    2.69
   6  -2  -1   37.46    2.68
   6  -2  -1   36.56    2.66
   6  -2  -1   37.11    2.69
   6  -2  -1   36.54    2.73
   5  -2  -1   42.00    3.03
   5  -2  -1   36.50    3.04
   5  -2  -1   45.45    3.08
   5  -2  -1   42.72    3.02
   5  -2  -1   41.65    3.04
  -4   2   1   13.70    1.12
  -3   2   1    9.13    0.72
  -3   2   1    7.96    0.76
   2  -2  -1  162.42   11.86
  -2   2   1  165.90   11.94
   1  -2  -1   29.45    2.06
   1  -2  -1   26.58    2.16
  -1   2   1   24.81    2.14
   0  -2  -1   97.40    6.91
   0   2   1   84.86    7.03
   0   2   1   98.54    6.93
  -2  -2  -1   53.89    3.91
  -2  -2  -1   51.03    4.16
   2   2   1   55.03    3.87
   2   2   1   52.87    4.47
   3   2   1   28.37    2.54
   3   2   1   28.72    2.40
  -4  -2  -1   55.64    4.63
   4   2   1   67.06    4.60
   4   2   1   65.61    5.05
  -5  -2  -1   41.26    3.23
   5   2   1   44.14    3.75
   6   2   1    3.35    0.77
   6   2   1    3.99    0.36
  -7  -2  -1   10.92    0.94
   7   2   1   13.02    0.88
   7   2   1    9.02    1.25
   9  -3  -1    0.20    0.08
   9  -3  -1    0.12    0.06
   9  -3  -1    0.24    0.06
   8  -3  -1    9.21    0.75
   8  -3  -1    9.58    0.76
   7  -3  -1    8.22    0.76
   7  -3  -1   11.37    0.78
   7  -3  -1    8.39    0.75
   7  -3  -1   10.97    0.83
   6  -3  -1   23.86    1.74
   6  -3  -1   22.20    1.74
   6  -3  -1   24.37    1.73
   6  -3  -1   21.49    1.74
   6  -3  -1   25.58    1.80
   5  -3  -1   48.29    3.85
   5  -3  -1   55.26    3.84
   5  -3  -1   59.25    3.89
   5  -3  -1   44.54    3.84
   5  -3  -1   55.21    3.83
   5  -3  -1   55.43    3.85
   4  -3  -1   82.63    6.00
  -3   3   1  292.05   26.24
   2  -3  -1   10.89    0.83
  -2   3   1    8.84    0.89
   1  -3  -1   29.12    2.34
  -1   3   1   31.68    2.52
   0  -3  -1   79.42    6.09
   0   3   1   83.13    6.34
  -1  -3  -1   33.84    2.69
   1   3   1   29.88    2.38
   1   3   1   34.44    3.01
  -2  -3  -1   21.42    1.67
   2   3   1   22.02    1.62
  -3  -3  -1   12.85    1.00
   3   3   1   11.33    1.23
   3   3   1   11.60    0.93
   3   3   1   11.71    1.41
  -4  -3  -1    3.19    0.37
   4   3   1    2.83    0.31
  -5  -3  -1    6.84    0.67
   5   3   1    6.76    0.56
  -6  -3  -1   12.66    1.09
   6   3   1   13.31    1.01
   9  -4  -1    2.34    0.23
   9  -4  -1    2.61    0.27
   8  -4  -1   35.93    2.71
   8  -4  -1   37.92    2.70
   8  -4  -1   36.39    2.70
   8  -4  -1   36.46    2.77
   7  -4  -1    1.92    0.21
   7  -4  -1    2.41    0.21
   7  -4  -1    1.83    0.21
   6  -4  -1   10.58    0.77
   6  -4  -1   10.46    0.76
   6  -4  -1    9.34    0.76
   6  -4  -1    8.88    0.80
   5  -4  -1    4.13    0.35
   5  -4  -1    3.85    0.33
   5  -4  -1    4.59    0.39
   5  -4  -1    3.96    0.34
   4  -4  -1    3.79    0.34
   4  -4  -1    3.60    0.31
   3  -4  -1    0.70    0.10
   3  -4  -1    0.76    0.10
   3  -4  -1    0.75    0.11
   2  -4  -1    7.93    0.65
  -2   4   1    8.31    0.62
   1  -4  -1    5.56    0.48
   1  -4  -1    5.74    0.53
   1  -4  -1    5.69    0.47
  -1   4   1    5.87    0.45
   0  -4  -1   23.88    1.89
   0  -4  -1   22.63    1.93
   0   4   1   29.00    1.87
  -1  -4  -1   39.22    3.37
   1   4   1   48.57    3.57
   1   4   1   48.22    3.32
   3   4   1    4.92    0.94
  -4  -4  -1    0.21    0.13
   4   4   1    0.19    0.10
   4   4   1    0.24    0.07
   4   4   1    0.13    0.24
  -5  -4  -1    0.26    0.14
   5   4   1    0.22    0.27
   5   4   1    0.35    0.08
   9  -5  -1   12.26    0.96
   9  -5  -1   12.44    0.94
   8  -5  -1    0.79    0.12
   8  -5  -1    0.87    0.19
   8  -5  -1    0.84    0.15
   7  -5  -1    0.42    0.10
   7  -5  -1    0.23    0.10
   7  -5  -1    0.43    0.09
   6  -5  -1    9.16    0.74
   6  -5  -1    9.57    0.76
   6  -5  -1   10.26    0.76
   5  -5  -1    2.52    0.23
   5  -5  -1    2.25    0.26
   5  -5  -1    2.52    0.24
   4  -5  -1   13.52    1.08
   4  -5  -1   14.69    1.08
   4  -5  -1   14.56    1.12
   3  -5  -1    0.05    0.05
   3  -5  -1    0.01    0.03
   3  -5  -1    0.02    0.04
   2  -5  -1   28.04    2.07
   2  -5  -1   26.80    1.98
   2  -5  -1   24.52    1.95
   2  -5  -1   27.11    1.95
  -2   5   1   25.58    1.94
   1  -5  -1    0.17    0.06
   1  -5  -1    0.28    0.08
   1  -5  -1    0.27    0.12
   1  -5  -1    0.20    0.06
  -1   5   1    0.32    0.07
  -1   5   1    0.24    0.17
   0  -5  -1    2.19    0.24
   0  -5  -1    2.44    0.31
   0  -5  -1    2.25    0.23
   0   5   1    1.94    0.22
  -1  -5  -1   21.18    1.77
  -1  -5  -1   21.23    1.70
   1   5   1   24.78    2.03
  -2  -5  -1   12.29    0.93
   2   5   1   10.39    0.91
   3   5   1   10.82    0.92
   3   5   1   11.65    1.32
  -4  -5  -1    0.09    0.05
   4   5   1    0.12    0.23
   4   5   1    0.10    0.06
   4   5   1   -0.04    0.11
   9  -6  -1   11.77    0.93
   9  -6  -1   11.96    1.00
   9  -6  -1   13.33    0.95
   8  -6  -1    3.66    0.39
   8  -6  -1    3.43    0.32
   7  -6  -1   58.27    4.05
   7  -6  -1   52.32    4.03
   6  -6  -1    6.05    0.51
   6  -6  -1    6.24    0.51
   5  -6  -1   26.15    2.10
   5  -6  -1   29.30    2.07
   4  -6  -1    3.98    0.39
   4  -6  -1    4.04    0.35
   3  -6  -1   60.56    4.44
   3  -6  -1   61.32    4.48
   3  -6  -1   61.04    4.44
   2  -6  -1    8.35    0.72
   2  -6  -1    8.45    0.69
   2  -6  -1    8.47    0.68
  -2   6   1    9.36    0.71
   1  -6  -1    9.42    0.77
   1  -6  -1    9.33    0.86
   1  -6  -1    8.33    0.72
  -1   6   1   10.44    0.77
   0  -6  -1    0.16    0.08
   0   6   1    0.70    0.37
  -1  -6  -1    3.11    0.35
  -1  -6  -1    4.71    0.40
   1   6   1    4.23    0.40
  -3  -6  -1    9.91    0.69
   3   6   1    7.19    0.72
   8  -7  -1    2.00    0.21
   8  -7  -1    2.06    0.26
   7  -7  -1    0.42    0.13
   7  -7  -1    0.46    0.10
   7  -7  -1    0.61    0.11
   6  -7  -1   15.24    1.18
   6  -7  -1   15.56    1.18
   6  -7  -1   15.62    1.24
   5  -7  -1    0.49    0.11
   5  -7  -1    0.82    0.16
   5  -7  -1    0.86    0.12
   4  -7  -1   17.12    1.33
   4  -7  -1   16.86    1.29
   3  -7  -1    3.99    0.37
   3  -7  -1    4.20    0.37
   3  -7  -1    4.41    0.41
   2  -7  -1   36.55    2.63
   2  -7  -1   36.11    2.59
   2  -7  -1   34.38    2.58
  -2   7   1   33.29    2.63
   1  -7  -1    0.59    0.14
   1  -7  -1    0.48    0.10
  -1   7   1    0.52    0.34
  -1   7   1    1.00    0.36
  -1   7   1    0.58    0.14
   0  -7  -1   21.88    1.49
   0   7   1   20.24    1.53
   0   7   1   16.37    1.77
   0   7   1   20.05    2.11
  -1  -7  -1    5.45    0.39
   1   7   1    3.52    0.83
   1   7   1    3.43    0.67
   1   7   1    4.72    0.44
  -2  -7  -1    5.93    0.47
   7  -8  -1    0.09    0.08
   7  -8  -1    0.08    0.05
   7  -8  -1    0.05    0.05
   6  -8  -1   12.72    0.96
   6  -8  -1   12.62    1.00
   6  -8  -1   12.00    0.95
   5  -8  -1    3.81    0.33
   5  -8  -1    3.83    0.34
   5  -8  -1    3.81    0.38
   4  -8  -1    5.80    0.50
   4  -8  -1    5.35    0.46
   4  -8  -1    5.60    0.46
   3  -8  -1    0.13    0.06
   3  -8  -1    0.14    0.05
   3  -8  -1    0.18    0.08
  -3   8   1    0.37    0.28
   2  -8  -1    2.08    0.20
  -2   8   1    1.50    0.27
  -2   8   1    2.15    0.57
   1  -8  -1   10.10    0.69
  -1   8   1    8.16    0.73
  -1   8   1    7.21    1.12
   0  -8  -1    1.39    0.15
   0   8   1    1.77    0.54
   5  -9  -1   16.10    1.20
   4  -9  -1    0.40    0.08
   4  -9  -1    0.36    0.07
  -4   9   1   -0.02    0.26
  -3   9   1    4.40    0.72
  -1   9  -2    6.05    0.87
  -1   9  -2    4.81    0.66
  -2   9  -2    8.64    0.98
   2  -9   2   10.76    0.75
  -3   9  -2    5.56    0.73
   3  -9   2    7.88    0.54
   4  -9   2    1.84    0.19
   5  -9   2    0.34    0.08
   6  -9   2    0.79    0.12
   7  -9   2    8.15    0.63
   1   8  -2    2.69    0.50
   1   8  -2    1.90    0.61
   1   8  -2    2.50    0.26
   0   8  -2    0.04    0.25
   0   8  -2    0.04    0.16
   0   8  -2    0.11    0.06
   0  -8   2    0.04    0.05
   0  -8   2    0.05    0.09
  -1   8  -2   15.76    1.45
  -1   8  -2   15.10    1.13
   1  -8   2   13.18    1.11
   1  -8   2   14.65    1.25
  -2   8  -2   16.91    1.26
  -2   8  -2   16.23    1.57
   2  -8   2   16.24    1.25
  -3   8  -2   21.03    1.84
   3  -8   2   20.17    1.55
   4  -8   2   16.42    1.26
   5  -8   2    0.22    0.09
   5  -8   2    0.17    0.07
   6  -8   2    7.74    0.59
   6  -8   2    7.16    0.63
   6  -8   2    6.75    0.60
   7  -8   2    0.05    0.06
   7  -8   2    0.07    0.08
   8  -8   2    0.47    0.13
   3   7  -2    2.30    0.51
   2   7  -2    8.36    0.73
  -2  -7   2    9.41    0.71
   1   7  -2    6.29    0.54
  -1  -7   2    6.28    0.63
  -1  -7   2    6.43    0.53
  -1   7  -2   28.91    2.12
  -1   7  -2   24.79    2.43
   1  -7   2   30.26    2.13
   1  -7   2   30.25    2.12
  -2   7  -2    5.95    0.43
   2  -7   2    4.88    0.43
   2  -7   2    4.53    0.42
   3  -7   2   15.58    1.24
   3  -7   2   17.63    1.29
   3  -7   2   16.40    1.25
   4  -7   2    4.75    0.43
   4  -7   2    4.83    0.43
   4  -7   2    3.98    0.40
   4  -7   2    5.24    0.53
   5  -7   2   15.73    1.15
   5  -7   2   13.07    1.12
   5  -7   2   15.19    1.15
   6  -7   2    1.12    0.17
   6  -7   2    1.09    0.19
   6  -7   2    1.35    0.19
   6  -7   2    1.12    0.15
   7  -7   2   11.65    0.94
   7  -7   2   12.17    0.95
   7  -7   2   12.34    0.99
   8  -7   2   14.60    1.11
   8  -7   2   14.75    1.16
   8  -7   2   14.34    1.11
   9  -7   2    9.88    0.76
  -4  -6   2    1.22    0.16
   3   6  -2    0.10    0.07
   3   6  -2    0.29    0.24
   2   6  -2   18.45    1.46
  -2  -6   2   19.74    1.57
   1   6  -2    0.23    0.07
   1   6  -2    0.04    0.14
  -1  -6   2    0.44    0.15
  -1  -6   2    0.53    0.11
   0  -6   2   97.81    6.88
   0  -6   2   85.92    6.72
   0  -6   2   95.20    6.75
  -1   6  -2   15.48    1.22
   1  -6   2   16.97    1.23
   1  -6   2   15.16    1.26
   1  -6   2   18.26    1.38
   1  -6   2   15.97    1.24
  -2   6  -2   59.62    4.48
   2  -6   2   63.68    4.52
   2  -6   2   68.22    4.65
   2  -6   2   62.58    4.49
   2  -6   2   55.18    4.48
   3  -6   2   49.31    3.74
   3  -6   2   47.30    3.72
   3  -6   2   51.72    3.86
   3  -6   2   50.27    3.75
   3  -6   2   57.52    3.74
   4  -6   2    0.27    0.08
   4  -6   2    0.35    0.14
   4  -6   2    0.38    0.09
   4  -6   2    0.29    0.07
   5  -6   2   20.82    1.62
   5  -6   2   22.08    1.65
   5  -6   2   22.16    1.62
   5  -6   2   21.59    1.63
   6  -6   2    0.67    0.15
   6  -6   2    0.65    0.12
   6  -6   2    0.62    0.13
   6  -6   2    0.82    0.13
   7  -6   2    0.09    0.06
   7  -6   2    0.19    0.07
   7  -6   2    0.15    0.10
   8  -6   2    2.17    0.22
   8  -6   2    1.85    0.21
   8  -6   2    2.09    0.28
   9  -6   2    6.62    0.52
   9  -6   2    5.97    0.51
   5   5  -2    0.64    0.36
   4   5  -2    6.64    0.57
   3   5  -2    0.26    0.23
   3   5  -2    0.00    0.05
   2   5  -2    7.67    0.96
   2   5  -2   10.09    0.73
   1   5  -2   49.49    4.10
  -1  -5   2   63.47    4.23
   0   5  -2   35.78    2.47
   0  -5   2   30.94    2.46
   0  -5   2   34.52    2.58
  -1   5  -2   50.43    3.42
  -1   5  -2   46.41    3.80
   1  -5   2   41.21    3.42
   1  -5   2   46.39    3.42
   1  -5   2   49.49    3.54
   1  -5   2   48.34    3.45
   1  -5   2   31.15   24.82
  -2   5  -2    1.76    0.32
  -2   5  -2    1.77    0.16
   2  -5   2    2.06    0.18
   2  -5   2    1.86    0.25
   2  -5   2    1.81    0.19
   2  -5   2    1.58    0.18
   2  -5   2   13.43   20.89
   3  -5   2    2.81    0.27
   3  -5   2    3.36    0.27
   3  -5   2    3.08    0.34
   3  -5   2    3.16    0.28
   3  -5   2   -2.68   22.92
   4  -5   2    9.92    0.76
   4  -5   2   10.45    0.79
   4  -5   2    9.56    0.85
   4  -5   2    9.61    0.77
   4  -5   2   10.02    0.76
   5  -5   2    1.12    0.14
   5  -5   2    0.98    0.12
   5  -5   2    1.10    0.12
   5  -5   2    1.11    0.14
   6  -5   2    7.73    0.63
   6  -5   2    8.23    0.64
   6  -5   2    8.74    0.67
   6  -5   2    8.02    0.69
   7  -5   2   54.73    3.70
   7  -5   2   46.34    3.69
   8  -5   2    0.71    0.13
   8  -5   2    1.04    0.14
   9  -5   2    9.18    0.69
   9  -5   2    8.45    0.70
   6   4  -2    1.93    0.20
  -6  -4   2    1.49    0.32
   5   4  -2    5.52    0.93
   4   4  -2    0.60    0.12
  -4  -4   2    0.73    0.19
   3   4  -2   13.84    1.07
  -3  -4   2   13.83    1.22
  -3  -4   2   14.53    1.14
   2   4  -2    8.48    0.63
   2   4  -2    8.12    0.86
  -2  -4   2    7.47    0.66
  -2  -4   2    7.38    0.69
   0   4  -2   13.29    0.99
   0   4  -2   14.98    1.36
   0  -4   2   11.80    1.20
  -1   4  -2    2.27    0.36
   1  -4   2    2.04    0.31
  -2   4  -2  122.29    8.95
   4  -4   2   57.34    4.18
   4  -4   2   58.13    4.19
   4  -4   2   56.73    4.16
   5  -4   2    4.28    0.37
   5  -4   2    3.50    0.31
   5  -4   2    4.07    0.32
   5  -4   2    3.79    0.34
   6  -4   2   38.30    2.81
   6  -4   2   36.70    2.78
   6  -4   2   36.70    3.19
   6  -4   2   41.01    2.79
   6  -4   2   37.75    2.84
   7  -4   2   22.94    1.72
   7  -4   2   24.70    1.75
   7  -4   2   21.58    1.77
   8  -4   2   10.66    0.84
   8  -4   2   10.78    0.86
   9  -4   2    3.26    0.30
   9  -4   2    3.47    0.32
   7   3  -2    0.50    0.10
   6   3  -2   24.54    1.90
   6   3  -2   22.84    2.40
  -6  -3   2   28.34    2.00
   5   3  -2    7.79    1.08
  -5  -3   2    7.44    0.71
   4   3  -2   96.23    6.81
   4   3  -2   85.21    6.34
  -4  -3   2   81.24    6.42
   3   3  -2   10.46    0.81
  -3  -3   2   12.37    0.88
  -3  -3   2    9.32    0.88
   2   3  -2  108.20    8.04
  -2  -3   2  112.67    8.07
  -2  -3   2  113.08    8.39
   1   3  -2   12.68    1.03
   1   3  -2   15.73    1.40
  -1  -3   2   13.51    1.25
   0   3  -2  118.46    9.48
   0   3  -2  136.43    9.59
   0  -3   2  133.49    9.51
  -1   3  -2    5.44    0.50
   1  -3   2    5.00    0.50
  -2   3  -2  285.23   19.93
   2  -3   2  266.52   19.94
  -3   3  -2    4.76    1.99
   4  -3   2    7.05    0.57
   5  -3   2    2.52    0.23
   5  -3   2    2.95    0.28
   5  -3   2    2.61    0.25
   5  -3   2    2.61    0.23
   6  -3   2    3.56    0.31
   6  -3   2    3.45    0.33
   6  -3   2    3.67    0.30
   6  -3   2    2.96    0.59
   7  -3   2   41.81    2.96
   7  -3   2   38.45    3.44
   8  -3   2    0.04    0.27
   8  -3   2    0.40    0.10
   8  -3   2    0.15    0.06
   9  -3   2   31.45    2.28
   9  -3   2   30.05    2.26
   7   2  -2    6.89    0.55
  -7  -2   2    5.91    0.60
   6   2  -2    7.91    0.67
   6   2  -2    9.14    0.63
  -6  -2   2    6.90    0.72
   5   2  -2    1.19    0.13
   5   2  -2    1.18    0.12
  -5  -2   2    0.86    0.19
   4   2  -2    0.94    0.10
   4   2  -2    0.83    0.11
   4   2  -2    1.03    0.12
   3   2  -2    0.23    0.25
  -3  -2   2    0.19    0.19
  -3  -2   2    0.13    0.06
   2   2  -2    7.48    0.86
   1   2  -2   37.33    3.01
  -1  -2   2   41.22    3.03
   0   2  -2   71.43    5.28
   0  -2   2   66.95    5.40
   0  -2   2   77.19    5.31
   1  -2   2  397.68   30.55
   1  -2   2  449.79   30.54
  -2   2  -2   91.21    6.60
  -2   2  -2   87.21    6.60
   2  -2   2   89.35    6.58
   2  -2   2   93.22    6.68
  -3   2  -2   28.21    2.47
  -3   2  -2   31.16    2.36
   3  -2   2   34.14    2.46
  -5   2  -2   11.36    0.87
   5  -2   2   10.91    0.82
   5  -2   2   10.74    0.83
   5  -2   2   10.72    0.85
  -6   2  -2   12.07    1.00
   6  -2   2   12.29    0.94
   6  -2   2   12.17    0.95
   6  -2   2   12.89    0.97
  -7   2  -2    9.80    0.86
   7  -2   2   10.26    1.28
   7  -2   2   10.06    0.78
  -8   2  -2    2.76    0.36
   8  -2   2    3.43    0.32
   8  -2   2    3.17    0.28
   9  -2   2    0.07    0.05
   9  -2   2    0.00    0.05
   8   1  -2    7.11    0.54
   8   1  -2    5.59    0.49
  -8  -1   2    6.69    0.60
   7   1  -2    0.89    0.16
   7   1  -2    0.93    0.12
  -7  -1   2    1.37    0.25
   6   1  -2    9.05    0.68
   6   1  -2    8.63    0.71
   6   1  -2    8.60    0.67
   5   1  -2    0.10    0.07
   5   1  -2    0.03    0.03
   5   1  -2    0.05    0.04
   5   1  -2    0.06    0.21
  -5  -1   2    0.05    0.06
   4   1  -2    1.32    0.12
   4   1  -2    1.47    0.14
   4   1  -2    1.32    0.16
  -4  -1   2    0.81    0.34
  -4  -1   2    1.58    0.18
  -3  -1   2    0.47    0.09
  -1  -1   2  109.70    8.12
   0  -1   2   45.23    3.38
   0  -1   2   45.45    3.36
  -1   1  -2  113.60    7.85
   1  -1   2   99.45    7.86
  -2   1  -2    0.74    0.28
  -2   1  -2    0.38    0.11
   2  -1   2    0.43    0.21
  -3   1  -2  110.54    7.51
  -3   1  -2   93.65    7.66
   3  -1   2  100.09    7.64
  -4   1  -2    4.72    0.41
   4  -1   2    4.57    0.44
  -5   1  -2    2.20    0.24
   5  -1   2    1.92    0.18
   5  -1   2    1.79    0.46
   5  -1   2    1.82    0.19
   5  -1   2    1.92    0.21
  -6   1  -2   11.39    0.87
   6  -1   2   10.33    0.78
   6  -1   2    9.47    0.81
   6  -1   2    9.21    1.23
  -7   1  -2    0.53    0.16
   7  -1   2    0.45    0.11
   7  -1   2    0.70    0.10
   7  -1   2    0.12    0.27
  -8   1  -2    7.65    0.73
   8  -1   2    9.47    0.68
   8  -1   2    7.29    1.07
   8   0  -2    0.25    0.07
   8   0  -2    0.27    0.09
  -8   0   2    0.27    0.12
   7   0  -2   31.66    2.49
   7   0  -2   33.00    2.50
   7   0  -2   35.72    2.54
  -7   0   2   36.15    2.60
   6   0  -2   17.17    1.28
   6   0  -2   16.69    1.32
   6   0  -2   17.49    1.32
   6   0  -2   17.36    1.29
  -6   0   2   17.54    1.35
   5   0  -2   98.31    6.85
   5   0  -2   89.73    6.83
   5   0  -2   91.51    6.81
   5   0  -2   95.57    6.82
  -5   0   2   96.85    6.86
  -4   0   2  105.64    8.56
  -4   0   2  131.68    8.83
   3   0  -2    2.30    0.33
  -3   0   2    1.60    0.27
  -2   0   2 1000.00   72.04
   1   0  -2   32.13    2.57
  -1   0   2   33.69    2.57
  -1   0   2   36.26    2.59
  -1   0  -2    2.83    0.44
   1   0   2    2.42    0.41
  -2   0  -2   13.61    1.25
  -2   0  -2   15.00    1.45
   2   0   2   15.71    1.43
  -3   0  -2    0.00    0.04
  -3   0  -2    0.04    0.09
   3   0   2    0.18    0.22
  -4   0  -2   44.90    3.25
   4   0   2   39.77    3.21
   4   0   2   47.67    3.65
  -5   0  -2    3.30    0.34
   5   0   2    2.93    0.61
   5   0   2    3.12    0.29
   5   0   2    3.04    0.26
  -6   0  -2   45.88    3.29
   6   0   2   41.08    3.76
  -7   0  -2   11.31    0.94
   7   0   2   10.99    0.87
   7   0   2    9.98    1.34
  -8   0  -2   10.92    0.91
   9  -1  -2    9.09    0.68
   9  -1  -2    8.41    0.68
   8  -1  -2    3.47    0.35
   8  -1  -2    4.01    0.33
  -8   1   2    3.81    0.41
   7  -1  -2    2.71    0.25
   7  -1  -2    2.74    0.24
   6  -1  -2   34.23    2.53
   6  -1  -2   35.05    2.53
   6  -1  -2   33.55    2.50
   6  -1  -2   34.19    2.51
  -6   1   2   34.19    2.55
   5  -1  -2   67.32    5.03
   5  -1  -2   72.92    4.99
   5  -1  -2   63.15    5.00
   5  -1  -2   74.03    4.98
   5  -1  -2   70.94    5.00
  -5   1   2   64.27    5.25
  -5   1   2   69.52    5.01
  -4   1   2   24.18    1.94
   3  -1  -2  271.51   20.03
  -3   1   2  281.94   20.02
   2  -1  -2  125.87    8.59
   2  -1  -2  116.53    8.60
  -2   1   2  122.04    8.62
  -2   1   2  106.94    8.63
   1  -1  -2  193.35   14.23
  -1   1   2  199.03   14.27
   0  -1  -2  378.91   26.01
   0   1   2  336.32   25.86
  -1  -1  -2  146.40   10.81
   1   1   2  148.11   11.02
  -2  -1  -2    7.59    0.78
   2   1   2    7.13    0.96
  -3  -1  -2   41.79    3.12
  -3  -1  -2   43.96    3.44
   3   1   2   35.50    3.08
   3   1   2   47.79    3.44
   3   1   2   42.84    3.74
  -4  -1  -2   19.42    1.43
   4   1   2   16.84    1.35
  -5  -1  -2   11.48    0.99
   5   1   2   11.98    1.41
  -6  -1  -2    0.89    0.21
   6   1   2    1.72    0.60
   6   1   2    1.48    0.18
  -7  -1  -2    5.36    0.56
   7   1   2    6.29    0.50
   9  -2  -2    0.14    0.05
   9  -2  -2    0.20    0.07
   8  -2  -2    4.78    0.40
   8  -2  -2    4.61    0.43
   7  -2  -2    0.23    0.07
   7  -2  -2    0.22    0.06
   7  -2  -2    0.42    0.10
   7  -2  -2    0.22    0.08
   7  -2  -2    0.57    0.16
   6  -2  -2   28.24    2.06
   6  -2  -2   29.15    2.04
   6  -2  -2   28.01    2.10
   6  -2  -2   24.68    2.04
   6  -2  -2   28.37    2.03
   5  -2  -2   20.70    1.53
   5  -2  -2   20.80    1.52
   5  -2  -2   21.54    1.57
   5  -2  -2   20.57    1.57
   5  -2  -2   20.30    1.54
   4  -2  -2   11.23    0.83
  -4   2   2   10.18    1.03
  -3   2   2   16.95    1.31
  -3   2   2   14.75    1.44
   2  -2  -2    0.37    0.12
  -2   2   2    0.20    0.12
  -2   2   2    0.12    0.18
   1  -2  -2   12.70    1.11
  -1   2   2   13.85    1.32
   0  -2  -2   16.16    1.42
   0   2   2   16.50    1.47
   0   2   2   17.75    1.65
  -1  -2  -2   38.01    3.09
   1   2   2   40.13    3.38
  -2  -2  -2   18.67    1.81
   2   2   2   20.34    1.49
   2   2   2   20.87    1.72
  -3  -2  -2   35.36    2.62
   3   2   2   34.08    2.57
  -4  -2  -2   39.61    3.38
   4   2   2   46.09    3.34
   4   2   2   49.35    3.31
  -5  -2  -2   57.17    4.04
   5   2   2   45.43    4.45
   5   2   2   57.36    3.92
  -6  -2  -2    3.18    0.39
   6   2   2    3.37    0.32
   7   2   2    0.87    0.12
   9  -3  -2    7.60    0.63
   9  -3  -2    7.60    0.60
   8  -3  -2   11.70    0.97
   8  -3  -2   12.96    0.95
   7  -3  -2   14.17    1.14
   7  -3  -2   14.37    1.06
   7  -3  -2   13.59    1.07
   6  -3  -2    3.95    0.38
   6  -3  -2    3.75    0.33
   6  -3  -2    3.65    0.31
   6  -3  -2    3.66    0.32
   5  -3  -2   61.13    4.55
   5  -3  -2   69.24    4.62
   5  -3  -2   62.47    4.56
   5  -3  -2   63.06    4.61
   5  -3  -2   64.94    4.58
   5  -3  -2   57.29    4.57
   4  -3  -2   16.66    1.26
   4  -3  -2   16.30    1.23
   4  -3  -2   16.60    1.25
   3  -3  -2    0.88    0.12
  -2   3   2   76.09    5.82
   1  -3  -2  169.59   12.29
  -1   3   2  179.13   12.57
  -1   3   2  155.68   12.11
   0  -3  -2  142.78   10.52
   0   3   2  134.05   10.24
   0   3   2  149.56   10.86
  -1  -3  -2   22.84    1.84
   1   3   2   26.94    2.16
   1   3   2   23.53    2.01
  -2  -3  -2    0.20    0.09
   2   3   2    0.29    0.08
   2   3   2    0.29    0.20
   2   3   2    0.16    0.23
  -3  -3  -2    8.81    0.79
   3   3   2    9.13    0.75
  -4  -3  -2    0.60    0.17
   4   3   2    0.43    0.09
   4   3   2    1.12    0.45
   4   3   2    0.36    0.13
  -5  -3  -2    1.98    0.30
   5   3   2    1.87    0.20
   5   3   2    1.17    0.50
   6   3   2    4.18    0.36
   9  -4  -2    0.79    0.15
   9  -4  -2    0.80    0.12
   8  -4  -2    2.13    0.22
   8  -4  -2    2.45    0.25
   8  -4  -2    2.18    0.30
   7  -4  -2    4.13    0.35
   7  -4  -2    3.78    0.41
   6  -4  -2   34.02    2.53
   6  -4  -2   34.78    2.54
   6  -4  -2   36.29    2.61
   6  -4  -2   36.63    2.56
   6  -4  -2   31.57    2.54
   5  -4  -2    0.63    0.14
   5  -4  -2    0.98    0.12
   5  -4  -2    0.75    0.15
   5  -4  -2    0.82    0.11
   5  -4  -2    0.53    0.10
   4  -4  -2   66.95    5.64
   4  -4  -2   82.78    5.64
   4  -4  -2   82.93    5.67
   4  -4  -2   78.51    5.63
   3  -4  -2    0.94    0.11
   3  -4  -2    0.79    0.13
   3  -4  -2    0.85    0.11
   2  -4  -2    8.59    0.66
   2  -4  -2    8.28    0.65
   2  -4  -2    8.89    0.69
  -2   4   2    8.16    0.66
   1  -4  -2    0.86    0.11
   1  -4  -2    0.78    0.17
   1  -4  -2    0.84    0.10
   1  -4  -2    0.82    0.13
  -1   4   2    1.07    0.56
  -1   4   2    1.05    0.12
   0  -4  -2   11.34    0.96
   0  -4  -2   11.77    1.03
   0  -4  -2   12.36    0.99
   0   4   2   14.55    0.97
   1   4   2    2.10    0.49
   1   4   2    1.91    0.41
  -3  -4  -2    0.16    0.12
   3   4   2    0.16    0.09
   3   4   2    0.13    0.31
   3   4   2    0.04    0.19
  -4  -4  -2    7.17    0.66
   4   4   2    7.43    0.56
   4   4   2    6.06    0.62
   5   4   2    0.68    0.36
   9  -5  -2    2.34    0.25
   9  -5  -2    2.37    0.22
   8  -5  -2   19.62    1.51
   8  -5  -2   20.38    1.60
   8  -5  -2   21.04    1.54
   7  -5  -2   17.96    1.37
   7  -5  -2   18.12    1.34
   7  -5  -2   17.81    1.35
   6  -5  -2   17.25    1.44
   6  -5  -2   19.52    1.40
   5  -5  -2    9.50    0.74
   5  -5  -2    9.13    0.73
   4  -5  -2    6.45    0.57
   4  -5  -2    7.19    0.55
   4  -5  -2    6.45    0.54
   3  -5  -2   12.90    1.02
   3  -5  -2   14.12    1.06
   3  -5  -2   13.17    1.02
   2  -5  -2   12.68    0.94
   2  -5  -2   11.56    0.90
   2  -5  -2   11.40    0.90
  -2   5   2   11.51    0.92
   1  -5  -2   54.27    3.91
   1  -5  -2   48.94    3.88
   1  -5  -2   55.84    3.95
  -1   5   2   57.83    3.93
  -1   5   2   50.53    4.14
   0  -5  -2    2.23    0.25
   0  -5  -2    1.64    0.21
   0   5   2    2.55    0.57
   0   5   2    2.61    0.48
  -1  -5  -2   52.00    3.87
   1   5   2   56.19    3.91
   1   5   2   49.41    4.43
  -2  -5  -2    3.26    0.35
   2   5   2    3.41    0.79
   2   5   2    3.62    0.38
   2   5   2    3.40    0.65
  -3  -5  -2    6.96    0.56
  -3  -5  -2    6.37    0.53
   3   5   2    6.15    0.59
   3   5   2    5.99    1.02
   3   5   2    5.48    0.88
  -4  -5  -2    1.14    0.14
   9  -6  -2    6.76    0.62
   9  -6  -2    7.58    0.58
   8  -6  -2    0.67    0.17
   8  -6  -2    0.67    0.12
   7  -6  -2   71.13    5.26
   7  -6  -2   70.27    5.33
   7  -6  -2   75.44    5.27
   6  -6  -2    0.02    0.04
   6  -6  -2    0.04    0.05
   6  -6  -2    0.06    0.07
   5  -6  -2   31.43    2.30
   5  -6  -2   27.52    2.34
   5  -6  -2   34.18    2.31
   4  -6  -2   28.40    2.00
   4  -6  -2   22.89    1.94
   4  -6  -2   27.55    1.95
   3  -6  -2   76.46    6.49
   3  -6  -2   91.12    6.54
   3  -6  -2  101.09    6.50
   2  -6  -2    0.35    0.10
   2  -6  -2    0.02    0.04
   2  -6  -2    0.03    0.04
  -2   6   2    0.06    0.07
   1  -6  -2   13.80    1.06
  -1   6   2   11.96    1.49
  -1   6   2   13.61    1.07
   0  -6  -2    1.34    0.18
   0  -6  -2    0.78    0.14
   0   6   2    0.34    0.31
   0   6   2    0.97    0.17
  -1  -6  -2    1.73    0.21
  -1  -6  -2    1.20    0.16
   1   6   2    1.42    0.22
  -2  -6  -2   11.07    0.81
   2   6   2    9.48    0.87
  -3  -6  -2    0.13    0.05
   3   6   2    0.10    0.23
   8  -7  -2    1.67    0.17
   8  -7  -2    2.03    0.24
   8  -7  -2    1.81    0.19
   7  -7  -2    2.54    0.24
   7  -7  -2    2.75    0.30
   7  -7  -2    2.24    0.24
   6  -7  -2    0.52    0.10
   6  -7  -2    0.39    0.12
   6  -7  -2    0.47    0.10
   5  -7  -2    7.15    0.60
   5  -7  -2    7.76    0.65
   4  -7  -2    1.66    0.22
   4  -7  -2    1.66    0.18
   4  -7  -2    1.35    0.17
   3  -7  -2    2.24    0.21
   3  -7  -2    2.43    0.26
   3  -7  -2    1.56    0.20
   2  -7  -2   20.86    1.59
   2  -7  -2   22.68    1.63
   2  -7  -2   21.29    1.58
  -2   7   2   19.82    1.66
   1  -7  -2    0.41    0.11
   1  -7  -2    0.37    0.09
  -1   7   2    0.54    0.15
  -1   7   2    1.11    0.47
   0  -7  -2    2.71    0.29
   0  -7  -2    2.82    0.27
   0   7   2    3.19    0.34
   1   7   2    0.53    0.36
   1   7   2    0.97    0.19
   7  -8  -2    0.08    0.04
   7  -8  -2    0.08    0.04
   7  -8  -2    0.07    0.07
   6  -8  -2    0.20    0.07
   6  -8  -2    0.24    0.09
   6  -8  -2    0.20    0.06
   5  -8  -2    0.17    0.06
   5  -8  -2    0.14    0.06
   5  -8  -2    0.16    0.08
   4  -8  -2    6.58    0.52
   4  -8  -2    6.16    0.52
   4  -8  -2    6.56    0.56
   3  -8  -2    0.14    0.08
   3  -8  -2    0.05    0.05
   3  -8  -2    0.08    0.05
  -3   8   2    0.09    0.24
   2  -8  -2   17.61    1.31
  -2   8   2   16.46    1.79
   1  -8  -2    2.43    0.22
  -1   9  -3    3.20    0.64
  -1   9  -3    2.36    0.45
  -4   9  -3    3.75    0.56
   5  -9   3    0.14    0.08
   5  -9   3    0.02    0.04
   6  -9   3    5.22    0.49
   6  -9   3    6.32    0.48
   7  -9   3    4.27    0.35
   1   8  -3    7.07    0.55
  -1  -8   3    5.91    0.60
   0   8  -3    0.05    0.05
   0   8  -3    0.18    0.19
   0  -8   3    0.02    0.08
  -1   8  -3   14.63    1.03
   1  -8   3   13.41    1.01
   1  -8   3   11.55    1.13
  -2   8  -3   13.68    1.41
   2  -8   3   14.85    1.26
   3  -8   3   38.88    2.99
   3  -8   3   37.74    2.86
   4  -8   3   18.84    1.43
   5  -8   3    0.54    0.13
   5  -8   3    0.39    0.09
   6  -8   3   57.37    4.28
   6  -8   3   60.17    4.32
   7  -8   3    0.21    0.07
   7  -8   3    0.05    0.07
   7  -8   3    0.00    0.09
   8  -8   3    1.56    0.19
   3   7  -3    0.10    0.22
   2   7  -3   -0.02    0.05
   2   7  -3    0.01    0.17
  -2  -7   3    0.05    0.06
  -2  -7   3    0.10    0.11
   1   7  -3    3.61    0.34
  -1  -7   3    3.46    0.33
  -1  -7   3    3.68    0.43
   0   7  -3   54.03    3.83
   0  -7   3   51.67    3.96
   0  -7   3   51.00    3.82
  -1   7  -3   37.66    3.57
   1  -7   3   51.64    3.28
  -2   7  -3   86.37    6.39
   2  -7   3   93.78    6.45
   2  -7   3   84.82    6.40
   3  -7   3    4.83    0.45
   3  -7   3    4.97    0.54
   4  -7   3   39.25    3.09
   4  -7   3   41.33    2.99
   5  -7   3    4.32    0.41
   5  -7   3    4.12    0.37
   5  -7   3    3.70    0.38
   5  -7   3    4.91    0.41
   6  -7   3    1.40    0.21
   6  -7   3    1.44    0.20
   6  -7   3    1.48    0.18
   6  -7   3    1.49    0.20
   7  -7   3    1.71    0.20
   7  -7   3    1.19    0.21
   7  -7   3    1.46    0.19
   8  -7   3    0.33    0.10
   8  -7   3    0.14    0.07
   9  -7   3    0.08    0.07
   9  -7   3    0.05    0.07
   4   6  -3    9.95    0.89
  -4  -6   3   10.74    0.82
   2   6  -3    3.51    0.34
   2   6  -3    3.73    0.63
  -2  -6   3    3.74    0.44
   1   6  -3    0.25    0.20
  -1  -6   3    0.32    0.13
  -1  -6   3    0.25    0.09
   0   6  -3    1.62    0.18
   0   6  -3    1.16    0.33
   0  -6   3    2.05    0.29
   0  -6   3    1.81    0.17
   0  -6   3    1.72    0.20
  -1   6  -3   34.57    2.62
   1  -6   3   34.91    2.62
   1  -6   3   39.33    2.78
   1  -6   3   17.05   25.05
   1  -6   3   34.37    2.66
  -2   6  -3    3.77    0.32
   2  -6   3    3.97    0.44
   2  -6   3    4.12    0.34
   2  -6   3    4.05    0.37
   2  -6   3   -0.40   23.37
   3  -6   3  -13.10   24.48
   4  -6   3    1.30    0.16
   4  -6   3    1.12    0.16
   4  -6   3    1.32    0.15
   4  -6   3    1.23    0.23
   4  -6   3    6.22   28.80
   4  -6   3    1.29    0.17
   5  -6   3   12.21    0.95
   5  -6   3   13.01    0.97
   5  -6   3   12.41    0.98
   5  -6   3   11.76    0.95
   6  -6   3   23.76    1.76
   6  -6   3   23.75    1.80
   6  -6   3   22.22    1.80
   6  -6   3   24.41    1.78
   7  -6   3   14.38    1.08
   7  -6   3   13.62    1.12
   7  -6   3   14.08    1.10
   8  -6   3    4.58    0.40
   8  -6   3    4.32    0.40
   9  -6   3   13.76    1.09
   9  -6   3   14.76    1.09
   5   5  -3    0.37    0.32
   4   5  -3    0.60    0.13
   4   5  -3    0.31    0.28
  -4  -5   3    0.60    0.18
   3   5  -3    5.88    0.47
  -3  -5   3    5.05    0.55
  -3  -5   3    5.02    0.51
   2   5  -3    1.38    0.16
   1   5  -3   57.96    4.60
  -1  -5   3   68.86    4.73
   0  -5   3  -25.38   25.77
  -1   5  -3  137.80    9.26
  -1   5  -3  123.19    9.60
   1  -5   3   42.17   28.04
   1  -5   3  126.46    9.36
   1  -5   3  125.08    9.26
   1  -5   3  131.36    9.29
   2  -5   3   -3.84   22.81
   3  -5   3   70.76    4.89
   3  -5   3   64.21    4.97
   3  -5   3   68.45    4.89
   3  -5   3   67.16    4.90
   3  -5   3   66.31    4.90
   3  -5   3   93.24   33.85
   4  -5   3  -38.32   25.35
   5  -5   3   25.98    1.92
   5  -5   3   24.07    1.88
   5  -5   3   24.54    1.88
   5  -5   3   27.45    1.91
   6  -5   3   16.60    1.29
   6  -5   3   18.19    1.32
   6  -5   3   15.75    1.27
   7  -5   3   13.08    1.15
   7  -5   3   15.03    1.18
   7  -5   3   17.85    1.23
   8  -5   3    1.84    0.20
   8  -5   3    1.40    0.18
   9  -5   3    0.27    0.08
   9  -5   3    0.26    0.07
   6   4  -3    2.58    0.25
  -6  -4   3    2.19    0.31
  -5  -4   3   12.96    1.10
   4   4  -3    0.48    0.29
  -4  -4   3    0.49    0.15
   2   4  -3    0.24    0.17
   2   4  -3    0.25    0.07
  -2  -4   3    0.34    0.13
  -2  -4   3    0.24    0.09
   1   4  -3    2.68    0.22
   1   4  -3    2.20    0.48
  -1  -4   3    2.08    0.27
  -1  -4   3    1.98    0.23
   0   4  -3    9.86    0.77
   0   4  -3    9.35    1.04
   0  -4   3   10.95    1.01
   1  -4   3    4.44    0.52
  -2   4  -3  302.02   21.90
  -3   4  -3    0.09    1.18
   4  -4   3  174.70   13.11
   4  -4   3  193.30   13.37
   4  -4   3  187.15   13.12
   4  -4   3  171.76   13.09
   5  -4   3   14.50    1.06
   5  -4   3   11.96    1.29
   5  -4   3   14.55    1.45
   5  -4   3   14.12    1.08
   5  -4   3   13.99    1.04
   6  -4   3   79.56    5.62
   6  -4   3   81.32    6.12
   6  -4   3   70.38    5.58
   6  -4   3   77.20    5.64
   8  -4   3    8.57    0.70
   9  -4   3    0.22    0.08
   9  -4   3    0.29    0.07
   7   3  -3    8.13    0.65
   6   3  -3    1.81    0.21
  -6  -3   3    1.63    0.27
   5   3  -3   12.22    0.92
   5   3  -3   14.02    1.45
  -5  -3   3   10.34    1.01
   4   3  -3   30.08    2.35
   4   3  -3   24.94    1.92
   4   3  -3   23.76    1.93
   3   3  -3   22.13    1.72
  -3  -3   3   21.40    1.81
  -3  -3   3   26.46    1.78
   2   3  -3    2.22    0.20
   2   3  -3    2.59    0.50
  -2  -3   3    1.93    0.40
  -2  -3   3    2.03    0.22
   1   3  -3   35.18    2.77
   1   3  -3   39.76    3.10
  -1  -3   3   39.35    3.02
   0   3  -3    4.94    0.53
   0   3  -3    5.30    0.59
  -1   3  -3   44.66    3.08
  -1   3  -3   36.27    3.00
   1  -3   3   38.96    3.03
  -2   3  -3    0.02    0.09
  -2   3  -3    0.16    0.13
   2  -3   3    0.06    0.16
  -3   3  -3    2.01    0.27
   4  -3   3    9.53    0.73
   4  -3   3    9.21    0.75
   4  -3   3   10.22    0.77
   5  -3   3    5.93    0.51
   5  -3   3    6.30    0.54
   5  -3   3    6.22    0.48
   6  -3   3    1.39    0.18
   6  -3   3    1.45    0.15
   7  -3   3    5.72    0.54
   7  -3   3    7.47    1.03
   8  -3   3    0.31    0.07
   8  -3   3    0.14    0.26
   8  -3   3    0.21    0.08
   9  -3   3   15.44    1.07
   9  -3   3   12.59    1.04
   7   2  -3    1.77    0.18
   7   2  -3    2.08    0.22
  -7  -2   3    1.81    0.27
   6   2  -3   17.47    1.22
   6   2  -3   16.22    1.20
   6   2  -3   17.44    1.26
  -6  -2   3   13.44    1.30
   5   2  -3    1.34    0.45
   5   2  -3    0.76    0.12
   4   2  -3   53.21    4.54
   4   2  -3   64.34    4.28
   4   2  -3   57.06    4.26
   4   2  -3   56.41    4.28
  -4  -2   3   63.50    4.46
   3   2  -3    1.13    0.12
   3   2  -3    1.03    0.37
  -3  -2   3    1.04    0.14
   2   2  -3   72.15    5.10
  -2  -2   3   65.38    4.99
  -2  -2   3   59.40    4.76
  -1  -2   3    0.35    0.16
   0   2  -3   63.37    4.60
   0  -2   3   65.02    4.59
   0  -2   3   56.05    4.65
  -1   2  -3   85.01    5.74
   1  -2   3   68.81    5.71
   1  -2   3   78.03    5.77
  -2   2  -3   39.88    3.19
   2  -2   3   42.75    3.32
  -3   2  -3   25.58    2.05
  -3   2  -3   24.91    2.30
   3  -2   3   25.62    2.18
  -4   2  -3   28.08    2.04
   4  -2   3   26.52    2.01
  -5   2  -3   19.76    1.56
   5  -2   3   19.77    1.50
   5  -2   3   22.85    1.99
   5  -2   3   19.38    1.51
   5  -2   3   20.37    1.53
  -6   2  -3    2.51    0.30
   6  -2   3    2.58    0.23
   6  -2   3    1.80    0.52
   6  -2   3    2.58    0.26
  -7   2  -3   26.66    1.98
   7  -2   3   27.20    1.87
   7  -2   3   21.05    2.37
  -8   2  -3   14.84    1.28
   8  -2   3   16.75    1.19
   8   1  -3    6.57    0.53
   8   1  -3    5.94    0.50
  -8  -1   3    6.53    0.59
   7   1  -3    4.02    0.34
   7   1  -3    3.91    0.33
   7   1  -3    4.01    0.37
  -7  -1   3    3.92    0.42
   6   1  -3   36.57    2.75
   6   1  -3   38.01    2.79
   6   1  -3   38.73    2.77
   5   1  -3    7.50    0.63
   5   1  -3    8.25    0.65
   5   1  -3    9.21    0.70
  -5  -1   3    8.50    0.70
   4   1  -3    8.79    0.72
   4   1  -3    8.99    0.70
   4   1  -3   10.31    0.75
  -4  -1   3   10.70    0.76
  -4  -1   3    8.19    1.00
   3   1  -3    9.88    1.02
  -3  -1   3   10.96    1.00
  -3  -1   3    8.61    0.75
   2   1  -3  181.78   11.81
  -2  -1   3  138.31   11.85
   1   1  -3  670.78   45.05
  -1  -1   3  664.60   45.12
  -1  -1   3  539.08   45.02
   0   1  -3   20.19    1.58
   0  -1   3   18.79    1.58
  -1   1  -3  405.99   26.61
   1  -1   3  321.28   26.50
   1  -1   3  370.90   26.68
  -2   1  -3   17.08    1.60
   2  -1   3   18.24    1.69
  -3   1  -3  233.34   17.53
   3  -1   3  247.20   17.76
  -4   1  -3    4.35    0.39
   4  -1   3    3.97    0.35
  -5   1  -3   36.13    2.85
   5  -1   3   40.63    3.35
   5  -1   3   40.85    2.78
   5  -1   3   35.17    2.81
  -6   1  -3    0.98    0.21
   6  -1   3    0.88    0.15
   6  -1   3    0.81    0.11
   6  -1   3    0.58    0.36
  -7   1  -3   24.82    1.89
   7  -1   3   19.90    1.79
   7  -1   3   28.11    2.45
  -8   1  -3    0.13    0.21
  -8   1  -3    0.59    0.16
   8  -1   3    0.72    0.12
   8   0  -3    0.20    0.08
   8   0  -3    0.24    0.07
  -8   0   3    0.10    0.10
   7   0  -3    8.45    0.61
   7   0  -3    7.11    0.61
   6   0  -3    8.62    0.69
   6   0  -3    8.69    0.72
   6   0  -3    8.87    0.68
   6   0  -3    8.81    0.70
  -6   0   3    8.93    0.74
   5   0  -3   75.39    5.34
   5   0  -3   75.74    5.33
   5   0  -3   67.80    5.34
   5   0  -3   74.54    5.36
  -5   0   3   75.22    5.38
   4   0  -3   28.82    2.21
   4   0  -3   29.05    2.22
  -4   0   3   32.97    2.52
  -4   0   3   30.83    2.24
   3   0  -3   55.34    4.23
  -3   0   3   54.88    4.18
  -2   0   3  608.83   44.16
  -2   0   3  615.88   44.23
   1   0  -3  293.08   21.77
  -1   0   3  307.79   21.79
   0   0  -3    5.50    0.59
   0   0   3    6.61    0.75
  -1   0  -3   13.23    1.29
  -1   0  -3   16.77    1.48
   1   0   3   16.82    1.58
  -2   0  -3    0.57    0.21
   2   0   3    0.58    0.35
  -3   0  -3   18.28    1.32
  -3   0  -3   16.31    1.54
   3   0   3   16.31    1.79
  -4   0  -3   23.82    1.72
   4   0   3   20.92    1.66
   5   0   3   26.89    1.78
   5   0   3   19.67    2.20
  -6   0  -3   26.94    2.07
   6   0   3   29.38    2.01
   6   0   3   22.89    2.49
   7   0   3    6.46    0.98
   8   0   3    7.48    0.99
   8   0   3    7.94    0.62
   9  -1  -3    1.76    0.17
   8  -1  -3    0.29    0.08
   8  -1  -3    0.24    0.07
   8  -1  -3    0.12    0.08
  -8   1   3    0.16    0.11
   7  -1  -3   42.89    3.10
   7  -1  -3   42.00    3.11
   6  -1  -3    0.96    0.14
   6  -1  -3    0.71    0.13
   6  -1  -3    0.92    0.11
   6  -1  -3    0.87    0.18
   6  -1  -3    0.80    0.10
  -6   1   3    0.90    0.15
   5  -1  -3   16.64    1.24
   5  -1  -3   17.66    1.22
   5  -1  -3   15.59    1.27
   5  -1  -3   17.43    1.23
   5  -1  -3   16.09    1.27
  -5   1   3   15.51    1.24
  -4   1   3   42.61    3.51
  -4   1   3   53.91    3.73
   3  -1  -3   14.03    1.22
  -3   1   3   13.94    1.25
   2  -1  -3    0.64    0.18
  -2   1   3    1.05    0.28
  -2   1   3    0.66    0.19
   1  -1  -3   34.55    2.61
  -1   1   3   36.01    2.68
  -1   1   3   29.43    2.80
   0  -1  -3    5.63    0.58
   0   1   3    4.29    0.75
   0   1   3    5.33    0.63
  -1  -1  -3   32.13    2.77
   1   1   3   37.53    3.18
  -2  -1  -3    6.48    0.78
  -2  -1  -3    7.82    0.58
   2   1   3    6.01    0.54
   2   1   3    6.39    1.00
  -3  -1  -3   20.07    1.38
   3   1   3   16.59    1.34
   3   1   3   16.01    1.30
  -4  -1  -3    0.32    0.12
   4   1   3    0.04    0.26
   4   1   3    0.50    0.10
   4   1   3    0.76    0.37
  -5  -1  -3    4.97    0.60
   5   1   3    7.50    0.56
   5   1   3    7.87    1.06
  -6  -1  -3    0.95    0.21
  -6  -1  -3    0.43    0.23
   6   1   3    0.59    0.37
   6   1   3    1.07    0.15
  -7  -1  -3    4.37    0.48
   7   1   3    5.27    0.84
   7   1   3    5.03    0.42
   9  -2  -3    0.00    0.03
   8  -2  -3    4.90    0.43
   8  -2  -3    5.48    0.43
   8  -2  -3    5.27    0.48
   7  -2  -3    0.82    0.15
   7  -2  -3    0.65    0.10
   7  -2  -3    1.16    0.21
   7  -2  -3    0.75    0.12
   6  -2  -3    8.42    0.69
   6  -2  -3    8.81    0.73
   6  -2  -3    8.93    0.67
   6  -2  -3    8.44    0.67
   5  -2  -3    8.57    0.70
   5  -2  -3    8.64    0.66
   5  -2  -3    8.85    0.67
   5  -2  -3    8.41    0.69
   5  -2  -3    8.76    0.66
   5  -2  -3    8.60    0.65
  -5   2   3    8.16    0.67
   4  -2  -3    3.05    0.25
   4  -2  -3    3.01    0.27
   4  -2  -3    2.86    0.26
  -4   2   3    2.08    0.54
  -4   2   3    2.45    0.25
  -3   2   3    6.19    0.91
  -2   2   3   39.26    3.10
   1  -2  -3   11.45    1.00
  -1   2   3   10.60    1.28
  -1   2   3    9.67    1.04
   0  -2  -3    1.02    0.26
   0   2   3    0.79    0.43
  -1  -2  -3   35.42    2.70
  -1  -2  -3   26.97    2.38
   1   2   3   31.28    2.36
   1   2   3   35.56    3.09
  -2  -2  -3    3.56    0.36
  -2  -2  -3    2.66    0.56
   2   2   3    4.25    1.20
   2   2   3    4.54    0.72
   2   2   3    3.35    0.32
  -3  -2  -3   20.13    1.52
   3   2   3   16.62    1.42
   3   2   3   20.85    1.49
  -4  -2  -3    0.10    0.14
  -4  -2  -3    0.02    0.09
   4   2   3    0.06    0.20
   4   2   3    0.03    0.05
   4   2   3    0.14    0.33
   4   2   3   -0.02    0.09
  -5  -2  -3   12.25    1.02
   5   2   3   12.03    1.43
   5   2   3   10.70    0.90
  -6  -2  -3    4.94    0.51
   6   2   3    4.75    0.83
   6   2   3    4.94    0.42
   9  -3  -3   27.90    2.09
   9  -3  -3   28.05    2.06
   8  -3  -3   12.55    1.12
   8  -3  -3   16.87    1.20
   7  -3  -3   49.09    3.73
   7  -3  -3   51.81    3.66
   7  -3  -3   49.59    3.65
   6  -3  -3    5.37    0.48
   6  -3  -3    5.92    0.47
   6  -3  -3    5.83    0.53
   6  -3  -3    5.86    0.46
   6  -3  -3    6.17    0.53
   6  -3  -3    5.80    0.47
   5  -3  -3  179.56   12.67
   5  -3  -3  173.31   12.61
   5  -3  -3  168.03   12.61
   5  -3  -3  167.43   12.63
   5  -3  -3  177.16   12.67
   5  -3  -3  185.42   12.64
   4  -3  -3   31.97    2.37
   4  -3  -3   31.01    2.34
   4  -3  -3   32.78    2.37
   4  -3  -3   32.09    2.34
   3  -3  -3   18.74    1.35
   3  -3  -3   19.27    1.37
   3  -3  -3   19.79    1.35
  -3   3   3   16.96    1.74
  -3   3   3   15.44    1.36
   2  -3  -3    4.05    0.33
  -2   3   3    3.20    0.32
   1  -3  -3    4.44    0.39
  -1   3   3    4.54    0.39
   0  -3  -3    1.85    0.39
   0   3   3    1.25    0.59
  -1  -3  -3    0.98    0.43
   1   3   3    1.18    0.31
   1   3   3    0.95    0.38
  -2  -3  -3   68.45    4.93
   2   3   3   61.10    5.39
   2   3   3   59.89    5.21
   2   3   3   76.78    4.91
  -3  -3  -3   16.78    1.32
   3   3   3   15.52    1.21
   3   3   3   14.79    1.78
   3   3   3   16.84    1.29
  -4  -3  -3   28.22    2.03
   4   3   3   22.69    1.96
   4   3   3   26.28    1.90
   4   3   3   25.18    2.53
  -5  -3  -3    0.22    0.13
   5   3   3    0.08    0.21
   5   3   3    0.01    0.06
   6   3   3    8.63    1.03
   9  -4  -3    4.08    0.37
   9  -4  -3    3.87    0.33
   8  -4  -3    4.29    0.45
   8  -4  -3    3.69    0.39
   8  -4  -3    5.25    0.38
   7  -4  -3    2.87    0.27
   7  -4  -3    3.08    0.34
   6  -4  -3   40.05    3.22
   6  -4  -3   45.10    3.28
   6  -4  -3   47.14    3.29
   6  -4  -3   44.02    3.21
   5  -4  -3    3.46    0.35
   5  -4  -3    3.75    0.32
   5  -4  -3    3.51    0.32
   5  -4  -3    3.75    0.36
   4  -4  -3  128.88    9.49
   4  -4  -3  139.52    9.49
   4  -4  -3  118.26    9.51
   4  -4  -3  138.85    9.53
   3  -4  -3    0.04    0.04
   3  -4  -3    0.05    0.04
   3  -4  -3    0.07    0.05
  -3   4   3    0.04    0.08
   2  -4  -3   63.82    4.88
   2  -4  -3   70.61    4.92
   2  -4  -3   70.33    4.89
  -2   4   3   64.52    4.91
   1  -4  -3    0.90    0.12
   1  -4  -3    1.18    0.12
   1  -4  -3    0.89    0.14
  -1   4   3    0.98    0.14
   0  -4  -3   13.35    1.07
   0  -4  -3   14.18    1.11
   0   4   3   14.45    1.10
   1   4   3    7.42    0.67
   1   4   3    8.47    1.12
   1   4   3    8.05    0.95
   2   4   3    0.91    0.46
   2   4   3    0.71    0.17
   2   4   3    1.06    0.41
   3   4   3    5.03    0.85
   3   4   3    6.66    1.05
  -4  -4  -3    0.02    0.08
   4   4   3    0.10    0.22
   9  -5  -3    7.83    0.63
   8  -5  -3    2.10    0.27
   8  -5  -3    2.03    0.22
   7  -5  -3    0.03    0.06
   7  -5  -3    0.05    0.05
   7  -5  -3    0.03    0.04
   6  -5  -3    1.29    0.20
   6  -5  -3    1.58    0.17
   5  -5  -3    1.45    0.17
   5  -5  -3    1.25    0.16
   4  -5  -3    0.19    0.08
   4  -5  -3    0.44    0.09
   4  -5  -3    0.22    0.07
   3  -5  -3    2.24    0.22
   3  -5  -3    2.19    0.22
   2  -5  -3    0.90    0.12
   2  -5  -3    0.95    0.12
   2  -5  -3    0.73    0.15
  -2   5   3    1.05    0.17
   1  -5  -3   14.63    1.18
   1  -5  -3   13.45    1.21
   1  -5  -3   16.15    1.17
  -1   5   3   18.10    1.24
   0   5   3    5.29    0.50
  -1  -5  -3   22.67    1.67
   1   5   3   22.60    2.30
   1   5   3   20.87    1.72
   2   5   3    1.81    0.64
  -3  -5  -3   10.79    0.74
  -3  -5  -3   10.05    0.76
   3   5   3    7.53    1.08
   3   5   3    9.17    0.80
   3   5   3    7.66    1.14
   9  -6  -3    0.01    0.05
   8  -6  -3    3.91    0.34
   8  -6  -3    3.64    0.39
   7  -6  -3    2.77    0.28
   7  -6  -3    3.04    0.33
   7  -6  -3    3.13    0.28
   6  -6  -3    0.21    0.07
   6  -6  -3    0.14    0.06
   6  -6  -3    0.13    0.08
   5  -6  -3    3.58    0.34
   5  -6  -3    2.86    0.28
   5  -6  -3    2.90    0.29
   4  -6  -3   17.88    1.32
   4  -6  -3   17.23    1.37
   4  -6  -3   17.06    1.32
   3  -6  -3    2.67    0.29
   3  -6  -3    2.26    0.24
   2  -6  -3    0.10    0.07
   2  -6  -3    0.07    0.05
  -2   6   3    0.99    0.44
  -2   6   3    0.11    0.10
   1  -6  -3   16.07    1.23
   0  -6  -3    4.32    0.43
   0   6   3    4.96    0.49
   0   6   3    5.45    0.96
  -1  -6  -3   15.24    1.14
  -1  -6  -3   14.91    1.11
   1   6   3   13.19    1.18
  -2  -6  -3   15.47    1.09
  -2  -6  -3   14.07    1.14
   2   6   3   14.17    1.16
   2   6   3   15.15    1.60
   2   6   3   12.91    1.45
   8  -7  -3    0.18    0.09
   8  -7  -3    0.23    0.06
   8  -7  -3    0.24    0.07
   7  -7  -3   17.48    1.31
   7  -7  -3   17.31    1.36
   7  -7  -3   17.57    1.30
   6  -7  -3    4.09    0.39
   6  -7  -3    3.94    0.34
   6  -7  -3    3.57    0.34
   5  -7  -3    7.22    0.62
   5  -7  -3    8.41    0.68
   5  -7  -3    7.71    0.62
   4  -7  -3    0.03    0.04
   4  -7  -3    0.04    0.07
   4  -7  -3    0.08    0.04
  -4   7   3    0.27    0.34
   3  -7  -3    0.11    0.07
   3  -7  -3    0.09    0.05
   3  -7  -3    0.06    0.04
  -3   7   3    0.29    0.30
   2  -7  -3    0.77    0.11
   2  -7  -3    0.80    0.15
  -2   7   3    0.24    0.31
  -2   7   3    0.61    0.17
  -1   7   3    1.07    0.50
  -1   7   3    0.02    0.09
   0  -7  -3    9.88    0.78
   0  -7  -3   10.91    0.76
   0   7   3    8.56    0.81
  -1  -7  -3    0.09    0.04
   1   7   3    0.17    0.30
   6  -8  -3    0.63    0.13
   6  -8  -3    0.62    0.09
   6  -8  -3    0.62    0.09
   5  -8  -3   11.88    0.87
   5  -8  -3   11.78    0.91
   5  -8  -3   10.71    0.87
   4  -8  -3   10.30    0.79
   4  -8  -3    8.83    0.74
   4  -8  -3   10.23    0.75
   3  -8  -3    7.97    0.68
   3  -8  -3    9.02    0.66
   2  -8  -3   12.89    0.97
   0   9  -4    0.21    0.20
   0  -9   4    0.09    0.08
  -1   9  -4    1.20    0.17
   1  -9   4    1.60    0.24
  -2   9  -4    1.12    0.36
   2  -9   4    0.49    0.09
   2  -9   4    0.56    0.17
   4  -9   4    1.87    0.20
   5  -9   4    1.61    0.21
   5  -9   4    1.41    0.17
   6  -9   4    0.70    0.14
   6  -9   4    0.80    0.12
   7  -9   4    4.59    0.38
   7  -9   4    3.78    0.39
   2   8  -4    1.44    0.40
   1   8  -4    9.53    1.13
   1   8  -4   10.95    0.83
  -1  -8   4   10.85    0.92
   0   8  -4    4.70    0.41
  -1   8  -4    2.94    0.26
  -1   8  -4    2.47    0.52
   1  -8   4    2.75    0.25
   1  -8   4    2.07    0.34
  -2   8  -4    0.37    0.09
   2  -8   4    0.37    0.08
   2  -8   4    0.36    0.16
   3  -8   4    0.15    0.09
   3  -8   4    0.07    0.09
   3  -8   4    0.07    0.05
   4  -8   4    1.20    0.20
   4  -8   4    1.13    0.24
   5  -8   4   11.53    0.90
   5  -8   4   11.52    0.94
   6  -8   4    0.05    0.05
   6  -8   4    0.04    0.07
   6  -8   4   -0.02    0.07
   7  -8   4    1.83    0.22
   7  -8   4    1.57    0.20
   8  -8   4   11.76    0.90
   8  -8   4   11.27    0.89
   3   7  -4    0.17    0.22
   2   7  -4    0.88    0.14
  -2  -7   4    0.85    0.21
   1   7  -4    1.53    0.18
  -1  -7   4    1.41    0.26
   0   7  -4   32.49    3.03
   0   7  -4   40.02    2.69
   0  -7   4   36.07    2.66
  -1   7  -4   39.22    2.88
   1  -7   4   39.17    2.87
  -2   7  -4   12.44    0.86
   2  -7   4   10.49    1.00
   2  -7   4   10.38    0.86
   2  -7   4   10.98    0.90
   3  -7   4    9.57    0.80
   3  -7   4   14.68   29.48
   3  -7   4   11.19    0.85
   4  -7   4   37.10    3.14
   4  -7   4   47.93    3.30
   4  -7   4   47.52    3.16
   4  -7   4   39.26    3.17
   5  -7   4    3.16    0.34
   5  -7   4    3.94    0.35
   5  -7   4    3.57    0.32
   6  -7   4   19.01    1.56
   6  -7   4   20.57    1.53
   6  -7   4   21.53    1.57
   6  -7   4   20.34    1.54
   7  -7   4    9.77    0.77
   7  -7   4    8.93    0.75
   8  -7   4    0.99    0.16
   9  -7   4   12.15    0.93
   4   6  -4   41.24    3.04
   3   6  -4    0.17    0.07
   3   6  -4    0.79    0.35
  -3  -6   4    0.32    0.15
   2   6  -4   60.76    3.96
   2   6  -4   46.47    4.27
   1   6  -4   10.34    0.82
   0   6  -4   31.24    2.67
   0  -6   4   39.48    2.83
   0  -6   4   39.02    2.67
   0  -6   4   -3.79   29.66
  -1   6  -4    1.39    0.15
   1  -6   4    1.18    0.18
   1  -6   4    0.24   24.45
   1  -6   4    1.22    0.14
   1  -6   4    1.34    0.24
  -2   6  -4    0.09    0.04
   2  -6   4    0.09    0.09
   2  -6   4    0.07    0.05
   2  -6   4  -18.52   24.06
   2  -6   4    0.05    0.06
   2  -6   4   -0.01    0.05
   3  -6   4   -9.57   27.97
   4  -6   4  -13.33   28.35
   5  -6   4   34.22    2.54
   5  -6   4   62.42   38.68
   5  -6   4   36.72    2.55
   5  -6   4   30.93    2.56
   5  -6   4   36.22    2.58
   6  -6   4    0.17    0.10
   6  -6   4    0.05    0.05
   6  -6   4    0.05    0.05
   7  -6   4   24.03    1.78
   7  -6   4   23.46    1.80
   8  -6   4    0.02    0.05
   8  -6   4    0.00    0.06
   9  -6   4   27.55    2.06
   9  -6   4   28.10    2.06
   5   5  -4    3.43    0.69
  -5  -5   4    2.59    0.35
   4   5  -4    7.40    0.63
   4   5  -4    8.72    1.05
  -4  -5   4    7.25    0.69
   3   5  -4   51.04    3.87
   3   5  -4   46.72    3.43
  -3  -5   4   43.32    3.48
  -3  -5   4   45.87    3.55
   2   5  -4    2.63    0.28
  -2  -5   4    3.60    0.40
   1   5  -4   27.03    2.22
  -1  -5   4   33.61    2.36
  -1  -5   4   23.01   35.33
  -1  -5   4   29.89    2.21
   0  -5   4  -10.95   26.02
  -1   5  -4   17.24    1.24
   1  -5   4   16.73    1.24
   1  -5   4   16.72    1.27
   1  -5   4   -3.73   21.83
   1  -5   4   16.51    1.34
   1  -5   4   15.63    1.24
  -2   5  -4    1.78    0.37
  -2   5  -4    1.93    0.18
   2  -5   4    1.95    0.26
   2  -5   4   -3.16   22.44
   2  -5   4    1.92    0.20
   3  -5   4  -13.72   26.59
   4  -5   4    0.12    0.21
   4  -5   4    0.36    0.09
   4  -5   4    0.41    0.08
   4  -5   4    0.24    0.07
   4  -5   4    0.32    0.08
   4  -5   4    2.60   27.62
   5  -5   4    8.42    0.67
   5  -5   4    8.35    0.69
   5  -5   4    7.39    1.00
   5  -5   4    8.92    0.66
   6  -5   4    0.60    0.12
   6  -5   4    0.89    0.17
   6  -5   4    0.81    0.36
   6  -5   4    0.57    0.11
   7  -5   4    8.02    0.67
   7  -5   4    8.12    0.65
   8  -5   4    0.57    0.11
   8  -5   4    0.64    0.11
   9  -5   4    0.78    0.12
   9  -5   4    0.78    0.12
   6   4  -4    0.24    0.08
  -6  -4   4    0.15    0.11
   5   4  -4    2.39    0.63
  -5  -4   4    2.49    0.33
   4   4  -4    1.78    0.20
   4   4  -4    1.44    0.17
  -4  -4   4    2.30    0.28
  -4  -4   4    1.53    0.28
   3   4  -4   45.02    3.35
   3   4  -4   49.64    3.71
  -3  -4   4   46.05    3.41
  -3  -4   4   42.57    3.46
   2   4  -4    9.94    0.75
  -2  -4   4    9.03    0.77
  -2  -4   4    9.75    0.85
  -1  -4   4   25.37    1.98
  -1  -4   4   25.71    1.96
  -1  -4   4   29.25    2.08
  -1  -4   4    4.56   35.25
   0   4  -4    8.67    0.69
   0   4  -4    9.27    0.98
  -1   4  -4    8.05    0.80
  -1   4  -4    6.73    0.56
  -2   4  -4    1.98    0.34
   3  -4   4   45.34    3.14
   3  -4   4   40.75    3.14
   4  -4   4    2.22    0.23
   4  -4   4    2.16    0.22
   4  -4   4    2.34    0.21
   5  -4   4    3.09    0.30
   5  -4   4    3.48    0.34
   5  -4   4    3.23    0.28
   6  -4   4    2.39    0.56
   6  -4   4    1.78    0.18
   6  -4   4    1.31    0.18
   7  -4   4    0.66    0.38
   7  -4   4    0.06    0.06
   8  -4   4    5.28    0.47
   8  -4   4    5.98    0.50
   9  -4   4    0.72    0.12
   9  -4   4    0.70    0.11
   7   3  -4   34.31    2.49
  -7  -3   4   32.91    2.59
   6   3  -4    3.90    0.36
   6   3  -4    4.90    0.41
  -6  -3   4    4.82    0.48
   4   3  -4   13.29    1.02
   4   3  -4   13.06    0.99
   4   3  -4   14.08    1.01
  -4  -3   4   14.26    1.15
  -4  -3   4   11.48    1.07
   3   3  -4   56.28    4.58
   3   3  -4   59.41    4.83
   3   3  -4   63.82    4.61
  -3  -3   4   71.12    4.66
  -3  -3   4   66.55    4.75
   2   3  -4    5.28    0.43
   2   3  -4    5.45    0.76
  -2  -3   4    6.29    0.76
  -2  -3   4    4.49    0.52
   1   3  -4    4.24    0.35
   1   3  -4    4.14    0.58
   0   3  -4    6.27    0.67
   0   3  -4    5.81    0.69
   0  -3   4    6.97    0.68
  -1   3  -4   18.97    1.49
  -1   3  -4   15.97    1.44
   1  -3   4   16.49    1.48
  -2   3  -4   76.39    6.41
   2  -3   4   95.75    6.59
  -3   3  -4    4.18    0.51
   4  -3   4  105.87    8.05
   4  -3   4  116.76    8.04
  -5   3  -4    0.83    0.16
   5  -3   4    0.42    0.08
   5  -3   4    0.33    0.26
   5  -3   4    0.53    0.11
   5  -3   4    0.41    0.26
  -6   3  -4   21.05    1.83
   6  -3   4   25.49    1.77
   6  -3   4   24.73    1.80
   7  -3   4    0.14    0.07
   7  -3   4    0.24    0.29
   7  -3   4    0.21    0.07
   8  -3   4   16.91    1.87
   8  -3   4   19.74    1.41
   8  -3   4   18.21    1.38
  -9   3  -4    0.00    0.14
   9  -3   4    0.21    0.36
   9  -3   4    0.07    0.05
   7   2  -4    2.56    0.26
   7   2  -4    2.42    0.23
  -7  -2   4    2.34    0.31
   6   2  -4   33.09    2.35
   6   2  -4   30.04    2.33
   6   2  -4   32.36    2.37
   5   2  -4    5.19    0.44
   5   2  -4    5.89    0.46
   4   2  -4   70.05    4.80
  -4  -2   4   71.02    4.88
  -4  -2   4   57.89    4.98
   3   2  -4   68.42    5.41
   3   2  -4   72.50    5.42
   3   2  -4   78.71    5.89
  -3  -2   4   69.53    5.79
  -3  -2   4   85.62    5.47
   2   2  -4    8.51    0.67
   2   2  -4   10.19    0.99
  -2  -2   4    7.75    0.90
   1   2  -4  197.26   14.98
  -1  -2   4  211.09   14.94
   0   2  -4    6.85    0.74
   0   2  -4    8.58    0.79
   0  -2   4    7.33    0.75
  -1   2  -4    2.48    0.38
   1  -2   4    2.32    0.42
  -2   2  -4   10.96    1.17
  -2   2  -4   14.54    1.30
   2  -2   4   14.84    1.45
  -3   2  -4    0.90    0.15
  -3   2  -4    0.93    0.27
  -4   2  -4    0.43    0.26
   4  -2   4    0.75    0.31
   4  -2   4    0.69    0.30
  -5   2  -4    3.95    0.42
   5  -2   4    3.96    0.35
   5  -2   4    4.23    0.38
   5  -2   4    5.57    0.80
   5  -2   4    4.46    0.69
  -6   2  -4   15.45    1.25
   6  -2   4   15.85    1.16
   6  -2   4   14.13    1.68
   6  -2   4   15.74    1.19
  -7   2  -4   51.44    3.89
   7  -2   4   50.22    3.81
   7  -2   4   49.81    4.41
   7  -2   4   55.54    3.78
  -8   2  -4   12.25    1.16
   8  -2   4   16.53    1.12
   8   1  -4    0.13    0.07
   8   1  -4    0.19    0.06
  -8  -1   4    0.20    0.11
   7   1  -4    0.84    0.12
   7   1  -4    0.83    0.11
   7   1  -4    0.85    0.14
  -7  -1   4    0.70    0.18
   6   1  -4    0.38    0.08
  -6  -1   4    0.38    0.12
   5   1  -4    7.14    0.57
   5   1  -4    6.28    0.52
   5   1  -4    6.05    0.50
  -5  -1   4    6.31    0.56
   4   1  -4    3.82    0.38
   4   1  -4    4.35    0.39
   4   1  -4    4.48    0.35
  -4  -1   4    4.77    0.40
   2   1  -4   81.16    6.25
  -2  -1   4   84.22    6.21
   1   1  -4   89.22    7.09
  -1  -1   4  100.92    7.11
   0   1  -4    9.71    0.98
   0  -1   4   10.78    1.07
  -1   1  -4   17.72    1.66
  -1   1  -4   21.77    1.80
   1  -1   4   21.53    1.95
  -2   1  -4   47.22    3.84
   2  -1   4   47.25    4.00
  -3   1  -4    1.57    0.35
   3  -1   4    2.02    0.70
  -4   1  -4   44.22    3.01
   4  -1   4   37.76    3.33
   4  -1   4   44.95    3.44
   4  -1   4   39.05    2.94
   4  -1   4   35.71    2.92
  -5   1  -4    1.78    0.26
   5  -1   4    2.10    0.23
   5  -1   4    2.20    0.22
  -6   1  -4    6.12    0.62
   6  -1   4    6.90    0.56
  -7   1  -4    0.40    0.25
  -7   1  -4    0.91    0.22
   7  -1   4    0.87    0.14
  -8   1  -4    0.32    0.19
   8  -1   4    0.51    0.10
   8   0  -4    1.70    0.17
   8   0  -4    1.78    0.18
  -8   0   4    1.46    0.25
   7   0  -4    2.06    0.23
   7   0  -4    2.08    0.27
  -7   0   4    2.28    0.28
   6   0  -4    1.34    0.20
   6   0  -4    0.95    0.13
   6   0  -4    1.38    0.16
  -6   0   4    1.27    0.19
   5   0  -4    0.62    0.09
   5   0  -4    0.62    0.12
   5   0  -4    0.65    0.10
   5   0  -4    0.63    0.12
  -5   0   4    0.61    0.12
   4   0  -4   18.61    1.49
   4   0  -4   19.59    1.46
   4   0  -4   20.69    1.45
   4   0  -4   19.25    1.47
  -4   0   4   20.44    1.49
   3   0  -4    0.12    0.13
  -3   0   4    0.76    0.25
   2   0  -4   60.94    4.21
  -2   0   4   45.68    4.15
  -2   0   4   56.04    4.22
   1   0  -4   11.23    1.09
  -1   0   4   11.61    1.13
  -1   0   4   12.88    1.23
   0   0  -4    7.80    0.76
   0   0   4    6.66    0.94
  -1   0  -4   22.51    1.98
   1   0   4   25.56    2.37
  -2   0  -4    0.54    0.25
   2   0   4    0.58    0.46
  -3   0  -4    2.18    0.25
   3   0   4    1.89    0.24
   3   0   4    2.42    0.55
   3   0   4    2.24    0.47
   3   0   4    1.63    0.76
  -4   0  -4   10.28    0.89
   4   0   4   11.20    1.27
   4   0   4   10.34    0.82
   4   0   4   10.62    1.26
  -5   0  -4    4.70    0.49
  -6   0  -4    3.14    0.37
   6   0   4    2.29    0.61
   6   0   4    3.04    0.29
  -7   0  -4    0.10    0.17
  -7   0  -4    0.06    0.09
   7   0   4    0.48    0.34
   7   0   4    0.04    0.05
   9  -1  -4    0.43    0.07
   8  -1  -4   18.09    1.39
   8  -1  -4   18.67    1.40
   8  -1  -4   18.30    1.44
  -8   1   4   19.37    1.48
   7  -1  -4    7.43    0.66
   7  -1  -4    9.76    0.68
   6  -1  -4   13.92    1.07
   6  -1  -4   14.79    1.10
   6  -1  -4   13.73    1.06
  -6   1   4   13.85    1.10
   5  -1  -4    3.47    0.37
   5  -1  -4    4.12    0.34
   5  -1  -4    4.39    0.36
   5  -1  -4    4.19    0.33
   5  -1  -4    4.23    0.39
  -5   1   4    3.90    0.36
   4  -1  -4   85.72    7.24
   4  -1  -4  106.42    7.28
   4  -1  -4  101.81    7.23
   4  -1  -4  101.03    7.24
   4  -1  -4  104.94    7.22
  -4   1   4  105.71    7.26
  -4   1   4   94.90    7.56
   3  -1  -4    8.06    0.87
  -3   1   4    6.58    0.59
  -3   1   4    8.43    0.93
   2  -1  -4   37.47    3.01
  -2   1   4   35.29    3.05
  -2   1   4   41.42    3.23
   1  -1  -4   18.94    1.58
  -1   1   4   17.26    1.62
   0  -1  -4   58.06    4.01
   0   1   4   43.81    4.31
  -1  -1  -4   25.35    1.91
  -1  -1  -4   25.79    2.19
   1   1   4   22.96    1.88
   1   1   4   27.44    2.64
  -2  -1  -4    5.77    0.55
   2   1   4    6.32    0.86
   2   1   4    4.88    0.69
   2   1   4    4.28    0.98
  -3  -1  -4   99.76    6.76
   3   1   4   84.22    6.71
   3   1   4  104.22    7.19
   3   1   4   80.85    6.65
   4   1   4   22.78    2.29
   4   1   4   25.19    2.36
  -5  -1  -4   14.71    1.35
  -5  -1  -4   17.66    1.32
   5   1   4   14.41    1.69
  -6  -1  -4   20.79    1.66
  -6  -1  -4   18.67    1.69
   6   1   4   22.35    1.56
   7   1   4   15.68    1.18
   9  -2  -4    2.20    0.21
   8  -2  -4    4.63    0.47
   8  -2  -4    5.70    0.44
   8  -2  -4    5.38    0.43
   7  -2  -4    4.31    0.45
   7  -2  -4    4.43    0.37
   7  -2  -4    5.18    0.38
   7  -2  -4    3.57    0.39
   6  -2  -4    0.10    0.04
   6  -2  -4    0.34    0.07
   6  -2  -4    0.14    0.06
   6  -2  -4    0.15    0.09
   6  -2  -4    0.10    0.07
  -6   2   4    0.14    0.21
  -6   2   4    0.14    0.07
   5  -2  -4   69.39    5.16
   5  -2  -4   73.21    5.16
   5  -2  -4   73.46    5.18
   5  -2  -4   73.05    5.16
   5  -2  -4   75.89    5.23
   5  -2  -4   68.40    5.20
  -5   2   4   65.56    5.19
   4  -2  -4    0.26    0.06
   4  -2  -4    0.27    0.08
   4  -2  -4    0.25    0.08
   4  -2  -4    0.21    0.06
   4  -2  -4    0.23    0.05
  -4   2   4    0.22    0.08
  -4   2   4   -0.11    0.47
   3  -2  -4   87.56    6.12
  -3   2   4   72.59    6.71
  -3   2   4   92.01    6.14
  -2   2   4    0.33    0.09
  -2   2   4    0.37    0.48
   1  -2  -4   64.21    4.77
   1  -2  -4   65.32    5.02
  -1   2   4   66.58    4.78
   0  -2  -4    1.36    0.20
   0   2   4    1.42    0.68
   0   2   4    1.58    0.19
  -1  -2  -4   72.57    5.78
  -1  -2  -4   81.23    5.46
  -1  -2  -4   74.85    5.43
   1   2   4   66.37    6.27
  -2  -2  -4    0.69    0.19
  -2  -2  -4    0.53    0.15
   2   2   4    0.56    0.14
  -3  -2  -4   47.96    3.47
  -3  -2  -4   44.23    3.49
   3   2   4   45.87    3.44
  -4  -2  -4    5.21    0.53
   4   2   4    3.78    0.75
  -5  -2  -4    1.98    0.30
   5   2   4    1.80    0.23
  -6  -2  -4    5.22    0.51
   6   2   4    4.66    0.77
   9  -3  -4   19.91    1.49
   9  -3  -4   20.45    1.53
   8  -3  -4   -0.03    0.11
   8  -3  -4    0.11    0.05
   8  -3  -4    0.05    0.04
   8  -3  -4    0.06    0.07
   7  -3  -4   27.01    2.04
   7  -3  -4   26.33    1.96
   7  -3  -4   26.32    1.95
   6  -3  -4    0.02    0.06
   6  -3  -4    0.07    0.04
   6  -3  -4    0.02    0.04
   6  -3  -4    0.10    0.06
   6  -3  -4    0.07    0.04
   6  -3  -4    0.05    0.06
   5  -3  -4   40.42    3.01
   5  -3  -4   41.53    2.97
   5  -3  -4   42.17    3.02
   5  -3  -4   41.16    2.98
   5  -3  -4   37.52    2.95
   4  -3  -4    0.28    0.07
   4  -3  -4    0.38    0.08
   4  -3  -4    0.37    0.09
   4  -3  -4    0.34    0.10
  -4   3   4    0.30    0.10
   3  -3  -4    1.45    0.18
   3  -3  -4    1.50    0.15
   3  -3  -4    1.56    0.16
   3  -3  -4    1.55    0.19
  -3   3   4    0.44    0.62
  -3   3   4    1.59    0.20
   2  -3  -4    9.32    0.77
   2  -3  -4    9.75    0.77
   2  -3  -4   10.03    0.74
   2  -3  -4    9.31    0.73
  -2   3   4    9.57    0.78
   1  -3  -4    1.82    0.17
   1  -3  -4    1.56    0.16
   1  -3  -4    1.45    0.21
   1  -3  -4    1.94    0.20
  -1   3   4    1.86    0.22
   0  -3  -4   11.64    0.93
   0   3   4   13.75    1.41
   0   3   4   11.72    0.97
  -2  -3  -4   34.39    2.68
   2   3   4   35.60    3.06
   2   3   4   35.45    2.67
  -3  -3  -4    1.53    0.28
   3   3   4    1.48    0.27
  -4  -3  -4   13.05    1.06
   4   3   4   10.72    1.38
   4   3   4   12.76    1.51
  -5  -3  -4    5.72    0.46
  -5  -3  -4    5.20    0.54
   9  -4  -4    0.08    0.08
   9  -4  -4    0.01    0.04
   8  -4  -4    0.39    0.13
   8  -4  -4    0.43    0.11
   8  -4  -4    0.45    0.08
   7  -4  -4    0.86    0.11
   7  -4  -4    0.86    0.18
   7  -4  -4    0.53    0.12
   6  -4  -4    4.58    0.45
   6  -4  -4    4.61    0.45
   6  -4  -4    4.89    0.40
   5  -4  -4    0.53    0.13
   5  -4  -4    0.53    0.13
   5  -4  -4    0.45    0.10
   5  -4  -4    0.56    0.11
   4  -4  -4    0.97    0.15
   4  -4  -4    1.04    0.13
   4  -4  -4    0.93    0.15
   4  -4  -4    0.95    0.12
   3  -4  -4   25.89    1.83
   3  -4  -4   26.01    1.87
   3  -4  -4   22.99    1.86
   3  -4  -4   27.22    1.84
  -3   4   4   21.14    1.87
   2  -4  -4    2.40    0.23
   2  -4  -4    2.62    0.24
   2  -4  -4    2.82    0.27
  -2   4   4    2.19    0.28
   1  -4  -4   15.55    1.08
   1  -4  -4   15.02    1.12
   1  -4  -4   12.52    1.05
  -1   4   4   13.41    1.12
   0  -4  -4    3.05    0.30
   0   4   4    1.97    0.64
   0   4   4    2.34    0.29
  -1  -4  -4    0.39    0.12
  -1  -4  -4    0.83    0.14
   1   4   4    0.57    0.40
   1   4   4    0.19    0.11
  -2  -4  -4    9.96    0.70
   2   4   4    7.11    1.15
   2   4   4    9.58    0.79
   2   4   4    6.59    1.04
  -3  -4  -4    2.66    0.27
  -3  -4  -4    2.77    0.31
   3   4   4    3.54    0.70
   3   4   4    3.29    0.75
   3   4   4    2.49    0.35
  -4  -4  -4    0.05    0.05
  -4  -4  -4    0.01    0.07
   4   4   4    0.04    0.22
   9  -5  -4    1.16    0.16
   8  -5  -4    2.55    0.30
   8  -5  -4    2.51    0.25
   7  -5  -4    0.47    0.09
   7  -5  -4    0.55    0.14
   6  -5  -4   26.03    1.99
   6  -5  -4   26.84    1.94
   6  -5  -4   25.30    2.00
   5  -5  -4    3.47    0.29
   5  -5  -4    2.48    0.31
   5  -5  -4    2.96    0.28
   4  -5  -4   27.37    1.93
   4  -5  -4   25.20    1.92
   4  -5  -4   24.90    1.96
   3  -5  -4    5.99    0.47
   3  -5  -4    5.45    0.51
  -3   5   4    5.34    0.53
   2  -5  -4    8.86    0.63
   2  -5  -4    7.76    0.62
   2  -5  -4    6.28    0.65
  -2   5   4    8.47    0.71
   1  -5  -4    3.43    0.38
  -1   5   4    4.63    0.44
   0  -5  -4   11.67    0.84
   0   5   4    9.24    0.89
   1   5   4    1.03    0.23
  -2  -5  -4    2.07    0.21
  -2  -5  -4    2.10    0.24
   2   5   4    2.27    0.31
   3   5   4    0.80    0.36
   3   5   4    0.78    0.39
   8  -6  -4    9.94    0.84
   8  -6  -4   10.98    0.80
   8  -6  -4   10.01    0.77
   7  -6  -4    1.02    0.12
   7  -6  -4    0.77    0.17
   7  -6  -4    0.86    0.12
   6  -6  -4    0.64    0.12
   6  -6  -4    0.91    0.17
   6  -6  -4    0.95    0.13
   5  -6  -4    5.24    0.43
   5  -6  -4    4.78    0.42
   5  -6  -4    4.79    0.46
   4  -6  -4    2.62    0.29
   4  -6  -4    2.59    0.25
   4  -6  -4    2.57    0.25
   3  -6  -4    0.63    0.11
   3  -6  -4    0.77    0.16
   3  -6  -4    0.99    0.12
  -3   6   4    0.33    0.15
   2  -6  -4    0.51    0.10
   2  -6  -4    0.72    0.15
   2  -6  -4    0.61    0.11
  -2   6   4    0.45    0.38
  -2   6   4    0.65    0.17
   1  -6  -4   38.80    2.60
  -1   6   4   33.81    2.63
  -1   6   4   30.01    3.19
   0   6   4  -36.30   36.94
  -1  -6  -4   30.06    2.13
  -1  -6  -4   29.81    2.09
   1   6   4   25.49    2.63
   1   6   4   27.58    2.17
  -2  -6  -4    8.98    0.62
   2   6   4    6.66    1.00
   7  -7  -4   16.99    1.28
   7  -7  -4   17.92    1.27
   7  -7  -4   16.52    1.32
   6  -7  -4   19.44    1.49
   6  -7  -4   19.56    1.44
   6  -7  -4   18.99    1.44
   5  -7  -4    4.46    0.43
   5  -7  -4    4.41    0.38
   5  -7  -4    4.79    0.39
   4  -7  -4   24.19    1.95
   4  -7  -4   27.41    2.00
   4  -7  -4   27.59    1.95
   3  -7  -4    0.67    0.10
   3  -7  -4    0.59    0.13
   3  -7  -4    0.56    0.10
  -3   7   4    0.05    0.31
   2  -7  -4    0.73    0.10
   2  -7  -4    0.67    0.13
  -2   7   4    0.28    0.37
  -2   7   4    0.47    0.16
  -1   7   4  -18.54   33.78
   0  -7  -4    1.09    0.12
   0   7   4    0.98    0.43
  -5   8   4   -4.17   32.93
  -4   8   4   -0.46   28.10
   0   9  -5    0.61    0.28
   0  -9   5    0.64    0.17
  -1   9  -5    4.70    0.64
  -1   9  -5    3.96    0.36
   1  -9   5    4.51    0.46
   1  -9   5    3.53    0.34
  -2   9  -5    2.08    0.48
  -2   9  -5    1.70    0.23
   2  -9   5    1.87    0.29
   2  -9   5    2.07    0.20
  -3   9  -5   19.27    1.96
   3  -9   5   23.72    1.79
   3  -9   5   22.67    1.64
   4  -9   5    1.62    0.22
   4  -9   5    1.79    0.19
   5  -9   5   21.17    1.60
   5  -9   5   21.54    1.64
   6  -9   5    2.50    0.27
   6  -9   5    2.48    0.24
   7  -9   5   12.74    0.99
   2   8  -5    2.21    0.49
   1   8  -5   18.01    1.43
  -1  -8   5   19.84    1.54
   0   8  -5    0.24    0.20
   0   8  -5    0.01    0.04
   0  -8   5    0.02    0.08
   1  -8   5   10.64    0.98
  -2   8  -5    0.13    0.06
   2  -8   5    0.08    0.05
   2  -8   5    0.17    0.11
   3  -8   5    0.79    0.16
   3  -8   5    0.99    0.13
   4  -8   5    0.09    0.05
   4  -8   5    0.07    0.11
   4  -8   5    0.05    0.07
   5  -8   5    0.36    0.11
   5  -8   5    0.30    0.08
   5  -8   5    0.29    0.09
   6  -8   5   16.14    1.16
   6  -8   5   13.91    1.11
   6  -8   5   13.77    1.11
   7  -8   5    0.60    0.13
   7  -8   5    0.54    0.12
   8  -8   5   55.26    3.99
   8  -8   5   53.75    3.97
   3   7  -5    5.11    0.43
  -3  -7   5    4.41    0.48
   2   7  -5   32.18    2.53
   2   7  -5   38.27    2.98
  -2  -7   5   32.54    2.64
   1   7  -5    7.12    0.54
  -1  -7   5    5.45    0.62
   0   7  -5   54.38    4.99
   0  -7   5   72.74    4.64
  -1   7  -5    3.64    0.32
   1  -7   5   19.38   28.55
   1  -7   5    3.21    0.31
   2  -7   5   10.31    0.81
   2  -7   5    8.92    0.75
   2  -7   5   16.63   27.11
   3  -7   5    5.68    0.48
   3  -7   5   36.16   29.64
   3  -7   5    5.72    0.60
   4  -7   5   12.35    0.94
   4  -7   5   11.56    0.92
   4  -7   5   15.92   30.71
   5  -7   5    1.84    0.25
   5  -7   5    2.87    0.25
   5  -7   5    2.55    0.27
   6  -7   5    4.35    0.41
   7  -7   5    1.13    0.17
   7  -7   5    1.06    0.16
   8  -7   5    0.12    0.07
   8  -7   5    0.22    0.08
   4   6  -5    0.58    0.12
   4   6  -5    0.43    0.31
   3   6  -5   11.40    1.27
   3   6  -5   11.55    0.90
  -3  -6   5   11.13    1.00
   2   6  -5    0.63    0.12
  -2  -6   5    0.58    0.18
   1   6  -5   15.03    1.49
  -1  -6   5   43.47   37.30
   0  -6   5  -14.28   29.62
   1  -6   5  -18.51   22.78
  -2   6  -5    7.14    0.57
   2  -6   5   27.55   26.67
   2  -6   5    7.39    0.58
   2  -6   5    6.75    0.67
   2  -6   5    7.00    0.61
   2  -6   5    7.30    0.58
   3  -6   5    8.42   27.53
   4  -6   5   -5.26   29.29
   5  -6   5    7.82   37.00
   6  -6   5    1.79    0.20
   6  -6   5    1.63    0.20
   7  -6   5    0.45    0.10
   7  -6   5    0.48    0.11
   8  -6   5    0.48    0.10
   8  -6   5    0.44    0.10
   9  -6   5    0.00    0.05
   9  -6   5    0.02    0.05
  -5  -5   5    4.13    0.43
   4   5  -5   34.32    2.68
  -4  -5   5   37.43    2.81
  -4  -5   5   37.35    2.76
   3   5  -5   10.81    0.82
   3   5  -5   10.11    1.14
  -3  -5   5    9.70    0.87
  -3  -5   5   10.37    0.94
   2   5  -5   38.96    3.25
  -2  -5   5   40.27    3.06
  -1  -5   5  -15.62   31.85
   0  -5   5   15.73   24.75
  -1   5  -5   15.82    1.16
   1  -5   5   15.66    1.19
   1  -5   5   14.27    1.25
   1  -5   5   -4.60   23.66
   1  -5   5   15.09    1.15
   1  -5   5   15.68    1.16
   2  -5   5  -16.17   23.08
  -3   5  -5   34.47    2.74
   3  -5   5   36.45    2.73
   3  -5   5    7.33   29.98
   3  -5   5   38.74    2.75
   3  -5   5   40.02    2.76
   4  -5   5  -19.76   29.83
   5  -5   5  185.50   12.99
   5  -5   5  161.75   12.53
   6  -5   5    2.71    0.27
   7  -5   5   30.37    2.27
   7  -5   5   30.42    2.26
   8  -5   5    3.52    0.33
   8  -5   5    3.68    0.34
   9  -5   5   16.88    1.20
   9  -5   5   14.76    1.18
   6   4  -5    0.95    0.14
  -6  -4   5    0.80    0.19
   5   4  -5   18.94    1.52
  -5  -4   5   22.26    1.64
   4   4  -5    7.91    0.67
   4   4  -5    8.26    0.66
  -4  -4   5    8.83    0.75
  -4  -4   5    8.62    0.81
   3   4  -5   76.11    5.33
   3   4  -5   63.63    4.99
  -3  -4   5   66.67    5.14
  -3  -4   5   68.46    5.05
   2   4  -5   19.14    1.78
   2   4  -5   22.40    1.57
  -2  -4   5   22.85    1.71
  -2  -4   5   20.72    1.59
  -2  -4   5   19.01    1.54
   1   4  -5   14.55    0.99
   1   4  -5   11.39    0.97
  -1  -4   5   -2.37   26.98
  -1  -4   5   14.06    1.11
  -1  -4   5   11.85    0.99
  -1  -4   5   12.34    0.97
   0   4  -5  169.34   11.09
   0   4  -5  153.30   11.44
   0  -4   5  141.85   11.07
   0  -4   5  156.16   11.19
   0  -4   5  146.82   11.10
  -1   4  -5   19.18    1.74
  -1   4  -5   19.07    1.47
   1  -4   5   19.23    1.46
   1  -4   5  -11.46   20.49
   1  -4   5   21.22    1.48
  -2   4  -5   71.38    5.40
  -2   4  -5   75.29    5.71
   2  -4   5   75.15    5.40
   2  -4   5   82.13    5.71
   2  -4   5    8.60   27.89
   2  -4   5   68.33    5.40
   2  -4   5   74.42    5.39
  -3   4  -5   21.51    1.75
   3  -4   5   14.16   31.88
   3  -4   5   25.44    1.73
   3  -4   5   22.86    1.71
  -4   4  -5    3.07    0.32
   4  -4   5    3.62    0.30
   4  -4   5    3.21    0.30
   5  -4   5   27.26    2.09
   5  -4   5   28.83    2.08
   6  -4   5   10.05    0.79
   7  -4   5   15.36    1.20
   7  -4   5   16.28    1.77
   8  -4   5    8.06    1.08
   8  -4   5    7.99    0.64
   8  -4   5    7.44    0.62
   9  -4   5   18.03    1.35
   7   3  -5    8.40    0.72
   7   3  -5   10.90    0.76
   6   3  -5    3.18    0.29
   6   3  -5    2.73    0.26
  -6  -3   5    2.66    0.34
   5   3  -5   18.76    1.44
   5   3  -5   20.54    1.47
  -5  -3   5   21.12    1.83
  -5  -3   5   18.00    1.54
   3   3  -5   21.25    1.63
   3   3  -5   21.08    1.60
  -3  -3   5   22.44    1.67
  -3  -3   5   22.73    1.82
   2   3  -5    0.07    0.17
  -2  -3   5    0.04    0.11
   1   3  -5   47.24    3.81
   1   3  -5   47.59    3.45
  -1  -3   5   41.59    3.44
  -1  -3   5   52.90    3.79
   0   3  -5    2.24    0.38
   0   3  -5    2.01    0.20
  -1   3  -5   45.05    3.46
  -1   3  -5   41.38    3.18
   1  -3   5   43.83    3.53
  -2   3  -5   34.22    2.65
  -2   3  -5   37.78    2.92
  -3   3  -5   26.90    2.09
   3  -3   5   28.08    2.05
   3  -3   5   30.38    2.41
   3  -3   5   26.48    2.12
  -4   3  -5   40.92    3.38
   4  -3   5   52.62    3.79
   4  -3   5   42.37    3.34
   4  -3   5   47.97    3.34
  -5   3  -5   43.01    3.55
   5  -3   5   51.27    4.07
   5  -3   5   48.70    3.51
   5  -3   5   44.42    3.92
   5  -3   5   51.91    3.49
  -6   3  -5   10.77    0.99
   6  -3   5   14.11    1.52
   6  -3   5   11.61    0.91
   6  -3   5   11.50    0.93
  -7   3  -5   19.35    1.61
   7  -3   5   20.20    1.53
   7  -3   5   21.46    1.56
   8  -3   5    1.27    0.15
   8  -3   5    1.29    0.16
   7   2  -5    2.73    0.25
   7   2  -5    2.51    0.23
   7   2  -5    2.61    0.26
  -7  -2   5    3.09    0.34
   6   2  -5   10.78    0.84
   6   2  -5   11.21    0.86
   6   2  -5   11.22    0.86
  -6  -2   5   10.81    0.94
   5   2  -5   12.15    0.89
   5   2  -5   12.04    0.91
  -5  -2   5   10.81    1.07
   4   2  -5   23.51    1.65
  -4  -2   5   21.24    1.71
   3   2  -5    0.09    0.21
   3   2  -5    0.07    0.03
   3   2  -5    0.16    0.05
  -3  -2   5   -0.05    0.13
  -3  -2   5    0.09    0.06
   2   2  -5    3.08    0.50
   2   2  -5    2.34    0.23
   1   2  -5  117.57    8.92
   1   2  -5  137.69    9.28
  -1  -2   5  115.86    9.20
   0   2  -5   32.75    2.55
   0  -2   5   28.39    2.55
  -1   2  -5   12.88    1.23
  -2   2  -5  122.21    9.27
  -2   2  -5  129.09    9.55
   2  -2   5  133.11    9.89
  -3   2  -5    0.39    0.25
   3  -2   5    0.68    0.30
   3  -2   5    0.70    0.30
  -4   2  -5    0.99    0.18
   4  -2   5    0.94    0.11
   4  -2   5    0.92    0.12
  -5   2  -5    0.66    0.16
   5  -2   5    0.68    0.12
   5  -2   5    0.71    0.10
   5  -2   5    0.35    0.29
   5  -2   5    0.37    0.30
  -6   2  -5   17.69    1.53
   6  -2   5   20.78    1.47
   6  -2   5   18.91    1.43
  -7   2  -5    7.93    0.73
   7  -2   5    7.07    1.08
   7  -2   5    8.33    0.65
  -8   2  -5    0.65    0.23
   8  -2   5    1.10    0.14
   8   1  -5    0.29    0.06
  -8  -1   5    0.19    0.11
   7   1  -5   11.79    0.89
   7   1  -5   11.06    0.90
  -7  -1   5   12.48    0.99
   6   1  -5   19.05    1.42
   5   1  -5   50.07    3.30
   5   1  -5   42.94    3.34
   5   1  -5   42.55    3.31
   4   1  -5    3.66    0.28
   4   1  -5    2.91    0.31
   4   1  -5    3.08    0.31
  -4  -1   5    3.14    0.31
   3   1  -5  221.57   16.00
   3   1  -5  186.83   15.59
   3   1  -5  210.36   15.58
  -3  -1   5  227.02   15.62
  -3  -1   5  237.46   15.99
   2   1  -5   18.19    1.60
  -2  -1   5   15.39    1.28
  -2  -1   5   18.06    1.59
   1   1  -5   81.17    6.00
  -1  -1   5   75.32    6.03
   0   1  -5   56.82    5.08
   0  -1   5   76.75    5.34
  -1   1  -5   41.63    3.23
  -1   1  -5   47.37    3.50
   1  -1   5   42.89    3.78
  -2   1  -5   89.61    7.24
   2  -1   5  110.44    8.04
  -3   1  -5    0.07    0.13
   3  -1   5    0.26    0.21
   3  -1   5    0.36    0.28
  -4   1  -5    1.96    0.26
   4  -1   5    1.88    0.19
   5  -1   5    1.10    0.45
   5  -1   5    0.78    0.41
   6  -1   5    2.05    0.57
  -7   1  -5    1.64    0.37
  -7   1  -5    2.75    0.33
   7  -1   5    2.65    0.25
   8  -1   5    1.97    0.49
   8   0  -5    2.15    0.19
   8   0  -5    1.98    0.20
  -8   0   5    1.83    0.27
   7   0  -5    6.17    0.53
   7   0  -5    6.83    0.52
   6   0  -5    3.75    0.32
   6   0  -5    3.64    0.33
   5   0  -5    2.93    0.31
   5   0  -5    3.08    0.27
   5   0  -5    3.41    0.27
   5   0  -5    2.72    0.29
  -5   0   5    2.98    0.30
   4   0  -5    0.51    0.08
   4   0  -5    0.46    0.11
   4   0  -5    0.54    0.10
  -4   0   5    0.22    0.18
  -4   0   5    0.59    0.11
   3   0  -5   12.13    1.21
  -3   0   5   11.81    0.93
   2   0  -5   63.78    4.86
  -2   0   5   67.81    4.99
  -2   0   5   56.28    4.55
   1   0  -5  122.15    8.91
  -1   0   5  129.49    9.12
  -1   0   5  105.79    8.61
   0   0  -5  110.01    7.87
   0   0   5  110.39    8.25
   0   0   5   93.99    7.58
  -1   0  -5  107.59    7.78
  -1   0  -5   98.43    7.50
   1   0   5  117.85    8.44
   1   0   5   90.74    7.48
  -2   0  -5  110.98    9.19
  -2   0  -5  138.83    8.89
   2   0   5  106.32    9.64
   2   0   5  129.99    8.84
  -3   0  -5   22.07    1.69
   3   0   5   21.02    1.65
   4   0   5   61.74    4.50
  -5   0  -5    0.62    0.24
  -5   0  -5    0.44    0.15
   5   0   5    0.83    0.13
   5   0   5    0.44    0.32
  -6   0  -5    6.31    0.56
  -6   0  -5    4.74    0.60
   6   0   5    4.11    0.79
  -7   0  -5    0.78    0.23
  -7   0  -5    0.70    0.17
   7   0   5    0.77    0.38
   7   0   5    0.74    0.12
   9  -1  -5    5.92    0.47
   8  -1  -5   19.94    1.39
   8  -1  -5   17.89    1.43
   8  -1  -5   18.84    1.40
  -8   1   5   17.80    1.46
   7  -1  -5    2.01    0.21
   7  -1  -5    2.82    0.28
   7  -1  -5    1.97    0.22
  -7   1   5    2.93    0.30
   6  -1  -5   40.67    2.98
   6  -1  -5   38.82    2.93
   6  -1  -5   37.24    2.90
   6  -1  -5   41.64    2.91
  -6   1   5   39.77    2.95
   5  -1  -5    5.86    0.48
   5  -1  -5    6.06    0.48
   5  -1  -5    6.77    0.55
   5  -1  -5    5.58    0.50
  -5   1   5    6.02    0.52
   4  -1  -5   74.83    5.36
   4  -1  -5   76.78    5.43
   4  -1  -5   65.70    5.37
   4  -1  -5   70.29    5.36
   4  -1  -5   79.78    5.36
  -4   1   5   77.46    5.41
   3  -1  -5    6.33    0.47
   3  -1  -5    6.37    0.53
  -3   1   5    5.36    0.88
  -3   1   5    6.04    0.52
   2  -1  -5   18.73    1.56
  -2   1   5   14.22    1.74
  -2   1   5   17.28    1.30
   1  -1  -5    4.66    0.60
  -1   1   5    4.19    0.40
   0  -1  -5   22.96    1.80
   0   1   5   24.92    1.81
  -1  -1  -5    0.75    0.18
  -1  -1  -5    0.97    0.18
   1   1   5    1.30    0.79
   1   1   5    0.86    0.15
  -2  -1  -5    0.30    0.12
  -2  -1  -5    0.35    0.16
   2   1   5    1.02    0.43
   2   1   5    0.30    0.10
  -3  -1  -5   94.86    6.97
  -3  -1  -5   93.28    6.92
  -4  -1  -5    4.24    0.49
  -4  -1  -5    3.13    0.40
  -5  -1  -5   15.72    1.28
  -5  -1  -5   15.97    1.33
   5   1   5   13.78    1.65
  -6  -1  -5    5.48    0.55
  -6  -1  -5    4.38    0.49
   9  -2  -5    0.43    0.08
   8  -2  -5    0.68    0.15
   8  -2  -5    0.88    0.11
   8  -2  -5    0.88    0.12
   7  -2  -5    0.02    0.04
   7  -2  -5    0.00    0.04
   7  -2  -5    0.21    0.08
  -7   2   5    0.03    0.11
   6  -2  -5    5.91    0.48
   6  -2  -5    5.74    0.54
   6  -2  -5    6.00    0.51
   6  -2  -5    6.68    0.48
  -6   2   5    6.26    0.53
  -6   2   5    4.60    0.77
   5  -2  -5    3.12    0.31
   5  -2  -5    4.28    0.32
   5  -2  -5    3.78    0.38
   5  -2  -5    4.04    0.31
   5  -2  -5    3.77    0.33
   5  -2  -5    3.38    0.35
  -5   2   5    3.83    0.36
   4  -2  -5    3.74    0.29
   4  -2  -5    3.37    0.30
   4  -2  -5    2.88    0.31
   4  -2  -5    3.76    0.35
   4  -2  -5    3.29    0.28
  -4   2   5    4.85   35.05
  -4   2   5    3.28    0.33
   3  -2  -5   18.09    1.30
   3  -2  -5   16.07    1.33
   3  -2  -5   16.68    1.30
   3  -2  -5   18.71    1.36
  -3   2   5   18.20    1.36
   2  -2  -5   31.07    2.43
   2  -2  -5   32.40    2.44
   2  -2  -5   33.74    2.48
   2  -2  -5   31.80    2.46
  -2   2   5   37.41    2.50
   1  -2  -5   24.73    2.08
   1  -2  -5   26.29    2.05
   1  -2  -5   27.24    2.09
   1  -2  -5   27.82    2.11
  -1   2   5   31.15    2.13
  -1   2   5   31.83    2.51
   0  -2  -5    6.65    0.53
   0  -2  -5    6.95    0.58
   0  -2  -5    6.71    0.59
   0   2   5    5.74    0.89
   0   2   5    6.91    0.59
  -1  -2  -5   22.14    1.65
  -1  -2  -5   20.93    1.63
  -1  -2  -5   19.67    1.55
   1   2   5  -31.60   31.22
   1   2   5   20.78    1.62
   2   2   5    1.26    0.47
   2   2   5    1.27    0.51
  -3  -2  -5   64.55    5.13
  -3  -2  -5   64.18    5.14
   3   2   5   78.69    5.79
   3   2   5   73.81    5.65
   3   2   5   65.65    5.11
  -4  -2  -5    5.78    0.59
  -4  -2  -5    5.85    0.59
   5   2   5    3.74    0.70
   6   2   5    0.27    0.24
   9  -3  -5    1.72    0.19
   9  -3  -5    1.29    0.14
   8  -3  -5    0.05    0.04
   8  -3  -5    0.01    0.04
   8  -3  -5   -0.02    0.07
   7  -3  -5    2.25    0.28
   7  -3  -5    3.02    0.34
   7  -3  -5    3.20    0.26
   7  -3  -5    3.18    0.26
   6  -3  -5    1.48    0.24
   6  -3  -5    1.88    0.21
   6  -3  -5    2.16    0.19
   6  -3  -5    2.18    0.25
   5  -3  -5   12.94    1.00
   5  -3  -5   11.64    0.97
   5  -3  -5   13.25    0.93
   5  -3  -5   11.79    0.94
  -5   3   5   10.93    0.96
   4  -3  -5    0.74    0.14
   4  -3  -5    0.80    0.11
   4  -3  -5    0.85    0.15
   4  -3  -5    0.86    0.11
  -4   3   5    0.82    0.17
   3  -3  -5   40.86    3.07
   3  -3  -5   38.58    3.04
   3  -3  -5   41.81    3.04
   3  -3  -5   42.54    3.10
  -3   3   5   44.38    3.10
   2  -3  -5   33.51    2.50
   2  -3  -5   34.91    2.47
   2  -3  -5   31.93    2.51
   2  -3  -5   29.22    2.46
  -2   3   5   37.17    2.54
  -2   3   5   35.79    2.94
   1  -3  -5   38.66    2.97
   1  -3  -5   33.72    2.91
   1  -3  -5   39.60    2.92
   1  -3  -5   41.28    2.96
  -1   3   5   46.55    3.52
  -1   3   5   41.32    3.00
   0  -3  -5    5.84    0.49
   0  -3  -5    5.71    0.54
   0  -3  -5    6.68    0.55
   1   3   5   58.12    4.45
   1   3   5   -3.18   37.26
   1   3   5   43.86    3.75
  -2  -3  -5   15.02    1.12
  -2  -3  -5   13.65    1.19
   2   3   5   14.38    1.20
   2   3   5   14.90    1.72
  -3  -3  -5    3.10    0.30
  -3  -3  -5    3.01    0.38
   3   3   5    3.38    0.39
  -4  -3  -5   10.60    0.93
  -4  -3  -5   11.25    0.86
   5   3   5    0.02    0.22
   9  -4  -5   18.26    1.37
   8  -4  -5    6.58    0.51
   8  -4  -5    5.40    0.53
   7  -4  -5   30.01    2.24
   7  -4  -5   30.44    2.15
   7  -4  -5   27.40    2.18
   6  -4  -5   14.12    1.21
   6  -4  -5   15.67    1.15
   6  -4  -5   15.61    1.22
   5  -4  -5   19.18    1.38
   5  -4  -5   15.29    1.31
   5  -4  -5   17.69    1.36
   4  -4  -5    0.00    0.04
   4  -4  -5    0.10    0.05
   4  -4  -5    0.03    0.05
   4  -4  -5    0.03    0.06
  -4   4   5    0.00    0.09
   3  -4  -5    0.72    0.11
   3  -4  -5    0.85    0.14
   3  -4  -5    0.88    0.16
   3  -4  -5    0.87    0.12
  -3   4   5    1.13    0.60
  -3   4   5    0.84    0.18
   2  -4  -5    9.82    0.76
   2  -4  -5    8.90    0.79
  -2   4   5   11.69    0.86
  -2   4   5    8.86    1.21
   1  -4  -5    2.52    0.23
   1  -4  -5    3.14    0.26
   1  -4  -5    2.16    0.27
  -1   4   5    2.51    0.66
   0  -4  -5   46.51    3.32
   0   4   5   43.43    3.97
   0   4   5   43.31    3.35
  -1  -4  -5    2.30    0.29
   1   4   5    2.95    0.35
   1   4   5    2.48    0.66
  -2  -4  -5   55.90    3.92
  -2  -4  -5   57.84    3.88
   2   4   5   54.45    3.98
   2   4   5   47.50    4.47
   2   4   5   47.87    4.35
  -3  -4  -5    9.79    0.74
  -3  -4  -5    9.79    0.78
   3   4   5    9.89    1.22
   3   4   5    8.84    1.14
   3   4   5    9.00    0.81
   4   4   5    3.64    0.73
   8  -5  -5   10.57    0.95
   8  -5  -5   13.38    0.93
   7  -5  -5    7.87    0.64
   7  -5  -5    7.62    0.68
   7  -5  -5    8.00    0.61
   6  -5  -5   15.98    1.29
   6  -5  -5   15.46    1.29
   6  -5  -5   17.32    1.23
   5  -5  -5   21.80    1.49
   5  -5  -5   16.14    1.41
   4  -5  -5   33.36    2.55
   4  -5  -5   29.76    2.50
   4  -5  -5   39.17    2.52
  -4   5   5   33.63    2.68
   3  -5  -5   13.16    0.89
   3  -5  -5    9.62    0.91
  -3   5   5   11.19    0.96
  -3   5   5   11.46    1.41
   2  -5  -5   21.56    1.62
   2  -5  -5   20.86    1.62
  -2   5   5   21.14    2.25
  -2   5   5   23.43    1.73
   1  -5  -5    7.88    0.57
   1  -5  -5    5.93    0.59
  -1   5   5    7.98    0.67
  -1   5   5    5.75    1.10
   0   5   5  -33.83   34.71
  -1  -5  -5    5.15    0.47
  -1  -5  -5    5.13    0.43
   1   5   5    5.15    0.93
   1   5   5    5.11    0.52
  -2  -5  -5    1.67    0.20
  -2  -5  -5    1.72    0.17
   2   5   5    1.60    0.25
   2   5   5    1.11    0.47
   8  -6  -5    0.21    0.06
   7  -6  -5    1.90    0.20
   7  -6  -5    2.10    0.18
   7  -6  -5    1.91    0.23
   6  -6  -5   11.84    0.87
   6  -6  -5   11.06    0.92
   6  -6  -5   11.14    0.88
  -6   6   5   29.95   42.02
   5  -6  -5    6.41    0.54
   5  -6  -5    6.83    0.54
   5  -6  -5    6.97    0.59
   4  -6  -5    8.45    0.68
   4  -6  -5    9.73    0.74
   4  -6  -5    7.92    0.68
   3  -6  -5    6.88    0.56
   3  -6  -5    7.21    0.55
   3  -6  -5    7.57    0.61
  -3   6   5    5.34    1.03
   2  -6  -5    4.07    0.38
   2  -6  -5    3.98    0.33
  -2   6   5    3.13    0.40
   1  -6  -5    6.67    0.58
   1  -6  -5    6.83    0.55
  -1   6   5    6.88    0.63
  -1   6   5   -6.08   35.57
   0  -6  -5    7.11    0.59
   0  -6  -5    7.40    0.56
   0   6   5    6.41    0.63
  -1  -6  -5    8.66    0.72
   1   6   5   11.30    1.23
  -6   7   5  -22.86   37.80
  -5   7   5   10.33   32.19
  -4   7   5   10.99   30.06
  -3   7   5  -12.73   26.75
  -3   7   5    0.16    0.31
   2  -7  -5    8.54    0.65
   2  -7  -5    8.18    0.67
  -2   7   5   13.84   33.22
   1  -7  -5    5.09    0.40
  -1   9  -6    6.91    0.55
   1  -9   6    6.93    0.65
   1  -9   6    6.05    0.52
  -2   9  -6    3.42    0.32
   2  -9   6    3.53    0.32
   2  -9   6    3.92    0.44
   3  -9   6    9.47    0.87
   3  -9   6    9.68    0.75
   4  -9   6    0.43    0.12
   4  -9   6    0.39    0.09
   5  -9   6   30.74    2.29
   5  -9   6   31.19    2.33
   6  -9   6    0.10    0.06
   6  -9   6    0.09    0.07
   7  -9   6   10.53    0.83
  -2  -8   6    2.93    0.35
   1   8  -6    0.23    0.22
  -1  -8   6    0.32    0.14
   0   8  -6    8.03    0.69
   0  -8   6    9.76    0.84
   0  -8   6    8.12    0.67
  -1   8  -6    1.46    0.17
  -1   8  -6    1.84    0.43
   1  -8   6    1.21    0.15
   1  -8   6    1.08    0.24
  -2   8  -6    2.82    0.26
   2  -8   6    1.90    0.28
   2  -8   6    2.62    0.25
   3  -8   6   11.67    0.93
   3  -8   6   12.14    0.98
   4  -8   6    9.29    0.74
   4  -8   6    9.35    0.74
   5  -8   6    1.69    0.19
   5  -8   6    1.44    0.21
   5  -8   6    1.58    0.20
   6  -8   6    0.32    0.11
   6  -8   6    0.45    0.10
   6  -8   6    0.46    0.10
   7  -8   6    3.46    0.33
   7  -8   6    3.25    0.31
   8  -8   6    3.98    0.36
   8  -8   6    4.52    0.38
  -3  -7   6   12.68    1.06
   2   7  -6   14.25    1.08
   2   7  -6   13.55    1.43
  -2  -7   6   13.96    1.20
   1   7  -6   63.03    4.83
   1   7  -6   62.71    4.39
  -1  -7   6   54.31    4.36
   0  -7   6   27.28   33.77
   1  -7   6    0.94   28.58
   1  -7   6    6.90    0.65
   1  -7   6    8.54    0.76
   1  -7   6    6.83    0.60
   2  -7   6  -12.95   24.72
   3  -7   6    0.27    0.08
   3  -7   6    0.16    0.09
   3  -7   6    0.22    0.08
   3  -7   6   -9.57   27.47
   4  -7   6   17.46   32.17
   5  -7   6    0.20    0.09
   5  -7   6  -17.39   33.39
   5  -7   6    0.26    0.09
   6  -7   6    7.37    0.70
   6  -7   6   10.05    0.71
   7  -7   6    0.23    0.08
   7  -7   6    0.27    0.09
   8  -7   6   20.95    1.51
   8  -7   6   18.97    1.49
   4   6  -6    0.12    0.08
   4   6  -6    0.03    0.41
   3   6  -6    0.01    0.05
   3   6  -6    0.01    0.21
  -3  -6   6    0.05    0.10
   2   6  -6   13.96    0.98
  -2  -6   6   10.70    1.08
   1   6  -6    4.14    0.64
   1   6  -6    4.33    0.37
  -1  -6   6    0.46   35.26
  -1  -6   6    3.26    0.45
   0  -6   6   24.18   32.93
   0  -6   6   36.51    2.84
   1  -6   6    0.33    0.11
   1  -6   6  -24.69   26.24
   1  -6   6    0.29    0.14
  -2   6  -6   24.72    1.79
   2  -6   6   25.04    1.78
   2  -6   6   23.83    1.77
   2  -6   6   22.96    1.81
   2  -6   6   22.17    1.88
   2  -6   6   -5.02   24.06
  -3   6  -6   11.10    0.91
   3  -6   6   12.30    0.90
   3  -6   6   10.79    0.92
   3  -6   6   11.97    0.91
   3  -6   6   12.86   29.72
   4  -6   6   72.17    6.18
   4  -6   6   84.18    5.69
   4  -6   6   90.25   41.77
   4  -6   6   76.65    5.65
   5  -6   6  -34.94   38.77
   5  -6   6    0.08    0.06
   5  -6   6    0.14    0.07
   6  -6   6    5.19    0.46
   6  -6   6    5.32    0.46
   7  -6   6    0.35    0.10
   7  -6   6    0.29    0.09
   8  -6   6    7.46    0.59
   8  -6   6    6.70    0.58
  -5  -5   6    4.99    0.49
   4   5  -6    7.74    0.68
   4   5  -6    8.28    0.66
  -4  -5   6    8.91    0.80
  -4  -5   6    8.89    0.76
   3   5  -6   16.08    1.28
  -3  -5   6   15.64    1.34
  -3  -5   6   18.77    1.46
   2   5  -6   22.68    2.21
  -2  -5   6   26.30    1.90
  -2  -5   6   27.91    2.09
  -1  -5   6   19.44    1.50
  -1  -5   6   20.57    1.65
  -1  -5   6   18.71   29.28
   0  -5   6  -12.50   25.23
  -1   5  -6    1.42    0.17
  -1   5  -6    1.26    0.16
   1  -5   6    1.49    0.19
   1  -5   6    1.81    0.17
   1  -5   6    1.50    0.16
   1  -5   6    3.90   26.83
   1  -5   6    1.17    0.23
   2  -5   6    6.87   27.26
  -3   5  -6   43.44    3.33
   3  -5   6   43.57    3.30
   3  -5   6   44.47    3.32
   3  -5   6   44.43    3.31
   3  -5   6   50.55    3.77
   3  -5   6   16.17   31.24
  -4   5  -6   32.85    2.48
   4  -5   6   35.66    2.43
   4  -5   6   28.55    2.78
   4  -5   6   35.60    2.43
   4  -5   6    3.22   35.80
   4  -5   6   30.84    2.40
   5  -5   6  109.96    8.07
   5  -5   6  106.87    8.08
   5  -5   6  117.59    8.57
  -6   5  -6    0.00    0.16
   6  -5   6    0.09    0.06
   6  -5   6    0.18    0.27
   7  -5   6   11.67    0.89
   7  -5   6   10.58    0.87
   8  -5   6    7.22    0.62
   8  -5   6    8.47    0.64
   6   4  -6    1.39    0.15
   6   4  -6    1.67    0.18
  -6  -4   6    1.45    0.24
   5   4  -6   24.83    1.87
  -5  -4   6   27.03    1.97
  -5  -4   6   23.83    1.99
   4   4  -6    8.70    0.74
  -4  -4   6    9.42    0.88
  -4  -4   6    9.76    0.81
   3   4  -6   35.11    2.54
   3   4  -6   30.25    2.50
  -3  -4   6   38.09    2.74
  -3  -4   6   33.92    2.58
   2   4  -6    0.55    0.09
   2   4  -6    0.65    0.26
   2   4  -6    0.45    0.10
  -2  -4   6    0.72    0.23
  -2  -4   6    0.55    0.13
  -1  -4   6    9.40   26.37
   0   4  -6   58.17    4.66
   0   4  -6   67.73    4.68
   0  -4   6   67.92    4.81
   0  -4   6   63.53    4.70
   0  -4   6  -15.14   26.26
  -1   4  -6   12.80    0.97
  -1   4  -6   13.61    1.32
  -1   4  -6   11.74    0.95
   1  -4   6   11.26    1.03
   1  -4   6   11.68    0.96
   1  -4   6   13.88    0.96
   1  -4   6   10.55   25.46
  -2   4  -6    6.17    0.81
  -2   4  -6    5.84    0.51
   2  -4   6    5.77    0.49
   2  -4   6    6.35    0.49
   2  -4   6    5.90    0.49
   2  -4   6   19.77   22.09
  -3   4  -6    0.26    0.10
   3  -4   6    0.24    0.07
   3  -4   6  -19.12   29.59
   3  -4   6    0.26    0.24
   3  -4   6    0.30    0.08
   3  -4   6    0.21    0.06
  -4   4  -6    5.05    0.45
   4  -4   6    5.16    0.41
   4  -4   6    3.94    0.72
   4  -4   6    4.72    0.41
   5  -4   6    1.32    0.48
  -6   4  -6    0.29    0.14
   6  -4   6    0.38    0.09
   6  -4   6    0.37    0.30
   6  -4   6    0.29    0.09
   6  -4   6    0.35    0.30
  -7   4  -6    0.17    0.22
   7  -4   6    0.43    0.11
   7  -4   6    0.32    0.09
  -8   4  -6    0.42    0.20
   8  -4   6    0.76    0.12
   8  -4   6    0.53    0.10
   7   3  -6    0.39    0.07
   6   3  -6    0.01    0.04
   6   3  -6    0.04    0.04
   6   3  -6    0.02    0.05
  -6  -3   6    0.05    0.09
   5   3  -6    1.81    0.18
   5   3  -6    1.90    0.20
  -5  -3   6    1.69    0.25
  -5  -3   6    1.63    0.30
   4   3  -6    6.97    0.53
   4   3  -6    6.16    0.55
  -4  -3   6    6.51    0.60
  -4  -3   6    7.54    0.76
   3   3  -6   53.44    3.84
   3   3  -6   53.37    3.81
  -3  -3   6   46.82    4.05
  -3  -3   6   55.96    3.88
   2   3  -6    2.15    0.21
   2   3  -6    1.98    0.19
  -2  -3   6    2.28    0.23
  -2  -3   6    1.53    0.34
  -2  -3   6    8.95   31.06
   1   3  -6   36.86    2.66
   1   3  -6   34.57    2.64
   1   3  -6   38.15    3.07
  -1  -3   6   35.15    2.66
  -1  -3   6   13.86   28.34
   0   3  -6    8.56    0.99
   0   3  -6    9.09    0.71
   0  -3   6    8.13    0.70
   0  -3   6   10.49    1.10
   0  -3   6    9.46   31.94
  -1   3  -6   28.21    2.19
  -1   3  -6   27.48    2.50
   1  -3   6   33.28    2.73
   1  -3   6    3.98   39.48
  -2   3  -6   10.34    1.06
  -2   3  -6   11.01    0.79
   2  -3   6    9.83    0.75
   2  -3   6    7.41    1.01
   2  -3   6    2.85   28.68
  -3   3  -6   26.35    1.85
   3  -3   6   21.84    1.79
   3  -3   6   51.27   35.56
   3  -3   6   24.67    1.80
  -4   3  -6    0.26    0.10
  -4   3  -6   -0.01    0.13
   4  -3   6    0.30    0.07
   4  -3   6    0.03    0.19
   4  -3   6    0.06    0.19
   4  -3   6    0.21    0.06
  -5   3  -6    0.67    0.16
   5  -3   6    0.87    0.12
   5  -3   6    0.61    0.11
  -6   3  -6    0.05    0.09
  -6   3  -6    0.04    0.17
   6  -3   6    0.11    0.06
   6  -3   6    0.02    0.22
   6  -3   6    0.11    0.06
   6  -3   6    0.00    0.27
  -7   3  -6    0.21    0.12
  -7   3  -6    0.00    0.15
   7  -3   6    0.25    0.08
   7  -3   6    0.27    0.08
   7  -3   6    0.14    0.24
  -8   3  -6    3.25    0.41
   8  -3   6    2.87    0.61
   7   2  -6    3.64    0.32
   7   2  -6    4.04    0.33
  -7  -2   6    3.87    0.41
   6   2  -6   15.97    1.17
  -6  -2   6   15.19    1.26
   5   2  -6    1.54    0.19
  -5  -2   6    1.88    0.25
  -5  -2   6    2.48    0.42
  -4  -2   6    2.14    0.43
  -4  -2   6    2.34    0.26
   3   2  -6   12.19    0.96
   3   2  -6   11.98    0.94
  -3  -2   6   13.11    0.98
   2   2  -6    6.04    0.81
   2   2  -6    5.64    0.48
   2   2  -6    5.54    0.46
  -2  -2   6    5.53    0.49
  -2  -2   6    6.77    0.87
   1   2  -6    0.56    0.10
   1   2  -6    0.71    0.33
  -1  -2   6    0.90    0.40
  -1  -2   6    0.59    0.11
   0   2  -6   24.15    1.82
   0   2  -6   25.18    2.17
   0  -2   6   23.66    1.82
   0  -2   6   24.70    2.29
  -1   2  -6   63.63    4.87
  -1   2  -6   59.83    4.53
   1  -2   6   62.60    5.12
  -2   2  -6  248.86   18.61
  -2   2  -6  256.95   18.29
   2  -2   6  254.40   19.48
  -3   2  -6   51.06    3.64
   3  -2   6   55.19    4.07
   3  -2   6   41.50    3.56
  -4   2  -6   18.48    1.37
   4  -2   6   16.50    1.27
   4  -2   6   16.18    1.28
  -5   2  -6   81.70    6.00
   5  -2   6   85.22    5.91
   5  -2   6   84.98    6.50
   5  -2   6   72.86    6.46
   6  -2   6    1.57    0.56
   6  -2   6    2.75    0.65
  -7   2  -6   25.06    1.78
   7  -2   6   18.66    2.13
   7  -2   6   23.55    1.69
  -8   2  -6    5.00    0.53
   8  -2   6    5.40    0.76
   8   1  -6    2.14    0.20
   8   1  -6    2.21    0.20
   7   1  -6   22.04    1.59
   7   1  -6   20.42    1.59
  -7  -1   6   21.61    1.68
   6   1  -6    3.28    0.29
   6   1  -6    2.69    0.27
  -6  -1   6    3.49    0.54
   5   1  -6   21.85    1.68
   5   1  -6   23.39    1.71
   5   1  -6   20.10    1.65
   5   1  -6   23.24    1.65
   4   1  -6    4.43    0.35
   4   1  -6    3.97    0.39
  -4  -1   6    4.33    0.39
   3   1  -6  261.94   19.73
   3   1  -6  289.09   19.70
   3   1  -6  250.09   19.78
  -3  -1   6  293.52   19.75
   2   1  -6    7.31    0.90
   2   1  -6    6.97    0.56
   2   1  -6    6.56    0.54
  -2  -1   6    7.24    0.58
   1   1  -6   38.27    2.79
   1   1  -6   42.00    3.22
  -1  -1   6   33.83    2.80
   0   1  -6    0.32    0.22
   0   1  -6    0.34    0.09
   0  -1   6   -0.04    0.33
   0  -1   6    0.32    0.09
  -1   1  -6    1.88    0.22
  -1   1  -6    2.33    0.44
   1  -1   6    2.02    0.23
   1  -1   6    3.19    0.78
  -2   1  -6   64.04    4.36
   2  -1   6   57.56    5.21
   2  -1   6   55.20    4.32
  -3   1  -6    2.65    0.34
   3  -1   6    3.26    0.57
   3  -1   6    3.77    0.67
   4  -1   6   50.72    3.72
  -5   1  -6    1.06    0.24
   5  -1   6    1.54    0.18
   5  -1   6    1.39    0.52
  -6   1  -6   35.92    2.69
   6  -1   6   32.03    3.34
   6  -1   6   36.36    2.59
  -7   1  -6    0.07    0.14
  -7   1  -6    0.08    0.09
   7  -1   6    0.05    0.23
   7  -1   6    0.06    0.06
   8   0  -6    3.55    0.31
   8   0  -6    3.65    0.30
  -8   0   6    3.42    0.38
   7   0  -6    2.75    0.29
   7   0  -6    4.07    0.36
   7   0  -6    3.16    0.30
  -7   0   6    4.17    0.39
   6   0  -6    2.17    0.25
   6   0  -6    1.57    0.19
   6   0  -6    1.83    0.19
  -6   0   6    2.24    0.25
   5   0  -6    0.97    0.15
   5   0  -6    1.44    0.19
   5   0  -6    1.13    0.14
   5   0  -6    1.16    0.13
  -5   0   6    0.83    0.17
   4   0  -6    8.33    0.60
   4   0  -6    6.33    0.60
   4   0  -6    7.80    0.65
  -4   0   6    8.33    0.65
   3   0  -6   66.17    4.89
   3   0  -6   64.28    4.83
  -3   0   6   70.11    4.89
  -3   0   6  -14.33   35.80
   2   0  -6    8.57    0.96
   2   0  -6    6.53    0.59
   2   0  -6    7.94    0.63
  -2   0   6    5.76    0.99
  -2   0   6    8.71    0.64
   1   0  -6    2.64    0.47
   1   0  -6    2.25    0.24
  -1   0   6    2.81    0.71
   0   0  -6   10.08    1.03
   0   0  -6    8.06    0.75
   0   0  -6    8.62    0.71
   0   0   6    8.91    0.73
   1   0   6  -41.16   27.27
  -2   0  -6   13.28    1.20
  -2   0  -6   15.49    1.18
   2   0   6   15.79    1.60
   2   0   6    4.19   36.91
   2   0   6   13.51    1.40
   2   0   6   14.02    1.13
  -3   0  -6    1.07    0.22
  -3   0  -6    1.33    0.28
   3   0   6    0.95    0.39
   3   0   6    0.88    0.42
  -4   0  -6   12.22    1.08
  -4   0  -6   13.29    1.16
   5   0   6    1.60    0.58
   5   0   6    1.27    0.51
  -6   0  -6    3.62    0.42
  -6   0  -6    3.73    0.49
   6   0   6    4.94    0.81
   7   0   6    0.05    0.21
   8  -1  -6    0.11    0.04
   8  -1  -6    0.11    0.08
   8  -1  -6    0.10    0.04
  -8   1   6    0.03    0.10
   7  -1  -6    2.38    0.26
   7  -1  -6    3.28    0.32
   7  -1  -6    3.34    0.28
  -7   1   6    3.34    0.34
   6  -1  -6    5.14    0.47
   6  -1  -6    6.14    0.51
   6  -1  -6    6.31    0.48
  -6   1   6    6.00    0.53
   5  -1  -6    0.11    0.06
   5  -1  -6    0.10    0.04
   5  -1  -6    0.07    0.06
   5  -1  -6    0.06    0.05
  -5   1   6    0.10    0.18
  -5   1   6    0.19    0.08
   4  -1  -6    5.44    0.42
   4  -1  -6    4.91    0.43
   4  -1  -6    5.11    0.43
   4  -1  -6    5.35    0.42
   4  -1  -6    6.06    0.50
  -4   1   6    5.18    0.48
  -3   1   6   40.60   32.32
   2  -1  -6    5.63    0.50
   2  -1  -6    5.77    0.44
   2  -1  -6    4.82    0.46
  -2   1   6    6.83    0.52
  -2   1   6   30.00   25.64
   1  -1  -6   11.89    0.86
   1  -1  -6   10.30    0.89
   1  -1  -6    9.98    0.89
   1  -1  -6   13.51    1.25
   1  -1  -6   11.88    0.93
  -1   1   6  -16.43   25.24
  -1   1   6   13.72    0.95
  -1   1   6    8.78    1.53
   0  -1  -6   31.79    2.53
   0  -1  -6   31.24    2.56
   0   1   6   39.63    3.01
   0   1   6   34.44    2.56
   0   1   6   -3.94   28.31
  -1  -1  -6    0.58    0.15
  -1  -1  -6    0.60    0.17
   1   1   6    0.70    0.36
   1   1   6    0.62    0.14
   1   1   6    0.15   33.04
  -2  -1  -6   47.10    3.61
  -2  -1  -6   45.94    3.65
   2   1   6   44.35    3.58
   2   1   6   55.62    4.00
  -3  -1  -6   33.70    2.92
  -3  -1  -6   34.82    2.97
   3   1   6   44.80    3.42
   3   1   6   36.52    2.90
   3   1   6   44.32    3.55
  -4  -1  -6   38.14    3.16
  -4  -1  -6   38.88    3.13
   4   1   6   47.08    3.74
  -5  -1  -6   12.89    1.02
  -5  -1  -6   12.64    1.04
   5   1   6    9.85    1.34
   5   1   6   10.84    1.35
  -6  -1  -6    0.43    0.17
   6   1   6    0.03    0.21
   8  -2  -6   24.00    1.87
   8  -2  -6   26.01    1.85
   8  -2  -6   24.95    1.84
   7  -2  -6    6.28    0.51
   7  -2  -6    6.50    0.51
   7  -2  -6    6.37    0.54
  -7   2   6    6.13    0.56
   6  -2  -6   60.53    4.08
   6  -2  -6   54.50    4.11
   6  -2  -6   54.60    4.08
  -6   2   6   54.82    4.14
   4  -2  -6   52.20    3.47
   4  -2  -6   40.27    3.49
   4  -2  -6   52.11    3.55
   4  -2  -6   43.13    3.45
   4  -2  -6   46.83    3.48
  -4   2   6   51.65    3.55
  -4   2   6   -4.35   34.54
  -3   2   6   40.73   33.76
   2  -2  -6    0.80    0.16
   2  -2  -6    0.85    0.10
   2  -2  -6    0.68    0.12
   2  -2  -6    0.70    0.10
  -2   2   6    1.01    0.16
  -2   2   6    2.43   24.45
   1  -2  -6    0.70    0.09
   1  -2  -6    0.83    0.17
   1  -2  -6    0.64    0.09
   1  -2  -6    0.83    0.12
  -1   2   6   -0.78   26.84
  -1   2   6    0.30    0.28
  -1   2   6    1.03    0.20
   0   2   6    3.73    0.73
   0   2   6    9.24   31.31
  -1  -2  -6   60.56    4.46
  -1  -2  -6   63.85    4.50
  -1  -2  -6   56.73    4.38
   1   2   6   60.14    5.04
   1   2   6   -2.84   37.64
  -2  -2  -6   11.07    0.95
  -2  -2  -6   12.13    1.06
  -2  -2  -6   12.43    1.04
   2   2   6   13.77    1.05
  -3  -2  -6   64.36    4.72
  -3  -2  -6   64.60    4.72
  -3  -2  -6   60.98    4.61
   3   2   6   63.18    4.70
  -4  -2  -6   29.43    2.50
   4   2   6   34.64    3.04
   4   2   6   35.63    3.01
   5   2   6    6.34    0.86
   5   2   6    5.65    1.16
   9  -3  -6    0.67    0.12
   8  -3  -6    7.19    0.57
   8  -3  -6    6.38    0.53
   8  -3  -6    6.68    0.52
   7  -3  -6    1.40    0.14
   7  -3  -6    1.45    0.18
  -7   3   6    0.84    0.39
   6  -3  -6   18.35    1.27
   6  -3  -6   17.23    1.30
   6  -3  -6   15.20    1.32
   5  -3  -6   34.56    2.51
   5  -3  -6   34.46    2.58
   5  -3  -6   31.57    2.54
   5  -3  -6   35.15    2.50
  -5   3   6   22.78   43.95
  -5   3   6   34.26    2.57
   4  -3  -6    3.89    0.39
   4  -3  -6    4.27    0.42
   4  -3  -6    4.30    0.37
  -4   3   6    2.57   32.59
  -4   3   6    4.70    0.44
   3  -3  -6   26.75    2.01
   3  -3  -6   25.84    1.94
   3  -3  -6   25.00    1.94
   3  -3  -6   25.68    1.98
  -3   3   6   28.19    2.02
   2  -3  -6    0.24    0.10
   2  -3  -6    0.33    0.09
   2  -3  -6    0.22    0.06
   2  -3  -6    0.28    0.07
  -2   3   6    0.12    0.28
  -2   3   6    0.26    0.11
   1  -3  -6    3.50    0.34
   1  -3  -6    3.72    0.37
   1  -3  -6    3.39    0.29
   1  -3  -6    3.48    0.31
   0   3   6    3.58   34.41
  -1  -3  -6   29.52    2.15
  -1  -3  -6   29.99    2.08
   1   3   6   -2.87   38.09
   1   3   6   26.46    2.73
   1   3   6   25.35    2.16
  -2  -3  -6    9.04    0.75
   2   3   6   10.25    0.86
  -3  -3  -6    7.26    0.59
   3   3   6    7.45    0.68
   4   3   6    0.67    0.33
   4   3   6    0.48    0.33
   8  -4  -6    6.43    0.53
   7  -4  -6    3.41    0.36
   7  -4  -6    3.65    0.32
  -7   4   6    3.10    0.63
   6  -4  -6    6.59    0.52
   6  -4  -6    6.79    0.55
   6  -4  -6    6.62    0.60
   6  -4  -6    6.37    0.59
   5  -4  -6    1.35    0.20
   5  -4  -6    0.86    0.13
   5  -4  -6    1.30    0.15
   5  -4  -6    1.19    0.18
  -5   4   6   -1.73   39.31
   4  -4  -6    8.44    0.64
   4  -4  -6    8.29    0.69
   4  -4  -6    8.11    0.68
  -4   4   6    6.95    0.70
   3  -4  -6    0.04    0.05
   3  -4  -6    0.05    0.04
   3  -4  -6    0.01    0.04
   3  -4  -6    0.03    0.07
  -3   4   6    0.00    0.08
   2  -4  -6    0.28    0.11
   2  -4  -6    0.29    0.07
   2  -4  -6    0.16    0.07
   2  -4  -6    0.24    0.06
  -2   4   6    0.49    0.39
  -2   4   6    0.30    0.13
   1  -4  -6    0.26    0.09
   1  -4  -6    0.55    0.09
  -1   4   6    0.26    0.12
  -1   4   6    0.14    0.29
   0   4   6  -22.68   37.59
  -1  -4  -6    2.06    0.24
  -1  -4  -6    2.20    0.21
   1   4   6    1.73    0.29
  -2  -4  -6    8.33    0.73
  -2  -4  -6    8.37    0.69
   2   4   6   10.32    1.26
   2   4   6    9.24    0.80
  -3  -4  -6   16.61    1.25
  -3  -4  -6   16.01    1.21
   8  -5  -6    7.29    0.58
   7  -5  -6    0.19    0.09
   7  -5  -6    0.00    0.04
   7  -5  -6    0.03    0.03
   6  -5  -6    4.37    0.43
   6  -5  -6    4.68    0.37
   6  -5  -6    4.71    0.39
   6  -5  -6    4.24    0.43
  -5   5   6  -22.19   33.04
   4  -5  -6    5.15    0.42
   4  -5  -6    4.73    0.40
   4  -5  -6    4.77    0.45
   3  -5  -6    2.89    0.29
   3  -5  -6    2.75    0.24
   3  -5  -6    2.91    0.25
  -3   5   6    1.73    0.61
  -3   5   6    2.23    0.32
   2  -5  -6    1.19    0.14
   2  -5  -6    0.90    0.16
   2  -5  -6    1.41    0.14
  -2   5   6    1.56    0.25
   1  -5  -6    0.08    0.05
   1  -5  -6    0.03    0.05
  -1   5   6   -3.47   34.64
  -1   5   6    0.04    0.09
  -1   5   6    0.09    0.30
   0   5   6   18.74   39.32
  -1  -5  -6    4.84    0.41
  -1  -5  -6    4.95    0.44
   1   5   6    5.52    0.51
   1   5   6    5.09    0.87
   2   5   6   -0.01    0.24
   7  -6  -6    0.29    0.12
   7  -6  -6    0.40    0.08
   7  -6  -6    0.46    0.06
   6  -6  -6   16.28    1.25
   6  -6  -6   17.45    1.23
   6  -6  -6   16.10    1.28
  -6   6   6   36.53   41.90
  -5   6   6    6.98   34.01
  -4   6   6   -8.18   28.08
   3  -6  -6   27.76    1.99
   3  -6  -6   28.58    2.04
   3  -6  -6   27.51    1.98
  -3   6   6   -5.10   30.86
  -3   6   6   23.48    2.49
  -2   6   6    0.43    0.38
  -2   6   6  -22.33   31.86
   1  -6  -6    3.81    0.36
   1  -6  -6    3.81    0.33
  -1   6   6   22.69   38.27
  -1   6   6    4.42    0.42
   0  -6  -6    0.17    0.05
   0   6   6    0.20    0.30
   5  -7  -6    2.90    0.24
   5  -7  -6    2.84    0.24
  -5   7   6    8.25   31.46
  -4   7   6   -4.46   26.16
  -3   7   6    0.74   28.25
   0   9  -7    2.00    0.44
   0  -9   7    2.28    0.29
  -1   9  -7    9.67    1.06
   1  -9   7    9.54    0.83
   1  -9   7    8.31    0.70
  -2   9  -7    4.99    0.44
  -2   9  -7    4.64    0.73
   2  -9   7    5.47    0.43
   2  -9   7    5.31    0.54
   3  -9   7    0.22    0.07
   3  -9   7    0.21    0.13
   4  -9   7    1.28    0.19
   4  -9   7    1.22    0.15
   5  -9   7    1.00    0.14
   5  -9   7    1.02    0.17
   6  -9   7    1.14    0.15
  -2  -8   7   10.18    0.92
   1   8  -7    2.94    0.28
  -1  -8   7    2.87    0.37
   0   8  -7    0.91    0.38
   0   8  -7    0.76    0.13
   0  -8   7    0.78    0.12
   0  -8   7    0.90    0.23
  -1   8  -7    7.82    0.64
   1  -8   7    7.58    0.62
   1  -8   7    7.90    0.77
   2  -8   7   -1.84   28.87
   2  -8   7    0.65    0.16
   2  -8   7    0.74    0.12
   3  -8   7   20.82    1.88
   3  -8   7   28.41    1.86
   3  -8   7   15.83   29.18
   4  -8   7   19.96   32.63
   5  -8   7   24.87    2.01
   5  -8   7   27.80    1.98
   5  -8   7   26.95    1.98
   6  -8   7   10.16    0.84
   6  -8   7   11.67    0.88
   7  -8   7   17.17    1.31
   7  -8   7   17.79    1.34
   3   7  -7    9.59    1.06
   2   7  -7   33.40    2.67
  -2  -7   7   39.02    2.83
   1   7  -7   51.30    3.47
   1   7  -7   37.61    3.78
  -1  -7   7   51.56    3.44
   0  -7   7   -3.39   29.83
   1  -7   7  -35.55   24.92
   2  -7   7  -11.24   25.28
   2  -7   7    0.32    0.12
   3  -7   7    7.45    0.65
   3  -7   7   -4.34   28.41
   4  -7   7   -6.49   34.58
  -5   7  -7   29.90    2.10
   5  -7   7  -26.75   34.16
   5  -7   7   26.22    2.08
   6  -7   7   22.68    1.87
   6  -7   7   27.35    1.90
   7  -7   7   18.64    1.37
   7  -7   7   16.97    1.35
   8  -7   7   11.34    0.87
   8  -7   7   10.92    0.85
  -4  -6   7    0.52    0.16
   3   6  -7    0.18    0.07
   3   6  -7    0.13    0.07
   3   6  -7    0.32    0.27
  -3  -6   7    0.29    0.15
   2   6  -7    5.37    0.45
  -2  -6   7    4.71    0.43
   1   6  -7    1.47    0.42
  -1  -6   7    4.85   32.01
   0   6  -7    4.76    0.50
   0  -6   7    6.18    0.64
   0  -6   7   -2.26   30.64
   0  -6   7    7.07    0.51
   1  -6   7  -29.75   25.01
   1  -6   7    0.42    0.12
  -2   6  -7    0.18    0.08
  -2   6  -7    0.14    0.08
   2  -6   7    0.17    0.07
   2  -6   7    0.25    0.13
   2  -6   7    0.11    0.06
   2  -6   7    0.09    0.07
   2  -6   7  -33.97   24.85
   3  -6   7  -14.84   28.47
   3  -6   7    0.19    0.29
   4  -6   7  -37.37   34.74
   5  -6   7  -19.55   50.61
   5  -6   7    0.39    0.33
   7  -6   7    7.63    0.62
   8  -6   7    0.95    0.14
   8  -6   7    0.90    0.13
   5   5  -7    0.38    0.08
   5   5  -7    0.47    0.09
   4   5  -7    0.20    0.07
   4   5  -7    0.23    0.08
  -4  -5   7    0.23    0.14
  -4  -5   7    0.25    0.13
   3   5  -7    0.11    0.07
  -3  -5   7    0.01    0.10
  -3  -5   7    0.03    0.10
   2   5  -7    1.71    0.20
  -2  -5   7    1.36    0.29
  -2  -5   7    2.00    0.20
   1   5  -7    0.22    0.07
   1   5  -7    0.06    0.05
  -1  -5   7    0.06    0.10
  -1  -5   7    0.04    0.05
  -1  -5   7  -35.68   27.43
   0   5  -7   10.54    0.84
   0  -5   7   11.64    1.00
   0  -5   7   10.53    0.89
   0  -5   7   10.84    0.85
   0  -5   7  -10.46   27.67
  -1   5  -7    0.46    0.10
  -1   5  -7    0.51    0.11
   1  -5   7    3.95   27.28
   1  -5   7    0.48    0.12
   1  -5   7    0.43    0.16
   1  -5   7    0.38    0.09
  -2   5  -7   21.57    1.57
  -2   5  -7   19.71    1.53
   2  -5   7   19.52    1.54
   2  -5   7   19.23    1.52
   2  -5   7   21.26    1.52
   2  -5   7   -5.70   28.75
  -3   5  -7   33.66    2.68
   3  -5   7   40.71    3.18
   3  -5   7   33.74    2.65
   3  -5   7    3.07   31.91
   3  -5   7   33.64    2.64
   3  -5   7   38.60    2.66
   4  -5   7  -23.16   32.37
  -5   5  -7   15.03    1.20
   5  -5   7   16.08    1.15
   5  -5   7   13.18    1.55
  -6   5  -7    1.26    0.32
   6  -5   7    1.93    0.21
  -7   5  -7    4.06    0.52
  -8   5  -7    4.13    0.52
   8  -5   7    4.49    0.40
   8  -5   7    5.57    0.41
   6   4  -7    3.37    0.29
   5   4  -7   30.60    2.25
  -5  -4   7   31.35    2.34
  -5  -4   7   29.50    2.38
   4   4  -7   25.53    1.83
   4   4  -7   23.16    1.86
  -4  -4   7   26.01    1.93
   3   4  -7    9.25    0.74
   3   4  -7   10.08    0.78
  -3  -4   7   10.10    0.98
  -3  -4   7    9.74    0.82
  -3  -4   7    9.48    0.77
   2   4  -7    0.20    0.08
   2   4  -7    0.29    0.07
  -2  -4   7  -17.52   32.58
  -2  -4   7    0.26    0.17
  -2  -4   7    0.22    0.10
   1   4  -7    0.09    0.06
   1   4  -7    0.06    0.05
  -1  -4   7    0.06    0.10
  -1  -4   7  -38.72   29.07
  -1  -4   7    0.04    0.06
   0  -4   7   -8.47   27.19
  -1   4  -7    1.20    0.16
  -1   4  -7    1.04    0.14
   1  -4   7    8.62   26.14
   1  -4   7    0.92    0.21
   1  -4   7    0.80    0.14
   1  -4   7    1.61    0.45
  -2   4  -7   63.86    4.41
  -2   4  -7   55.68    4.36
   2  -4   7   25.99   29.79
   2  -4   7   57.19    4.36
   2  -4   7   63.69    4.36
   2  -4   7   58.87    4.36
  -3   4  -7   16.52    1.25
   3  -4   7   16.70    1.22
   3  -4   7   17.98   33.77
   3  -4   7   14.71    1.20
   3  -4   7   15.94    1.21
  -4   4  -7   56.72    4.37
   4  -4   7   68.91    4.96
   4  -4   7   59.34    4.34
   4  -4   7   53.77    4.33
  -5   4  -7    0.61    0.15
  -5   4  -7    0.19    0.19
   5  -4   7    0.57    0.11
   5  -4   7    1.30    0.47
   5  -4   7    0.45    0.10
  -6   4  -7   11.45    0.93
   6  -4   7   12.03    0.89
   6  -4   7    9.41    1.27
   6  -4   7   11.79    0.89
  -7   4  -7    0.24    0.17
   7  -4   7    0.07    0.06
   7  -4   7    0.45    0.34
   7  -4   7    0.11    0.07
  -8   4  -7    2.96    0.40
   8  -4   7    3.32    0.29
   7   3  -7    2.71    0.23
   6   3  -7    4.98    0.42
   6   3  -7    5.49    0.44
  -6  -3   7    5.50    0.52
   5   3  -7    0.70    0.10
   5   3  -7    0.44    0.10
  -5  -3   7    0.67    0.16
  -5  -3   7    0.70    0.24
   4   3  -7   22.92    1.63
  -4  -3   7   19.54    1.69
  -4  -3   7   23.44    1.93
   3   3  -7    0.10    0.05
   3   3  -7    0.10    0.06
  -3  -3   7    0.07    0.06
  -3  -3   7    0.12    0.18
   2   3  -7   29.56    2.15
   2   3  -7   29.44    2.18
  -2  -3   7   28.49    2.19
  -2  -3   7  -24.89   32.11
   1   3  -7    0.69    0.10
   1   3  -7    0.44    0.10
  -1  -3   7    0.26    0.38
  -1  -3   7   -0.24   30.57
  -1  -3   7    0.31    0.09
  -1  -3   7    0.22    0.18
   0  -3   7    5.93   29.55
   0  -3   7   38.70    2.92
   0  -3   7   29.57    3.09
   0  -3   7   36.45    2.78
  -1   3  -7   15.21    1.16
  -1   3  -7   16.69    1.20
   1  -3   7   14.12    1.15
   1  -3   7  -13.41   27.24
  -2   3  -7   41.03    3.42
  -2   3  -7   51.43    3.38
   2  -3   7   45.04    3.33
   2  -3   7   45.85    3.77
   2  -3   7   -7.30   27.29
   2  -3   7   44.39    3.72
  -3   3  -7   30.97    2.21
   3  -3   7    5.45   35.95
   3  -3   7   27.27    2.14
   3  -3   7   29.20    2.15
  -4   3  -7   16.07    1.32
   4  -3   7   19.94    1.84
   4  -3   7   15.95    1.26
   4  -3   7   15.86    1.26
  -5   3  -7   21.44    1.61
   5  -3   7   19.54    1.54
   5  -3   7   20.32    1.53
  -6   3  -7    1.88    0.26
   6  -3   7    2.84    0.67
   6  -3   7    1.69    0.21
   6  -3   7    1.77    0.21
  -7   3  -7   18.97    1.46
   7  -3   7   19.10    1.40
   7  -3   7   17.47    1.88
  -8   3  -7    1.25    0.23
   8  -3   7    0.78    0.35
   7   2  -7    5.92    0.48
   7   2  -7    5.88    0.47
  -7  -2   7    6.00    0.56
   6   2  -7   18.35    1.30
  -6  -2   7   16.35    1.37
  -6  -2   7   17.12    1.49
   5   2  -7    0.11    0.05
   5   2  -7    0.10    0.06
  -5  -2   7    0.13    0.08
  -5  -2   7    0.22    0.23
  -4  -2   7    0.92    0.36
  -4  -2   7    1.10    0.17
   3   2  -7    1.15    0.15
   3   2  -7    1.35    0.14
   3   2  -7    1.13    0.20
  -3  -2   7    1.13    0.17
   2   2  -7    0.20    0.06
   2   2  -7    0.19    0.08
  -2  -2   7    0.12    0.17
  -2  -2   7   -8.77   31.86
   1   2  -7   14.40    1.14
   1   2  -7   14.11    1.54
   1   2  -7   15.68    1.12
  -1  -2   7  -21.86   29.59
  -1  -2   7   13.97    1.68
  -1  -2   7   15.18    1.15
   0   2  -7    7.49    0.98
   0   2  -7    7.90    0.59
   0   2  -7    7.77    0.62
   0   2  -7    6.64    0.64
   0  -2   7    6.97    0.62
   0  -2   7  -10.38   26.81
   0  -2   7    8.04    1.17
   1  -2   7    6.86    0.60
   1  -2   7   -0.87   26.06
   1  -2   7    7.48    1.29
   1  -2   7    9.33    1.01
  -2   2  -7    5.57    0.59
  -2   2  -7    6.87    0.54
   2  -2   7    5.44    0.47
   2  -2   7   -8.56   31.47
  -3   2  -7   26.35    1.94
   3  -2   7   25.02    2.36
   3  -2   7   23.88    2.26
   3  -2   7   12.96   47.75
  -4   2  -7    0.85    0.18
   4  -2   7    0.32    0.30
  -5   2  -7   79.88    5.68
   5  -2   7   70.97    5.57
   5  -2   7   79.71    6.21
  -6   2  -7    0.21    0.16
  -6   2  -7    0.52    0.16
   6  -2   7    0.75    0.42
   6  -2   7    0.60    0.11
   6  -2   7    0.95    0.45
  -7   2  -7   13.07    1.16
  -7   2  -7   13.70    1.08
   8   1  -7    7.28    0.56
   8   1  -7    7.40    0.57
   7   1  -7    9.24    0.71
   7   1  -7    8.88    0.72
  -7  -1   7    9.52    0.80
   6   1  -7    1.65    0.17
   6   1  -7    1.33    0.17
  -6  -1   7    1.87    0.47
   5   1  -7    7.62    0.57
   5   1  -7    6.18    0.55
   4   1  -7    0.43    0.12
   4   1  -7    0.40    0.08
  -4  -1   7    0.17    0.08
  -4  -1   7    0.07    0.20
  -3  -1   7  -28.47   37.33
   2   1  -7    7.27    0.57
   2   1  -7    6.59    0.61
   2   1  -7    6.64    0.97
   2   1  -7    7.18    0.59
  -2  -1   7    8.48    0.63
  -2  -1   7    0.45   31.67
   1   1  -7    5.88    0.54
   1   1  -7    6.27    0.89
   1   1  -7    7.37    0.49
   1   1  -7    6.11    0.51
  -1  -1   7    5.64    0.53
  -1  -1   7   -3.74   22.33
  -1  -1   7    4.05    1.17
   0   1  -7   13.97    1.06
   0   1  -7   13.26    1.02
   0   1  -7   14.46    1.11
   0   1  -7   14.78    1.45
   0  -1   7  -17.71   27.26
   0  -1   7   13.50    1.07
   0  -1   7   11.31    1.31
  -1   1  -7    8.28    0.63
  -1   1  -7    6.96    0.57
  -1   1  -7    7.62    0.67
   1  -1   7   -0.33   30.27
   1  -1   7    5.20    1.30
   1  -1   7    6.91    0.61
  -2   1  -7    9.36    0.77
  -2   1  -7    8.29    0.81
   2  -1   7    8.32    1.02
   2  -1   7    9.51    1.13
   2  -1   7    9.36   34.51
  -3   1  -7    3.75    0.43
  -3   1  -7    4.23    0.50
   3  -1   7    4.24    0.71
   3  -1   7    4.77    0.81
  -4   1  -7    5.89    0.55
  -4   1  -7    4.69    0.59
  -5   1  -7    0.17    0.11
  -5   1  -7    0.04    0.13
   5  -1   7    0.12    0.26
   5  -1   7    0.25    0.30
  -6   1  -7    3.16    0.44
  -6   1  -7    3.13    0.37
   6  -1   7    3.14    0.69
   6  -1   7    3.60    0.71
  -7   1  -7    1.48    0.26
   8   0  -7    0.01    0.03
   8   0  -7    0.00    0.03
   7   0  -7    6.56    0.51
   7   0  -7    6.37    0.51
   7   0  -7    5.66    0.53
  -7   0   7    6.65    0.59
   6   0  -7    1.79    0.23
   6   0  -7    1.44    0.18
   6   0  -7    2.26    0.27
   6   0  -7    2.30    0.21
  -6   0   7    2.07    0.26
   5   0  -7   38.42    2.70
   5   0  -7   32.60    2.62
   5   0  -7   32.61    2.64
   5   0  -7   37.54    2.63
  -5   0   7   37.70    2.69
   4   0  -7    0.11    0.07
   4   0  -7    0.06    0.05
   4   0  -7    0.13    0.05
  -4   0   7    0.08    0.17
  -4   0   7    0.14    0.08
   3   0  -7   62.03    4.45
   3   0  -7   63.77    4.53
  -3   0   7   52.79    4.75
  -3   0   7  -13.00   34.27
  -3   0   7   66.74    4.53
   2   0  -7   12.01    1.00
   2   0  -7   12.36    0.93
  -2   0   7   14.05   28.10
  -2   0   7   12.75    1.00
   1   0  -7   29.84    2.28
   1   0  -7   30.61    2.71
   1   0  -7   31.63    2.32
   1   0  -7   33.12    2.36
  -1   0   7   28.85    2.67
  -1   0   7   32.63    2.35
  -1   0   7   -2.70   28.32
   0   0   7    1.21    0.42
   0   0   7    8.54   30.46
  -1   0  -7    2.42    0.32
  -1   0  -7    2.68    0.29
  -1   0  -7    2.05    0.23
   1   0   7    2.72    0.29
   1   0   7   -4.46   30.63
  -2   0  -7    7.49    0.77
  -2   0  -7    8.58    0.74
   2   0   7    8.70    0.72
   2   0   7  -24.88   34.78
   3   0   7    1.31    0.45
   3   0   7    1.08    0.49
  -4   0  -7    3.72    0.44
  -4   0  -7    5.01    0.55
   5   0   7    1.32    0.50
   5   0   7    1.54    0.54
  -6   0  -7   20.66    1.56
  -6   0  -7   17.76    1.48
   8  -1  -7    0.01    0.04
   8  -1  -7    0.01    0.03
   8  -1  -7    0.03    0.06
  -8   1   7    0.05    0.10
   7  -1  -7    2.01    0.19
   7  -1  -7    1.92    0.19
   7  -1  -7    1.56    0.22
  -7   1   7    1.84    0.25
   6  -1  -7    0.24    0.11
   6  -1  -7    0.33    0.08
   6  -1  -7    0.52    0.11
   6  -1  -7    0.30    0.07
  -6   1   7    0.36    0.12
  -6   1   7    0.11    0.23
   5  -1  -7    7.08    0.55
   5  -1  -7    5.71    0.61
   5  -1  -7    6.67    0.57
   5  -1  -7    7.68    0.56
  -5   1   7    8.11    0.64
   4  -1  -7   35.48    2.69
   4  -1  -7   31.94    2.61
   4  -1  -7   36.39    2.61
  -4   1   7    8.84   37.26
  -4   1   7   39.30    2.70
  -3   1   7  -15.10   31.98
   2  -1  -7  137.02    9.69
   2  -1  -7  141.00    9.78
   2  -1  -7  119.12    9.69
  -2   1   7  143.80    9.78
  -2   1   7   15.11   31.72
  -1   1   7  -27.86   23.88
   0  -1  -7   78.69    5.98
   0  -1  -7   74.78    5.93
   0   1   7  -12.72   33.57
   0   1   7   82.72    5.98
   0   1   7   90.75    6.48
  -1  -1  -7   35.04    2.68
  -1  -1  -7   36.38    2.73
   1   1   7  -15.71   35.64
   1   1   7   36.60    2.70
   1   1   7   34.36    3.18
  -2  -1  -7  129.83    9.34
  -2  -1  -7  126.21    9.39
   2   1   7  127.79    9.33
   3   1   7    1.31    0.55
  -4  -1  -7   28.58    2.52
  -4  -1  -7   28.68    2.50
   4   1   7   38.49    3.03
   4   1   7   37.00    3.08
  -5  -1  -7    1.11    0.21
  -5  -1  -7    1.17    0.23
   5   1   7    1.28    0.45
   5   1   7    0.99    0.42
   8  -2  -7    9.79    0.74
   8  -2  -7    9.54    0.77
   8  -2  -7    9.80    0.74
   7  -2  -7   10.51    0.85
   7  -2  -7   11.37    0.82
   7  -2  -7   10.93    0.82
  -7   2   7   10.27    0.89
   6  -2  -7   14.92    1.20
   6  -2  -7   16.59    1.18
  -6   2   7   15.76    1.26
   5  -2  -7    6.32    0.53
   5  -2  -7    6.65    0.52
  -5   2   7    6.69    0.61
   4  -2  -7    1.48    0.16
   4  -2  -7    1.53    0.22
   4  -2  -7    1.80    0.18
  -4   2   7    2.92   36.84
  -4   2   7    2.16    0.26
   3  -2  -7   11.72    0.99
   3  -2  -7   14.49    1.08
   3  -2  -7   13.60    0.99
   3  -2  -7   12.78    1.04
  -3   2   7   -2.43   31.00
  -3   2   7   13.87    1.09
   2  -2  -7    1.68    0.18
   2  -2  -7    2.01    0.25
   2  -2  -7    2.01    0.18
   2  -2  -7    2.35    0.23
  -2   2   7    1.88    0.26
  -2   2   7    8.40   27.04
   1  -2  -7   21.89    1.69
   1  -2  -7   22.51    1.60
   1  -2  -7   21.15    1.65
  -1   2   7   21.21    2.13
  -1   2   7  -20.22   24.38
   0  -2  -7    1.45    0.20
   0  -2  -7    1.41    0.22
   0   2   7    9.40   34.17
   1   2   7   -6.68   37.55
   1   2   7    2.75    0.68
  -2  -2  -7    3.44    0.40
  -2  -2  -7    3.15    0.37
   2   2   7    3.38    0.39
  -3  -2  -7   12.69    1.06
  -3  -2  -7   12.60    1.05
   3   2   7   12.75    1.06
   4   2   7    0.55    0.35
   4   2   7    0.60    0.34
   8  -3  -7    0.36    0.09
   7  -3  -7    0.06    0.05
  -7   3   7    0.09    0.22
   6  -3  -7    0.01    0.04
   6  -3  -7    0.03    0.06
  -6   3   7    0.02    0.09
   5  -3  -7   13.14    1.05
   5  -3  -7   11.35    1.05
   5  -3  -7   13.13    1.00
  -5   3   7    0.35   42.29
  -5   3   7   14.90    1.10
  -4   3   7   12.55   36.60
   3  -3  -7   23.62    1.74
   3  -3  -7   23.61    1.71
   3  -3  -7   20.52    1.65
   3  -3  -7   21.97    1.66
  -3   3   7   -3.33   30.19
   2  -3  -7   40.83    3.06
   2  -3  -7   42.06    3.05
   2  -3  -7   45.89    3.14
   2  -3  -7   43.04    3.11
  -2   3   7   39.39    3.15
  -2   3   7   39.78    3.63
  -2   3   7  -16.45   29.40
   1  -3  -7    7.87    0.62
   1  -3  -7    7.76    0.67
   1  -3  -7    8.37    0.69
   1  -3  -7    7.63    0.60
  -1   3   7    7.68    1.15
  -1   3   7   -9.23   29.92
   0  -3  -7   43.58    3.48
   0  -3  -7   50.24    3.43
   0   3   7    8.20   38.60
   1   3   7   11.38   38.51
  -2  -3  -7    6.88    0.60
   2   3   7    6.85    0.65
  -3  -3  -7    0.47    0.11
   3   3   7    0.10    0.23
   8  -4  -7    0.04    0.05
  -8   4   7    0.02    0.32
   7  -4  -7    4.60    0.36
  -7   4   7    3.01    0.63
   6  -4  -7   13.11    0.90
   6  -4  -7   11.94    0.91
   6  -4  -7   10.81    0.94
   6  -4  -7   11.07    0.96
   5  -4  -7   36.80    2.77
   5  -4  -7   36.82    2.78
   5  -4  -7   37.56    2.73
  -5   4   7    7.11   37.89
   4  -4  -7   23.85    1.85
   4  -4  -7   24.42    1.79
   4  -4  -7   24.39    1.84
  -4   4   7   23.69    1.88
  -4   4   7   13.16   35.01
   3  -4  -7    3.64    0.31
   3  -4  -7    4.01    0.37
   3  -4  -7    3.60    0.32
   3  -4  -7    4.03    0.39
  -3   4   7   13.12   33.19
  -3   4   7    3.20    0.40
   2  -4  -7   52.13    3.95
   2  -4  -7   53.54    3.95
   2  -4  -7   51.08    3.88
   2  -4  -7   53.01    3.90
  -2   4   7   -3.37   32.70
  -2   4   7   57.09    4.60
  -2   4   7   55.18    4.01
   1  -4  -7    2.26    0.21
   1  -4  -7    1.78    0.23
  -1   4   7   -0.24   34.03
  -1   4   7    2.15    0.30
   0  -4  -7   25.26    1.88
   0  -4  -7   23.02    1.82
   0   4   7   24.12    2.49
   0   4   7  -18.89   38.91
   0   4   7   25.91    1.93
  -1  -4  -7    0.70    0.14
  -1  -4  -7    0.67    0.10
   1   4   7    0.56    0.40
   1   4   7    0.59    0.16
  -2  -4  -7    1.94    0.21
   7  -5  -7    1.26    0.13
  -7   5   7    0.59    0.32
   6  -5  -7   15.11    1.03
   6  -5  -7   12.68    1.08
   6  -5  -7   12.85    1.08
   6  -5  -7   14.48    1.05
   5  -5  -7    9.85    0.75
   5  -5  -7   10.31    0.74
   5  -5  -7    8.76    0.78
  -5   5   7   21.51   34.52
   4  -5  -7    2.72    0.26
   4  -5  -7    2.64    0.29
   4  -5  -7    3.12    0.25
  -4   5   7   13.85   32.85
  -3   5   7  -16.50   27.64
  -2   5   7    1.44    0.56
  -2   5   7    9.63   35.82
   1  -5  -7   26.65    1.88
   1  -5  -7   24.02    1.82
  -1   5   7  -18.09   32.25
  -1   5   7   21.73    2.38
  -1   5   7   26.13    1.92
   0  -5  -7    7.36    0.61
   0  -5  -7    8.31    0.66
   0   5   7    8.53    0.71
   1   5   7    4.83    0.80
   6  -6  -7    0.11    0.04
  -5   6   7  -11.73   30.88
   4  -6  -7    2.31    0.24
   4  -6  -7    2.40    0.20
   4  -6  -7    2.33    0.21
  -4   6   7   -0.67   28.64
   3  -6  -7   24.36    1.81
   3  -6  -7   23.76    1.77
  -3   6   7    3.75   29.09
   2  -6  -7    0.17    0.05
   2  -6  -7    0.07    0.06
  -2   6   7  -13.04   29.58
  -2   6   7    0.04    0.30
   1  -9   8    4.14    0.45
   1  -9   8    3.92    0.34
   2  -9   8    6.52    0.64
   2  -9   8    6.72    0.53
   3  -9   8    0.24    0.07
   4  -9   8    3.75    0.37
   4  -9   8    3.86    0.33
   5  -9   8    2.28    0.23
   5  -9   8    2.81    0.28
   6  -9   8   23.76    1.78
   1   8  -8   12.44    1.15
   1   8  -8    9.97    0.84
  -1  -8   8    9.82    0.94
   0   8  -8    0.39    0.10
   0  -8   8    0.26    0.14
   0  -8   8    0.20    0.07
   1  -8   8  -12.41   30.45
  -2   8  -8    3.60    0.32
   2  -8   8    8.16   31.29
   2  -8   8    2.55    0.28
   2  -8   8    3.08    0.41
  -3   8  -8   10.08    0.85
   3  -8   8   31.98   28.75
   3  -8   8   11.76    0.90
   3  -8   8   10.79    0.85
   4  -8   8    8.97   31.62
   5  -8   8   35.31    2.54
   5  -8   8   35.74    2.58
   5  -8   8   32.44    2.53
   6  -8   8   12.69    0.96
   6  -8   8   11.72    0.93
   7  -8   8   21.35    1.60
   7  -8   8   21.12    1.57
  -3  -7   8    8.60    0.77
   2   7  -8    2.92    0.30
  -2  -7   8    3.65    0.43
   1   7  -8    2.27    0.23
  -1  -7   8    1.85    0.21
  -1  -7   8    1.82    0.32
  -1  -7   8   -2.57   53.42
   0  -7   8  -21.07   33.54
  -1   7  -8   19.40    1.51
   1  -7   8  -15.84   30.28
  -2   7  -8    0.04    0.07
   2  -7   8    0.03    0.08
   2  -7   8    0.05    0.11
   2  -7   8    0.01    0.04
   2  -7   8   -3.86   29.37
   3  -7   8   -9.58   29.86
  -4   7  -8    6.11    0.55
   4  -7   8   -4.57   36.06
   4  -7   8    6.82    0.58
   4  -7   8    6.44    0.54
   5  -7   8  -11.43   37.95
  -6   7  -8   17.72    1.43
   6  -7   8   18.84    1.43
   6  -7   8   20.26    1.45
  -7   7  -8    1.17    0.17
   7  -7   8    1.40    0.17
   7  -7   8    1.46    0.17
  -4  -6   8   12.33    1.04
   3   6  -8    2.22    0.25
  -3  -6   8    2.71    0.37
   2   6  -8   15.01    1.11
   2   6  -8   13.09    1.56
  -2  -6   8   13.94    1.08
   1   6  -8    6.37    0.85
  -1  -6   8    7.12    0.57
  -1  -6   8   12.50   37.96
   0   6  -8    0.18    0.08
   0  -6   8    0.29    0.15
   0  -6   8   -4.39   32.43
   0  -6   8    0.17    0.07
  -1   6  -8    0.15    0.08
  -1   6  -8    0.10    0.07
   1  -6   8  -17.10   29.43
   1  -6   8    0.11    0.06
   1  -6   8    0.17    0.12
   1  -6   8    0.17    0.09
  -2   6  -8    0.66    0.13
  -2   6  -8    0.59    0.14
   2  -6   8    0.85    0.16
   2  -6   8    1.99   27.79
   2  -6   8    0.41    0.10
   2  -6   8    0.63    0.20
  -3   6  -8   21.00    1.61
  -3   6  -8   20.35    1.57
   3  -6   8   21.34    1.59
   3  -6   8   19.85    1.56
   3  -6   8   11.07   35.25
  -4   6  -8   24.07    2.02
  -4   6  -8   27.56    2.00
   4  -6   8   29.77    2.02
   4  -6   8   23.79    2.54
   4  -6   8   32.97   38.23
   4  -6   8   27.41    1.98
   5  -6   8    6.38    0.55
   6  -6   8    2.92    0.68
   6  -6   8    2.94    0.29
   6  -6   8    2.99    0.30
   7  -6   8    5.45    0.45
   7  -6   8    5.26    0.46
   5   5  -8    0.67    0.10
  -5  -5   8    0.68    0.18
   4   5  -8    0.65    0.11
  -4  -5   8    0.50    0.16
  -4  -5   8    0.75    0.22
   3   5  -8    5.73    0.46
  -3  -5   8    4.10    0.57
  -3  -5   8    5.41    0.53
   2   5  -8    4.65    0.43
   2   5  -8    4.31    0.39
  -2  -5   8    5.11    0.42
   1   5  -8   25.35    1.93
  -1  -5   8    1.06   36.97
   0   5  -8   15.81    1.10
   0  -5   8   12.84    1.09
   0  -5   8  -11.00   33.33
  -1   5  -8   75.13    5.24
   1  -5   8   72.71    5.25
   1  -5   8   69.73    5.26
   1  -5   8   70.80    5.38
   1  -5   8   -5.77   32.76
  -2   5  -8   18.53    1.39
  -2   5  -8   18.25    1.43
   2  -5   8   17.32    1.39
   2  -5   8  -24.81   25.76
   2  -5   8   18.81    1.39
  -3   5  -8  161.07   10.57
  -3   5  -8  150.49   10.52
   3  -5   8   11.32   38.79
   3  -5   8  148.74   10.52
   3  -5   8  120.16   10.49
   3  -5   8  148.49   10.50
  -4   5  -8  118.39    8.32
   4  -5   8  121.98    8.29
   4  -5   8  102.50    8.27
   4  -5   8   54.46   45.30
  -5   5  -8   47.59    3.58
   5  -5   8   51.48    3.55
   5  -5   8   45.73    3.54
  -6   5  -8   11.96    1.20
   6  -5   8   15.79    1.10
   6  -5   8   14.49    1.09
  -7   5  -8   26.48    2.25
   7  -5   8   28.94    2.14
   7  -5   8   31.08    2.15
   6   4  -8    2.84    0.25
   5   4  -8   23.69    1.88
   5   4  -8   27.08    1.90
  -5  -4   8   26.95    2.06
  -5  -4   8   24.70    1.97
   4   4  -8    3.21    0.30
  -4  -4   8    3.77    0.50
  -4  -4   8    3.50    0.38
   3   4  -8    4.28    0.40
   3   4  -8    4.68    0.37
  -3  -4   8    4.18    0.44
  -2  -4   8   35.00   37.47
   1   4  -8   12.81    0.92
  -1  -4   8   -2.66   32.37
  -1  -4   8   12.66    1.15
  -1  -4   8   10.33    0.94
   0   4  -8    0.10    0.05
   0   4  -8    0.02    0.05
   0  -4   8    0.08    0.13
   0  -4   8    0.32    0.32
   0  -4   8  -25.64   30.65
   1  -4   8  -13.54   25.67
   2  -4   8  -46.76   29.23
  -3   4  -8   42.46    3.50
  -3   4  -8   46.84    3.44
   3  -4   8   12.34   35.27
   3  -4   8   49.51    3.40
   3  -4   8   45.29    3.40
   3  -4   8   47.54    3.97
  -4   4  -8   90.14    6.66
  -4   4  -8   82.52    6.77
   4  -4   8   96.07    7.21
   4  -4   8   96.35    6.63
   4  -4   8   90.91    6.62
  -5   4  -8    5.73    0.69
  -5   4  -8    7.27    0.60
   5  -4   8    6.77    0.55
   5  -4   8    6.98    0.55
   5  -4   8    5.59    0.94
   5  -4   8    7.32    1.05
  -6   4  -8   52.33    4.35
  -6   4  -8   62.74    4.26
   6  -4   8   50.05    4.66
   6  -4   8   59.72    4.21
   6  -4   8   62.27    4.21
  -7   4  -8    2.10    0.32
   7  -4   8    1.91    0.21
   6   3  -8    1.17    0.14
   6   3  -8    1.12    0.13
  -6  -3   8    1.15    0.25
  -6  -3   8    1.26    0.22
   5   3  -8    8.77    0.72
  -5  -3   8   10.24    0.96
  -5  -3   8    9.22    0.81
   4   3  -8    0.34    0.08
  -4  -3   8    0.25    0.20
  -4  -3   8    0.32    0.11
   3   3  -8    0.27    0.07
   3   3  -8    0.38    0.10
  -3  -3   8    0.30    0.10
  -3  -3   8    0.10    0.19
   2   3  -8   12.57    0.91
   2   3  -8   11.90    0.94
  -2  -3   8   10.94    0.95
  -2  -3   8   36.95   37.43
  -1  -3   8  -12.45   29.93
   0  -3   8    0.31    0.21
   0  -3   8   -5.65   29.79
   1  -3   8    8.96    1.12
   1  -3   8   -8.28   27.17
   2  -3   8    6.94    0.97
   2  -3   8   40.07   36.89
   3  -3   8    0.10    0.23
   3  -3   8  -45.75   34.16
   3  -3   8    0.09    0.24
  -4   3  -8    0.03    0.12
  -4   3  -8    0.09    0.07
   4  -3   8    0.00    0.05
   4  -3   8   -0.03    0.20
   4  -3   8    0.07    0.21
   5  -3   8    9.48    1.23
   5  -3   8    7.36    1.08
  -6   3  -8    0.14    0.08
  -6   3  -8    0.04    0.13
   6  -3   8    0.09    0.26
   6  -3   8    0.02    0.21
  -7   3  -8    1.95    0.31
   7   2  -8    0.80    0.11
   7   2  -8    0.77    0.10
  -7  -2   8    1.01    0.20
   6   2  -8    5.10    0.44
   6   2  -8    5.20    0.44
  -6  -2   8    5.50    0.65
  -6  -2   8    5.59    0.52
   5   2  -8    0.10    0.06
   5   2  -8    0.03    0.04
  -5  -2   8    0.25    0.11
  -5  -2   8    0.09    0.22
   4   2  -8   24.71    1.89
  -4  -2   8   26.50    1.97
   3   2  -8   23.79    1.87
   3   2  -8   24.90    1.84
   3   2  -8   24.79    1.82
  -3  -2   8   24.06   37.75
   2   2  -8   42.61    2.94
   2   2  -8   40.56    2.96
   2   2  -8   34.32    2.97
  -2  -2   8   17.56   36.34
  -2  -2   8   42.95    3.00
   1   2  -8    0.12    0.06
   1   2  -8    0.20    0.09
   1   2  -8    0.18    0.08
  -1  -2   8    0.10    0.07
  -1  -2   8    0.08    0.19
  -1  -2   8  -16.67   28.90
   0   2  -8  130.60    9.79
   0   2  -8  127.65    9.86
   0   2  -8  141.03    9.84
   0  -2   8  142.36   10.23
   0  -2   8  136.40    9.84
  -1   2  -8   14.63    1.23
  -1   2  -8   15.48    1.18
  -1   2  -8   15.69    1.14
   1  -2   8  -17.77   30.88
   1  -2   8   14.18    1.17
   2  -2   8  -24.06   34.29
   3  -2   8    1.96    0.52
   3  -2   8   16.01   44.51
   4  -2   8    1.67    0.55
   4  -2   8    0.93    0.45
  -5   2  -8    1.89    0.32
   5  -2   8    1.44    0.53
   5  -2   8    1.14    0.50
  -6   2  -8    1.26    0.20
  -6   2  -8    1.01    0.25
  -7   2  -8    0.45    0.15
   7  -2   8    0.12    0.23
   7   1  -8    1.79    0.17
   7   1  -8    1.78    0.18
  -7  -1   8    1.64    0.24
   6   1  -8    3.40    0.33
  -6  -1   8    3.54    0.63
  -6  -1   8    5.13    0.44
   5   1  -8   13.24    1.06
  -5  -1   8   14.74    1.14
   4   1  -8   10.23    0.75
  -4  -1   8    8.99    0.81
   3   1  -8    9.86    0.75
   3   1  -8    9.41    0.81
  -3  -1   8   26.92   40.14
  -2  -1   8    5.28    0.70
  -2  -1   8  -22.46   29.21
   1   1  -8   64.21    4.67
   1   1  -8   60.70    4.63
   1   1  -8   60.37    4.70
  -1  -1   8   70.18    4.71
  -1  -1   8    1.76   28.00
   0  -1   8  -25.57   29.25
  -1   1  -8   92.55    6.24
  -1   1  -8   81.33    6.18
  -1   1  -8   90.30    6.30
   1  -1   8   77.43    6.22
   1  -1   8    5.23   35.77
   2  -1   8  -19.07   35.28
  -3   1  -8   34.32    2.69
  -3   1  -8   35.37    2.62
   3  -1   8   32.71    3.12
  -4   1  -8    5.40    0.57
   4  -1   8    6.13    0.98
   4  -1   8    6.95    0.97
  -5   1  -8   31.43    2.39
   5  -1   8   30.35    2.74
   5  -1   8   27.72    2.71
   8   0  -8    1.61    0.15
   8   0  -8    1.63    0.16
   7   0  -8    2.64    0.23
   7   0  -8    2.67    0.23
  -7   0   8    2.78    0.31
  -7   0   8    1.70    0.46
   6   0  -8    1.03    0.12
   6   0  -8    1.00    0.20
   6   0  -8    0.74    0.12
  -6   0   8    0.99    0.20
  -6   0   8    0.33    0.31
   5   0  -8    1.61    0.16
   5   0  -8    1.18    0.15
   5   0  -8    1.44    0.21
  -5   0   8    1.22    0.21
  -4   0   8    0.28    0.23
  -4   0   8   -7.93   46.85
  -3   0   8   35.96    3.13
  -3   0   8   39.59    2.86
  -3   0   8    5.37   34.06
  -2   0   8    8.68   27.41
   1   0  -8   27.22    1.99
   1   0  -8   26.81    1.94
   1   0  -8   23.28    1.89
  -1   0   8   25.08    1.97
  -1   0   8    0.79   28.38
  -1   0   8   26.29    2.31
   0   0   8  -20.14   26.70
  -1   0  -8   16.89    1.34
  -1   0  -8   17.26    1.39
   1   0   8   16.67    1.34
   1   0   8   -8.17   38.42
   2   0   8  -23.20   38.08
  -3   0  -8    3.82    0.48
   3   0   8    4.58    0.84
  -4   0  -8   11.09    0.99
  -4   0  -8   10.42    0.92
   4   0   8   10.90    1.36
   4   0   8   11.19    1.32
   5   0   8    5.06    0.80
   5   0   8    4.32    0.75
   8  -1  -8    5.33    0.43
   8  -1  -8    5.63    0.43
   7  -1  -8    0.83    0.11
   7  -1  -8    0.86    0.11
  -7   1   8    0.23    0.29
  -7   1   8    0.93    0.19
   6  -1  -8   12.80    1.19
   6  -1  -8   15.37    1.12
   6  -1  -8   16.26    1.12
  -6   1   8   14.94    1.20
   5  -1  -8    2.02    0.27
  -4   1   8  -12.33   38.63
  -3   1   8    8.46   32.60
  -2   1   8   21.46   29.48
  -2   1   8   22.13    1.73
  -1   1   8   -4.02   26.83
   0  -1  -8   13.67    1.07
   0  -1  -8   13.92    1.07
   0  -1  -8   15.01    1.13
   0   1   8   11.45    1.10
   0   1   8   10.14   35.93
  -1  -1  -8   63.48    4.75
  -1  -1  -8   61.55    4.69
   1   1   8   66.33    4.73
   1   1   8   -2.10   37.76
  -2  -1  -8   60.10    4.41
  -2  -1  -8   60.78    4.46
   2   1   8   57.42    4.41
  -3  -1  -8    1.82    0.26
  -3  -1  -8    2.08    0.30
   4   1   8    1.09    0.43
   4   1   8    0.89    0.42
   5   1   8   -0.03    0.24
   5   1   8   -0.01    0.36
   8  -2  -8    7.53    0.57
   7  -2  -8    0.14    0.05
   7  -2  -8    0.10    0.06
  -7   2   8    0.07    0.10
  -7   2   8   -0.06    0.24
   6  -2  -8    0.35    0.07
   6  -2  -8    0.03    0.06
   6  -2  -8    0.11    0.06
  -6   2   8    0.04    0.21
  -6   2   8    0.09    0.10
   5  -2  -8    0.30    0.11
   5  -2  -8    0.47    0.09
  -5   2   8    0.68    0.17
  -5   2   8    0.41    0.27
  -4   2   8   35.97   39.92
  -4   2   8   28.47    2.20
   3  -2  -8    0.23    0.10
  -3   2   8    0.36    0.13
  -3   2   8  -14.33   32.56
   2  -2  -8    3.54    0.38
   2  -2  -8    3.68    0.35
  -2   2   8   13.16   29.91
   1  -2  -8   16.03    1.30
   1  -2  -8   16.91    1.34
  -1   2   8  -22.50   29.43
  -1   2   8   17.59    1.83
   0   2   8   -5.98   34.36
  -1  -2  -8    4.81    0.47
  -1  -2  -8    4.47    0.44
   1   2   8    4.14    0.46
   1   2   8   19.83   41.91
  -2  -2  -8    9.20    0.82
  -2  -2  -8    9.57    0.80
   2   2   8    9.87    0.84
  -3  -2  -8    3.55    0.36
  -3  -2  -8    2.95    0.38
  -3  -2  -8    3.53    0.35
   3   2   8    4.54    0.76
  -4  -2  -8    0.02    0.06
   4   2   8    0.15    0.24
   7  -3  -8   11.41    0.87
   6  -3  -8   15.19    1.04
  -6   3   8   13.08    1.10
  -6   3   8   11.77    1.40
  -5   3   8  -26.70   38.84
   4  -3  -8   58.93    4.58
   4  -3  -8   63.49    4.66
   4  -3  -8   59.51    4.62
  -4   3   8   71.09    4.71
  -4   3   8   -3.67   38.12
  -3   3   8  -17.06   26.97
   2  -3  -8   49.69    3.56
   2  -3  -8   48.14    3.52
  -2   3   8   -0.79   29.35
  -2   3   8   48.33    3.59
  -2   3   8   44.18    4.19
  -1   3   8  -30.61   32.35
   0  -3  -8   29.50    2.27
   0  -3  -8   30.51    2.26
   0   3   8   -7.75   37.43
   0   3   8   29.00    2.86
   0   3   8   30.55    2.31
  -1  -3  -8    1.93    0.23
  -1  -3  -8    1.78    0.24
   1   3   8    1.68    0.27
  -2  -3  -8    9.46    0.76
   2   3   8    9.32    0.81
   3   3   8    2.00    0.48
   7  -4  -8    0.06    0.05
  -7   4   8   -0.02    0.20
   6  -4  -8    0.64    0.10
   6  -4  -8    0.65    0.14
  -6   4   8    0.47    0.30
   5  -4  -8   36.32    2.82
   5  -4  -8   39.92    2.85
   5  -4  -8   37.99    2.79
  -5   4   8   16.00   36.41
  -4   4   8  -16.70   31.53
   3  -4  -8   26.07    1.93
   3  -4  -8   25.02    1.91
   3  -4  -8   23.75    1.86
  -3   4   8   26.33    1.97
  -3   4   8  -17.44   28.21
   2  -4  -8   49.99    3.79
   2  -4  -8   55.73    3.85
   2  -4  -8   51.76    3.85
  -2   4   8   59.57    3.92
  -2   4   8   12.67   35.39
  -2   4   8   43.47    4.29
   1  -4  -8   16.27    1.28
  -1   4   8   17.11    1.83
  -1   4   8    5.39   37.59
  -1   4   8   16.26    1.33
   0  -4  -8   11.94    0.90
   0   4   8    9.68    1.34
   0   4   8   11.32    0.94
   0   4   8   23.16   37.81
  -1  -4  -8    0.18    0.07
   1   4   8    0.75    0.41
   1   4   8    0.23    0.13
   6  -5  -8    8.61    0.66
   5  -5  -8    0.02    0.06
   5  -5  -8    0.03    0.04
  -5   5   8  -21.75   31.40
  -4   5   8   14.26   31.87
  -3   5   8  -18.60   27.48
  -2   5   8   -0.97   33.20
  -2   5   8   -0.03    0.32
  -1   5   8   -0.34   34.75
  -1   5   8   12.26    1.37
  -1   9  -9    1.03    0.34
   1  -9   9    0.43    0.09
   1  -9   9    0.55    0.17
  -2   9  -9    1.32    0.39
   2  -9   9    1.99    0.19
   2  -9   9    1.78    0.27
   3  -9   9    5.42    0.45
   4  -9   9    1.45    0.15
   4  -9   9    1.12    0.18
   5  -9   9    0.20    0.08
   1   8  -9    5.46    0.73
  -1  -8   9    7.50    0.65
   0   8  -9    6.97    0.92
   0   8  -9    8.63    0.69
   0  -8   9    8.68    0.67
   0  -8   9    9.10    0.80
  -1   8  -9   13.47    0.99
   1  -8   9   11.48    0.94
   1  -8   9   11.81    1.07
   1  -8   9   10.32   33.59
  -2   8  -9    7.22    0.59
   2  -8   9    6.21    0.66
   2  -8   9    8.42   30.41
   2  -8   9    6.68    0.55
  -3   8  -9    0.45    0.12
   3  -8   9    3.06   29.13
   3  -8   9    0.49    0.13
   3  -8   9    0.72    0.12
   4  -8   9   10.34   30.97
   5  -8   9    0.05    0.07
   6  -8   9    4.04    0.32
   6  -8   9    3.34    0.33
  -3  -7   9    9.84    0.91
   2   7  -9    8.65    0.73
  -2  -7   9    9.68    0.86
  -1  -7   9   20.28   37.67
   0  -7   9  -11.99   30.46
   1  -7   9  -19.08   32.64
   2  -7   9  -17.63   30.23
  -3   7  -9   16.05    1.27
  -3   7  -9   16.36    1.32
   3  -7   9   -2.99   30.62
   3  -7   9   17.12    1.28
   3  -7   9   16.95    1.31
  -4   7  -9   14.67    1.15
   4  -7   9   14.24    1.11
   4  -7   9  -10.42   32.53
   5  -7   9   -8.02   39.95
  -6   7  -9   26.28    1.97
   6  -7   9   26.16    1.97
   6  -7   9   26.83    1.96
  -7   7  -9    7.80    0.65
   7  -7   9    8.80    0.64
   7  -7   9    7.89    0.67
  -4  -6   9   17.45    1.41
   3   6  -9   10.08    0.84
  -3  -6   9   11.49    1.00
   2   6  -9   30.30    2.28
  -2  -6   9   31.61    2.26
  -2  -6   9   29.28    2.44
  -1  -6   9  -30.54   37.09
   0  -6   9  -11.06   32.56
   1  -6   9  -20.99   29.83
  -2   6  -9    5.03    0.49
  -2   6  -9    5.39    0.44
   2  -6   9    4.51    0.46
   2  -6   9    5.13    0.44
   2  -6   9    8.46   31.64
  -3   6  -9   33.88    2.73
  -3   6  -9   36.93    2.69
   3  -6   9   37.25    2.69
   3  -6   9   -5.62   35.04
   3  -6   9   37.18    2.71
  -4   6  -9   24.94    1.76
  -4   6  -9   21.22    1.77
   4  -6   9    6.59   39.03
   4  -6   9   23.55    1.76
  -5   6  -9    8.80    0.75
  -5   6  -9    7.43    0.71
   5  -6   9   10.45    0.72
  -6   6  -9    5.03    0.41
   6  -6   9    4.76    0.39
   6  -6   9    3.45    0.75
   6  -6   9    4.67    0.40
  -7   6  -9   32.20    2.29
   7  -6   9   29.35    2.27
   7  -6   9   31.30    2.27
   5   5  -9    0.46    0.08
   4   5  -9    1.59    0.18
  -4  -5   9    1.72    0.30
   3   5  -9    0.04    0.05
   3   5  -9    0.05    0.07
  -3  -5   9    0.02    0.10
  -3  -5   9    0.09    0.07
  -2  -5   9  -45.39   38.13
   1   5  -9    5.00    0.47
  -1  -5   9   18.14   39.51
  -1  -5   9    4.94    0.45
   0   5  -9    4.60    0.42
   0  -5   9    3.57    0.37
   0  -5   9   -0.10   36.88
  -1   5  -9    9.02    0.77
   1  -5   9   -5.70   31.39
  -2   5  -9    1.44    0.21
  -2   5  -9    1.41    0.18
   2  -5   9    9.90   32.71
   2  -5   9    1.59    0.19
  -3   5  -9    5.04    0.45
   3  -5   9  -21.83   35.65
  -4   5  -9    5.82    0.55
   4  -5   9    6.59    0.53
   4  -5   9    7.95   42.75
   4  -5   9    7.06    1.00
   4  -5   9    5.84    0.53
  -5   5  -9    6.33    0.54
   5  -5   9    6.90    0.52
   5  -5   9    6.07    0.51
   5  -5   9    4.53    0.86
  -6   5  -9    0.24    0.21
  -6   5  -9    0.29    0.10
   6  -5   9    0.19    0.08
   6  -5   9    0.34    0.08
  -7   5  -9    1.75    0.20
   7  -5   9    1.84    0.20
   7  -5   9    2.29    0.56
   5   4  -9    0.23    0.07
   5   4  -9    0.20    0.06
  -5  -4   9    0.18    0.11
  -5  -4   9    0.25    0.15
   4   4  -9    2.12    0.21
  -4  -4   9    1.65    0.27
  -4  -4   9    2.79    0.42
   3   4  -9    5.44    0.48
   3   4  -9    5.20    0.44
  -3  -4   9    5.52    0.52
   2   4  -9   17.86    1.41
   2   4  -9   19.18    1.38
  -2  -4   9    8.54   40.05
  -2  -4   9   17.57    1.43
  -1  -4   9    2.66   31.52
   0   4  -9    0.05    0.06
   0   4  -9    0.07    0.05
   0  -4   9  -21.76   31.87
   0  -4   9    0.05    0.14
   1  -4   9    1.03    0.46
   1  -4   9    6.29   31.00
  -2   4  -9   11.42    1.04
   2  -4   9   14.48    1.05
   2  -4   9  -22.08   33.81
   2  -4   9   14.37    1.04
   3  -4   9    3.18   36.85
  -4   4  -9   10.67    0.86
  -4   4  -9   10.61    0.96
   4  -4   9   11.34    0.81
   4  -4   9    8.14    1.24
  -5   4  -9    0.20    0.14
  -5   4  -9    0.05    0.06
   5  -4   9    0.03    0.05
   5  -4   9    0.33    0.33
  -6   4  -9    0.43    0.18
  -6   4  -9    0.56    0.13
  -7   4  -9    1.36    0.16
  -7   4  -9    1.55    0.25
   6   3  -9    0.76    0.10
   6   3  -9    0.82    0.11
  -6  -3   9    0.80    0.21
  -6  -3   9    0.82    0.18
   5   3  -9   19.26    1.48
   5   3  -9   20.02    1.50
  -5  -3   9   18.17    1.56
  -5  -3   9   22.54    1.76
   4   3  -9    2.97    0.27
  -4  -3   9    3.65    0.36
  -4  -3   9    2.07    0.46
   3   3  -9    4.02    0.35
   2   3  -9    1.61    0.19
   2   3  -9    1.91    0.23
  -2  -3   9    1.71    0.24
  -2  -3   9    5.70   38.53
  -2  -3   9    1.48    0.44
   1   3  -9   28.89    2.13
   1   3  -9   28.94    2.16
  -1  -3   9   14.71   34.25
  -1  -3   9   28.09    2.18
   0   3  -9    0.25    0.09
   0   3  -9    0.18    0.09
   0   3  -9    0.22    0.07
   0  -3   9    0.11    0.21
   0  -3   9    0.37    0.12
   0  -3   9   -1.50   32.48
  -1   3  -9    0.26    0.12
   1  -3   9  -20.04   33.47
   2  -3   9  -28.79   35.69
   3  -3   9   24.18   38.97
  -4   3  -9   29.96    2.17
  -4   3  -9   22.57    2.01
  -4   3  -9   25.98    1.99
   4  -3   9   28.56    2.52
  -6   3  -9   30.08    2.25
  -6   3  -9   32.93    2.30
  -6   3  -9   33.63    2.40
   6  -3   9   25.66    2.63
   6  -3   9   29.86    2.71
   7   2  -9    1.33    0.13
   7   2  -9    1.35    0.14
   6   2  -9    5.26    0.44
   6   2  -9    5.45    0.44
  -6  -2   9    5.76    0.66
  -6  -2   9    5.07    0.51
   5   2  -9    2.37    0.24
  -5  -2   9    2.82    0.32
  -5  -2   9    2.30    0.53
   4   2  -9   43.94    3.30
  -4  -2   9   46.46    3.39
  -3  -2   9    2.48   41.20
   2   2  -9   88.55    6.11
   2   2  -9   84.87    6.07
   2   2  -9   78.55    6.12
  -2  -2   9   82.88    6.14
  -2  -2   9    3.94   37.11
   1   2  -9   12.83    1.01
   1   2  -9   13.27    0.98
   1   2  -9   12.13    1.03
  -1  -2   9   12.30    1.03
  -1  -2   9   -0.88   32.28
   0   2  -9  137.99    9.92
   0   2  -9  138.08    9.84
   0   2  -9  145.79    9.89
   0  -2   9  124.91   10.27
   0  -2   9   10.87   35.26
   0  -2   9  136.27    9.90
  -1   2  -9    0.68    0.11
  -1   2  -9    0.66    0.18
  -1   2  -9    0.31    0.10
   1  -2   9    0.53    0.14
   1  -2   9   -2.15   31.79
  -2   2  -9   14.62    1.31
  -2   2  -9   14.70    1.20
   2  -2   9   12.07   38.58
   2  -2   9   18.22    1.76
  -3   2  -9    0.30    0.15
   3  -2   9    0.04    0.23
   3  -2   9    0.18    0.26
   3  -2   9  -18.12   42.82
  -4   2  -9   10.71    0.92
  -4   2  -9   11.74    0.87
   4  -2   9   10.23    1.35
  -5   2  -9    6.60    0.70
  -5   2  -9    7.17    0.64
  -5   2  -9    5.90    0.58
   5  -2   9    8.70    1.10
   5  -2   9    8.96    1.07
  -6   2  -9   13.14    1.03
  -6   2  -9   14.83    1.12
   6  -2   9   12.94    1.38
   6  -2   9   11.29    1.33
   7   1  -9    2.87    0.23
   7   1  -9    2.65    0.23
  -7  -1   9    2.58    0.41
  -7  -1   9    2.22    0.31
   6   1  -9    0.30    0.07
   6   1  -9    0.19    0.06
  -6  -1   9    0.20    0.11
  -6  -1   9    0.14    0.24
   5   1  -9   42.10    2.97
   5   1  -9   38.88    3.04
  -5  -1   9   40.65    3.06
   4   1  -9    9.52    0.73
  -4  -1   9    9.20    0.81
  -3  -1   9    0.56    0.31
  -3  -1   9   -4.11   38.62
   2   1  -9    0.05    0.04
   2   1  -9    0.07    0.07
   2   1  -9    0.04    0.07
  -2  -1   9    0.06    0.07
  -2  -1   9   -0.04    0.20
  -2  -1   9  -21.52   28.58
  -1  -1   9    4.91    0.69
  -1  -1   9   -8.93   28.70
   0   1  -9   14.05    1.05
   0   1  -9   14.88    1.15
   0   1  -9   14.66    1.10
   0  -1   9   11.13    1.41
   0  -1   9   13.96    1.12
   0  -1   9    9.01   34.35
   1  -1   9  -20.57   35.50
  -2   1  -9   15.73    1.33
   2  -1   9   -9.33   37.68
  -3   1  -9    3.03    0.43
  -3   1  -9    4.56    0.36
  -3   1  -9    4.02    0.41
   3  -1   9    3.70    0.77
  -4   1  -9    3.57    0.44
  -5   1  -9    5.84    0.58
  -5   1  -9    5.33    0.52
   5  -1   9    6.40    0.90
   7   0  -9    3.94    0.34
   7   0  -9    4.72    0.35
  -7   0   9    4.51    0.43
  -7   0   9    3.34    0.58
   6   0  -9    0.33    0.12
   6   0  -9    0.30    0.07
   6   0  -9    0.33    0.07
  -6   0   9    0.10    0.27
  -6   0   9    0.33    0.12
   5   0  -9    0.88    0.12
   5   0  -9    0.94    0.12
   5   0  -9    0.93    0.19
  -5   0   9    0.88    0.19
  -4   0   9   -6.99   40.61
  -4   0   9    0.71    0.34
   3   0  -9    0.29    0.07
   3   0  -9    0.37    0.12
  -3   0   9    0.22    0.10
  -3   0   9  -28.88   33.94
  -3   0   9    0.09    0.22
   2   0  -9    5.24    0.39
   2   0  -9    4.31    0.46
  -2   0   9    4.18    0.46
  -2   0   9   22.95   31.46
  -1   0   9    2.02    0.26
  -1   0   9    1.63    0.45
  -1   0   9   -0.73   29.83
   0   0   9   37.14   33.81
  -1   0  -9    3.94    0.39
  -1   0  -9    3.88    0.41
   1   0   9    3.49    0.39
   1   0   9    2.37   37.83
  -2   0  -9    0.01    0.07
  -2   0  -9    0.01    0.08
   2   0   9  -44.59   36.14
   2   0   9    0.05    0.08
   2   0   9    0.33    0.30
  -3   0  -9    9.36    0.77
  -3   0  -9    8.19    0.80
  -4   0  -9    3.40    0.38
  -4   0  -9    4.39    0.44
  -5   0  -9    3.14    0.33
   5   0   9    2.45    0.56
   5   0   9    2.69    0.70
   7  -1  -9    2.14    0.19
  -7   1   9    1.89    0.27
   6  -1  -9    3.12    0.28
   6  -1  -9    3.17    0.36
  -6   1   9    3.64    0.38
   5  -1  -9    7.63    0.68
   4  -1  -9   15.86    1.17
  -4   1   9   20.77   41.49
  -4   1   9   15.36    1.27
  -3   1   9  -15.30   32.00
  -2   1   9   18.03    1.45
  -2   1   9    6.51   31.58
  -1   1   9  -15.07   27.64
   0  -1  -9   11.48    0.83
   0  -1  -9    8.65    0.85
   0   1   9   20.26   38.31
   1   1   9  -29.54   38.09
  -2  -1  -9    1.33    0.20
  -2  -1  -9    1.37    0.21
  -2  -1  -9    1.60    0.25
   2   1   9    1.62    0.55
  -3  -1  -9   10.43    0.94
  -3  -1  -9   12.04    0.98
   3   1   9   12.96    1.43
  -4  -1  -9   10.09    0.82
  -4  -1  -9   10.57    0.85
  -7   2   9    2.03    0.49
   6  -2  -9    0.02    0.06
  -6   2   9   -0.13    0.20
  -6   2   9    0.01    0.08
  -5   2   9    8.68    0.78
  -5   2   9   42.98   43.45
   4  -2  -9   10.98    0.98
  -4   2   9   13.32   37.44
  -4   2   9   13.73    1.40
  -3   2   9  -10.10   31.05
  -2   2   9  -12.56   31.60
   1  -2  -9   38.76    2.85
   1  -2  -9   41.74    2.90
  -1   2   9   33.63    2.90
  -1   2   9  -20.94   33.64
  -1   2   9   39.51    3.42
   0  -2  -9   10.95    0.91
   0  -2  -9   11.37    0.95
   0   2   9   11.58    0.97
   0   2   9    1.71   37.43
  -1  -2  -9   33.63    2.41
  -1  -2  -9   31.52    2.37
   1   2   9   27.40    2.88
   1   2   9   -2.01   37.39
   1   2   9   33.62    2.43
  -2  -2  -9    1.30    0.18
  -2  -2  -9    1.34    0.20
  -3  -2  -9    3.72    0.40
  -3  -2  -9    4.36    0.37
  -7   3   9    6.51    0.81
  -6   3   9    0.33    0.13
  -6   3   9    0.37    0.30
  -5   3   9  -10.45   39.72
  -4   3   9  -22.88   34.27
  -3   3   9   10.14   33.61
   2  -3  -9    0.04    0.06
   2  -3  -9    0.01    0.07
  -2   3   9    0.09   30.91
  -2   3   9    0.04    0.08
   1  -3  -9    0.14    0.09
   1  -3  -9    0.12    0.07
  -1   3   9   -0.05    0.28
  -1   3   9   -1.52   35.76
   0  -3  -9    9.68    0.82
   0  -3  -9   10.10    0.81
   0   3   9   10.24    1.30
   0   3   9   -3.73   36.64
  -1  -3  -9    0.19    0.08
   1   3   9    0.16    0.30
   2   3   9    3.82    0.67
   6  -4  -9    2.37    0.25
   5  -4  -9    0.04    0.06
  -5   4   9    0.03    0.10
  -5   4   9  -15.60   33.68
  -5   4   9   -0.14    0.19
  -4   4   9  -15.59   28.55
   3  -4  -9    0.54    0.11
   3  -4  -9    0.52    0.13
  -3   4   9    3.34   30.09
  -3   4   9    0.71    0.16
  -2   4   9   -9.02   31.66
  -1   4   9   10.18   34.03
  -1   4   9    2.28    0.61
   0  -4  -9    2.64    0.32
  -4   5   9   13.83   29.08
  -3   5   9   -5.70   27.56
   2  -9  10    7.58    0.59
   3  -9  10    2.65    0.24
   0   8 -10   21.73    1.62
   0  -8  10   21.41    1.69
   0  -8  10   29.61   35.27
   0  -8  10   20.17    1.57
  -1   8 -10   18.90    1.48
   1  -8  10   19.57    1.57
   1  -8  10   19.38    1.45
   1  -8  10   28.55   32.80
  -2   8 -10   12.20    1.00
   2  -8  10   12.71    0.96
   2  -8  10   12.21   34.03
   3  -8  10  -30.13   27.84
   4  -8  10    5.63    0.48
   4  -8  10    6.25    0.52
   4  -8  10   21.60   31.06
   5  -8  10    1.41    0.18
  -2  -7  10    1.56    0.26
   1   7 -10   17.18    1.31
  -1  -7  10   -3.71   38.79
  -1  -7  10   17.09    1.43
  -1  -7  10   16.64    1.29
   0  -7  10  -12.63   30.80
  -1   7 -10    2.49    0.28
   1  -7  10    2.19    0.23
   1  -7  10   -1.24   33.41
   1  -7  10    1.83    0.32
  -2   7 -10   16.35    1.27
  -2   7 -10   15.63    1.20
   2  -7  10   16.59    1.22
   2  -7  10   14.52    1.23
   2  -7  10   -4.37   31.05
  -3   7 -10    1.46    0.17
  -3   7 -10    1.13    0.20
   3  -7  10    4.00   32.67
   3  -7  10    1.13    0.20
   3  -7  10    1.43    0.17
  -4   7 -10   29.99    2.09
   4  -7  10   26.70    2.08
   4  -7  10   27.82    2.11
   4  -7  10  -24.16   34.43
  -5   7 -10    0.22    0.08
   5  -7  10    0.18    0.08
  -6   7 -10   10.99    0.78
   6  -7  10   10.28    0.78
   6  -7  10    9.18    0.79
  -3  -6  10    0.69    0.21
   2   6 -10    7.22    0.61
  -2  -6  10    6.98    0.60
  -2  -6  10    7.77    0.76
   1   6 -10    0.01    0.06
   1   6 -10    0.02    0.06
  -1  -6  10    0.03    0.05
  -1  -6  10  -16.25   35.44
  -1  -6  10    0.14    0.13
   0  -6  10  -16.72   32.85
  -1   6 -10    0.02    0.07
  -1   6 -10    0.06    0.06
   1  -6  10    0.05    0.05
   1  -6  10    0.09    0.12
   1  -6  10  -15.42   33.21
  -2   6 -10    9.23    0.74
  -2   6 -10    9.34    0.79
   2  -6  10    9.18    0.75
   2  -6  10   16.09   35.66
   3  -6  10   23.88   35.37
   4  -6  10   -0.56   38.55
   4  -6  10    3.84    0.82
  -5   6 -10    1.89    0.24
  -5   6 -10    2.48    0.24
   5  -6  10    2.49    0.23
  -6   6 -10    0.12    0.06
   6  -6  10    0.04    0.05
   6  -6  10    0.03    0.24
   4   5 -10    8.36    0.66
  -4  -5  10    8.49    0.81
   3   5 -10    0.56    0.12
   3   5 -10    0.81    0.12
  -3  -5  10    0.72    0.13
  -3  -5  10    0.87    0.25
  -2  -5  10  -15.31   37.54
  -1  -5  10   24.12   40.30
   0   5 -10   19.77    1.46
   0  -5  10   17.07    1.41
   0  -5  10  -11.49   32.90
  -1   5 -10    7.65    0.63
   1  -5  10   15.42   34.23
   1  -5  10    7.70    0.64
  -2   5 -10   18.86    1.43
   2  -5  10   17.28    1.38
   2  -5  10  -20.53   32.51
  -3   5 -10    0.59    0.12
   3  -5  10    0.17    0.29
   3  -5  10   -2.06   39.70
  -4   5 -10    0.30    0.09
   4  -5  10   -2.59   42.65
   4  -5  10   -0.02    0.22
  -5   5 -10    5.48    0.51
  -5   5 -10    5.88    0.50
   5  -5  10    6.00    0.48
   5  -5  10    6.46    0.94
  -6   5 -10    4.96    0.42
   5   4 -10    3.56    0.29
   5   4 -10    3.09    0.28
  -5  -4  10    3.36    0.42
   4   4 -10   -0.01    0.04
  -4  -4  10    0.08    0.08
  -4  -4  10   -0.03    0.11
  -4  -4  10    0.05    0.09
   3   4 -10   23.84    1.87
   3   4 -10   26.92    1.85
  -3  -4  10   23.87    1.92
   2   4 -10    0.15    0.06
  -2  -4  10    0.14    0.17
  -2  -4  10    0.24    0.12
  -2  -4  10   -5.85   38.06
   1   4 -10  105.40    7.83
  -1  -4  10  110.33    8.05
  -1  -4  10    4.90   39.03
   0   4 -10   20.98    1.58
   0  -4  10   -1.51   34.66
  -1   4 -10  109.53    8.27
  -1   4 -10  103.91    8.22
   1  -4  10  129.70    8.81
   1  -4  10  -23.08   35.53
  -2   4 -10   24.79    1.84
  -2   4 -10   22.54    1.80
   2  -4  10   -4.44   38.37
   2  -4  10   24.60    2.33
  -3   4 -10   22.27    1.55
   3  -4  10   18.26   42.45
   3  -4  10   17.89    2.01
  -4   4 -10    2.81    0.29
  -4   4 -10    3.12    0.38
  -4   4 -10    1.95    0.25
   4  -4  10    2.36    0.24
  -5   4 -10    4.18    0.40
  -5   4 -10    4.78    0.43
  -5   4 -10    4.55    0.49
   5  -4  10    4.44    0.78
  -6   4 -10    0.83    0.13
  -6   4 -10    0.92    0.19
   6   3 -10    0.92    0.11
   6   3 -10    1.05    0.12
  -6  -3  10    1.07    0.26
   5   3 -10    0.17    0.06
   5   3 -10    0.12    0.05
  -5  -3  10    0.13    0.10
  -5  -3  10    0.14    0.15
   4   3 -10    0.24    0.07
  -4  -3  10    0.10    0.17
  -4  -3  10    0.10    0.09
  -3  -3  10   11.18   44.79
   2   3 -10   14.55    1.18
  -2  -3  10    6.19   40.13
  -2  -3  10   16.42    1.52
  -1  -3  10  -29.26   31.45
   0   3 -10   33.39    2.48
   0   3 -10   34.98    2.48
   0  -3  10   29.84    2.51
   0  -3  10  -11.71   33.55
  -1   3 -10   13.42    1.07
  -1   3 -10   13.29    1.04
   1  -3  10   -0.56   32.03
  -2   3 -10    8.25    0.77
  -2   3 -10    9.77    0.75
   2  -3  10    2.48   36.69
   2  -3  10   10.11    1.25
   3  -3  10  -49.25   38.14
  -4   3 -10   23.42    1.87
  -4   3 -10   26.16    1.97
  -4   3 -10   23.84    1.83
  -5   3 -10    6.19    0.56
  -5   3 -10    6.45    0.54
  -5   3 -10    6.96    0.64
  -6   3 -10   18.34    1.47
  -6   3 -10   21.32    1.56
   6   2 -10    0.58    0.10
   6   2 -10    0.67    0.10
  -6  -2  10    0.79    0.26
  -6  -2  10    0.77    0.17
   5   2 -10    4.98    0.41
   5   2 -10    5.07    0.41
  -5  -2  10    4.99    0.49
  -5  -2  10    4.46    0.69
   4   2 -10    1.21    0.14
  -4  -2  10    0.85    0.37
   3   2 -10    4.50    0.39
  -3  -2  10   -2.45   39.27
   2   2 -10   14.50    1.25
   2   2 -10   16.18    1.23
  -2  -2  10   16.23    1.27
  -2  -2  10   -0.13   34.49
  -1  -2  10   -6.88   32.46
   0   2 -10    3.87    0.38
   0   2 -10    4.27    0.35
   0   2 -10    3.86    0.41
   0  -2  10    3.77    0.74
   0  -2  10    6.22   31.04
   0  -2  10    3.60    0.39
   1  -2  10    0.40    0.32
   1  -2  10  -22.73   32.96
  -2   2 -10    2.44    0.24
  -2   2 -10    2.37    0.33
  -2   2 -10    1.94    0.27
   2  -2  10    2.75   37.38
  -3   2 -10   19.66    1.62
  -3   2 -10   20.42    1.50
  -3   2 -10   19.53    1.56
  -4   2 -10    0.12    0.07
  -4   2 -10    0.25    0.13
  -4   2 -10    0.26    0.10
   4  -2  10    0.15    0.28
   4  -2  10    0.16    0.26
  -5   2 -10    0.64    0.17
  -5   2 -10    0.56    0.13
   5  -2  10    0.07    0.22
   5  -2  10    0.12    0.24
   6   1 -10    4.91    0.41
   6   1 -10    5.75    0.42
  -6  -1  10    5.03    0.49
  -6  -1  10    4.33    0.67
   5   1 -10    1.27    0.20
   5   1 -10    1.28    0.14
   5   1 -10    1.11    0.13
  -5  -1  10    1.15    0.22
  -5  -1  10    0.53    0.34
   4   1 -10    6.09    0.56
   4   1 -10    5.82    0.48
   4   1 -10    5.95    0.48
  -4  -1  10    5.68    0.56
   3   1 -10   15.74    1.21
   3   1 -10   16.30    1.29
  -3  -1  10   33.44   38.72
   2   1 -10   33.02    2.39
   2   1 -10   32.39    2.30
  -2  -1  10   27.86    2.37
  -2  -1  10    0.00   35.30
   1   1 -10   30.23    2.28
   1   1 -10   28.46    2.18
   1   1 -10   29.69    2.23
  -1  -1  10    7.82   31.94
  -1  -1  10   30.03    2.27
   0   1 -10    3.46    0.38
   0  -1  10  -14.83   30.07
   1  -1  10  -29.58   31.08
  -2   1 -10    6.29    0.62
   2  -1  10   -4.16   37.82
  -3   1 -10    0.23    0.10
  -3   1 -10    0.06    0.09
   3  -1  10    0.00    0.22
  -4   1 -10    0.34    0.14
  -4   1 -10    0.28    0.10
   4  -1  10    0.36    0.30
   5  -1  10    6.30    0.85
   7   0 -10    5.10    0.38
  -7   0  10    4.45    0.59
   6   0 -10    6.07    0.56
   6   0 -10    6.07    0.49
  -6   0  10    6.62    0.58
   5   0 -10    2.67    0.24
   5   0 -10    2.61    0.31
  -5   0  10    2.89    0.33
   4   0 -10   14.37    1.08
   4   0 -10   13.51    1.17
  -4   0  10   15.40    1.19
  -4   0  10   11.99   42.02
   3   0 -10    9.87    0.74
   3   0 -10    9.36    0.83
  -3   0  10   43.64   39.76
  -2   0  10   14.00    1.42
  -2   0  10  -10.98   30.81
   1   0 -10    4.50    0.46
  -1   0  10   -0.96   29.43
   0   0 -10   65.79    5.14
   0   0  10   73.60    5.69
   0   0  10   72.15    5.20
   0   0  10   -6.29   33.01
   1   0  10  -23.92   34.87
   2   0  10  -19.31   38.69
  -3   0 -10    9.16    0.79
  -3   0 -10   11.16    0.87
  -3   0 -10    9.32    0.81
  -7   1  10    0.99    0.33
   6  -1 -10   12.59    1.04
   6  -1 -10   15.18    1.14
  -6   1  10   14.58    1.14
   5  -1 -10    2.00    0.19
   5  -1 -10    2.07    0.26
  -5   1  10    2.44    0.30
   4  -1 -10   11.59    0.95
  -4   1  10  -22.33   37.29
  -4   1  10   10.64    1.27
   3  -1 -10   10.81    0.85
  -3   1  10  -10.82   34.09
  -3   1  10    8.15    1.11
   2  -1 -10   17.41    1.25
  -2   1  10   12.49    1.46
  -2   1  10    6.55   31.59
  -1   1  10   -3.07   31.32
   0  -1 -10   66.50    5.05
   0   1  10   70.50    5.07
   0   1  10   16.30   41.13
  -1  -1 -10   12.85    1.13
  -1  -1 -10   15.53    1.20
   1   1  10    1.30   36.78
   1   1  10   15.62    1.19
  -2  -1 -10    0.66    0.13
  -2  -1 -10    0.91    0.17
   2   1  10    0.49    0.36
  -3  -1 -10    7.78    0.69
  -3  -1 -10    9.73    0.71
   3   1  10    7.12    0.99
   6  -2 -10    2.00    0.24
  -6   2  10    1.67    0.25
  -5   2  10    0.11    0.30
  -5   2  10  -11.21   54.01
  -4   2  10  -24.90   37.00
  -3   2  10   -8.63   34.99
   2  -2 -10    0.20    0.09
  -2   2  10    0.23    0.11
  -2   2  10    0.07    0.27
  -2   2  10  -25.43   30.00
   1  -2 -10   15.29    1.22
  -1   2  10   14.98    1.24
  -1   2  10   24.06   38.56
   0   2  10  -26.93   30.47
   0   2  10   -0.01    0.26
  -1  -2 -10   12.52    0.96
  -1  -2 -10   11.48    0.93
   1   2  10   11.53    0.97
   2   2  10    1.37    0.45
   6  -3 -10    1.48    0.18
   5  -3 -10    0.20    0.08
  -5   3  10    0.16    0.26
  -5   3  10    0.13    0.11
  -5   3  10  -31.72   36.67
  -4   3  10    8.97   32.20
  -3   3  10   -5.31   28.18
  -2   3  10    4.20   33.61
   1  -3 -10    5.94    0.52
   1  -3 -10    6.57    0.55
  -1   3  10   -4.60   30.70
  -1   3  10    6.53    0.58
   0  -3 -10    0.11    0.08
   0  -3 -10    0.01    0.07
   0   3  10    0.37    0.32
   0   3  10  -17.52   31.90
  -4   4  10   24.11   29.84
  -3   4  10    5.11   29.20
  -2   4  10   14.01   28.81
   0  -8  11    1.46    0.16
   1  -8  11   -4.04   29.68
   2  -8  11    0.02    0.05
   2  -8  11  -13.35   28.30
   3  -8  11   -1.09   30.46
   4  -8  11  -22.02   30.18
   1   7 -11   15.00    1.23
  -1  -7  11   16.51    1.33
  -1  -7  11   16.52    1.21
   0  -7  11   -9.04   33.35
   1  -7  11  -10.66   32.36
  -2   7 -11    0.23    0.09
  -2   7 -11    0.11    0.07
   2  -7  11  -23.08   28.55
   2  -7  11    0.23    0.08
   3  -7  11    5.26   32.68
  -4   7 -11    0.83    0.13
   4  -7  11    2.18   34.57
  -5   7 -11    0.05    0.05
   3   6 -11    0.56    0.09
  -3  -6  11    0.62    0.17
   2   6 -11   17.87    1.43
  -2  -6  11   20.21    1.57
  -2  -6  11   18.50    1.42
  -1  -6  11   19.87   37.99
   0   6 -11   31.14    2.32
   0   6 -11   32.52    2.37
   0  -6  11  -22.70   32.70
   0  -6  11   31.18    2.48
   0  -6  11   30.68    2.34
   1  -6  11  -31.40   30.68
  -2   6 -11  109.75    7.69
  -2   6 -11  106.13    7.72
   2  -6  11  104.13    7.69
   2  -6  11  -28.72   31.54
  -3   6 -11    2.53    0.25
  -3   6 -11    2.37    0.26
   3  -6  11    4.29   31.12
   3  -6  11    2.24    0.23
   4  -6  11  -11.71   35.78
   5  -6  11    1.02    0.43
   4   5 -11    6.14    0.50
  -4  -5  11    6.46    0.62
   3   5 -11    0.86    0.12
  -3  -5  11    1.13    0.15
  -3  -5  11    1.12    0.24
   2   5 -11   15.20    1.28
   2   5 -11   16.86    1.25
  -2  -5  11   17.66    1.45
  -2  -5  11    8.76   38.98
  -2  -5  11   16.70    1.27
  -1  -5  11    6.14   36.92
   0  -5  11   13.93    1.09
   0  -5  11   -4.34   33.64
   1  -5  11   25.06   35.16
  -2   5 -11   27.61    2.06
   2  -5  11  -18.98   31.49
  -3   5 -11   19.40    1.60
  -3   5 -11   22.32    1.64
   3  -5  11    2.28   39.29
   3  -5  11   22.05    2.10
  -4   5 -11    6.85    0.60
  -4   5 -11    7.60    0.59
   4  -5  11    7.19    1.00
  -5   5 -11    4.12    0.36
  -5   5 -11    4.51    0.35
   5  -5  11    2.91    0.66
   5   4 -11    0.01    0.03
  -5  -4  11    0.03    0.11
   4   4 -11    5.61    0.44
   4   4 -11    5.37    0.43
  -4  -4  11    4.56    0.49
  -4  -4  11    5.05    0.45
  -4  -4  11    6.07    0.62
   3   4 -11    1.77    0.18
  -3  -4  11    1.51    0.25
  -3  -4  11    1.93    0.35
  -2  -4  11  -19.62   36.76
   1   4 -11    1.31    0.18
   1   4 -11    1.73    0.22
  -1  -4  11   10.66   36.38
  -1  -4  11    2.04    0.37
   0  -4  11   -5.79   33.89
  -1   4 -11   16.95    1.37
  -1   4 -11   17.63    1.41
   1  -4  11   19.67    1.88
   1  -4  11    5.57   34.71
  -2   4 -11    0.50    0.13
  -2   4 -11    0.38    0.10
   2  -4  11    0.92    0.14
   2  -4  11   -1.28   35.05
   2  -4  11    0.68    0.38
   3  -4  11  -16.63   37.94
  -4   4 -11    3.84    0.37
  -4   4 -11    3.96    0.42
  -4   4 -11    4.00    0.35
  -5   4 -11    0.81    0.17
  -5   4 -11    0.76    0.12
  -5   4 -11    0.68    0.14
   5   3 -11    4.29    0.38
   5   3 -11    4.71    0.38
  -5  -3  11    5.48    0.57
  -5  -3  11    4.30    0.54
   4   3 -11   23.62    1.78
   4   3 -11   24.96    1.78
  -4  -3  11   25.50    2.06
  -4  -3  11   22.03    1.84
  -3  -3  11   15.91    1.51
  -3  -3  11   16.56    1.31
  -3  -3  11   25.57   43.74
   2   3 -11    0.81    0.16
   2   3 -11    0.47    0.10
  -2  -3  11    0.94    0.33
  -2  -3  11    0.89    0.18
  -2  -3  11    1.52   33.60
   1   3 -11   57.55    3.97
  -1  -3  11   -7.78   31.02
  -1  -3  11   53.33    3.98
  -1  -3  11   50.18    4.18
   0  -3  11  -20.78   29.89
  -1   3 -11    7.30    0.57
  -1   3 -11    5.01    0.51
  -1   3 -11    6.64    0.59
   1  -3  11   -1.23   33.22
   1  -3  11    5.87    0.94
  -2   3 -11    0.06    0.06
  -2   3 -11    0.22    0.12
  -2   3 -11    0.07    0.06
   2  -3  11    0.09    0.26
   2  -3  11   -1.77   33.83
   3  -3  11    0.12    0.25
   3  -3  11  -12.02   36.14
  -4   3 -11    0.23    0.09
  -4   3 -11    0.18    0.07
  -4   3 -11    0.29    0.12
   4  -3  11    0.15    0.27
  -5   3 -11    0.88    0.17
  -5   3 -11    0.82    0.12
   6   2 -11   35.71    2.70
  -6  -2  11   38.60    2.88
   5   2 -11    6.30    0.51
   5   2 -11    6.82    0.52
  -5  -2  11    6.48    0.59
   4   2 -11    4.65    0.37
   4   2 -11    4.50    0.37
  -4  -2  11    4.47    0.45
  -4  -2  11    3.26    0.62
   3   2 -11    5.20    0.44
   3   2 -11    5.21    0.49
  -3  -2  11    6.59    0.54
  -3  -2  11   21.75   41.45
  -3  -2  11    3.88    0.70
   2   2 -11    7.08    0.59
   2   2 -11    7.43    0.65
  -2  -2  11   20.22   37.61
  -2  -2  11    7.45    0.67
  -1  -2  11   29.06    2.45
  -1  -2  11  -24.04   27.12
   0  -2  11  -28.59   28.68
  -1   2 -11   10.49    0.87
  -1   2 -11   10.00    0.90
  -1   2 -11   10.36    0.82
   1  -2  11    9.27   38.04
   1  -2  11   11.49    1.32
   2  -2  11   -6.88   38.55
   2  -2  11    0.57    0.36
  -3   2 -11    5.78    0.49
  -3   2 -11    6.43    0.59
  -3   2 -11    6.07    0.54
   3  -2  11    5.66    0.91
  -4   2 -11    4.01    0.39
  -4   2 -11    3.48    0.33
   4  -2  11    2.44    0.63
   6   1 -11    1.18    0.12
  -6  -1  11    0.97    0.30
   5   1 -11   10.55    0.93
   5   1 -11   12.46    0.88
  -5  -1  11   12.05    0.97
   4   1 -11    7.66    0.70
   4   1 -11    8.43    0.64
  -4  -1  11    8.47    0.73
   3   1 -11   23.50    1.80
   3   1 -11   22.82    1.72
  -3  -1  11    1.50   37.96
  -3  -1  11   23.33    1.82
   2   1 -11   21.41    1.69
   2   1 -11   23.46    1.79
  -2  -1  11   23.97    1.80
  -2  -1  11   10.53   35.38
   1   1 -11   30.33    2.25
   1   1 -11   30.52    2.34
  -1  -1  11    1.58   32.41
  -1  -1  11   30.76    2.34
   0   1 -11   20.05    1.79
   0   1 -11   23.80    1.72
   0   1 -11   23.56    1.77
   0  -1  11   -5.43   30.03
   0  -1  11   23.18    1.80
   0  -1  11   25.61    2.27
  -1   1 -11   13.70    1.03
  -1   1 -11   11.56    1.05
  -1   1 -11   12.79    0.97
   1  -1  11   16.73   36.11
   2  -1  11  -31.65   35.95
  -3   1 -11    5.79    0.53
  -3   1 -11    5.26    0.49
  -4   1 -11   15.18    1.06
   4  -1  11   10.70    1.32
   6   0 -11    0.06    0.04
  -6   0  11    0.11    0.21
   5   0 -11    3.56    0.29
   5   0 -11    3.55    0.36
  -5   0  11    3.32    0.37
  -4   0  11  -28.12   39.99
  -4   0  11    0.64    0.36
   3   0 -11    4.55    0.38
   3   0 -11    4.06    0.45
  -3   0  11    5.80    0.50
  -3   0  11    6.39   36.99
  -2   0  11    5.37   33.12
  -1   0  11   -5.45   28.17
   0   0 -11   18.35    1.59
   0   0  11   22.94    2.06
   0   0  11   -5.69   33.66
  -1   0 -11   11.19    0.91
  -1   0 -11   10.22    0.86
   1   0  11   11.62    1.31
   1   0  11    9.72   37.17
   1   0  11    9.81    0.88
  -2   0 -11    6.81    0.62
  -2   0 -11    8.34    0.67
   3   0  11    2.31    0.54
   6  -1 -11    0.95    0.15
  -6   1  11    0.38    0.28
   5  -1 -11    0.12    0.07
  -5   1  11    0.12    0.09
  -5   1  11    0.05    0.26
   4  -1 -11    2.08    0.25
  -4   1  11    2.00    0.27
  -4   1  11    4.37   36.82
  -3   1  11   15.07   35.86
   2  -1 -11    0.98    0.17
  -2   1  11    1.23    0.23
  -2   1  11    0.26   32.36
  -1   1  11  -28.18   28.69
   0  -1 -11    5.88    0.53
   0   1  11   12.12   33.46
   0   1  11    5.41    0.53
   1   1  11  -26.68   31.04
  -2  -1 -11    6.31    0.51
   2   1  11    5.00    0.80
  -5   2  11    1.44    0.43
   4  -2 -11    9.69    0.81
  -4   2  11   10.25    0.84
  -4   2  11   12.49   35.55
  -3   2  11    0.33    0.28
  -3   2  11  -16.48   29.37
   2  -2 -11    8.80    0.77
  -2   2  11    0.97   31.78
  -2   2  11    9.94    0.81
  -1   2  11  -13.63   30.45
   0   2  11   13.03   33.29
  -4   3  11    0.12   28.70
  -3   3  11   -9.10   29.11
  -2   3  11   -9.37   28.06
   0  -7  12    1.41   28.82
  -1   7 -12   24.28    1.81
  -1   7 -12   21.50    1.76
   1  -7  12    9.44   30.23
   1  -7  12   26.29    1.79
  -2   7 -12    0.25    0.09
   2  -7  12   -8.99   28.03
   3  -7  12   -7.93   32.23
  -4   7 -12    1.90    0.19
  -2  -6  12    6.52    0.54
  -2  -6  12    6.91    0.64
  -1  -6  12   13.57   33.34
   0  -6  12  -23.60   31.44
  -1   6 -12   12.63    0.97
  -1   6 -12   11.61    0.99
   1  -6  12   13.84   33.05
   1  -6  12   13.59    0.98
  -2   6 -12   44.01    3.07
  -2   6 -12   39.57    3.09
   2  -6  12   42.01    3.07
   2  -6  12    4.66   32.13
   3  -6  12    4.37   31.38
   4  -6  12  -37.01   35.55
   4  -6  12   -0.05    0.23
   3   5 -12    1.13    0.12
  -3  -5  12    1.21    0.23
  -3  -5  12    1.13    0.14
   2   5 -12    0.13    0.07
   2   5 -12    0.12    0.05
  -2  -5  12    0.11    0.06
  -2  -5  12    0.09    0.10
  -2  -5  12  -10.12   42.09
   1   5 -12    0.17    0.06
   1   5 -12    0.23    0.09
  -1  -5  12    0.17    0.13
  -1  -5  12    0.23    0.08
  -1  -5  12   -3.27   32.40
   0   5 -12    0.28    0.08
   0  -5  12  -15.19   30.70
   0  -5  12    0.32    0.09
   1  -5  12   28.82   34.02
  -2   5 -12    0.13    0.07
  -2   5 -12    0.07    0.06
   2  -5  12    0.11    0.06
   2  -5  12    0.15    0.32
   2  -5  12  -30.42   31.80
   3  -5  12   21.18   37.18
  -4   5 -12    1.73    0.20
  -4   5 -12    2.24    0.20
   4  -5  12    1.41    0.47
   4   4 -12    6.31    0.49
   4   4 -12    6.52    0.50
  -4  -4  12    5.67    0.51
  -4  -4  12    6.89    0.64
   3   4 -12    5.37    0.43
  -3  -4  12    5.24    0.46
  -3  -4  12    5.60    0.59
  -2  -4  12    4.24   36.00
   1   4 -12    5.73    0.48
   1   4 -12    5.69    0.51
  -1  -4  12   11.99   34.14
  -1  -4  12    6.27    0.65
   0  -4  12   -5.94   28.37
  -1   4 -12    0.14    0.08
  -1   4 -12    0.13    0.06
   1  -4  12   -0.10    0.32
   1  -4  12   -2.29   31.80
   1  -4  12    0.23    0.08
   2  -4  12  -13.63   33.28
  -3   4 -12    9.09    0.78
  -3   4 -12   10.36    0.76
   3  -4  12    8.37   34.89
  -4   4 -12    2.67    0.27
  -4   4 -12    2.87    0.25
  -4   4 -12    2.32    0.29
   4  -4  12    2.98    0.59
   4   3 -12   14.08    1.13
   4   3 -12   15.73    1.14
  -4  -3  12   14.25    1.23
  -4  -3  12   16.83    1.35
   3   3 -12    0.08    0.05
  -3  -3  12    0.02    0.08
  -3  -3  12  -41.16   38.16
  -3  -3  12    0.08    0.15
   2   3 -12   34.70    2.46
  -2  -3  12   34.35    2.70
  -2  -3  12   31.49    2.52
  -2  -3  12   -4.21   35.02
   1   3 -12   19.90    1.48
   1   3 -12   19.47    1.51
  -1  -3  12   30.56   35.11
   0   3 -12   22.88    1.85
   0   3 -12   25.04    1.80
   0   3 -12   24.61    1.84
   0  -3  12  -10.30   29.13
  -1   3 -12   10.10    0.82
  -1   3 -12    9.49    0.84
  -1   3 -12   10.22    0.78
   1  -3  12    5.35   33.82
   2  -3  12  -29.44   33.62
   2  -3  12    9.91    1.20
  -3   3 -12    3.83    0.33
  -3   3 -12    3.71    0.39
  -3   3 -12    3.77    0.36
  -4   3 -12    4.89    0.41
  -4   3 -12    5.29    0.47
   5   2 -12   22.67    1.77
  -5  -2  12   25.86    1.99
   4   2 -12    8.17    0.60
  -4  -2  12    7.53    0.85
  -4  -2  12    7.57    0.67
   3   2 -12    3.77    0.39
   3   2 -12    4.33    0.35
  -3  -2  12    3.67    0.59
  -3  -2  12    4.71    0.43
  -3  -2  12   24.24   38.19
  -2  -2  12   44.32   40.28
  -1  -2  12  -24.33   27.34
   0  -2  12  -18.90   27.89
  -1   2 -12    5.86    0.48
  -1   2 -12    6.20    0.56
  -1   2 -12    6.01    0.53
   1  -2  12    5.17    0.87
   1  -2  12    1.01   33.44
  -2   2 -12    0.04    0.07
  -2   2 -12    0.15    0.09
  -2   2 -12    0.13    0.06
   2  -2  12    1.11   33.71
   2  -2  12    0.05    0.24
  -3   2 -12    7.67    0.64
  -3   2 -12    8.02    0.68
   5   1 -12    3.30    0.37
   5   1 -12    4.43    0.32
  -5  -1  12    3.98    0.56
   4   1 -12    1.47    0.14
   4   1 -12    1.39    0.20
  -4  -1  12    1.74    0.22
  -4  -1  12    1.13    0.38
  -3  -1  12    0.63    0.31
  -3  -1  12   -5.10   36.09
   2   1 -12    1.20    0.19
   2   1 -12    1.14    0.13
  -2  -1  12    0.94    0.19
  -2  -1  12    3.28   31.59
  -2  -1  12    0.63    0.32
  -1  -1  12    4.19   30.33
   0   1 -12   16.06    1.18
   0  -1  12   12.90    1.15
   0  -1  12    5.69   32.25
  -1   1 -12    0.34    0.10
  -1   1 -12    0.54    0.14
   1  -1  12    0.20    0.28
   1  -1  12   -0.16   32.86
  -2   1 -12    6.80    0.56
  -2   1 -12    5.41    0.51
  -3   1 -12    1.36    0.18
   3  -1  12    1.07    0.40
   5   0 -12    9.61    0.77
  -4   0  12  -32.44   35.85
  -3   0  12    2.18   32.22
  -3   0  12    4.36    0.65
   2   0 -12    0.16    0.09
  -2   0  12    0.13   31.73
  -2   0  12    0.10    0.09
   1   0 -12    7.22    0.62
  -1   0  12    6.85    0.63
  -1   0  12    6.18   30.99
   0   0  12    3.10   30.94
   1   0  12   -8.03   31.57
  -2   0 -12    0.95    0.15
   5  -1 -12   12.22    0.95
   4  -1 -12    0.20    0.08
  -4   1  12    0.09    0.23
  -4   1  12  -39.28   32.00
  -3   1  12   26.57   30.96
  -2   1  12   17.96   29.19
  -1   1  12   34.12   33.31
   0   1  12   -7.22   31.18
  -3   2  12   17.36   28.32
   2  -2 -12   11.18    0.88
  -2   2  12    5.77   26.53
  -1  -6  13   10.95    0.84
   0  -6  13  -29.29   26.27
   1  -6  13  -22.69   27.36
   2  -6  13   -3.89   28.98
  -3   6 -13    6.01    0.48
   2   5 -13    1.05    0.11
  -2  -5  13    1.13    0.13
  -2  -5  13    0.89    0.20
   1   5 -13   14.94    1.15
  -1  -5  13   15.90    1.17
  -1  -5  13    5.14   32.43
   0   5 -13    6.53    0.51
   0   5 -13    5.70    0.52
   0  -5  13    6.67    0.52
   0  -5  13    1.82   27.29
   1  -5  13  -35.14   28.29
   2  -5  13   -7.12   32.20
   3  -5  13   14.78   34.15
   3   4 -13    5.55    0.44
  -3  -4  13    5.99    0.46
  -3  -4  13    5.40    0.55
  -2  -4  13  -15.39   35.07
  -1  -4  13  -22.71   26.05
   0  -4  13  -16.25   26.71
   1  -4  13  -20.51   28.44
  -2   4 -13    4.67    0.42
  -2   4 -13    5.01    0.39
   2  -4  13    4.14    0.73
   2  -4  13   -0.84   30.92
  -3   4 -13    5.08    0.41
   3   3 -13    9.17    0.71
  -3  -3  13    9.46    0.86
  -2  -3  13   -3.51   31.52
  -1  -3  13  -25.37   26.08
   0  -3  13   -3.79   30.23
   1  -3  13   -9.85   27.94
   2  -3  13    2.89    0.58
   2  -3  13  -25.27   29.46
   3  -3  13    0.15    0.23
   4   2 -13    0.61    0.08
  -4  -2  13    0.60    0.20
  -3  -2  13    5.01   35.79
   2   2 -13    4.37    0.33
   2   2 -13    3.84    0.37
  -2  -2  13    3.87    0.39
  -2  -2  13   14.11   30.15
  -1  -2  13   -4.28   27.85
   0  -2  13  -19.15   24.77
   1  -2  13   10.24   29.18
  -2   2 -13    0.23    0.09
   2  -2  13   -0.09    0.26
  -3  -1  13    0.36    0.22
  -3  -1  13   -9.99   33.76
   2   1 -13    7.02    0.61
  -2  -1  13    7.30    0.66
  -2  -1  13   19.11   29.64
  -1  -1  13   -2.84   28.31
   0  -1  13  -16.57   24.89
   1  -1  13  -24.94   28.70
   3   0 -13   29.24    2.18
  -3   0  13   14.99   33.97
   2   0 -13    5.61    0.49
  -2   0  13   15.12   28.08
  -1   0  13    8.60   28.06
   0   0 -13    1.46    0.18
  -1  -4  14    0.31    0.09
  -1  -4  14  -15.01   27.33
   0  -4  14    6.62   24.29
  -1   4 -14    0.11    0.05
   1  -4  14  -15.73   26.93
  -1  -3  14   -9.88   26.96
   0  -3  14   14.89   24.48
   0   0   0    0.00    0.00
;
_shelx_res_file
;
TITL csa27 in P-1
 shelx.res created by SHELXL-2016/4 at 12:21:39 on 18-Mar-2017
CELL  1.54178   8.4817   8.6149  12.1667  109.875   91.900  114.190
ZERR     2.00   0.0015   0.0015   0.0021    0.005    0.005    0.005
LATT   1
SFAC  C    H    N    O    S    CL
UNIT  28 26 2 4 2 4
MERG   2
DFIX 0.88 0.02 N1 H1
FMAP   2
PLAN   20
SIZE     0.220   0.260   0.290
ACTA
BOND
BOND   $H
CONF
LIST 4
L.S.  50
TEMP  -173.00
WGHT    0.175700    0.625400
FVAR       0.23551
C1    1    0.841691    0.535777    0.100211    11.00000    0.02104    0.02324 =
         0.02086    0.01383    0.00478    0.00948
C2    1    0.745876    0.355447    0.021703    11.00000    0.02420    0.02782 =
         0.02571    0.01528    0.00862    0.01248
AFIX  43
H2    2    0.644651    0.320522   -0.034335    11.00000   -1.20000
AFIX   0
C3    1    0.800118    0.225260    0.025984    11.00000    0.02552    0.02527 =
         0.02950    0.01700    0.01273    0.01075
C4    1    0.946675    0.274974    0.110337    11.00000    0.03554    0.03651 =
         0.03585    0.02760    0.01834    0.02273
AFIX  43
H4    2    0.981555    0.185462    0.115199    11.00000   -1.20000
AFIX   0
C5    1    1.038553    0.457827    0.185990    11.00000    0.02739    0.03561 =
         0.01969    0.01719    0.00613    0.01758
C6    1    0.990378    0.591245    0.183097    11.00000    0.02477    0.03122 =
         0.02069    0.01523    0.00613    0.01319
AFIX  43
H6    2    1.056523    0.716677    0.235918    11.00000   -1.20000
AFIX   0
C7    1    0.676332    0.750151    0.314979    11.00000    0.02430    0.02337 =
         0.01720    0.00928    0.00184    0.01113
C8    1    0.665108    0.623707    0.366818    11.00000    0.02144    0.02749 =
         0.02730    0.01629    0.00601    0.01121
C9    1    0.717510    0.690683    0.490384    11.00000    0.03624    0.03907 =
         0.02751    0.02358    0.00636    0.01525
AFIX  43
H9    2    0.712684    0.607766    0.526909    11.00000   -1.20000
AFIX   0
C10   1    0.776492    0.876065    0.560803    11.00000    0.05431    0.04702 =
         0.01597    0.01094    0.00158    0.00947
AFIX  43
H10   2    0.813297    0.919881    0.644715    11.00000   -1.20000
AFIX   0
C11   1    0.781478    0.997083    0.508162    11.00000    0.07148    0.02500 =
         0.01860    0.00253    0.00392    0.01192
AFIX  43
H11   2    0.821341    1.123758    0.557153    11.00000   -1.20000
AFIX   0
C12   1    0.730049    0.938647    0.386287    11.00000    0.04609    0.02639 =
         0.01797    0.00517    0.00541    0.01520
C13   1    0.595917    0.422017    0.294451    11.00000    0.03656    0.03664 =
         0.03464    0.02456    0.01602    0.02084
AFIX 137
H13A  2    0.693639    0.395208    0.269174    11.00000   -1.50000
H13B  2    0.509594    0.386272    0.223963    11.00000   -1.50000
H13C  2    0.539097    0.352168    0.342708    11.00000   -1.50000
AFIX   0
C14   1    0.730427    1.073405    0.333310    11.00000    0.08372    0.02787 =
         0.03819    0.01358    0.01437    0.03173
AFIX 137
H14A  2    0.728356    1.180297    0.395426    11.00000   -1.50000
H14B  2    0.626024    1.013250    0.269485    11.00000   -1.50000
H14C  2    0.837145    1.114337    0.300552    11.00000   -1.50000
AFIX   0
N1    3    0.623064    0.689306    0.188889    11.00000    0.02396    0.02132 =
         0.01437    0.00795    0.00011    0.00912
O1    4    0.916271    0.879726    0.156236    11.00000    0.02893    0.02169 =
         0.02464    0.01139    0.00392    0.00936
O2    4    0.673060    0.643581   -0.015206    11.00000    0.02765    0.02661 =
         0.01968    0.01276    0.00477    0.01357
S1    5    0.767852    0.702166    0.102374    11.00000    0.02225    0.01778 =
         0.01597    0.00803    0.00114    0.00895
CL1   6    0.685147   -0.000700   -0.074368    11.00000    0.03398    0.02034 =
         0.05327    0.01208    0.01059    0.01196
CL2   6    1.224619    0.524488    0.289442    11.00000    0.03919    0.05982 =
         0.02657    0.01888    0.00335    0.03347
H1    2    0.528886    0.589575    0.153806    11.00000    0.02924
HKLF 4  1.0  1.00  0.00  0.00  0.00  1.00  0.00  0.00  0.00  1.00
REM  csa27 in P-1
REM R1 =  0.0740 for    1960 Fo > 4sig(Fo)  and  0.1489 for all    2400 data
REM    187 parameters refined using      1 restraints
END
WGHT      0.1733      0.5675
REM Highest difference peak  0.993,  deepest hole -0.598,  1-sigma level  0.162
Q1    1   0.6847  0.6675  0.1366  11.00000  0.05    0.99
Q2    1   0.8083  0.6152  0.0980  11.00000  0.05    0.71
Q3    1   0.6787  0.0153 -0.1553  11.00000  0.05    0.60
Q4    1   0.6692  0.3627  0.0448  11.00000  0.05    0.58
Q5    1   1.1349  0.4582  0.3159  11.00000  0.05    0.54
Q6    1   1.1486  0.1248  0.0857  11.00000  0.05    0.52
Q7    1   0.7804 -0.0182 -0.0606  11.00000  0.05    0.51
Q8    1   0.3906  0.3972  0.2825  11.00000  0.05    0.51
Q9    1   0.7052  0.0634  0.0054  11.00000  0.05    0.50
Q10   1   0.5840  0.5340  0.3610  11.00000  0.05    0.47
Q11   1   0.6924  0.3202 -0.1039  11.00000  0.05    0.47
Q12   1   0.7766  0.3956  0.1187  11.00000  0.05    0.47
Q13   1   0.7406  0.6439  0.0187  11.00000  0.05    0.47
Q14   1   0.7201  0.6850  0.2420  11.00000  0.05    0.46
Q15   1   0.7479  1.0451  0.2215  11.00000  0.05    0.46
Q16   1   0.6789  1.0347  0.3725  11.00000  0.05    0.46
Q17   1   0.9159  0.5675  0.0842  11.00000  0.05    0.46
Q18   1   1.0000  0.0000  0.0000  10.50000  0.05    0.46
Q19   1   0.8699  0.9773  0.1596  11.00000  0.05    0.45
Q20   1   0.6520  0.9554  0.2619  11.00000  0.05    0.44
;
loop_
_space_group_symop_operation_xyz
'x, y, z'
'-x, -y, -z'
loop_
_atom_site_type_symbol
_atom_site_label
_atom_site_fract_x
_atom_site_fract_y
_atom_site_fract_z
_atom_site_U_iso_or_equiv
_atom_site_adp_type
_atom_site_calc_flag
_atom_site_occupancy
C C1 0.8417(4) 0.5358(5) 0.1002(4) 0.0203(9) Uani d 1
C C2 0.7459(5) 0.3554(5) 0.0217(4) 0.0241(10) Uani d 1
H H2 0.644651 0.320522 -0.034335 0.029 Uiso calc 1
C C3 0.8001(5) 0.2253(6) 0.0260(4) 0.0249(10) Uani d 1
C C4 0.9467(5) 0.2750(6) 0.1103(4) 0.0293(11) Uani d 1
H H4 0.981555 0.185462 0.115199 0.035 Uiso calc 1
C C5 1.0386(5) 0.4578(6) 0.1860(4) 0.0244(9) Uani d 1
C C6 0.9904(5) 0.5912(6) 0.1831(4) 0.0238(10) Uani d 1
H H6 1.056523 0.716677 0.235918 0.029 Uiso calc 1
C C7 0.6763(5) 0.7502(5) 0.3150(4) 0.0211(9) Uani d 1
C C8 0.6651(5) 0.6237(6) 0.3668(4) 0.0236(9) Uani d 1
C C9 0.7175(5) 0.6907(7) 0.4904(5) 0.0317(10) Uani d 1
H H9 0.712684 0.607766 0.526909 0.038 Uiso calc 1
C C10 0.7765(7) 0.8761(8) 0.5608(5) 0.0444(13) Uani d 1
H H10 0.813297 0.919881 0.644715 0.053 Uiso calc 1
C C11 0.7815(7) 0.9971(7) 0.5082(5) 0.0438(13) Uani d 1
H H11 0.821341 1.123758 0.557153 0.053 Uiso calc 1
C C12 0.7300(6) 0.9386(6) 0.3863(4) 0.0316(10) Uani d 1
C C13 0.5959(5) 0.4220(6) 0.2945(4) 0.0310(11) Uani d 1
H H13A 0.693639 0.395208 0.269174 0.046 Uiso calc 1
H H13B 0.509594 0.386272 0.223963 0.046 Uiso calc 1
H H13C 0.539097 0.352168 0.342708 0.046 Uiso calc 1
C C14 0.7304(8) 1.0734(7) 0.3333(6) 0.0472(14) Uani d 1
H H14A 0.728356 1.180297 0.395426 0.071 Uiso calc 1
H H14B 0.626024 1.013250 0.269485 0.071 Uiso calc 1
H H14C 0.837145 1.114337 0.300552 0.071 Uiso calc 1
N N1 0.6231(4) 0.6893(4) 0.1889(3) 0.0201(8) Uani d 1
O O1 0.9163(3) 0.8797(4) 0.1562(3) 0.0251(7) Uani d 1
O O2 0.6731(3) 0.6436(4) -0.0152(3) 0.0230(7) Uani d 1
S S1 0.76785(10) 0.70217(12) 0.10237(9) 0.0183(4) Uani d 1
Cl CL1 0.68515(13) -0.00070(13) -0.07437(12) 0.0365(4) Uani d 1
Cl CL2 1.22462(13) 0.52449(17) 0.28944(10) 0.0372(4) Uani d 1
H H1 0.529(4) 0.590(4) 0.154(4) 0.029(13) Uiso d 1
loop_
_atom_site_aniso_label
_atom_site_aniso_U_11
_atom_site_aniso_U_22
_atom_site_aniso_U_33
_atom_site_aniso_U_12
_atom_site_aniso_U_13
_atom_site_aniso_U_23
C1 0.0210(17) 0.0232(19) 0.021(2) 0.0095(15) 0.0048(14) 0.0138(18)
C2 0.0242(19) 0.028(2) 0.026(3) 0.0125(17) 0.0086(16) 0.015(2)
C3 0.0255(19) 0.025(2) 0.030(3) 0.0108(16) 0.0127(17) 0.017(2)
C4 0.036(2) 0.037(2) 0.036(3) 0.0227(19) 0.018(2) 0.028(2)
C5 0.0274(19) 0.036(2) 0.020(3) 0.0176(17) 0.0061(16) 0.017(2)
C6 0.0248(19) 0.031(2) 0.021(3) 0.0132(17) 0.0061(16) 0.0152(19)
C7 0.0243(18) 0.023(2) 0.017(2) 0.0111(15) 0.0018(14) 0.0093(18)
C8 0.0214(18) 0.027(2) 0.027(3) 0.0112(16) 0.0060(15) 0.0163(19)
C9 0.036(2) 0.039(2) 0.028(3) 0.0152(19) 0.0064(17) 0.024(2)
C10 0.054(3) 0.047(3) 0.016(3) 0.009(2) 0.002(2) 0.011(2)
C11 0.071(3) 0.025(2) 0.019(3) 0.012(2) 0.004(2) 0.003(2)
C12 0.046(2) 0.026(2) 0.018(3) 0.0152(18) 0.0054(17) 0.0052(19)
C13 0.037(2) 0.037(2) 0.035(3) 0.0208(19) 0.0160(18) 0.025(2)
C14 0.084(4) 0.028(2) 0.038(4) 0.032(2) 0.014(3) 0.014(2)
N1 0.0240(16) 0.0213(17) 0.014(2) 0.0091(14) 0.0001(13) 0.0080(15)
O1 0.0289(14) 0.0217(14) 0.0246(19) 0.0094(12) 0.0039(11) 0.0114(13)
O2 0.0277(13) 0.0266(15) 0.0197(19) 0.0136(11) 0.0048(11) 0.0128(13)
S1 0.0223(6) 0.0178(6) 0.0160(7) 0.0090(4) 0.0011(4) 0.0080(5)
CL1 0.0340(6) 0.0203(6) 0.0533(10) 0.0120(5) 0.0106(5) 0.0121(6)
CL2 0.0392(7) 0.0598(8) 0.0266(8) 0.0335(6) 0.0034(5) 0.0189(6)
loop_
_atom_type_symbol
_atom_type_description
_atom_type_scat_dispersion_real
_atom_type_scat_dispersion_imag
_atom_type_scat_source
C C 0.0181 0.0091 'International Tables Vol C Tables 4.2.6.8 and 6.1.1.4'
H H 0.0000 0.0000 'International Tables Vol C Tables 4.2.6.8 and 6.1.1.4'
N N 0.0311 0.0180 'International Tables Vol C Tables 4.2.6.8 and 6.1.1.4'
O O 0.0492 0.0322 'International Tables Vol C Tables 4.2.6.8 and 6.1.1.4'
S S 0.3331 0.5567 'International Tables Vol C Tables 4.2.6.8 and 6.1.1.4'
Cl Cl 0.3639 0.7018 'International Tables Vol C Tables 4.2.6.8 and 6.1.1.4'
loop_
_geom_angle_atom_site_label_1
_geom_angle_atom_site_label_2
_geom_angle_atom_site_label_3
_geom_angle
C2 C1 C6 122.0(4)
C2 C1 S1 119.5(3)
C6 C1 S1 118.3(3)
C1 C2 C3 118.7(4)
C1 C2 H2 120.7
C3 C2 H2 120.7
C2 C3 C4 120.9(4)
C2 C3 CL1 119.4(3)
C4 C3 CL1 119.6(3)
C5 C4 C3 117.8(4)
C5 C4 H4 121.1
C3 C4 H4 121.1
C6 C5 C4 122.8(4)
C6 C5 CL2 118.4(3)
C4 C5 CL2 118.8(3)
C5 C6 C1 117.6(4)
C5 C6 H6 121.2
C1 C6 H6 121.2
C8 C7 C12 121.2(4)
C8 C7 N1 120.7(4)
C12 C7 N1 118.0(4)
C9 C8 C7 118.2(4)
C9 C8 C13 119.6(4)
C7 C8 C13 122.2(4)
C10 C9 C8 121.2(5)
C10 C9 H9 119.4
C8 C9 H9 119.4
C9 C10 C11 119.6(5)
C9 C10 H10 120.2
C11 C10 H10 120.2
C12 C11 C10 121.8(5)
C12 C11 H11 119.1
C10 C11 H11 119.1
C11 C12 C7 117.9(5)
C11 C12 C14 120.1(4)
C7 C12 C14 122.0(4)
C8 C13 H13A 109.5
C8 C13 H13B 109.5
H13A C13 H13B 109.5
C8 C13 H13C 109.5
H13A C13 H13C 109.5
H13B C13 H13C 109.5
C12 C14 H14A 109.5
C12 C14 H14B 109.5
H14A C14 H14B 109.5
C12 C14 H14C 109.5
H14A C14 H14C 109.5
H14B C14 H14C 109.5
C7 N1 S1 120.9(2)
C7 N1 H1 118(4)
S1 N1 H1 109(3)
O1 S1 O2 120.06(18)
O1 S1 N1 108.41(17)
O2 S1 N1 106.27(16)
O1 S1 C1 107.28(17)
O2 S1 C1 107.33(18)
N1 S1 C1 106.81(17)
loop_
_geom_bond_atom_site_label_1
_geom_bond_atom_site_label_2
_geom_bond_distance
C1 C2 1.375(6)
C1 C6 1.389(6)
C1 S1 1.777(4)
C2 C3 1.390(6)
C2 H2 0.9500
C3 C4 1.401(6)
C3 CL1 1.726(4)
C4 C5 1.377(6)
C4 H4 0.9500
C5 C6 1.379(6)
C5 CL2 1.743(4)
C6 H6 0.9500
C7 C8 1.407(6)
C7 C12 1.417(6)
C7 N1 1.430(5)
C8 C9 1.395(6)
C8 C13 1.493(6)
C9 C10 1.386(8)
C9 H9 0.9500
C10 C11 1.385(8)
C10 H10 0.9500
C11 C12 1.383(7)
C11 H11 0.9500
C12 C14 1.506(7)
C13 H13A 0.9800
C13 H13B 0.9800
C13 H13C 0.9800
C14 H14A 0.9800
C14 H14B 0.9800
C14 H14C 0.9800
N1 S1 1.638(3)
N1 H1 0.85(2)
O1 S1 1.428(3)
O2 S1 1.431(3)
loop_
_geom_hbond_atom_site_label_D
_geom_hbond_atom_site_label_H
_geom_hbond_atom_site_label_A
_geom_hbond_site_symmetry_A
_geom_hbond_distance_DH
_geom_hbond_distance_HA
_geom_hbond_distance_DA
_geom_hbond_angle_DHA
C14 H14C O1 . 0.98 2.53 3.139(8) 120
N1 H1 O2 2_665 0.85(4) 2.12(4) 2.937(5) 160(4)
C13 H13A Cg1 . 0.98 2.67 3.493(5) 142
loop_
_geom_torsion_atom_site_label_1
_geom_torsion_atom_site_label_2
_geom_torsion_atom_site_label_3
_geom_torsion_atom_site_label_4
_geom_torsion
C6 C1 C2 C3 0.1(6)
S1 C1 C2 C3 -176.4(3)
C1 C2 C3 C4 1.6(6)
C1 C2 C3 CL1 -178.3(3)
C2 C3 C4 C5 -2.2(6)
CL1 C3 C4 C5 177.7(3)
C3 C4 C5 C6 1.1(6)
C3 C4 C5 CL2 -178.5(3)
C4 C5 C6 C1 0.5(6)
CL2 C5 C6 C1 -179.9(3)
C2 C1 C6 C5 -1.1(6)
S1 C1 C6 C5 175.4(3)
C12 C7 C8 C9 -3.4(5)
N1 C7 C8 C9 -179.5(3)
C12 C7 C8 C13 175.3(4)
N1 C7 C8 C13 -0.8(5)
C7 C8 C9 C10 1.0(6)
C13 C8 C9 C10 -177.7(4)
C8 C9 C10 C11 0.9(7)
C9 C10 C11 C12 -0.4(8)
C10 C11 C12 C7 -1.9(8)
C10 C11 C12 C14 177.5(5)
C8 C7 C12 C11 3.8(6)
N1 C7 C12 C11 180.0(4)
C8 C7 C12 C14 -175.5(4)
N1 C7 C12 C14 0.7(6)
C8 C7 N1 S1 -96.3(4)
C12 C7 N1 S1 87.5(4)
C7 N1 S1 O1 -45.5(3)
C7 N1 S1 O2 -175.8(3)
C7 N1 S1 C1 69.8(3)
C2 C1 S1 O1 -159.3(3)
C6 C1 S1 O1 24.1(4)
C2 C1 S1 O2 -29.0(4)
C6 C1 S1 O2 154.4(3)
C2 C1 S1 N1 84.6(4)
C6 C1 S1 N1 -92.0(3)

_cod_database_fobs_code 2242198
