#------------------------------------------------------------------------------
#$Date: 2018-08-25 05:19:55 +0300 (Sat, 25 Aug 2018) $
#$Revision: 210138 $
#$URL: file:///home/coder/svn-repositories/cod/cif/2/24/26/2242618.cif $
#------------------------------------------------------------------------------
#
# This file is available in the Crystallography Open Database (COD),
# http://www.crystallography.net/. The original data for this entry
# were provided by IUCr Journals, http://journals.iucr.org/.
#
# The file may be used within the scientific community so long as
# proper attribution is given to the journal article from which the
# data were obtained.
#
data_2242618
loop_
_publ_author_name
'Rohde Jr, Laurence N.'
'Zeller, Matthias'
'Jackson, John A.'
_publ_section_title
;
 Crystal structures of chiral
 2-[bis(2-chloroethyl)amino]-1,3,2-oxazaphospholidin-2-one derivatives for
 the absolute configuration at phosphorus
;
_journal_coeditor_code           FY2130
_journal_issue                   9
_journal_name_full               'Acta Crystallographica Section E'
_journal_page_first              1330
_journal_page_last               1335
_journal_paper_doi               10.1107/S2056989018011349
_journal_volume                  74
_journal_year                    2018
_chemical_formula_iupac          'C10 H21 Cl2 N2 O2 P'
_chemical_formula_sum            'C10 H21 Cl2 N2 O2 P'
_chemical_formula_weight         303.16
_chemical_name_systematic
(2<i>S</i>,4<i>R</i>)-2-[Bis(2-chloroethyl)amino]-4-isobutyl-1,3,2-oxazaphospholidin-2-one
_space_group_crystal_system      monoclinic
_space_group_IT_number           4
_space_group_name_Hall           'P 2yb'
_space_group_name_H-M_alt        'P 1 21 1'
_symmetry_space_group_name_Hall  'P 2yb'
_symmetry_space_group_name_H-M   'P 1 21 1'
_atom_sites_solution_hydrogens   mixed
_atom_sites_solution_primary     direct
_atom_sites_solution_secondary   difmap
_audit_creation_method           SHELXL-2018/3
_cell_angle_alpha                90
_cell_angle_beta                 115.409(4)
_cell_angle_gamma                90
_cell_formula_units_Z            2
_cell_length_a                   12.1044(17)
_cell_length_b                   5.3162(8)
_cell_length_c                   12.8933(17)
_cell_measurement_reflns_used    4852
_cell_measurement_temperature    100(2)
_cell_measurement_theta_max      28.0473
_cell_measurement_theta_min      3.0541
_cell_volume                     749.42(18)
_computing_cell_refinement
;
SAINT (Bruker, 2016)
;
_computing_data_collection
;
APEX3 (Bruker, 2016)
;
_computing_data_reduction
;
SAINT (Bruker, 2016)
;
_computing_molecular_graphics
;
Mercury (Macrae <i>et al.</i>,  2008)
;
_computing_publication_material
;
publcif (Westrip, 2010)
;
_computing_structure_refinement
;
SHELXL2018 (Sheldrick, 2015) and <i>shelXle</i> (H\"ubschle <i>et
al.</i>,  2011)
;
_computing_structure_solution
;
SHELXS97 (Sheldrick, 2008)
;
_diffrn_ambient_temperature      100(2)
_diffrn_measured_fraction_theta_full 0.997
_diffrn_measured_fraction_theta_max 0.954
_diffrn_measurement_device_type  'Bruker AXS D8 Quest CMOS'
_diffrn_measurement_method       'omega and phi scans'
_diffrn_radiation_monochromator  'laterally graded multilayer (Goebel) mirror'
_diffrn_radiation_type           MoK\a
_diffrn_radiation_wavelength     0.71073
_diffrn_reflns_av_R_equivalents  0.0802
_diffrn_reflns_limit_h_max       17
_diffrn_reflns_limit_h_min       -17
_diffrn_reflns_limit_k_max       7
_diffrn_reflns_limit_k_min       -7
_diffrn_reflns_limit_l_max       17
_diffrn_reflns_limit_l_min       -18
_diffrn_reflns_number            18357
_diffrn_reflns_theta_full        25.242
_diffrn_reflns_theta_max         30.595
_diffrn_reflns_theta_min         3.054
_exptl_absorpt_coefficient_mu    0.533
_exptl_absorpt_correction_T_max  0.7251
_exptl_absorpt_correction_T_min  0.6161
_exptl_absorpt_correction_type   multi-scan
_exptl_absorpt_process_details
;
(APEX3; Bruker, 2016)
;
_exptl_crystal_colour            colourless
_exptl_crystal_density_diffrn    1.343
_exptl_crystal_description       rod
_exptl_crystal_F_000             320
_exptl_crystal_size_max          0.222
_exptl_crystal_size_mid          0.022
_exptl_crystal_size_min          0.021
_refine_diff_density_max         0.378
_refine_diff_density_min         -0.487
_refine_ls_abs_structure_details
;
Flack <i>x</i> determined using 1199 quotients [(I+)-(I-)]/[(I+)+(I-)]
(Parsons <i>et al.</i>,  2013)
;
_refine_ls_abs_structure_Flack   0.07(4)
_refine_ls_extinction_method     none
_refine_ls_goodness_of_fit_ref   1.020
_refine_ls_hydrogen_treatment    mixed
_refine_ls_matrix_type           full
_refine_ls_number_parameters     159
_refine_ls_number_reflns         4294
_refine_ls_number_restraints     2
_refine_ls_restrained_S_all      1.020
_refine_ls_R_factor_all          0.0810
_refine_ls_R_factor_gt           0.0480
_refine_ls_shift/su_max          0.000
_refine_ls_shift/su_mean         0.000
_refine_ls_structure_factor_coef Fsqd
_refine_ls_weighting_details
'w=1/[\s^2^(Fo^2^)+(0.0474P)^2^+0.0175P] where P=(Fo^2^+2Fc^2^)/3'
_refine_ls_weighting_scheme      calc
_refine_ls_wR_factor_gt          0.0873
_refine_ls_wR_factor_ref         0.0953
_reflns_number_gt                3325
_reflns_number_total             4294
_reflns_threshold_expression     'I > 2\s(I)'
_cod_data_source_file            fy2130sup1.cif
_cod_data_source_block           3b
_cod_database_code               2242618
_shelx_space_group_comment
;
The symmetry employed for this shelxl refinement is uniquely defined
by the following loop, which should always be used as a source of
symmetry information in preference to the above space-group names.
They are only intended as comments.
;
_shelx_estimated_absorpt_t_min   0.891
_shelx_estimated_absorpt_t_max   0.989
_shelx_hkl_file
;
   2   0   0   77.32    2.94
   2   0   0   75.24    2.96
   2   0   0   75.90    2.93
  -2   0   0   79.42    2.92
  -2   0   0   73.93    2.96
  -2   0   0   82.08    2.95
  -3   0   0  119.31    4.54
  -3   0   0  123.75    4.58
  -3   0   0  119.67    4.59
   3   0   0  124.20    4.54
   3   0   0  118.06    4.59
   3   0   0  117.58    4.57
  -4   0   0  107.47    4.11
  -4   0   0  105.64    4.12
  -4   0   0  107.17    4.05
   4   0   0  107.15    4.06
   4   0   0  104.98    4.08
  -5   0   0   56.92    2.26
  -5   0   0   56.22    2.35
   5   0   0   56.23    2.30
   5   0   0   57.46    2.26
  -5   0   0   54.83    2.38
  -6   0   0   16.41    1.29
   6   0   0   18.24    1.38
   6   0   0   15.49    1.02
  -6   0   0   18.01    0.99
   6   0   0   16.69    0.98
  -6   0   0   15.41    1.21
  -7   0   0   31.36    1.82
   7   0   0   34.34    1.64
   7   0   0   33.47    2.00
  -7   0   0   35.41    1.60
  -7   0   0   34.26    1.89
   7   0   0   34.83    1.65
   8   0   0    2.56    0.67
  -8   0   0    1.46    0.59
  -8   0   0    1.40    0.82
  -8   0   0    1.54    0.89
   8   0   0    1.62    1.01
   8   0   0    1.06    0.55
   8   0   0    2.83    0.64
   9   0   0   21.01    1.42
  -9   0   0   24.85    1.84
  -9   0   0   20.00    2.10
   9   0   0   20.36    2.08
   9   0   0   21.71    1.52
   9   0   0   20.73    1.44
  -9   0   0   21.18    1.50
  10   0   0    5.61    0.89
 -10   0   0    6.34    1.33
  10   0   0    5.60    1.21
  10   0   0    6.72    0.97
 -10   0   0    4.73    1.41
  10   0   0    6.14    0.86
 -10   0   0    6.13    0.95
 -11   0   0    9.05    1.46
  11   0   0    7.40    1.08
  11   0   0    6.52    1.04
  11   0   0   10.26    1.59
 -11   0   0    8.22    1.19
  11   0   0    7.26    1.10
 -11   0   0    7.93    1.64
  12   0   0   10.73    1.35
  12   0   0   10.61    1.44
 -12   0   0    8.44    1.44
 -12   0   0    8.82    2.05
  12   0   0   10.49    1.82
 -12   0   0    9.59    1.81
  12   0   0   10.38    1.41
 -13   0   0    6.14    1.59
  13   0   0    8.08    1.61
  13   0   0    6.31    1.57
 -13   0   0    8.41    2.51
 -13   0   0    6.53    2.06
  13   0   0    8.46    1.55
  13   0   0    8.16    2.16
  14   0   0   18.86    2.01
  14   0   0   22.78    2.06
  14   0   0   25.16    2.56
 -14   0   0   20.75    2.63
  14   0   0   20.34    2.15
   0  -1   0   -0.37    0.19
   0   1   0   -0.48    0.16
   0   1   0   -0.27    0.18
   0   1   0   -0.73    0.27
   0   1   0   -0.23    0.38
  -1  -1   0  114.66    4.43
   1  -1   0  120.74    4.43
   1  -1   0  120.83    4.48
   1  -1   0  123.13    4.43
  -1  -1   0  110.07    4.48
  -1  -1   0  115.12    4.46
  -1   1   0  121.25    4.43
  -1   1   0  123.77    4.48
  -1   1   0  123.08    4.43
   1   1   0  108.06    4.47
   1   1   0  116.03    4.43
   1   1   0  113.71    4.46
  -2  -1   0    1.45    0.27
   2  -1   0    1.69    0.42
   2  -1   0    1.71    0.28
   2  -1   0    1.59    0.29
  -2  -1   0    1.41    0.27
  -2  -1   0    1.14    0.37
  -2   1   0    1.42    0.26
  -2   1   0    1.28    0.30
   2   1   0    1.66    0.40
   2   1   0    1.39    0.26
   2   1   0    1.46    0.27
  -2   1   0    1.79    0.40
   2   1   0    1.72    0.21
  -3  -1   0   66.84    2.70
  -3  -1   0   71.73    2.62
  -3  -1   0   67.05    2.65
   3  -1   0   67.03    2.63
   3  -1   0   69.14    2.75
   3  -1   0   64.73    2.65
  -3  -1   0   66.16    2.61
   3   1   0   68.82    2.66
  -3   1   0   66.30    2.62
   3   1   0   67.70    2.69
   3   1   0   68.68    2.61
   3   1   0   68.12    2.61
  -3   1   0   68.16    2.68
  -4  -1   0   18.52    0.95
   4  -1   0   17.73    1.15
  -4  -1   0   18.19    0.89
  -4  -1   0   18.91    0.96
  -4  -1   0   17.62    1.04
   4  -1   0   19.07    0.95
   4  -1   0   16.16    0.94
   4   1   0   18.87    0.89
  -4   1   0   19.17    0.90
  -4   1   0   17.91    1.04
   4   1   0   18.05    1.11
   4   1   0   18.16    0.91
  -4   1   0   18.29    1.09
   4   1   0   17.10    0.93
   5  -1   0  107.09    4.27
  -5  -1   0  113.88    4.20
  -5  -1   0  109.48    4.14
   5  -1   0  108.61    4.20
   5  -1   0  112.42    4.18
  -5  -1   0  107.56    4.24
  -5   1   0  104.30    4.25
   5   1   0  107.60    4.14
  -5   1   0  105.98    4.15
   5   1   0  107.99    4.16
   5   1   0  105.78    4.19
  -5   1   0  102.50    4.23
   5   1   0  109.11    4.23
  -6  -1   0    2.11    0.60
   6  -1   0    2.29    0.56
   6  -1   0    3.29    0.76
  -6  -1   0    2.73    0.65
   6  -1   0    2.12    0.50
  -6  -1   0    2.25    0.48
   6   1   0    1.91    0.67
  -6   1   0    2.35    0.64
   6   1   0    1.89    0.48
   6   1   0    2.36    0.46
   6   1   0    2.13    0.50
  -6   1   0    2.30    0.69
  -6   1   0    1.64    0.46
  -7  -1   0   14.01    1.40
   7  -1   0   14.33    1.08
  -7  -1   0   14.17    1.07
   7  -1   0   13.63    1.50
  -7  -1   0   13.57    1.27
   7  -1   0   14.04    1.14
  -7   1   0   13.83    1.33
   7   1   0   15.28    1.02
   7   1   0   14.13    1.42
  -7   1   0   14.49    1.41
   7   1   0   14.24    0.98
   7   1   0   13.87    1.15
  -7   1   0   14.65    1.01
   8  -1   0   15.32    1.28
   8  -1   0   12.16    1.21
   8  -1   0   12.38    1.26
  -8  -1   0   13.98    1.24
  -8  -1   0   13.35    1.54
  -8  -1   0   14.35    1.22
   8   1   0   14.22    1.09
   8   1   0   15.57    1.72
  -8   1   0   13.84    1.26
   8   1   0   12.74    1.24
  -8   1   0   14.33    1.57
  -8   1   0   13.02    1.06
   8   1   0   12.42    1.12
  -9  -1   0   51.09    2.87
  -9  -1   0   52.19    2.68
   9  -1   0   49.03    2.81
  -9  -1   0   57.61    2.49
   9  -1   0   50.38    2.46
   9  -1   0   52.81    2.50
   9   1   0   53.17    2.49
   9   1   0   56.89    2.98
  -9   1   0   48.31    2.38
  -9   1   0   55.00    2.78
   9   1   0   49.84    2.45
  -9   1   0   49.22    2.85
   9   1   0   54.15    2.43
  10  -1   0    3.05    0.89
 -10  -1   0    3.26    1.40
 -10  -1   0    3.53    1.20
 -10  -1   0    2.94    0.99
  10  -1   0    3.22    1.25
  10  -1   0    2.47    0.85
  10   1   0    3.05    0.96
  10   1   0    2.54    1.28
  10   1   0    2.80    0.81
 -10   1   0    4.51    0.91
  10   1   0    3.29    0.82
 -10   1   0    3.79    1.29
 -10   1   0    2.53    1.28
 -11  -1   0    7.84    1.59
 -11  -1   0   11.74    1.80
  11  -1   0   10.71    1.22
  11  -1   0   11.68    1.69
  11  -1   0   12.31    1.30
 -11  -1   0   13.00    1.43
  11   1   0   12.72    1.29
 -11   1   0    9.90    1.80
 -11   1   0    9.85    1.75
 -11   1   0   11.16    1.24
  11   1   0   14.41    1.69
  11   1   0   10.67    1.26
  12  -1   0    7.01    1.80
  12  -1   0    5.89    1.33
  12  -1   0    4.50    1.36
  12  -1   0    6.17    1.45
 -12  -1   0    6.52    2.08
 -12  -1   0    4.73    1.73
 -12  -1   0    4.42    1.50
 -12   1   0    7.21    1.81
  12   1   0    4.29    1.38
  12   1   0   11.61    1.77
  12   1   0    4.20    1.28
 -12   1   0    4.96    1.51
  12   1   0    5.05    1.26
 -12   1   0    4.27    2.07
  13  -1   0    8.07    1.58
 -13  -1   0    4.25    1.96
  13  -1   0    8.16    2.08
 -13  -1   0    3.86    2.72
  13  -1   0    5.75    1.68
  13  -1   0    5.26    1.53
 -13  -1   0    3.78    1.93
 -13   1   0    5.22    1.81
 -13   1   0    4.35    2.20
  13   1   0    7.56    2.18
 -13   1   0    2.63    2.55
  13   1   0    3.10    1.59
  13   1   0    6.77    1.58
  13   1   0    4.24    1.50
  14  -1   0    5.63    1.82
  14  -1   0    3.19    2.41
 -14  -1   0    3.11    2.38
  14  -1   0    4.12    1.94
  14   1   0    3.98    1.75
  14   1   0    1.51    2.48
  14   1   0    4.26    1.90
   0  -2   0  294.19   10.96
   0   2   0  296.35   10.90
   0   2   0  290.00   10.96
   0   2   0  285.08   11.02
   0   2   0  290.99   10.93
   0   2   0  291.40   10.96
   1  -2   0   10.13    0.94
   1  -2   0   11.43    0.68
   1  -2   0   10.84    0.76
  -1  -2   0    9.95    0.74
  -1   2   0   11.97    0.67
   1   2   0   10.64    0.71
  -1   2   0   10.24    0.93
   1   2   0   11.32    0.79
   1   2   0   11.60    1.15
   2  -2   0  179.34    6.64
   2  -2   0  172.48    6.58
  -2  -2   0  163.98    6.52
   2  -2   0  175.54    6.52
   2  -2   0  176.87    6.54
  -2  -2   0  171.70    6.58
  -2  -2   0  156.66    6.62
   2   2   0  171.65    6.62
  -2   2   0  179.99    6.53
   2   2   0  176.29    6.53
  -2   2   0  171.05    6.60
  -2   2   0  172.82    6.52
   2   2   0  178.66    6.59
  -3  -2   0   21.80    1.10
  -3  -2   0   23.08    1.16
   3  -2   0   23.44    1.41
   3  -2   0   23.05    1.09
  -3  -2   0   21.08    1.39
   3  -2   0   23.84    1.14
   3   2   0   23.11    1.35
  -3   2   0   22.98    1.07
   3   2   0   22.27    1.13
  -3   2   0   20.12    1.10
   3   2   0   22.93    1.10
  -3   2   0   21.55    1.27
  -4  -2   0   72.25    2.89
  -4  -2   0   76.05    2.98
   4  -2   0   72.82    2.93
   4  -2   0   74.44    2.93
  -4  -2   0   78.25    2.88
   4  -2   0   71.40    3.13
  -4  -2   0   70.28    3.10
   4   2   0   76.04    2.98
  -4   2   0   72.49    2.91
  -4   2   0   73.35    2.96
   4   2   0   72.13    2.88
   4   2   0   74.00    3.06
  -4   2   0   70.51    3.04
  -5  -2   0    2.50    0.51
  -5  -2   0    3.18    0.53
  -5  -2   0    1.05    0.69
   5  -2   0    3.20    0.54
   5  -2   0    2.88    0.52
   5  -2   0    3.85    0.84
  -5  -2   0    2.22    0.50
   5   2   0    2.71    0.53
  -5   2   0    2.70    0.77
   5   2   0    2.25    0.49
  -5   2   0    2.24    0.46
  -5   2   0    2.15    0.64
   5   2   0    3.15    0.73
   6  -2   0   51.72    2.30
   6  -2   0   49.09    2.60
   6  -2   0   51.56    2.32
  -6  -2   0   54.47    2.35
  -6  -2   0   53.57    2.58
  -6  -2   0   52.88    2.25
  -6  -2   0   56.15    2.31
  -6   2   0   49.59    2.22
  -6   2   0   56.69    2.41
   6   2   0   55.04    2.20
   6   2   0   55.99    2.34
   6   2   0   52.52    2.25
  -6   2   0   48.11    2.43
   6   2   0   53.96    2.45
  -7  -2   0   91.94    4.07
  -7  -2   0   95.05    3.85
  -7  -2   0   97.94    3.80
   7  -2   0   87.87    4.11
   7  -2   0   94.18    3.84
   7  -2   0   93.86    3.82
   7   2   0   92.11    3.95
  -7   2   0   95.34    3.95
  -7   2   0   91.43    3.98
   7   2   0   95.88    3.78
  -7   2   0   91.90    3.77
   7   2   0   99.68    3.90
   7   2   0  100.67    3.76
   8  -2   0    7.92    0.90
  -8  -2   0    5.35    1.16
   8  -2   0    6.21    1.20
  -8  -2   0    6.20    0.99
   8  -2   0    5.23    0.83
  -8  -2   0    6.31    0.87
   8   2   0    7.06    0.87
  -8   2   0    4.96    1.06
  -8   2   0    6.21    0.80
  -8   2   0    8.76    1.20
   8   2   0    6.17    0.71
   8   2   0    7.53    1.07
   8   2   0    5.97    0.89
   9  -2   0    6.19    1.00
   9  -2   0    5.14    0.95
   9  -2   0    5.60    1.37
  -9  -2   0    5.96    1.14
  -9  -2   0    4.69    1.32
  -9  -2   0    7.12    1.01
   9   2   0    6.15    0.78
   9   2   0    5.84    1.16
  -9   2   0    5.94    0.91
  -9   2   0    5.21    1.29
   9   2   0    5.54    0.93
  -9   2   0    5.72    1.24
   9   2   0    3.56    0.97
 -10  -2   0    1.60    1.52
 -10  -2   0    4.38    1.28
  10  -2   0    4.20    1.11
  10  -2   0    4.78    1.44
 -10  -2   0    4.70    1.16
  10  -2   0    2.58    1.03
  10   2   0    3.55    1.20
 -10   2   0    3.17    1.35
 -10   2   0    3.41    1.02
  10   2   0    3.23    1.06
 -10   2   0    4.81    1.43
  10   2   0    3.59    0.84
  10   2   0    5.74    1.10
  11  -2   0    7.33    1.32
 -11  -2   0    5.34    1.45
  11  -2   0    8.01    1.32
  11  -2   0    8.50    1.75
 -11  -2   0   10.75    1.51
 -11  -2   0    7.94    1.94
 -11   2   0    7.95    1.78
 -11   2   0    7.33    1.78
  11   2   0    8.01    1.59
 -11   2   0    6.92    1.28
  11   2   0    7.24    1.04
  11   2   0    9.28    1.38
  12  -2   0    5.76    1.41
 -12  -2   0    7.47    1.76
  12  -2   0    7.13    1.58
 -12  -2   0   10.96    2.32
  12  -2   0    6.91    1.93
 -12  -2   0    8.26    1.92
 -12   2   0    2.09    2.12
  12   2   0    7.34    1.41
 -12   2   0    3.82    1.58
  12   2   0    7.53    1.90
  12   2   0    7.62    1.59
 -12   2   0    5.06    1.79
  13  -2   0    3.44    1.74
  13  -2   0    1.26    2.14
 -13  -2   0    0.30    2.28
 -13  -2   0    5.36    2.88
 -13  -2   0    9.20    2.08
  13  -2   0    3.49    1.62
  13   2   0    4.21    1.57
 -13   2   0    2.32    2.88
  13   2   0    4.07    1.87
  13   2   0    6.21    2.15
 -13   2   0    1.09    1.95
 -13   2   0    3.30    2.28
  14  -2   0   10.80    2.03
 -14  -2   0    5.05    2.49
  14   2   0   12.62    3.27
   0  -3   0   -0.20    0.44
   0   3   0   -0.69    0.57
   0   3   0   -0.40    0.89
   0   3   0   -0.77    0.58
   0   3   0    0.49    0.39
   0   3   0   -0.17    0.39
   1  -3   0    7.98    0.77
  -1  -3   0    7.34    0.71
  -1   3   0    7.86    1.11
   1   3   0    7.57    0.75
   1   3   0    9.58    0.86
  -1   3   0   11.22    0.88
   1   3   0    9.46    0.81
   1   3   0    8.36    1.14
   1   3   0    8.26    0.70
  -1   3   0    7.31    0.73
   2  -3   0    5.80    0.87
   2  -3   0    5.17    0.50
  -2  -3   0    5.10    0.61
   2  -3   0    5.89    0.57
   2  -3   0    5.81    0.68
  -2   3   0    3.75    0.53
   2   3   0    5.07    0.69
   2   3   0    4.58    0.91
  -2   3   0    5.37    0.53
  -2   3   0    7.00    0.86
   2   3   0    5.25    0.61
  -3  -3   0   85.41    3.43
   3  -3   0   84.71    3.61
  -3  -3   0   81.21    3.35
   3  -3   0   84.65    3.43
   3  -3   0   86.10    3.31
  -3  -3   0   77.91    3.66
   3  -3   0   86.78    3.37
  -3   3   0   78.91    3.47
  -3   3   0   82.06    3.32
  -3   3   0   84.19    3.34
   3   3   0   82.54    3.56
   3   3   0   87.67    3.45
   3   3   0   86.62    3.36
   4  -3   0    6.41    0.72
   4  -3   0    5.62    0.64
  -4  -3   0    4.77    1.03
  -4  -3   0    5.56    0.70
  -4  -3   0    4.83    0.67
   4  -3   0    6.74    1.07
   4  -3   0    5.19    0.73
  -4   3   0    5.34    0.88
   4   3   0    6.42    0.72
   4   3   0    6.34    0.70
  -4   3   0    5.79    0.59
   4   3   0    6.88    0.89
  -4   3   0    4.86    0.83
   5  -3   0    2.15    0.59
  -5  -3   0    3.56    0.72
  -5  -3   0    2.26    1.13
  -5  -3   0    3.47    0.67
   5  -3   0    2.64    1.10
   5  -3   0    2.84    0.69
  -5   3   0    3.03    0.80
  -5   3   0    2.79    0.58
   5   3   0    2.95    0.64
  -5   3   0    1.84    0.85
   5   3   0    2.50    0.95
   5   3   0    2.68    0.64
   6  -3   0    7.33    1.29
  -6  -3   0    5.82    0.84
   6  -3   0    5.82    0.77
  -6  -3   0    5.03    1.30
   6  -3   0    7.07    0.90
  -6  -3   0    5.21    0.78
   6   3   0    6.51    0.86
   6   3   0    6.32    0.79
  -6   3   0    6.73    0.75
   6   3   0    6.52    1.01
  -6   3   0    5.32    0.98
  -6   3   0    6.04    1.10
  -7  -3   0    4.12    0.88
  -7  -3   0    5.01    1.45
   7  -3   0    3.80    0.82
   7  -3   0    3.51    0.83
  -7  -3   0    3.38    0.91
   7  -3   0    2.69    1.25
  -7  -3   0    4.74    0.87
   7   3   0    2.60    0.80
  -7   3   0    3.10    0.71
   7   3   0    2.79    0.84
   7   3   0    3.62    1.01
  -7   3   0    2.59    1.04
  -7   3   0    3.97    1.05
   8  -3   0    4.11    0.93
  -8  -3   0    4.20    1.61
  -8  -3   0    4.49    1.04
   8  -3   0    4.02    0.98
   8  -3   0    6.02    1.46
  -8  -3   0    3.05    1.03
  -8   3   0    4.83    1.15
   8   3   0    3.59    0.97
   8   3   0    6.16    0.94
  -8   3   0    4.63    1.21
   8   3   0    4.91    1.10
  -8   3   0    4.89    0.89
   9  -3   0   29.79    2.14
  -9  -3   0   29.92    2.40
  -9  -3   0   27.08    2.18
   9  -3   0   28.30    2.07
  -9  -3   0   30.07    2.22
   9  -3   0   24.83    2.90
   9   3   0   25.73    1.92
   9   3   0   25.66    2.41
   9   3   0   30.83    2.16
  -9   3   0   28.70    2.48
  -9   3   0   24.48    2.55
  -9   3   0   28.14    2.01
 -10  -3   0    0.89    2.19
  10  -3   0    1.59    1.78
  10  -3   0    2.08    1.19
  10  -3   0    1.34    1.16
 -10  -3   0    1.68    1.39
 -10  -3   0    0.75    1.40
  10   3   0    2.52    1.42
 -10   3   0    3.28    1.69
  10   3   0    0.93    1.31
 -10   3   0    1.41    1.68
 -10   3   0    0.95    1.08
  10   3   0    1.68    1.11
  11  -3   0   12.29    1.62
  11  -3   0   12.99    2.12
 -11  -3   0   12.99    2.87
  11  -3   0   12.71    1.62
 -11  -3   0   12.36    1.86
 -11  -3   0   12.77    1.74
  11   3   0   13.63    1.52
  11   3   0   14.33    1.86
  11   3   0   14.49    1.82
 -11   3   0   13.74    2.17
 -11   3   0   11.15    1.55
 -11   3   0   11.04    2.04
  12  -3   0   -1.05    1.75
 -12  -3   0    0.40    1.84
  12  -3   0    3.39    1.62
 -12  -3   0    0.01    1.97
  12  -3   0    3.31    2.40
 -12  -3   0   -2.04    3.33
  12   3   0    1.27    1.94
  12   3   0    2.66    1.86
 -12   3   0    8.38    2.52
 -12   3   0    2.40    2.15
  12   3   0    1.35    1.50
 -12   3   0    2.37    1.74
  13  -3   0    7.84    2.09
 -13  -3   0    5.94    2.35
 -13   3   0    8.91    2.44
  13   3   0    4.07    2.44
 -14  -3   0   -2.68    2.98
   0  -4   0   66.90    3.07
   0   4   0   72.76    3.07
   0   4   0   66.35    3.05
   0   4   0   67.97    2.97
   0   4   0   68.58    2.81
   0   4   0   71.92    3.91
   1  -4   0    2.85    0.80
  -1  -4   0    2.60    0.77
  -1   4   0    2.45    0.90
   1   4   0    2.90    0.91
  -1   4   0    1.73    1.32
   1   4   0    3.04    1.28
   1   4   0    3.88    0.58
  -1   4   0    4.05    0.59
  -1   4   0    2.55    0.95
   1   4   0    2.51    0.87
   1   4   0    3.06    0.67
   2  -4   0   10.74    1.04
  -2  -4   0    9.60    1.02
  -2   4   0   10.07    1.12
   2   4   0    8.26    1.42
   2   4   0    9.15    1.03
   2   4   0    7.69    1.01
  -2   4   0    9.02    1.64
  -2   4   0    8.56    0.81
   2   4   0    9.54    0.80
   2   4   0   10.88    0.97
   3  -4   0   11.49    0.97
   3  -4   0   12.45    1.48
  -3  -4   0   11.37    1.13
   3  -4   0   10.05    1.05
   3  -4   0    9.92    1.06
  -3   4   0   10.55    1.04
   3   4   0   11.24    1.10
  -3   4   0   11.66    1.11
   3   4   0   11.10    1.34
   3   4   0   11.64    1.29
   3   4   0   10.23    1.08
   3   4   0   10.11    1.02
   4  -4   0   12.31    1.42
   4  -4   0   11.67    1.16
   4  -4   0   10.54    1.02
  -4  -4   0   13.62    1.81
  -4  -4   0   10.90    1.09
   4  -4   0    9.87    1.17
   4   4   0   12.62    1.40
   4   4   0   11.27    1.10
  -4   4   0   12.19    1.19
  -4   4   0   11.85    1.18
   4   4   0   12.28    1.12
   5  -4   0   10.02    1.08
   5  -4   0   11.62    1.00
   5  -4   0   12.27    1.26
   5  -4   0   13.54    1.65
  -5  -4   0   13.87    1.61
  -5  -4   0   13.73    1.96
  -5  -4   0   10.31    1.21
   5   4   0   11.35    1.13
   5   4   0   11.67    1.21
  -5   4   0   11.99    1.30
  -5   4   0   11.33    1.24
   5   4   0   13.28    1.46
  -6  -4   0   49.50    2.69
   6  -4   0   50.84    2.52
   6  -4   0   50.89    2.72
   6  -4   0   48.76    2.62
  -6  -4   0   48.79    4.60
   6  -4   0   48.12    3.27
  -6  -4   0   52.09    2.66
   6   4   0   50.47    2.96
  -6   4   0   48.15    2.93
   6   4   0   51.40    2.62
   6   4   0   51.80    2.53
  -6   4   0   50.06    2.43
  -7  -4   0   24.46    2.30
   7  -4   0   24.02    1.95
   7  -4   0   23.59    2.09
   7  -4   0   22.06    2.22
   7  -4   0   23.82    2.19
  -7  -4   0   22.77    1.61
  -7  -4   0   23.12    2.06
   7   4   0   21.50    1.99
   7   4   0   21.02    2.30
   7   4   0   22.57    1.98
  -7   4   0   22.96    1.90
  -7   4   0   22.77    2.47
  -8  -4   0    8.53    1.48
   8  -4   0   11.92    1.43
   8  -4   0    7.92    1.27
   8  -4   0    9.26    1.97
  -8  -4   0   10.64    1.44
  -8  -4   0    6.61    2.28
   8   4   0    6.98    1.20
  -8   4   0    6.56    1.45
   8   4   0    7.59    1.42
  -8   4   0    7.56    1.09
   8   4   0    5.29    1.40
  -8   4   0    4.06    1.32
   9  -4   0    3.89    1.31
  -9  -4   0    0.94    2.57
   9  -4   0    3.73    1.46
   9  -4   0    7.86    2.24
  -9  -4   0    5.42    1.65
  -9   4   0    7.06    1.79
   9   4   0    4.84    1.38
  -9   4   0    5.98    1.21
  -9   4   0    2.63    1.69
   9   4   0    6.98    1.23
   9   4   0    7.18    1.49
  10  -4   0    3.03    2.38
  10  -4   0    2.16    1.47
  10  -4   0    0.47    1.49
 -10  -4   0    2.99    3.17
 -10  -4   0    0.78    1.88
  10   4   0   -0.54    1.53
 -10   4   0    0.67    1.83
 -10   4   0   -1.08    2.06
  10   4   0   -1.51    1.60
  10   4   0    1.20    1.31
 -10   4   0   -0.55    1.49
  11  -4   0    5.04    1.86
  11  -4   0    0.80    1.95
  11  -4   0    7.18    2.76
 -11  -4   0    3.10    3.77
 -11   4   0    4.46    1.85
  11   4   0    4.94    1.89
 -11   4   0    4.90    2.38
  11   4   0    6.48    1.56
  11   4   0    4.57    1.88
 -11   4   0    6.01    2.54
  12  -4   0    0.04    2.10
 -12  -4   0    1.81    2.32
  12   4   0    2.85    2.16
 -12   4   0    1.18    2.21
  13  -4   0    7.92    2.64
   0  -5   0   -0.49    1.06
   0   5   0   -0.79    1.03
   0   5   0   -0.38    1.23
   0   5   0   -1.09    0.84
   0   5   0   -0.13    2.15
   0   5   0   -0.20    0.63
   1  -5   0   32.09    2.30
  -1  -5   0   30.79    2.28
  -1   5   0   30.46    2.61
   1   5   0   33.28    2.41
   1   5   0   34.53    3.66
   1   5   0   28.51    2.23
  -1   5   0   26.67    2.26
   1   5   0   29.86    2.07
  -1   5   0   29.20    1.73
  -1   5   0   36.56    3.27
   1   5   0   29.17    1.71
   2  -5   0   12.91    1.45
  -2  -5   0   10.78    1.31
   2   5   0   11.52    1.45
  -2   5   0   11.00    1.77
   2   5   0   13.19    2.00
  -2   5   0   10.68    0.99
  -2   5   0   17.46    3.31
  -2   5   0   14.68    1.49
   2   5   0   12.58    1.44
   2   5   0   12.95    1.38
   2   5   0   12.91    1.10
  -3  -5   0   12.01    1.44
   3  -5   0   12.52    1.48
  -3   5   0   11.94    1.07
  -3   5   0   14.80    1.50
   3   5   0   13.44    1.44
   3   5   0   15.93    1.92
  -3   5   0   13.12    2.62
  -3   5   0   12.70    1.90
   3   5   0   17.05    1.98
   3   5   0   12.51    1.35
   3   5   0   12.95    1.42
   4  -5   0   14.33    1.60
  -4  -5   0   14.56    1.50
  -4   5   0   11.49    1.17
   4   5   0   14.20    1.16
   4   5   0   13.97    2.04
   4   5   0   12.17    1.43
  -4   5   0   11.88    1.50
   4   5   0   13.50    1.50
   4   5   0   14.17    1.47
   5  -5   0   13.97    1.23
   5  -5   0   12.16    1.43
  -5  -5   0    9.18    1.50
   5  -5   0   12.00    1.61
   5  -5   0    9.20    1.99
   5   5   0   11.54    1.52
  -5   5   0   13.00    1.14
   5   5   0   11.21    1.89
   5   5   0   12.03    1.13
  -5   5   0   15.01    1.79
   5   5   0   10.76    1.44
   5   5   0   12.05    1.56
   6  -5   0   10.53    1.64
   6  -5   0    5.61    1.25
   6  -5   0    9.04    2.07
   6  -5   0    6.98    1.21
  -6  -5   0    7.00    1.45
   6   5   0    7.34    1.55
   6   5   0    6.74    1.37
  -6   5   0    5.19    1.17
   6   5   0    5.59    1.86
  -6   5   0    5.03    1.61
  -6   5   0    1.75    1.26
   7  -5   0    0.30    1.66
   7  -5   0    0.77    1.31
  -7  -5   0    1.55    3.51
  -7  -5   0    1.18    1.42
   7  -5   0    4.12    1.96
   7  -5   0    0.72    1.33
  -7   5   0   -1.33    1.29
   7   5   0    1.74    1.41
   7   5   0    1.06    1.50
  -7   5   0    0.94    1.57
   7   5   0    2.16    1.68
  -7   5   0   -0.38    1.85
  -8  -5   0    0.58    3.70
   8  -5   0    1.79    1.56
   8  -5   0   -1.08    2.22
  -8  -5   0    0.89    1.60
   8  -5   0    2.38    1.81
   8  -5   0    6.09    1.38
  -8  -5   0    3.12    2.32
  -8   5   0    1.64    2.04
   8   5   0    1.96    1.68
   8   5   0    1.56    1.80
  -8   5   0    5.68    1.44
   8   5   0   -0.73    1.56
  -8   5   0    2.19    1.77
   9  -5   0   11.72    1.96
   9  -5   0   12.94    2.16
  -9  -5   0   15.92    4.71
   9  -5   0   11.39    2.06
  -9  -5   0   11.75    2.83
  -9  -5   0   16.86    2.22
   9  -5   0   10.66    2.79
  -9   5   0    6.23    2.06
  -9   5   0   11.04    1.76
  -9   5   0   10.50    2.66
   9   5   0    9.13    1.67
   9   5   0   16.59    2.23
   9   5   0   11.89    2.03
  10  -5   0    3.18    2.15
  10  -5   0    1.48    3.10
  10  -5   0    2.70    2.33
  10  -5   0    3.90    1.95
 -10  -5   0   -4.66    5.16
 -10   5   0   -1.94    2.34
  10   5   0    2.44    1.99
 -10   5   0    5.48    2.05
  11  -5   0   -1.45    2.80
  11  -5   0   -2.87    2.41
 -11   5   0    1.08    2.58
   0  -6   0    3.78    1.62
   0   6   0    2.89    1.10
   0   6   0    6.36    3.38
   0   6   0    6.74    1.60
   0   6   0    2.06    1.93
  -1  -6   0    3.82    1.70
   1  -6   0    5.57    1.76
   1   6   0    2.55    1.94
  -1   6   0    4.78    1.15
  -1   6   0    6.77    3.41
   1   6   0    3.70    1.57
   1   6   0    3.49    2.63
  -1   6   0    5.76    1.71
   1   6   0    4.46    1.15
  -1   6   0    8.11    2.13
   1   6   0    3.83    1.49
  -2  -6   0    0.80    1.58
   2  -6   0    1.76    1.75
  -2   6   0    0.68    4.23
  -2   6   0    1.10    1.14
   2   6   0    1.64    1.59
  -2   6   0   -1.72    1.74
  -2   6   0    2.89    2.19
   2   6   0    2.24    1.88
   2   6   0    2.79    1.02
   2   6   0    1.76    1.58
   2   6   0    5.63    2.59
  -3  -6   0    2.53    1.71
   3  -6   0    8.56    1.90
  -3   6   0    6.25    2.53
  -3   6   0    3.63    1.26
   3   6   0    5.27    1.70
   3   6   0    3.23    1.18
  -3   6   0    9.45    3.79
   3   6   0    4.08    2.56
  -3   6   0    7.88    1.86
   3   6   0    5.72    1.72
   3   6   0    5.10    1.95
  -4  -6   0   11.74    2.01
   4  -6   0   15.33    2.12
   4   6   0   13.32    1.42
   4   6   0   17.54    2.77
  -4   6   0   15.01    1.68
   4   6   0   12.54    2.09
   4   6   0   14.02    2.08
  -4   6   0   18.21    2.87
   4   6   0   14.83    2.05
  -4   6   0   13.04    2.10
  -4   6   0   11.65    3.39
  -5  -6   0    3.16    1.98
   5  -6   0    1.34    2.01
  -5   6   0    0.13    1.94
   5   6   0   -0.67    2.39
  -5   6   0    5.78    4.33
   5   6   0    1.39    2.00
  -5   6   0    3.86    2.90
  -5   6   0    0.98    1.44
   5   6   0    3.08    2.05
   5   6   0   -0.85    1.97
   5   6   0    1.13    1.16
  -6  -6   0    8.83    1.92
   6  -6   0    8.24    2.21
  -6   6   0    9.05    4.65
  -6   6   0    9.34    3.63
   6   6   0    3.16    1.62
  -6   6   0    5.35    1.74
   6   6   0    7.47    2.13
  -6   6   0    8.98    2.43
   6   6   0    6.96    2.26
   6   6   0   11.61    2.67
   6   6   0    4.21    1.88
  -7  -6   0   11.49    2.31
   7  -6   0   11.82    2.39
   7  -6   0   14.72    2.10
  -7   6   0   14.22    2.96
  -7   6   0   10.77    2.22
   7   6   0    7.93    2.53
   7   6   0   10.20    2.32
   8  -6   0    9.14    2.59
   8  -6   0    5.09    2.20
   8  -6   0    5.24    2.33
   8  -6   0    5.43    3.12
  -8   6   0    5.59    2.22
  -8   6   0    5.80    2.30
   8   6   0    1.34    2.51
   9  -6   0    1.95    2.63
   9  -6   0    2.34    2.80
  -9   6   0   -0.07    2.48
  -9   6   0    0.20    2.57
   0  -7   0    0.38    2.41
   0   7   0    2.08    2.96
   0   7   0    2.56    3.00
  -1  -7   0    1.23    2.26
   1  -7   0    4.27    2.48
   1   7   0    5.01    2.78
  -1   7   0    3.32    2.97
  -1   7   0    3.95    2.94
   2  -7   0    9.63    2.65
  -2  -7   0    5.05    2.64
  -2   7   0    5.58    3.11
   2   7   0    8.73    2.79
   2   7   0    9.28    2.72
  -2   7   0    3.52    3.05
   3  -7   0    7.92    2.67
  -3   7   0   13.18    4.86
  -3   7   0    7.88    3.17
   4  -7   0    5.74    3.03
  -5   7   0    1.13    3.47
  14   0  -1    4.48    2.34
 -14   0   1    4.56    2.34
  14   0  -1    4.99    1.78
 -14   0   1    5.36    2.61
 -14   0   1    4.24    1.92
  14   0  -1    5.21    1.66
  14   0  -1    7.77    1.80
  13   0  -1    2.07    1.95
 -13   0   1    3.89    1.50
  13   0  -1    2.54    1.42
  13   0  -1    1.99    1.39
 -13   0   1    1.84    2.36
  13   0  -1    0.40    1.35
 -13   0   1    4.95    1.90
  12   0  -1   26.44    2.30
 -12   0   1   27.09    2.26
 -12   0   1   30.02    3.25
  12   0  -1   30.64    2.43
 -12   0   1   26.80    2.85
  12   0  -1   27.62    2.22
  12   0  -1   30.59    2.24
  11   0  -1    1.77    1.03
  11   0  -1    2.10    0.86
 -11   0   1    0.47    1.00
 -11   0   1    0.70    1.36
  11   0  -1    1.41    0.89
 -11   0   1    2.98    1.48
  11   0  -1    1.39    1.42
 -10   0   1    0.97    0.77
  10   0  -1    0.91    0.81
  10   0  -1    0.69    0.73
 -10   0   1    2.32    1.10
  10   0  -1    1.34    1.22
 -10   0   1    1.07    1.15
  10   0  -1    1.31    0.78
  -9   0   1   10.52    0.94
   9   0  -1    9.52    0.94
  -9   0   1   11.44    1.29
   9   0  -1   10.64    1.09
   9   0  -1   11.80    0.98
   9   0  -1   10.83    1.33
  -9   0   1    8.91    1.13
  -8   0   1   15.17    1.46
   8   0  -1   16.43    1.79
   8   0  -1   15.51    1.05
   8   0  -1   15.13    1.15
  -8   0   1   17.54    1.64
  -8   0   1   17.23    1.13
   8   0  -1   17.24    1.23
   7   0  -1    8.84    0.70
   7   0  -1    7.87    0.68
  -7   0   1    9.10    0.82
   7   0  -1    7.75    0.94
  -7   0   1    8.36    0.90
  -7   0   1    8.23    0.67
   7   0  -1    7.11    0.76
  -6   0   1  130.03    5.22
  -6   0   1  135.17    5.11
  -6   0   1  133.20    5.17
   6   0  -1  135.41    5.11
   6   0  -1  134.84    5.14
   6   0  -1  131.72    5.11
   6   0  -1  133.12    5.22
   5   0  -1   29.72    1.33
   5   0  -1   31.41    1.36
   5   0  -1   29.48    1.53
  -5   0   1   31.70    1.37
  -5   0   1   31.97    1.43
  -5   0   1   30.08    1.56
   5   0  -1   30.66    1.37
   4   0  -1   79.04    3.10
  -4   0   1   82.24    3.13
  -4   0   1   82.52    3.20
  -4   0   1   80.96    3.10
   4   0  -1   79.26    3.11
   4   0  -1   78.56    3.18
   3   0  -1    1.59    0.26
   3   0  -1    1.71    0.27
   3   0  -1    1.45    0.23
  -3   0   1    2.04    0.42
  -3   0   1    1.56    0.28
   3   0  -1    1.70    0.39
  -3   0   1    1.78    0.30
  -2   0   1    2.80    0.30
   2   0  -1    2.27    0.23
  -2   0   1    2.33    0.24
   2   0  -1    2.55    0.30
   2   0  -1    2.64    0.22
   2   0  -1    1.87    0.20
  -2   0   1    2.60    0.30
  -1   0  -1   17.63    0.79
   1   0   1   19.80    0.77
   1   0   1   17.72    0.79
  -2   0  -1  942.36   35.76
  -2   0  -1  968.92   35.75
   2   0   1  911.57   35.79
  -2   0  -1  976.12   35.78
   2   0   1  957.83   35.75
   2   0   1 1000.00   35.77
  -3   0  -1    9.05    0.68
   3   0   1    8.62    0.60
   3   0   1    9.74    0.80
  -3   0  -1    9.70    0.77
  -3   0  -1    9.23    0.55
   3   0   1    8.76    0.66
  -4   0  -1   51.33    2.11
   4   0   1   50.46    2.01
   4   0   1   49.04    2.07
  -4   0  -1   51.48    2.12
  -4   0  -1   50.84    2.00
  -5   0  -1   61.92    2.56
   5   0   1   62.37    2.47
  -5   0  -1   62.15    2.45
   5   0   1   59.97    2.52
  -5   0  -1   62.81    2.58
   5   0   1   61.06    2.61
  -6   0  -1  120.64    4.81
   6   0   1  122.07    4.71
   6   0   1  124.15    4.83
  -6   0  -1  119.70    4.80
   6   0   1  120.30    4.75
  -6   0  -1  125.87    4.69
   7   0   1    4.64    0.63
   7   0   1    4.21    0.56
  -7   0  -1    4.88    0.60
  -7   0  -1    4.15    0.86
  -7   0  -1    3.72    0.80
   7   0   1    4.35    0.81
  -8   0  -1   49.59    2.22
   8   0   1   53.23    2.26
   8   0   1   50.37    2.29
   8   0   1   49.08    2.59
  -8   0  -1   48.87    2.50
  -8   0  -1   49.75    2.59
   9   0   1   27.26    1.68
  -9   0  -1   26.83    2.12
   9   0   1   28.17    1.64
   9   0   1   28.22    2.31
  -9   0  -1   25.99    2.33
   9   0   1   24.92    1.70
  -9   0  -1   26.50    1.64
 -10   0  -1    5.17    0.99
 -10   0  -1    5.79    1.36
  10   0   1    5.44    0.97
 -10   0  -1    5.30    1.39
  10   0   1    6.45    0.96
  10   0   1    6.08    0.97
  10   0   1    6.74    1.40
  11   0   1    1.84    1.50
  11   0   1    2.01    1.06
 -11   0  -1    1.76    1.48
  11   0   1    2.22    1.06
  11   0   1    0.81    1.04
 -11   0  -1    0.07    1.08
 -11   0  -1    0.51    1.59
 -12   0  -1   11.82    1.93
  12   0   1   14.38    1.58
 -12   0  -1   15.63    2.22
  12   0   1   12.86    1.49
  12   0   1   17.88    1.88
  12   0   1   13.25    1.63
 -12   0  -1   13.65    1.53
 -13   0  -1    5.85    1.67
 -13   0  -1    5.98    2.18
  13   0   1    6.49    1.79
 -13   0  -1    6.30    2.64
  13   0   1    8.45    2.11
  13   0   1    6.70    1.55
  13   0   1    9.06    1.69
  14   0   1   -0.40    2.87
  14  -1  -1   14.26    2.16
  14  -1  -1   19.70    2.80
 -14  -1   1   21.79    3.51
  14  -1  -1   15.23    1.96
 -14  -1   1   18.19    3.77
 -14  -1   1   15.71    2.44
  14  -1  -1   18.36    2.15
  14   1  -1   19.53    2.00
 -14   1   1   14.55    2.64
  14   1  -1   15.99    2.25
 -14   1   1   14.39    2.22
  14   1  -1   18.39    2.56
  13  -1  -1    2.22    1.82
  13  -1  -1    0.40    1.36
  13  -1  -1    6.25    1.55
  13  -1  -1    0.45    1.44
 -13  -1   1   -0.26    1.79
 -13  -1   1    4.51    2.45
 -13  -1   1   -0.77    1.77
 -13   1   1   -0.81    2.35
  13   1  -1    1.97    1.49
 -13   1   1    3.10    1.59
  13   1  -1   -0.70    1.38
 -13   1   1   -0.28    2.03
  13   1  -1    0.69    1.96
 -12  -1   1    2.29    1.51
  12  -1  -1    1.01    1.17
  12  -1  -1    0.32    1.19
  12  -1  -1    1.49    1.15
 -12  -1   1    1.20    1.40
 -12  -1   1    0.62    1.85
  12  -1  -1    1.44    1.57
  12   1  -1    0.50    1.61
 -12   1   1   -0.11    1.55
  12   1  -1    0.82    1.07
 -12   1   1    1.25    1.18
  12   1  -1    0.52    1.09
  12   1  -1    1.74    1.30
 -12   1   1    1.85    1.82
  11  -1  -1    2.86    1.04
 -11  -1   1    4.50    1.21
 -11  -1   1    3.41    1.50
  11  -1  -1    3.32    1.10
  11  -1  -1    4.72    1.60
 -11  -1   1    4.16    1.38
  11   1  -1    4.71    1.57
 -11   1   1    2.68    1.41
  11   1  -1    3.24    0.98
  11   1  -1    2.86    1.13
 -11   1   1    2.68    1.48
  11   1  -1    3.86    1.02
 -11   1   1    2.89    1.06
 -10  -1   1    8.83    1.12
  10  -1  -1    8.00    1.01
 -10  -1   1   10.38    1.47
  10  -1  -1   11.63    1.15
 -10  -1   1    9.57    1.24
  10  -1  -1    7.69    1.45
  10   1  -1    8.92    1.31
 -10   1   1    9.14    1.41
  10   1  -1    9.67    1.01
  10   1  -1   12.73    1.17
 -10   1   1    9.28    1.31
  10   1  -1    8.26    1.02
 -10   1   1    9.86    1.02
   9  -1  -1   32.43    2.39
  -9  -1   1   34.10    2.08
  -9  -1   1   34.62    1.90
  -9  -1   1   32.70    2.37
   9  -1  -1   33.14    1.80
   9  -1  -1   31.77    1.79
  -9   1   1   34.10    2.19
   9   1  -1   33.13    1.87
  -9   1   1   31.27    2.24
   9   1  -1   33.81    1.84
  -9   1   1   30.90    1.77
   9   1  -1   32.64    2.14
   9   1  -1   34.59    1.72
  -8  -1   1    4.04    0.96
   8  -1  -1    4.62    0.72
  -8  -1   1    5.63    0.82
  -8  -1   1    4.73    0.69
   8  -1  -1    5.53    1.12
   8  -1  -1    4.57    0.69
   8   1  -1    5.83    0.75
  -8   1   1    4.44    0.88
   8   1  -1    5.02    0.67
  -8   1   1    4.02    0.86
   8   1  -1    5.33    0.70
   8   1  -1    3.92    0.94
  -8   1   1    3.67    0.63
  -7  -1   1   63.55    2.91
  -7  -1   1   66.48    2.80
   7  -1  -1   66.82    2.76
   7  -1  -1   64.94    3.03
   7  -1  -1   63.91    2.73
  -7  -1   1   65.65    2.72
   7   1  -1   67.31    2.93
   7   1  -1   70.07    2.73
  -7   1   1   64.41    2.92
   7   1  -1   66.11    2.74
  -7   1   1   66.71    2.87
   7   1  -1   68.66    2.77
  -7   1   1   67.77    2.71
   6  -1  -1   54.56    2.21
   6  -1  -1   51.41    2.44
  -6  -1   1   55.22    2.19
  -6  -1   1   52.03    2.37
  -6  -1   1   53.73    2.23
   6  -1  -1   51.34    2.23
   6   1  -1   51.85    2.22
  -6   1   1   52.95    2.19
  -6   1   1   52.55    2.32
   6   1  -1   54.35    2.20
   6   1  -1   52.41    2.36
  -6   1   1   48.91    2.34
   6   1  -1   54.69    2.19
  -5  -1   1   29.99    1.31
  -5  -1   1   27.76    1.28
  -5  -1   1   26.60    1.46
   5  -1  -1   29.16    1.55
   5  -1  -1   29.42    1.30
  -5  -1   1   26.75    1.30
   5  -1  -1   27.26    1.32
   5   1  -1   26.29    1.44
  -5   1   1   28.40    1.46
   5   1  -1   27.91    1.30
  -5   1   1   29.02    1.40
  -5   1   1   28.61    1.29
   5   1  -1   29.97    1.28
   5   1  -1   27.30    1.30
  -4  -1   1   14.39    0.75
   4  -1  -1   13.55    0.81
  -4  -1   1   14.17    0.78
  -4  -1   1   12.70    0.79
  -4  -1   1   12.75    1.00
   4  -1  -1   14.72    1.08
   4  -1  -1   14.46    0.78
   4   1  -1   13.15    1.03
  -4   1   1   13.93    0.87
   4   1  -1   14.04    0.79
  -4   1   1   14.52    0.77
  -4   1   1   13.76    0.95
   4   1  -1   13.60    0.81
   3  -1  -1  259.47    9.95
  -3  -1   1  261.43    9.93
  -3  -1   1  281.97    9.93
   3  -1  -1  269.73    9.94
  -3  -1   1  267.47    9.97
  -3  -1   1  252.94    9.98
   3  -1  -1  278.70    9.99
   3   1  -1  256.21    9.98
  -3   1   1  267.73    9.98
   3   1  -1  261.38    9.97
  -3   1   1  273.75    9.94
   3   1  -1  260.06    9.93
  -3   1   1  259.74    9.95
   2  -1  -1   50.03    2.01
  -2  -1   1   49.32    2.03
   2  -1  -1   55.92    2.13
  -2  -1   1   50.01    2.15
  -2  -1   1   50.54    2.05
   2  -1  -1   54.96    2.02
   2   1  -1   51.85    2.04
   2   1  -1   52.58    2.05
  -2   1   1   55.78    2.08
   2   1  -1   50.74    2.13
  -2   1   1   50.00    2.01
  -2   1   1   52.40    2.02
  -1  -1   1  217.10    8.08
  -1  -1   1  216.38    8.10
   1  -1  -1  198.99    8.06
  -1  -1   1  210.55    8.13
   1  -1  -1  207.09    8.07
   1  -1  -1  232.49    8.10
  -1   1   1  203.99    8.07
  -1   1   1  232.20    8.09
   1   1  -1  216.66    8.10
  -1   1   1  211.02    8.05
   1   1  -1  215.63    8.13
  -1   1   1  226.81    8.06
   1   1  -1  218.33    8.08
   0  -1  -1   87.83    3.45
   0  -1   1   95.37    3.49
   0  -1   1   85.09    3.44
   0   1  -1   90.67    3.47
   0   1  -1   97.64    3.50
   0   1   1   87.45    3.45
   0   1   1   92.00    3.46
   0   1  -1   94.17    3.45
   0   1  -1   92.23    3.48
   0   1  -1   90.18    3.55
   1  -1   1  297.65   10.60
  -1  -1  -1  257.95   10.60
  -1  -1  -1  274.63   10.60
   1  -1   1  285.14   10.59
  -1  -1  -1  266.57   10.56
   1  -1   1  301.39   10.64
  -1   1  -1  291.81   10.63
   1   1   1  278.77   10.57
   1   1   1  274.13   10.60
  -1   1  -1  303.11   10.61
  -1   1  -1  294.42   10.59
   1   1   1  278.26   10.61
  -2  -1  -1   98.81    3.99
   2  -1   1  107.87    4.09
  -2  -1  -1  103.72    3.98
   2  -1   1  108.09    4.02
  -2  -1  -1  105.65    4.03
   2  -1   1  102.90    4.03
  -2  -1  -1  101.91    4.03
   2   1   1  102.47    4.02
   2   1   1  103.12    3.98
   2   1   1  104.93    4.04
  -2   1  -1  107.55    4.01
  -2   1  -1  111.49    4.06
  -2   1  -1  112.51    4.09
   2   1   1  111.22    4.00
  -3  -1  -1   77.80    3.08
  -3  -1  -1   79.32    3.01
   3  -1   1   79.38    3.08
   3  -1   1   79.76    3.05
   3  -1   1   75.93    3.14
  -3  -1  -1   82.50    3.05
   3   1   1   76.51    3.01
  -3   1  -1   75.30    3.03
   3   1   1   77.59    3.07
   3   1   1   79.26    3.08
  -3   1  -1   83.10    3.12
  -3   1  -1   75.63    3.11
   3   1   1   82.25    3.04
  -4  -1  -1    7.86    0.82
   4  -1   1    8.95    0.73
  -4  -1  -1    9.55    0.76
  -4  -1  -1    8.06    0.63
   4  -1   1    8.47    0.77
   4  -1   1    6.98    0.72
   4   1   1    7.54    0.65
  -4   1  -1    7.53    0.64
   4   1   1    7.41    0.64
  -4   1  -1    6.70    0.75
   4   1   1    7.89    0.91
   4   1   1    7.37    0.62
  -4   1  -1    8.13    0.70
   5  -1   1   29.98    1.39
  -5  -1  -1   33.23    1.49
  -5  -1  -1   29.56    1.35
  -5  -1  -1   28.61    1.54
   5  -1   1   28.92    1.67
   5  -1   1   27.88    1.42
  -5   1  -1   28.96    1.52
   5   1   1   30.59    1.36
  -5   1  -1   30.24    1.36
   5   1   1   29.60    1.56
   5   1   1   30.00    1.38
  -5   1  -1   33.05    1.53
   5   1   1   30.73    1.42
  -6  -1  -1    9.93    0.68
   6  -1   1    9.37    0.99
   6  -1   1    8.41    0.92
  -6  -1  -1    9.69    1.12
  -6  -1  -1    9.00    0.79
   6  -1   1    8.85    0.91
   6   1   1    9.26    0.90
   6   1   1    8.76    0.84
  -6   1  -1    8.21    0.78
  -6   1  -1    8.53    0.88
  -6   1  -1    9.31    0.87
   6   1   1    9.24    0.88
   6   1   1   11.84    0.91
   7  -1   1   11.22    1.09
  -7  -1  -1   11.62    1.42
   7  -1   1   15.46    1.63
  -7  -1  -1   11.25    1.05
   7  -1   1   11.63    1.09
  -7  -1  -1   12.46    1.05
  -7   1  -1   12.74    1.00
  -7   1  -1   12.18    1.32
   7   1   1   11.45    1.05
   7   1   1   13.18    1.46
  -7   1  -1   13.47    1.49
   7   1   1   11.96    1.09
   7   1   1   14.02    1.04
   8  -1   1   10.04    0.90
   8  -1   1    8.26    0.89
  -8  -1  -1    9.22    1.10
  -8  -1  -1    9.13    1.07
  -8  -1  -1   10.67    0.86
   8  -1   1   10.51    1.31
   8   1   1    8.21    0.91
   8   1   1   11.79    1.24
  -8   1  -1    9.43    0.82
  -8   1  -1   10.82    1.21
   8   1   1    9.52    0.83
  -8   1  -1    8.89    1.11
   8   1   1   10.46    0.89
  -9  -1  -1    0.44    1.07
   9  -1   1    0.02    0.82
   9  -1   1    0.11    1.10
   9  -1   1   -0.58    0.75
  -9  -1  -1   -0.94    0.81
  -9  -1  -1   -0.60    1.06
   9   1   1   -0.70    0.68
  -9   1  -1    0.49    0.71
   9   1   1    1.15    0.81
   9   1   1   -0.64    1.13
  -9   1  -1   -0.49    1.13
   9   1   1   -0.73    0.64
  -9   1  -1    0.37    1.06
  10  -1   1    3.78    1.00
  10  -1   1    3.63    0.99
 -10  -1  -1    2.74    1.35
 -10  -1  -1    4.06    1.09
  10  -1   1    4.17    1.47
 -10  -1  -1    3.96    1.44
 -10   1  -1    1.85    1.36
 -10   1  -1    6.31    0.95
  10   1   1    3.83    1.41
  10   1   1    3.44    0.94
  10   1   1    3.46    0.93
  10   1   1    4.50    0.89
 -10   1  -1    4.69    1.37
 -11  -1  -1   26.13    2.20
 -11  -1  -1   23.41    2.64
  11  -1   1   22.14    2.08
 -11  -1  -1   24.04    1.79
  11  -1   1   24.42    2.02
  11  -1   1   17.90    2.07
  11   1   1   18.88    1.91
  11   1   1   22.08    2.06
  11   1   1   19.16    1.97
  11   1   1   23.03    1.99
 -11   1  -1   20.92    2.20
 -11   1  -1   20.70    2.01
 -11   1  -1   20.76    1.59
  12  -1   1    0.28    1.33
  12  -1   1    1.62    1.33
 -12  -1  -1    0.67    1.62
  12  -1   1    2.95    1.65
 -12  -1  -1    6.53    1.82
 -12  -1  -1    0.67    2.12
  12  -1   1   -0.39    1.47
 -12   1  -1    2.03    1.44
  12   1   1    2.07    1.22
  12   1   1    0.73    1.24
  12   1   1    1.70    1.36
  12   1   1    1.00    1.70
 -12   1  -1    1.57    1.89
 -12   1  -1    6.17    2.24
  13  -1   1    1.73    1.68
  13  -1   1    0.04    1.54
  13  -1   1    4.12    1.83
 -13  -1  -1    1.68    2.85
  13  -1   1    4.48    2.08
 -13  -1  -1    2.96    1.95
 -13  -1  -1    6.60    1.98
  13   1   1   -0.54    1.67
 -13   1  -1    1.22    2.10
  13   1   1    2.45    1.47
 -13   1  -1    2.07    2.70
  13   1   1    2.74    1.74
 -13   1  -1    3.18    1.75
  13   1   1    5.10    2.14
 -14  -1  -1    2.80    2.94
  14   1   1    3.13    2.91
  14  -2  -1    1.89    2.43
  14  -2  -1    1.28    2.54
  14  -2  -1    2.56    1.90
 -14  -2   1   -2.26    2.38
  14   2  -1    1.67    1.86
 -14   2   1   -1.25    2.34
  14   2  -1    1.73    2.58
  13  -2  -1    0.31    2.00
 -13  -2   1    0.32    1.97
  13  -2  -1   -0.71    1.48
  13  -2  -1    0.97    1.64
 -13  -2   1   -0.23    2.68
 -13  -2   1   -0.72    2.01
  13   2  -1   -0.56    1.46
 -13   2   1   -1.12    2.49
  13   2  -1   -0.49    1.67
  13   2  -1    7.26    2.23
 -13   2   1    0.72    1.78
 -13   2   1   -0.60    2.01
  12  -2  -1   34.69    2.64
  12  -2  -1   33.59    2.72
 -12  -2   1   34.01    3.01
 -12  -2   1   33.25    2.97
  12  -2  -1   34.58    2.57
 -12  -2   1   33.70    2.88
  12   2  -1   34.90    2.76
  12   2  -1   32.19    3.23
 -12   2   1   26.90    2.64
 -12   2   1   29.36    2.64
 -12   2   1   36.97    3.36
  12   2  -1   33.53    2.59
  11  -2  -1    4.05    1.59
  11  -2  -1    4.29    1.23
 -11  -2   1    4.76    1.34
 -11  -2   1    2.32    1.39
  11  -2  -1    2.62    1.17
 -11  -2   1    1.72    1.80
 -11   2   1    1.42    1.56
  11   2  -1    2.02    1.13
 -11   2   1    3.00    1.15
  11   2  -1    3.09    1.19
 -11   2   1    2.83    1.58
  11   2  -1    1.65    1.33
 -10  -2   1    8.70    1.28
  10  -2  -1   10.48    1.58
 -10  -2   1    9.07    1.22
 -10  -2   1    8.19    1.56
  10  -2  -1    9.42    1.13
  10  -2  -1    8.78    1.19
 -10   2   1    7.16    1.07
  10   2  -1    9.00    1.32
 -10   2   1    8.01    1.53
  10   2  -1    7.83    1.11
 -10   2   1    7.57    1.55
  10   2  -1    9.72    1.18
   9  -2  -1   20.46    1.63
  -9  -2   1   18.42    2.24
  -9  -2   1   18.81    1.71
   9  -2  -1   21.05    2.24
  -9  -2   1   21.03    1.81
   9  -2  -1   17.96    1.56
   9   2  -1   22.67    1.64
   9   2  -1   21.04    1.61
   9   2  -1   20.37    2.04
  -9   2   1   19.09    2.02
  -9   2   1   17.29    1.48
  -9   2   1   20.72    1.99
   8  -2  -1   19.14    1.36
   8  -2  -1   19.01    1.42
   8  -2  -1   18.65    1.96
  -8  -2   1   16.47    1.41
  -8  -2   1   19.03    1.91
  -8  -2   1   16.45    1.53
   8   2  -1   17.00    1.42
   8   2  -1   17.16    1.81
  -8   2   1   17.15    1.42
  -8   2   1   18.99    1.70
   8   2  -1   17.34    1.36
  -8   2   1   17.36    1.31
   7  -2  -1   14.65    1.73
  -7  -2   1   15.96    1.23
   7  -2  -1   14.58    1.19
  -7  -2   1   15.59    1.73
  -7  -2   1   14.56    1.28
  -7  -2   1   17.93    1.33
   7  -2  -1   15.75    1.25
   7   2  -1   16.18    1.20
   7   2  -1   17.48    1.57
  -7   2   1   14.93    1.08
  -7   2   1   15.55    1.43
   7   2  -1   17.00    1.20
  -7   2   1   15.61    1.47
  -6  -2   1   38.85    2.16
  -6  -2   1   39.95    1.83
   6  -2  -1   37.75    2.28
   6  -2  -1   40.69    1.83
  -6  -2   1   40.31    1.77
   6  -2  -1   37.21    1.82
  -6  -2   1   41.33    1.79
   6   2  -1   38.18    2.02
   6   2  -1   41.34    1.83
  -6   2   1   38.04    1.93
  -6   2   1   39.43    1.77
   6   2  -1   39.37    1.84
  -6   2   1   36.39    1.94
   5  -2  -1   12.36    1.01
  -5  -2   1   10.88    1.26
   5  -2  -1   11.46    0.91
  -5  -2   1   10.32    0.86
  -5  -2   1    9.45    0.96
   5  -2  -1    9.67    0.88
  -5  -2   1   10.68    0.79
   5   2  -1   10.08    0.88
   5   2  -1    9.24    0.88
  -5   2   1   11.00    1.08
  -5   2   1   10.40    1.01
   5   2  -1    9.15    0.86
  -5   2   1   10.68    0.81
   4  -2  -1   24.27    1.52
  -4  -2   1   25.03    1.13
  -4  -2   1   24.65    1.22
  -4  -2   1   25.56    1.28
   4  -2  -1   23.16    1.20
  -4  -2   1   22.98    1.52
   4  -2  -1   24.93    1.21
   4   2  -1   26.16    1.44
  -4   2   1   24.76    1.27
  -4   2   1   23.70    1.40
   4   2  -1   24.87    1.24
  -4   2   1   22.86    1.16
   4   2  -1   26.73    1.25
   3  -2  -1   27.32    1.19
  -3  -2   1   24.96    1.22
   3  -2  -1   25.45    1.40
  -3  -2   1   24.53    1.21
  -3  -2   1   23.15    1.48
   3  -2  -1   24.63    1.16
  -3   2   1   25.21    1.20
   3   2  -1   25.56    1.51
   3   2  -1   25.60    1.24
   3   2  -1   26.30    1.23
  -3   2   1   27.31    1.17
  -3   2   1   25.52    1.38
   2  -2  -1   40.82    1.72
  -2  -2   1   39.33    1.70
   2  -2  -1   40.64    1.63
  -2  -2   1   37.05    1.94
  -2  -2   1   39.28    1.74
   2  -2  -1   45.22    1.69
   2  -2  -1   43.34    1.88
  -2   2   1   42.60    1.79
   2   2  -1   39.02    1.92
   2   2  -1   40.53    1.73
  -2   2   1   40.61    1.66
  -2   2   1   40.65    1.66
   2   2  -1   40.97    1.74
   1  -2  -1   13.12    0.98
   1  -2  -1   13.46    0.68
  -1  -2   1   13.36    0.89
   1  -2  -1   12.81    0.77
  -1  -2   1   12.75    1.18
  -1  -2   1   13.59    0.82
  -1   2   1   13.20    0.97
   1   2  -1   12.63    1.24
  -1   2   1   11.36    0.71
  -1   2   1   13.58    0.72
   1   2  -1   12.33    0.80
   1   2  -1   12.36    0.86
   0  -2   1   60.90    2.37
   0  -2  -1   59.11    2.32
   0   2  -1   58.77    2.35
   0   2   1   57.14    2.37
   0   2  -1   56.85    2.57
   0   2  -1   60.15    2.36
   0   2  -1   58.76    2.29
   0   2  -1   60.72    2.42
   0   2   1   54.23    2.47
   0   2   1   55.37    2.33
   0   2   1   57.58    2.32
   1  -2   1   69.25    2.74
  -1  -2  -1   71.63    2.72
   1  -2   1   68.68    2.69
   1  -2   1   67.32    2.83
   1  -2   1   68.92    2.66
  -1   2  -1   67.99    2.67
   1   2   1   66.91    2.68
  -1   2  -1   69.79    2.67
   1   2   1   69.88    2.73
   1   2   1   63.32    2.80
  -1   2  -1   70.63    2.79
   2  -2   1  165.93    6.19
  -2  -2  -1  150.20    6.25
   2  -2   1  168.32    6.31
   2  -2   1  165.62    6.19
  -2  -2  -1  151.17    6.15
  -2  -2  -1  171.14    6.24
  -2   2  -1  161.34    6.27
  -2   2  -1  168.40    6.20
  -2   2  -1  166.02    6.19
   2   2   1  160.80    6.24
   2   2   1  166.59    6.16
   2   2   1  164.56    6.24
   3  -2   1    6.18    0.73
  -3  -2  -1    6.25    0.74
  -3  -2  -1    6.62    0.68
  -3  -2  -1    6.12    0.72
   3  -2   1    7.54    0.60
   3  -2   1    8.57    0.90
   3   2   1    6.88    0.65
  -3   2  -1    7.17    0.72
  -3   2  -1    6.38    0.64
  -3   2  -1    8.08    0.70
   3   2   1    5.49    0.67
   3   2   1    6.20    0.66
  -4  -2  -1    2.07    0.44
   4  -2   1    1.88    0.48
   4  -2   1    2.52    0.46
   4  -2   1    1.89    0.72
  -4  -2  -1    2.13    0.44
  -4  -2  -1    1.62    0.69
  -4  -2  -1    2.48    0.48
   4   2   1    1.71    0.58
   4   2   1    2.49    0.33
   4   2   1    2.22    0.45
  -4   2  -1    2.51    0.43
   4   2   1    2.44    0.44
  -4   2  -1    4.83    0.71
  -4   2  -1    2.75    0.66
   5  -2   1    8.12    0.74
  -5  -2  -1    8.85    0.97
  -5  -2  -1    9.47    0.88
   5  -2   1    9.63    1.02
  -5  -2  -1    8.54    0.90
   5  -2   1    8.53    0.73
  -5  -2  -1    8.15    0.81
  -5   2  -1    8.50    0.88
   5   2   1    8.93    0.89
  -5   2  -1    8.17    0.84
   5   2   1    8.58    0.65
   5   2   1    8.31    0.70
  -5   2  -1    9.21    0.92
   5   2   1    9.89    1.11
   6  -2   1  136.51    5.31
   6  -2   1  131.87    5.33
  -6  -2  -1  135.10    5.43
  -6  -2  -1  139.24    5.24
   6  -2   1  130.96    5.52
  -6  -2  -1  137.56    5.29
  -6   2  -1  125.39    5.40
   6   2   1  141.45    5.37
   6   2   1  143.46    5.24
   6   2   1  140.04    5.23
  -6   2  -1  135.71    5.42
  -6   2  -1  135.75    5.27
   6   2   1  135.16    5.36
   7  -2   1   14.78    1.27
  -7  -2  -1   14.26    1.27
   7  -2   1   12.41    1.23
  -7  -2  -1   13.04    1.35
   7  -2   1   18.03    1.40
  -7  -2  -1   14.31    1.23
  -7   2  -1   12.48    1.49
   7   2   1   14.85    1.22
  -7   2  -1   13.64    1.11
   7   2   1   13.35    1.59
   7   2   1   14.65    1.06
  -7   2  -1   14.50    1.30
   7   2   1   13.63    1.25
   8  -2   1   42.83    2.13
   8  -2   1   40.75    2.64
  -8  -2  -1   43.88    2.29
   8  -2   1   41.66    2.17
  -8  -2  -1   43.18    2.12
  -8  -2  -1   39.25    2.52
  -8   2  -1   40.23    2.49
  -8   2  -1   44.52    2.54
   8   2   1   43.44    2.36
  -8   2  -1   39.64    2.06
   8   2   1   36.09    2.17
   8   2   1   42.70    2.09
   8   2   1   43.19    2.01
  -9  -2  -1   19.33    1.75
   9  -2   1   18.36    1.75
   9  -2   1   20.22    1.69
   9  -2   1   17.33    1.68
  -9  -2  -1   18.24    1.78
  -9  -2  -1   18.32    2.01
  -9   2  -1   17.50    1.64
   9   2   1   18.79    1.74
  -9   2  -1   18.17    1.67
   9   2   1   19.58    1.47
  -9   2  -1   20.87    1.62
   9   2   1   19.56    1.55
   9   2   1   17.45    1.64
  10  -2   1   13.02    1.35
  10  -2   1   17.19    1.51
 -10  -2  -1   15.29    1.44
  10  -2   1   12.35    1.77
 -10  -2  -1   13.54    1.54
 -10  -2  -1   13.33    1.75
 -10   2  -1   13.91    1.26
  10   2   1   18.91    1.84
  10   2   1   13.06    1.73
 -10   2  -1   12.17    1.62
  10   2   1   11.85    1.11
 -10   2  -1   14.50    1.78
  10   2   1   15.50    1.88
 -11  -2  -1    5.18    1.62
 -11  -2  -1    5.89    1.95
  11  -2   1    6.72    1.31
 -11  -2  -1    6.65    1.54
  11  -2   1   10.84    1.87
  11  -2   1    4.12    1.29
 -11   2  -1    5.45    1.34
 -11   2  -1    3.84    1.68
  11   2   1    7.53    1.27
  11   2   1    6.52    1.21
  11   2   1    5.36    1.59
  11   2   1    7.09    1.47
 -11   2  -1    7.76    1.84
  12  -2   1    2.70    1.54
 -12  -2  -1    2.54    1.88
  12  -2   1    1.25    2.10
 -12  -2  -1    0.62    1.83
  12  -2   1    1.05    1.42
 -12  -2  -1    8.29    2.48
  12   2   1    2.80    1.54
 -12   2  -1    5.64    2.17
  12   2   1    2.80    1.84
  12   2   1    1.02    1.30
 -12   2  -1    1.32    1.57
  12   2   1    1.57    1.43
 -12   2  -1    2.39    2.37
  13  -2   1   10.91    1.86
 -13  -2  -1   10.04    3.18
 -13  -2  -1    8.72    2.29
  13  -2   1   10.64    2.60
  13   2   1   11.40    2.23
  13   2   1    6.97    1.56
 -14  -2  -1    0.73    2.82
 -14  -3   1    6.60    2.76
  14  -3  -1    8.94    2.38
  13  -3  -1    2.25    1.86
  13  -3  -1    5.97    2.16
 -13  -3   1    6.28    2.30
 -13  -3   1    4.47    4.74
  13  -3  -1    3.98    2.61
  13   3  -1    1.77    2.22
 -13   3   1    0.83    2.53
 -13   3   1    3.40    2.16
  13   3  -1    1.00    1.74
  12  -3  -1    3.08    1.70
 -12  -3   1    5.67    3.18
  12  -3  -1    2.43    2.27
 -12  -3   1    2.92    2.07
 -12  -3   1    1.82    1.70
  12  -3  -1    3.47    1.55
  12   3  -1    1.66    1.75
  12   3  -1    3.31    1.82
 -12   3   1    2.47    1.57
 -12   3   1    2.31    2.12
 -12   3   1    4.02    2.44
  12   3  -1    3.27    1.57
 -11  -3   1    7.72    2.59
  11  -3  -1    5.86    2.00
 -11  -3   1    1.93    1.44
  11  -3  -1    5.93    1.44
  11  -3  -1    6.72    1.42
 -11  -3   1    5.22    1.64
  11   3  -1    7.38    1.58
 -11   3   1    6.61    1.30
  11   3  -1    7.75    1.70
 -11   3   1    5.21    2.04
 -11   3   1    7.68    1.83
  11   3  -1    6.41    1.33
 -10  -3   1   11.77    1.47
 -10  -3   1   10.33    2.22
 -10  -3   1   10.91    1.45
  10  -3  -1    8.91    1.33
  10  -3  -1    8.21    1.25
 -10   3   1    9.85    1.75
 -10   3   1    9.77    1.25
  10   3  -1   10.06    1.43
  10   3  -1    9.26    1.46
  10   3  -1    9.98    1.28
 -10   3   1    9.22    1.76
   9  -3  -1   10.42    1.21
  -9  -3   1   10.17    1.88
  -9  -3   1   11.41    1.29
   9  -3  -1    9.70    1.65
  -9  -3   1   10.72    1.30
   9  -3  -1   11.67    1.27
   9   3  -1   11.74    1.18
   9   3  -1   12.55    1.41
   9   3  -1   11.79    1.32
  -9   3   1   10.76    1.11
  -9   3   1   11.84    1.51
  -9   3   1    9.14    1.50
   8  -3  -1    2.55    0.87
  -8  -3   1    3.41    1.61
   8  -3  -1    6.19    1.02
  -8  -3   1    4.74    1.05
  -8  -3   1    5.34    1.04
  -8  -3   1    4.50    0.99
   8  -3  -1    5.40    1.48
  -8   3   1    5.89    0.84
  -8   3   1    4.91    1.29
   8   3  -1    5.92    0.99
  -8   3   1    4.03    1.15
   8   3  -1    5.42    1.12
   8   3  -1    5.24    1.00
  -7  -3   1   52.68    2.69
  -7  -3   1   60.56    2.77
   7  -3  -1   57.66    2.65
   7  -3  -1   59.18    2.68
  -7  -3   1   57.73    3.39
   7  -3  -1   53.16    3.08
  -7  -3   1   61.88    2.63
  -7   3   1   61.30    2.80
  -7   3   1   54.33    2.57
   7   3  -1   62.85    2.75
  -7   3   1   56.28    2.86
   7   3  -1   60.44    2.71
   7   3  -1   62.66    2.95
  -6  -3   1    0.80    1.20
  -6  -3   1    2.22    0.78
   6  -3  -1    2.73    0.69
   6  -3  -1    2.75    1.04
   6  -3  -1    3.43    0.73
  -6  -3   1    3.38    0.76
  -6   3   1    2.64    0.66
   6   3  -1    3.11    0.98
  -6   3   1    2.59    0.83
   6   3  -1    2.78    0.68
   6   3  -1    2.82    0.75
  -6   3   1    1.65    0.85
   5  -3  -1    3.14    0.68
  -5  -3   1    3.42    1.10
   5  -3  -1    3.33    0.59
   5  -3  -1    2.36    1.02
  -5  -3   1    3.47    0.76
  -5  -3   1    3.78    0.69
  -5   3   1    2.43    0.63
  -5   3   1    2.56    0.72
   5   3  -1    2.94    0.70
   5   3  -1    3.81    0.70
   5   3  -1    3.88    0.98
  -5   3   1    3.35    0.81
  -4  -3   1    0.48    0.57
   4  -3  -1   -0.38    0.90
  -4  -3   1    0.36    0.95
   4  -3  -1    0.25    0.55
  -4  -3   1    0.63    0.58
   4  -3  -1    0.15    0.45
   4  -3  -1    0.56    0.61
  -4   3   1    0.26    0.72
   4   3  -1   -0.27    0.50
  -4   3   1    0.07    0.43
   4   3  -1    0.21    0.66
  -4   3   1    0.07    0.56
   4   3  -1    0.34    0.86
   3  -3  -1   55.22    2.25
   3  -3  -1   53.35    2.18
   3  -3  -1   51.43    2.52
  -3  -3   1   50.49    2.60
  -3  -3   1   54.34    2.33
   3  -3  -1   53.98    2.33
  -3  -3   1   54.26    2.29
  -3   3   1   54.30    2.24
   3   3  -1   54.42    2.31
  -3   3   1   50.68    2.21
   3   3  -1   52.46    2.56
  -3   3   1   51.91    2.42
   3   3  -1   54.66    2.36
   2  -3  -1    9.77    0.87
   2  -3  -1    9.88    0.93
  -2  -3   1   11.94    1.01
   2  -3  -1    9.73    0.94
  -2  -3   1   11.63    1.12
   2   3  -1   11.19    0.93
  -2   3   1   11.23    1.17
   2   3  -1   11.28    1.07
  -2   3   1    9.99    0.75
   2   3  -1   10.12    1.08
  -1  -3   1   76.23    3.18
   1  -3  -1   77.76    3.14
   1   3  -1   78.16    3.18
  -1   3   1   78.47    3.06
   1   3  -1   78.47    3.07
   1   3  -1   75.58    3.21
   1   3  -1   78.58    3.17
  -1   3   1   80.27    3.22
   1   3  -1   77.76    3.53
  -1   3   1   75.43    3.13
   0  -3   1    2.41    0.56
   0  -3  -1    2.59    0.53
   0   3  -1    2.48    0.43
   0   3  -1    2.64    0.62
   0   3   1    2.50    0.52
   0   3  -1    2.15    0.95
   0   3  -1    1.68    0.64
   0   3   1    2.22    0.40
   0   3   1    2.90    0.61
   0   3   1    2.82    0.64
   0   3   1    1.52    0.82
   0   3  -1    2.62    0.50
  -1  -3  -1   30.23    1.51
   1  -3   1   31.68    1.59
  -1   3  -1   30.82    1.76
  -1   3  -1   30.12    1.41
   1   3   1   32.72    1.63
   1   3   1   31.71    1.39
   1   3   1   31.25    1.53
  -1   3  -1   30.30    1.68
  -1   3  -1   28.84    2.27
   1   3   1   28.83    1.90
   1   3   1   30.47    1.52
   2  -3   1   34.95    1.77
   2  -3   1   30.67    1.98
  -2  -3  -1   33.10    1.68
   2  -3   1   34.86    1.63
   2  -3   1   35.81    1.57
   2   3   1   35.12    1.64
   2   3   1   34.37    1.66
  -2   3  -1   35.17    1.81
  -2   3  -1   35.06    1.56
   2   3   1   39.53    1.99
   3  -3   1   15.85    1.12
  -3  -3  -1   15.51    1.15
  -3  -3  -1   14.07    1.58
   3  -3   1   16.78    1.21
   3  -3   1   15.26    1.69
   3  -3   1   17.06    1.07
  -3  -3  -1   18.06    1.20
  -3   3  -1   15.99    1.34
  -3   3  -1   16.58    1.02
   3   3   1   18.19    1.54
   3   3   1   18.36    1.12
   3   3   1   18.37    1.11
  -4  -3  -1    9.62    1.13
  -4  -3  -1    8.91    0.75
   4  -3   1    8.09    0.96
   4  -3   1   10.62    1.18
   4  -3   1   10.37    0.81
  -4  -3  -1    9.46    1.18
  -4   3  -1    7.53    0.87
   4   3   1   10.06    1.04
  -4   3  -1    9.53    0.95
  -4   3  -1    8.93    0.91
   4   3   1   10.03    1.00
   4   3   1    9.16    0.97
  -5  -3  -1   19.01    1.37
   5  -3   1   16.78    1.38
  -5  -3  -1   16.93    1.26
   5  -3   1   17.38    1.98
  -5  -3  -1   16.88    1.97
   5  -3   1   16.98    1.24
  -5   3  -1   14.63    1.13
  -5   3  -1   15.28    1.43
   5   3   1   15.57    1.59
   5   3   1   17.53    1.29
  -5   3  -1   13.33    1.58
   5   3   1   15.20    1.22
  -6  -3  -1    9.76    1.00
   6  -3   1   10.38    0.99
   6  -3   1    8.28    0.90
   6  -3   1   11.03    1.46
  -6  -3  -1    9.32    0.88
  -6  -3  -1    8.51    1.38
   6   3   1    8.34    0.96
   6   3   1   10.12    1.10
   6   3   1    9.88    0.91
  -6   3  -1    9.80    1.24
  -6   3  -1    9.91    1.21
  -6   3  -1    9.84    0.89
   7  -3   1   11.16    1.12
  -7  -3  -1   12.02    1.60
   7  -3   1   10.24    1.06
  -7  -3  -1   11.00    1.10
  -7  -3  -1   10.43    1.04
  -7  -3  -1    9.26    1.21
   7  -3   1   11.01    1.62
  -7   3  -1   11.03    1.26
   7   3   1   12.92    1.18
  -7   3  -1   12.19    0.98
  -7   3  -1   11.06    1.30
   7   3   1   11.47    1.13
   7   3   1   12.76    0.98
  -8  -3  -1    2.56    1.03
  -8  -3  -1    3.71    1.68
   8  -3   1    3.94    1.02
   8  -3   1    4.49    1.06
   8  -3   1    4.73    1.57
  -8  -3  -1    4.27    1.10
  -8   3  -1    4.65    1.26
   8   3   1    4.49    0.92
   8   3   1    3.68    1.09
   8   3   1    5.26    1.04
  -8   3  -1    3.26    1.36
  -8   3  -1    4.04    0.90
  -9  -3  -1    6.82    1.30
  -9  -3  -1    4.35    1.24
   9  -3   1    4.36    1.72
   9  -3   1    4.21    1.21
  -9  -3  -1    5.28    1.91
   9  -3   1    6.75    1.21
   9   3   1    5.43    1.02
  -9   3  -1    2.51    1.03
   9   3   1    5.27    1.18
   9   3   1    6.01    1.29
  -9   3  -1    4.03    1.57
  -9   3  -1    2.67    1.53
 -10  -3  -1    5.15    1.51
 -10  -3  -1    7.09    2.26
  10  -3   1    5.99    1.96
  10  -3   1    9.24    1.42
 -10  -3  -1    4.93    1.49
  10  -3   1    7.38    1.36
  10   3   1    7.23    1.50
 -10   3  -1    4.98    1.82
 -10   3  -1    2.42    1.61
  10   3   1    6.39    1.38
  10   3   1    4.56    1.15
 -10   3  -1    3.96    1.31
  11  -3   1   17.05    2.47
 -11  -3  -1   16.78    1.92
 -11  -3  -1   14.35    2.91
  11  -3   1   16.48    1.73
  11  -3   1   20.24    1.90
 -11  -3  -1   14.13    1.90
  11   3   1   15.93    1.58
  11   3   1   15.10    1.86
 -11   3  -1   11.93    2.29
 -11   3  -1   13.07    1.79
  11   3   1   16.29    1.97
 -11   3  -1   12.99    2.28
 -12  -3  -1   -0.83    3.52
  12  -3   1    0.27    2.55
 -12  -3  -1    2.36    2.16
  12  -3   1    0.78    1.72
  12  -3   1    0.22    1.72
  12   3   1    0.72    2.15
  12   3   1    0.52    1.53
 -12   3  -1    1.57    1.89
  12   3   1    1.48    2.15
 -12   3  -1    1.85    2.27
 -13  -3  -1   -0.31    2.77
  13  -3   1    2.65    1.99
  13   3   1    2.72    2.41
  13  -4  -1    3.64    2.34
 -13  -4   1   -0.95    2.66
  12  -4  -1   12.12    2.94
  12  -4  -1   13.33    2.36
 -12  -4   1   11.90    2.28
  12  -4  -1   15.79    2.22
  12   4  -1   13.74    2.30
  12   4  -1   14.99    2.29
 -12   4   1   11.31    2.14
 -12   4   1    6.97    2.76
  11  -4  -1    0.61    1.68
  11  -4  -1   11.27    2.52
  11  -4  -1    0.01    1.70
 -11  -4   1    2.30    2.17
 -11  -4   1    6.58    3.63
 -11   4   1    1.24    1.69
  11   4  -1    1.75    1.77
  11   4  -1    1.15    1.56
 -11   4   1    0.66    2.13
 -11   4   1    1.68    2.46
  11   4  -1   -0.46    1.76
 -10  -4   1   21.25    2.10
  10  -4  -1   19.54    1.87
 -10  -4   1   20.47    3.38
  10  -4  -1   17.83    2.57
  10  -4  -1   18.52    1.88
 -10   4   1   19.40    1.72
 -10   4   1   10.13    1.98
  10   4  -1   18.84    1.67
 -10   4   1   20.56    2.29
  10   4  -1   16.66    1.92
  10   4  -1   17.61    1.98
   9  -4  -1    9.28    2.16
  -9  -4   1   16.72    1.68
  -9  -4   1   16.24    2.80
   9  -4  -1   12.60    1.52
  -9  -4   1   11.51    1.72
   9  -4  -1   14.01    1.58
  -9   4   1   10.71    1.35
   9   4  -1   12.99    1.42
   9   4  -1   11.95    1.60
  -9   4   1    9.59    1.70
  -9   4   1   13.32    1.84
   9   4  -1   13.94    1.70
  -8  -4   1   16.07    1.58
   8  -4  -1   15.05    1.59
   8  -4  -1   15.81    1.58
   8  -4  -1   19.62    2.17
  -8  -4   1   16.81    2.34
  -8  -4   1   16.18    1.62
   8  -4  -1   16.70    1.46
   8   4  -1   16.13    1.63
  -8   4   1   14.37    1.70
   8   4  -1   18.47    1.50
  -8   4   1   10.79    1.51
  -8   4   1   18.38    1.83
   8   4  -1   17.27    1.73
   7  -4  -1    2.27    0.92
   7  -4  -1    1.89    1.12
  -7  -4   1    1.40    1.03
   7  -4  -1    1.65    1.67
  -7  -4   1    4.17    1.85
  -7  -4   1    2.45    1.22
   7  -4  -1    1.74    1.13
  -7   4   1    0.71    1.18
   7   4  -1    1.17    1.28
   7   4  -1    0.24    1.10
  -7   4   1    1.40    1.25
  -7   4   1    0.80    0.86
   7   4  -1    1.51    1.02
   6  -4  -1   17.33    1.80
  -6  -4   1   20.05    1.88
  -6  -4   1   18.40    2.25
  -6  -4   1   17.30    1.86
   6  -4  -1   17.20    1.37
   6  -4  -1   18.05    1.49
   6  -4  -1   15.34    1.41
  -6   4   1   15.27    1.59
   6   4  -1   14.99    1.32
  -6   4   1   15.09    1.23
   6   4  -1   16.71    1.72
   6   4  -1   16.57    1.70
  -5  -4   1   18.12    1.83
   5  -4  -1   18.14    1.68
   5  -4  -1   20.69    1.39
   5  -4  -1   19.66    1.80
  -5  -4   1   21.37    2.05
  -5  -4   1   18.42    1.74
   5  -4  -1   18.26    1.80
  -5   4   1   17.51    1.40
  -5   4   1   16.91    1.95
   5   4  -1   20.69    1.68
   5   4  -1   18.00    1.72
   4  -4  -1   18.48    1.64
  -4  -4   1   16.78    1.79
   4  -4  -1   15.98    1.25
  -4  -4   1   22.66    1.98
   4  -4  -1   15.74    1.46
  -4  -4   1   18.37    1.62
   4  -4  -1   18.10    1.62
  -4   4   1   18.38    1.26
  -4   4   1   17.90    1.82
   4   4  -1   18.80    1.56
   4   4  -1   20.22    1.70
   4   4  -1   19.47    1.66
   3  -4  -1    0.31    0.72
   3  -4  -1   -0.13    0.77
   3  -4  -1    1.22    1.15
  -3  -4   1   -0.23    0.76
  -3   4   1    1.53    0.85
   3   4  -1   -0.35    0.92
   3   4  -1    0.91    1.29
   3   4  -1   -0.45    0.69
   3   4  -1    0.69    0.81
  -3   4   1    0.02    0.53
   2  -4  -1    5.66    0.90
  -2  -4   1    6.01    0.96
   2   4  -1    4.91    0.91
   2   4  -1    5.52    0.66
   2   4  -1    4.71    1.31
  -2   4   1    6.73    0.69
   2   4  -1    6.42    0.94
   2   4  -1    6.26    0.84
  -2   4   1    5.68    0.98
  -1  -4   1   53.55    2.55
   1  -4  -1   53.39    2.49
   1   4  -1   51.57    2.45
  -1   4   1   54.94    3.06
  -1   4   1   52.06    2.40
  -1   4   1   53.49    2.28
  -1   4   1   54.37    2.64
   1   4  -1   54.14    2.62
   1   4  -1   53.51    2.32
   1   4  -1   53.19    3.23
  -1   4   1   53.55    2.58
   1   4  -1   52.93    2.58
   0  -4   1   23.82    1.62
   0  -4  -1   23.56    1.58
   0   4  -1   22.33    1.72
   0   4   1   23.20    1.68
   0   4   1   22.09    1.29
   0   4  -1   25.53    3.00
   0   4  -1   25.54    1.53
   0   4  -1   22.89    1.31
   0   4   1   23.86    2.79
   0   4   1   23.39    1.42
   0   4   1   24.70    1.71
   0   4  -1   25.89    1.80
  -1  -4  -1    1.49    0.71
   1  -4   1    1.04    0.79
  -1   4  -1    0.61    0.48
   1   4   1    0.15    0.81
   1   4   1    0.52    0.50
   1   4   1    0.98    1.30
  -1   4  -1    1.56    0.90
  -1   4  -1    1.07    1.67
   1   4   1    0.33    0.67
  -1   4  -1    1.15    0.99
   1   4   1    1.14    0.81
  -2  -4  -1   42.29    2.13
   2  -4   1   40.96    2.29
  -2   4  -1   41.44    1.92
  -2   4  -1   45.55    3.35
   2   4   1   44.27    2.17
   2   4   1   41.60    2.10
   2   4   1   42.41    1.93
  -2   4  -1   40.80    2.54
   2   4   1   43.48    2.73
  -2   4  -1   40.29    2.34
   2   4   1   40.41    2.23
   3  -4   1    7.00    0.85
  -3  -4  -1    4.98    0.92
   3  -4   1    5.10    1.19
   3  -4   1    4.10    0.71
   3  -4   1    4.85    1.01
   3   4   1    3.95    0.76
  -3   4  -1    4.41    0.95
   3   4   1    5.81    0.90
  -3   4  -1    1.85    0.67
  -3   4  -1    5.14    0.73
   3   4   1    4.82    0.67
   3   4   1    5.25    0.92
   3   4   1    3.84    1.20
   4  -4   1   -1.08    1.23
   4  -4   1    0.34    0.81
   4  -4   1   -0.39    0.85
  -4  -4  -1    0.61    0.88
   4  -4   1    1.12    0.68
  -4   4  -1    0.20    1.00
   4   4   1    0.56    1.23
  -4   4  -1    1.45    0.69
   4   4   1    0.59    0.80
   4   4   1    0.03    0.82
  -4   4  -1   -0.41    0.57
   5  -4   1    8.80    1.14
  -5  -4  -1    7.21    1.71
  -5  -4  -1    7.12    1.19
  -5  -4  -1    7.96    1.05
   5  -4   1    8.65    0.98
   5  -4   1    8.38    1.55
   5  -4   1    9.19    0.99
   5   4   1    7.25    0.93
   5   4   1   10.04    1.35
  -5   4  -1    5.13    1.21
   5   4   1    8.67    1.06
  -5   4  -1    9.43    0.93
   6  -4   1   20.41    2.11
   6  -4   1   21.26    1.71
   6  -4   1   19.58    1.88
  -6  -4  -1   22.16    1.59
  -6  -4  -1   23.96    1.96
  -6  -4  -1   26.41    2.31
   6  -4   1   22.09    2.04
   6   4   1   21.79    1.81
   6   4   1   22.13    2.08
   6   4   1   22.53    1.87
  -6   4  -1   21.24    2.31
  -6   4  -1   21.74    1.66
   7  -4   1    0.84    1.69
  -7  -4  -1    1.97    1.09
  -7  -4  -1    3.08    1.30
   7  -4   1    2.75    1.07
  -7  -4  -1    5.30    2.72
   7  -4   1    1.25    1.16
  -7   4  -1    1.58    1.16
   7   4   1    0.36    1.03
   7   4   1    0.12    1.03
  -7   4  -1    0.28    0.94
   7   4   1    1.60    1.24
  -7   4  -1    0.77    1.49
  -8  -4  -1   15.81    1.69
  -8  -4  -1   20.65    1.85
   8  -4   1   14.05    1.46
   8  -4   1   13.23    1.54
  -8  -4  -1   13.79    2.41
   8  -4   1   14.23    2.19
  -8   4  -1   12.02    1.80
   8   4   1   15.90    1.57
   8   4   1   14.79    1.56
   8   4   1   14.72    1.26
  -8   4  -1   13.10    1.36
  -9  -4  -1    9.20    1.79
   9  -4   1    6.40    2.37
   9  -4   1    7.52    1.59
  -9  -4  -1    7.63    2.73
   9  -4   1    8.87    1.56
   9   4   1    6.68    1.58
  -9   4  -1    3.68    1.72
  -9   4  -1    7.03    1.85
  -9   4  -1    6.48    1.36
   9   4   1    7.69    1.19
   9   4   1    7.65    1.59
  10  -4   1    5.01    2.68
  10  -4   1    0.53    1.55
 -10  -4  -1    0.88    3.36
 -10  -4  -1    1.13    1.98
  10  -4   1    2.41    1.73
 -10   4  -1    1.50    2.10
 -10   4  -1   -0.86    2.29
  10   4   1    1.59    1.25
 -10   4  -1    2.00    1.54
  10   4   1    1.35    1.64
  10   4   1    2.80    1.72
  11  -4   1    1.28    3.00
 -11  -4  -1    7.35    4.22
  11  -4   1    1.05    2.03
  11  -4   1    2.31    1.96
  11   4   1    3.21    1.49
 -11   4  -1   -2.30    2.36
 -11   4  -1    2.85    2.09
  11   4   1    1.63    1.86
  12  -4   1    2.54    2.35
  12   4   1    4.71    2.24
  12  -5  -1    1.91    2.61
 -12   5   1    4.26    3.97
  11  -5  -1   -0.70    3.56
  11  -5  -1    4.81    2.50
  11  -5  -1    4.05    2.59
  11  -5  -1    6.73    2.34
 -11   5   1    5.70    2.38
 -11   5   1   -0.73    2.62
 -10  -5   1   19.26    6.09
  10  -5  -1   13.34    2.20
  10  -5  -1   14.65    2.26
  10  -5  -1   15.34    2.28
  10  -5  -1   10.15    3.14
 -10   5   1    3.17    2.17
 -10   5   1   11.75    2.02
  10   5  -1    9.85    1.84
 -10   5   1   25.07    3.20
  10   5  -1    8.78    2.19
   9  -5  -1    1.12    2.50
  -9  -5   1    8.03    2.51
   9  -5  -1    5.94    1.99
  -9  -5   1    3.38    1.90
  -9  -5   1   11.76    4.56
   9  -5  -1    6.11    1.83
   9  -5  -1    6.84    1.97
   9   5  -1    4.33    1.88
  -9   5   1    6.23    2.41
   9   5  -1    4.75    1.80
   9   5  -1    6.41    1.98
  -9   5   1    2.60    1.98
  -9   5   1    3.24    1.63
   8  -5  -1   -0.13    1.44
  -8  -5   1    1.31    1.59
  -8  -5   1   -2.18    3.65
   8  -5  -1   -0.15    1.45
  -8  -5   1   -2.02    2.13
   8  -5  -1   -2.37    1.62
   8  -5  -1   -0.49    2.21
  -8   5   1   -1.60    1.78
  -8   5   1    1.51    1.39
  -8   5   1    0.34    1.58
   8   5  -1   -0.64    1.59
   8   5  -1    2.99    1.66
   8   5  -1    5.44    1.95
  -7  -5   1   22.46    2.27
   7  -5  -1   14.54    1.53
  -7  -5   1   21.47    2.47
  -7  -5   1   27.30    3.83
   7  -5  -1   16.62    2.29
   7  -5  -1   21.55    1.99
   7  -5  -1   19.34    1.69
   7   5  -1   20.13    1.81
  -7   5   1   18.70    2.10
  -7   5   1   22.30    1.73
   7   5  -1   22.02    2.25
   7   5  -1   18.80    1.94
   6  -5  -1    6.34    1.17
  -6  -5   1    7.04    1.53
   6  -5  -1    6.36    1.48
   6  -5  -1    8.95    2.01
   6  -5  -1    8.06    1.33
  -6   5   1    9.29    1.76
   6   5  -1    6.66    1.44
  -6   5   1    8.45    1.19
   6   5  -1    8.90    1.93
   6   5  -1    7.25    1.49
  -6   5   1    1.87    1.38
  -5  -5   1    5.13    1.35
   5  -5  -1    6.17    1.43
   5  -5  -1    5.21    1.23
   5  -5  -1    6.35    1.93
   5   5  -1    5.10    1.86
   5   5  -1    4.32    1.27
   5   5  -1    5.17    1.44
  -5   5   1    6.89    1.09
  -5   5   1    5.06    1.47
   5   5  -1    7.52    1.39
  -5   5   1    1.46    1.10
  -4  -5   1    9.27    1.38
   4  -5  -1   11.78    1.51
   4  -5  -1   10.01    1.70
  -4   5   1    9.97    1.44
   4   5  -1    8.85    1.90
   4   5  -1   13.82    1.12
   4   5  -1    9.78    1.42
   4   5  -1   11.73    1.52
   4   5  -1    9.67    1.38
  -4   5   1    9.68    1.09
   3  -5  -1   18.40    2.25
  -3  -5   1   23.76    2.11
  -3   5   1   25.99    1.81
  -3   5   1   19.66    1.60
   3   5  -1   25.32    2.28
   3   5  -1   19.81    1.66
   3   5  -1   21.37    1.76
   3   5  -1   22.66    2.36
  -3   5   1   25.04    2.66
  -3   5   1   26.71    2.15
   3   5  -1   24.06    2.11
   2  -5  -1   10.35    1.39
  -2  -5   1   11.25    1.33
   2   5  -1    9.41    0.96
   2   5  -1   11.99    1.46
   2   5  -1   12.27    1.38
  -2   5   1   12.72    1.31
   2   5  -1   11.47    2.01
  -2   5   1   11.39    1.41
  -2   5   1   11.49    1.71
   2   5  -1    9.82    1.29
  -2   5   1    8.94    1.92
  -1  -5   1    6.67    1.26
   1  -5  -1    4.79    1.20
   1   5  -1    5.04    0.81
  -1   5   1    7.37    2.61
  -1   5   1    5.63    1.20
  -1   5   1    4.61    0.81
   1   5  -1    5.30    1.38
   1   5  -1    3.67    1.23
   1   5  -1    5.95    1.08
   1   5  -1    5.54    2.10
  -1   5   1    3.71    1.39
   0  -5  -1   19.34    2.07
   0  -5   1   24.91    2.14
   0   5   1   24.21    2.35
   0   5   1   23.58    1.94
   0   5   1   23.90    1.84
   0   5  -1   21.38    2.08
   0   5  -1   17.16    1.74
   0   5  -1   22.28    1.56
   0   5   1   19.73    1.51
   0   5   1   27.20    2.63
   0   5  -1   29.18    2.80
  -1  -5  -1    2.23    1.11
   1  -5   1    2.99    1.17
   1   5   1    3.31    0.91
  -1   5  -1    4.35    1.04
   1   5   1    4.47    1.32
  -1   5  -1    3.90    0.79
   1   5   1    4.12    0.75
   1   5   1    4.10    1.16
   1   5   1    2.11    1.91
  -1   5  -1    3.13    1.43
  -1   5  -1    7.42    2.53
   2  -5   1    0.26    1.18
  -2  -5  -1    1.77    1.13
  -2   5  -1    0.32    1.64
  -2   5  -1    0.21    1.23
  -2   5  -1    1.20    0.78
   2   5   1    0.60    1.16
   2   5   1    0.99    1.23
  -2   5  -1    2.79    3.09
   2   5   1    0.19    0.94
   2   5   1    1.48    0.70
   2   5   1   -0.18    1.80
   3  -5   1   15.26    1.63
  -3  -5  -1   11.96    1.44
  -3   5  -1    9.85    1.06
   3   5   1   15.65    1.86
   3   5   1   12.71    1.44
   3   5   1   12.56    1.08
   3   5   1   12.72    1.90
  -3   5  -1   13.57    1.95
   3   5   1   11.82    1.47
  -3   5  -1   14.09    2.57
  -3   5  -1   14.73    1.58
   4  -5   1   12.08    1.24
   4  -5   1   12.29    1.56
  -4  -5  -1   13.87    1.47
  -4   5  -1   13.44    1.20
   4   5   1   11.15    1.96
  -4   5  -1   10.28    1.62
   4   5   1   13.56    1.48
   4   5   1   14.37    1.52
   4   5   1   13.14    1.15
  -4   5  -1   14.11    2.87
  -4   5  -1   12.76    2.13
   4   5   1   12.27    1.44
   5  -5   1    7.25    1.91
   5  -5   1    9.23    1.20
   5  -5   1    6.35    1.59
   5  -5   1    7.27    1.17
  -5  -5  -1    7.97    1.37
   5   5   1    7.25    1.33
   5   5   1    5.18    1.63
   5   5   1    5.99    1.41
  -5   5  -1    6.98    1.57
   5   5   1    9.42    1.46
   5   5   1    7.73    1.10
  -5   5  -1    6.15    1.08
  -5   5  -1    3.99    1.26
   6  -5   1    4.77    1.31
   6  -5   1    7.27    2.15
   6  -5   1    4.44    1.59
   6  -5   1    9.14    1.37
  -6  -5  -1    3.83    1.46
  -6   5  -1    3.01    1.06
  -6   5  -1    3.65    1.74
   6   5   1    4.80    1.42
   6   5   1    3.05    1.27
   6   5   1    3.21    1.69
  -6   5  -1    5.77    1.36
   7  -5   1    1.20    2.19
  -7  -5  -1    6.75    1.67
   7  -5   1    0.62    1.41
   7  -5   1    0.78    1.62
   7  -5   1    1.67    1.47
  -7   5  -1    2.54    2.04
   7   5   1    2.25    1.41
  -7   5  -1   -0.56    1.50
  -7   5  -1    1.39    1.46
   7   5   1    3.57    1.58
   7   5   1    0.75    1.70
   8  -5   1    2.65    2.35
  -8  -5  -1    5.40    1.94
  -8  -5  -1    4.67    4.27
   8  -5   1    3.47    1.56
   8  -5   1    1.87    1.73
   8  -5   1    7.40    1.88
  -8   5  -1   -2.11    1.66
   8   5   1    4.55    1.91
   8   5   1    2.57    1.35
   8   5   1    3.21    1.77
  -8   5  -1    1.83    1.55
  -8   5  -1    4.37    2.25
   9  -5   1   10.11    1.87
  -9  -5  -1   20.83    4.76
   9  -5   1   12.67    2.31
   9  -5   1    5.77    2.75
   9  -5   1   11.04    2.12
   9   5   1   11.16    2.24
   9   5   1   12.35    1.95
   9   5   1    8.50    1.58
  -9   5  -1   13.32    2.05
  -9   5  -1    7.11    2.58
  10  -5   1   -0.76    2.30
  10  -5   1    2.07    2.05
 -10  -5  -1   -3.14    5.46
  10  -5   1    1.23    2.37
  10   5   1    0.48    1.98
 -10   5  -1    4.07    2.35
 -10   5  -1   -1.28    2.10
  11  -5   1    3.21    2.43
   9  -6  -1    1.03    3.50
   9  -6  -1    5.04    2.75
   9  -6  -1    3.84    2.59
  -9   6   1    6.29    2.47
  -9   6   1   -2.18    2.36
   8  -6  -1    2.29    2.19
   8  -6  -1    2.46    3.07
   8  -6  -1   -0.39    2.28
  -8   6   1    2.30    2.08
   8   6  -1    3.56    2.56
  -8   6   1    5.43    2.14
  -8   6   1    2.98    2.90
   7  -6  -1    5.16    2.12
   7  -6  -1   -2.06    2.53
  -7  -6   1    3.50    1.84
   7  -6  -1    0.60    2.03
   7   6  -1    0.75    2.17
  -7   6   1    1.92    1.78
  -7   6   1    0.30    2.06
   7   6  -1   -0.72    2.12
   7   6  -1    4.48    2.14
  -7   6   1   -1.39    2.55
   7   6  -1   -3.11    2.76
  -6  -6   1    3.64    1.91
   6  -6  -1    5.70    1.96
   6   6  -1    0.33    2.62
  -6   6   1   -2.02    2.27
   6   6  -1    4.00    1.32
   6   6  -1    3.60    1.97
  -6   6   1    3.25    1.71
   6   6  -1    2.06    2.17
   6   6  -1    3.34    2.28
   5  -6  -1   24.15    2.40
  -5   6   1   27.09    4.37
   5   6  -1   20.87    2.90
   5   6  -1   25.50    2.20
  -5   6   1   17.51    2.42
  -5   6   1   21.20    1.88
   5   6  -1   19.65    2.27
   5   6  -1   19.82    2.35
  -5   6   1   26.56    3.37
   5   6  -1   15.54    2.17
   4  -6  -1   17.43    2.22
  -4  -6   1   12.72    2.19
  -4   6   1   18.70    2.31
  -4   6   1   17.86    3.54
  -4   6   1   16.82    1.61
   4   6  -1   14.83    1.50
   4   6  -1   14.80    2.87
   4   6  -1   13.34    2.20
   4   6  -1   16.89    2.18
  -4   6   1   18.80    2.86
   4   6  -1   13.63    2.01
  -3  -6   1    0.52    1.69
   3  -6  -1   -1.60    1.84
   3   6  -1    0.73    1.02
   3   6  -1    0.61    1.64
   3   6  -1   -0.32    1.57
   3   6  -1   -0.75    2.49
  -3   6   1   -2.08    3.51
  -3   6   1    1.70    2.33
   3   6  -1    0.86    1.92
  -3   6   1    0.01    1.74
  -3   6   1   -0.83    1.20
   2  -6  -1   11.34    1.88
  -2  -6   1    7.53    1.81
   2   6  -1   10.84    1.79
  -2   6   1   11.88    1.38
  -2   6   1   12.78    2.18
  -2   6   1   12.16    1.84
   2   6  -1   10.71    2.87
   2   6  -1   10.71    1.76
   2   6  -1   11.04    2.17
   2   6  -1   11.86    1.33
  -2   6   1   12.52    4.17
   1  -6  -1   20.23    2.04
  -1  -6   1   19.90    2.17
   1   6  -1   18.31    1.95
  -1   6   1   24.95    3.64
   1   6  -1   17.53    1.54
  -1   6   1   17.95    1.57
  -1   6   1   19.13    2.05
  -1   6   1   19.08    2.27
   1   6  -1   15.88    2.93
   1   6  -1   18.77    2.23
   0  -6  -1   10.01    1.88
   0  -6   1    9.31    1.88
   0   6   1    9.76    1.93
   0   6  -1    9.15    2.10
   0   6   1   15.16    2.69
   0   6  -1   11.87    1.32
   0   6   1   11.10    1.30
   0   6  -1   10.59    1.77
   0   6  -1   13.44    3.38
   0   6   1    9.78    1.86
  -1  -6  -1   -0.02    1.57
   1  -6   1   -0.16    1.80
  -1   6  -1   -0.32    2.08
   1   6   1    0.71    1.03
   1   6   1   -0.84    1.84
  -1   6  -1   -1.37    1.02
   1   6   1    0.19    1.34
  -1   6  -1   -0.13    1.73
   1   6   1    1.94    2.53
  -1   6  -1   -0.05    3.63
   1   6   1   -0.17    1.43
   2  -6   1   11.16    1.98
  -2  -6  -1    4.65    1.69
   2   6   1    4.27    1.64
   2   6   1    5.47    2.38
  -2   6  -1    3.07    2.30
  -2   6  -1    2.15    1.15
   2   6   1    1.86    1.08
  -2   6  -1    1.79    4.71
  -2   6  -1    3.67    1.82
   2   6   1    4.68    1.55
   2   6   1    5.14    1.87
  -3  -6  -1    3.43    1.85
   3  -6   1    4.69    1.94
  -3   6  -1    3.94    1.19
   3   6   1    6.30    1.87
  -3   6  -1    9.85    3.96
   3   6   1    4.17    1.12
  -3   6  -1    4.21    2.38
   3   6   1    3.76    1.87
   3   6   1    6.56    2.45
  -3   6  -1    6.23    1.92
   3   6   1    5.74    1.65
   4  -6   1    3.55    1.97
  -4  -6  -1    2.80    1.85
   4   6   1    2.03    1.93
  -4   6  -1    6.07    2.71
   4   6   1    2.68    1.21
   4   6   1    2.46    2.36
   4   6   1    1.50    1.72
   4   6   1    2.15    1.87
  -4   6  -1    7.82    4.22
  -4   6  -1    2.44    2.02
  -4   6  -1    5.65    1.42
  -5  -6  -1   -2.32    1.78
   5  -6   1    0.21    2.16
  -5   6  -1    2.07    4.74
   5   6   1    1.64    1.89
   5   6   1    0.60    1.81
   5   6   1   -1.56    1.10
  -5   6  -1   -0.91    2.23
  -5   6  -1    0.27    1.57
   5   6   1   -0.98    2.39
   5   6   1    0.26    2.01
  -5   6  -1    1.98    3.03
  -6  -6  -1    4.43    1.95
   6  -6   1    2.64    2.32
   6  -6   1    3.99    1.85
  -6   6  -1    2.26    2.63
   6   6   1    1.22    2.21
   6   6   1    6.22    2.45
  -6   6  -1    6.73    3.53
  -6   6  -1    5.17    1.89
   6   6   1    2.68    1.66
   6   6   1    4.28    1.92
   6   6   1    5.07    2.23
  -6   6  -1    7.10    4.79
   7  -6   1   -1.20    2.42
   7  -6   1    0.68    2.19
  -7   6  -1    1.94    2.96
  -7   6  -1   -0.86    4.05
  -7   6  -1    8.03    5.36
  -7   6  -1    5.67    2.31
   7   6   1    4.30    2.30
   8  -6   1   -3.09    2.21
   8  -6   1    6.63    3.78
   8  -6   1    4.14    2.66
   8   6   1    1.91    2.45
  -8   6  -1    3.02    2.53
   9  -6   1   -0.44    2.66
   9  -6   1    0.87    2.82
  -9   6  -1    2.66    2.57
  -9   6  -1    2.33    2.75
   6  -7  -1    3.83    4.57
  -6   7   1   -1.38    3.67
   5  -7  -1   13.18    3.27
  -5   7   1    2.00    3.67
   4  -7  -1    1.69    2.67
  -4   7   1    2.46    3.20
   3  -7  -1    5.86    2.67
  -3   7   1    5.35    2.89
   3   7  -1   -1.50    2.66
   2  -7  -1    2.96    2.68
  -2   7   1   -1.36    2.82
   2   7  -1    5.98    2.50
  -1  -7   1    3.89    2.36
   1  -7  -1   -3.30    2.31
   1   7  -1    1.05    3.05
   1   7  -1   -1.22    2.82
  -1   7   1   -0.44    2.65
   0  -7   1    2.04    2.43
   0  -7  -1    1.25    2.52
   0   7  -1    6.47    2.94
   0   7   1    3.73    2.79
   0   7  -1    3.42    2.82
   0   7   1    4.65    4.66
  -1  -7  -1   10.65    2.66
   1  -7   1    3.79    2.41
  -1   7  -1    4.56    3.21
   1   7   1    1.87    2.46
  -1   7  -1    5.51    3.01
   1   7   1    1.85    4.35
  -2  -7  -1    2.61    2.49
   2  -7   1    1.31    2.37
  -2   7  -1    6.11    2.97
  -2   7  -1    5.19    3.01
   2   7   1    3.46    2.50
   2   7   1   -0.16    4.75
   3  -7   1   -0.40    3.08
  -3   7  -1    5.16    3.87
  -3   7  -1    1.82    3.22
  -4   7  -1    4.50    3.35
  15   0  -2    6.44    1.96
  15   0  -2    0.32    1.98
 -14   0   2    8.27    1.94
  14   0  -2    7.76    1.78
  14   0  -2    9.38    1.78
  14   0  -2    7.60    2.26
 -14   0   2    6.24    2.75
  13   0  -2    9.12    1.48
  13   0  -2   11.10    1.60
  13   0  -2   12.44    2.08
 -13   0   2   11.34    1.94
 -13   0   2   10.78    1.62
  13   0  -2    9.01    1.40
 -13   0   2    9.52    2.23
 -12   0   2   20.11    2.07
 -12   0   2   18.65    2.06
  12   0  -2   21.08    1.61
  12   0  -2   20.21    1.98
  12   0  -2   20.32    1.97
 -12   0   2   20.91    1.85
  12   0  -2   25.70    2.13
 -11   0   2   16.73    1.71
 -11   0   2   17.16    1.57
 -11   0   2   15.95    1.72
  11   0  -2   15.18    1.58
  11   0  -2   19.32    1.40
  11   0  -2   14.47    1.66
  11   0  -2   20.10    1.87
  10   0  -2   38.59    2.67
 -10   0   2   36.62    2.31
  10   0  -2   36.75    2.04
  10   0  -2   36.91    2.02
 -10   0   2   38.44    2.61
 -10   0   2   37.72    2.05
  10   0  -2   38.07    1.98
   9   0  -2   -0.33    1.13
   9   0  -2    0.51    0.72
  -9   0   2   -0.73    0.61
  -9   0   2    0.67    0.81
   9   0  -2   -0.13    0.52
  -9   0   2    0.26    0.93
   9   0  -2    0.46    0.60
  -8   0   2    5.82    0.99
   8   0  -2    7.54    0.73
   8   0  -2    7.08    0.77
  -8   0   2    6.14    0.81
   8   0  -2    6.55    0.98
  -8   0   2    7.94    0.70
   8   0  -2    5.33    0.58
   7   0  -2    4.77    0.86
   7   0  -2    4.59    0.61
   7   0  -2    4.04    0.49
   7   0  -2    4.30    0.55
  -7   0   2    5.67    0.81
  -7   0   2    4.68    0.67
  -7   0   2    4.88    0.57
  -6   0   2   66.97    2.69
   6   0  -2   63.68    2.61
  -6   0   2   66.09    2.63
   6   0  -2   65.09    2.78
   6   0  -2   65.96    2.66
  -6   0   2   65.11    2.79
   6   0  -2   68.04    2.66
  -5   0   2   25.02    1.14
   5   0  -2   24.39    1.14
   5   0  -2   24.08    1.36
   5   0  -2   25.30    1.17
  -5   0   2   23.44    1.20
   5   0  -2   23.60    1.08
  -5   0   2   24.66    1.34
   4   0  -2  114.21    4.35
  -4   0   2  113.08    4.27
  -4   0   2  114.71    4.29
   4   0  -2  103.15    4.25
   4   0  -2  116.33    4.27
  -4   0   2  112.61    4.35
  -3   0   2    1.50    0.39
   3   0  -2    1.44    0.40
   3   0  -2    1.34    0.29
  -3   0   2    1.54    0.28
   3   0  -2    1.22    0.21
  -3   0   2    1.62    0.29
  -3   0   2    1.37    0.21
   2   0  -2   68.80    2.53
  -2   0   2   65.83    2.48
   2   0  -2   57.88    2.46
  -2   0   2   67.57    2.53
   2   0  -2   68.08    2.48
  -2   0   2   63.58    2.46
  -1   0   2   -0.54    0.16
  -1   0   2   -0.42    0.22
   1   0  -2   -0.55    0.21
  -1   0   2   -0.35    0.10
   1   0   2   29.66    1.10
  -1   0  -2   28.59    1.10
  -1   0  -2   26.36    1.18
   1   0   2   29.62    1.17
  -1   0  -2   28.80    1.16
   1   0   2   25.13    1.18
  -2   0  -2    4.43    0.39
  -2   0  -2    5.44    0.63
  -2   0  -2    5.47    0.54
   2   0   2    5.29    0.60
   2   0   2    5.06    0.42
   2   0   2    5.53    0.60
   3   0   2   -0.21    0.33
   3   0   2   -0.22    0.27
  -3   0  -2   -0.07    0.25
   3   0   2   -0.15    0.40
  -3   0  -2   -0.09    0.40
  -3   0  -2    0.42    0.49
   4   0   2   48.70    2.05
  -4   0  -2   49.68    2.15
  -4   0  -2   49.21    1.96
   4   0   2   48.63    2.14
  -4   0  -2   48.80    2.10
   4   0   2   50.51    1.98
   5   0   2   17.19    1.06
  -5   0  -2   20.09    1.21
  -5   0  -2   18.59    1.32
  -5   0  -2   17.98    0.96
   5   0   2   19.26    1.39
   5   0   2   19.03    0.99
  -6   0  -2   10.68    0.86
  -6   0  -2   11.26    1.16
   6   0   2   10.61    0.89
   6   0   2   10.89    0.95
   6   0   2   12.51    1.42
  -6   0  -2   14.35    1.04
  -7   0  -2    6.71    1.00
   7   0   2    7.66    0.70
   7   0   2    7.41    1.03
  -7   0  -2    6.85    0.95
   7   0   2    6.86    0.78
  -7   0  -2    7.20    0.69
  -8   0  -2   39.94    1.92
  -8   0  -2   39.45    2.36
  -8   0  -2   39.38    2.37
   8   0   2   41.26    2.40
   8   0   2   38.10    1.97
   8   0   2   38.02    1.96
   9   0   2   19.28    1.58
   9   0   2   21.04    1.60
  -9   0  -2   23.77    1.57
  -9   0  -2   20.04    2.26
   9   0   2   22.08    1.69
   9   0   2   22.16    2.04
  -9   0  -2   19.12    2.04
 -10   0  -2   15.16    1.67
  10   0   2   14.09    1.64
  10   0   2   17.75    1.55
 -10   0  -2   16.92    1.30
 -10   0  -2   17.39    1.75
  10   0   2   15.37    1.22
  10   0   2   13.10    1.62
 -11   0  -2    9.35    1.84
 -11   0  -2    9.31    1.79
  11   0   2   10.29    1.30
  11   0   2   10.73    1.60
  11   0   2    9.21    1.27
  11   0   2    9.83    1.30
 -11   0  -2   11.62    1.32
  12   0   2   10.28    1.63
  12   0   2   10.25    1.52
 -12   0  -2   10.16    1.52
 -12   0  -2    8.41    2.12
 -12   0  -2   10.49    2.29
  12   0   2    9.54    1.54
  12   0   2   13.01    1.95
  13   0   2    4.09    2.10
  13   0   2    5.97    1.91
  13   0   2    4.83    1.61
 -13   0  -2    3.47    2.38
 -13   0  -2    4.84    2.74
 -15  -1   2   15.88    2.82
  15  -1  -2   19.92    2.29
  15  -1  -2   21.73    2.63
  15   1  -2   21.10    2.53
  14  -1  -2    2.88    1.76
 -14  -1   2    4.83    1.97
  14  -1  -2    2.03    2.23
 -14  -1   2    0.89    2.67
 -14  -1   2    5.36    2.22
  14  -1  -2    1.61    1.61
  14  -1  -2    8.36    1.69
 -14   1   2    2.77    2.64
 -14   1   2   -1.30    2.23
  14   1  -2    4.13    1.90
  14   1  -2    4.87    1.56
 -14   1   2    0.14    1.94
  14   1  -2    2.68    2.47
 -13  -1   2   24.66    2.76
  13  -1  -2   23.30    2.41
 -13  -1   2   20.88    2.26
  13  -1  -2   24.80    1.88
  13  -1  -2   27.63    2.72
 -13  -1   2   28.66    2.16
  13   1  -2   23.71    1.97
  13   1  -2   21.68    2.69
 -13   1   2   23.97    2.34
  13   1  -2   27.31    2.37
 -13   1   2   24.54    2.62
 -13   1   2   22.83    2.00
  12  -1  -2   19.19    1.57
 -12  -1   2   19.27    1.84
 -12  -1   2   20.03    2.18
  12  -1  -2   20.99    2.07
 -12  -1   2   17.95    1.69
  12  -1  -2   18.69    1.66
  12  -1  -2   22.65    2.05
 -12   1   2   18.20    1.59
 -12   1   2   17.63    2.17
  12   1  -2   26.37    2.25
  12   1  -2   19.98    2.19
  12   1  -2   19.56    1.64
 -12   1   2   19.75    1.98
 -11  -1   2    1.57    1.13
  11  -1  -2    1.25    1.04
 -11  -1   2    3.88    1.54
  11  -1  -2    2.72    1.03
  11  -1  -2    2.10    0.90
 -11  -1   2    2.10    1.27
  11  -1  -2    1.25    1.57
 -11   1   2    3.11    1.49
 -11   1   2    3.44    1.26
  11   1  -2    0.68    0.93
  11   1  -2    1.32    1.46
  11   1  -2    1.55    1.07
 -11   1   2    0.10    0.98
  10  -1  -2   -1.15    1.21
  10  -1  -2   -0.53    0.79
 -10  -1   2    0.59    0.87
  10  -1  -2   -0.97    0.80
 -10  -1   2    0.13    1.02
 -10  -1   2    0.04    1.22
 -10   1   2   -0.04    1.07
  10   1  -2   -0.02    0.94
 -10   1   2   -1.41    1.17
  10   1  -2   -0.46    1.08
 -10   1   2    0.35    0.77
  10   1  -2    0.13    0.79
   9  -1  -2    2.96    0.74
  -9  -1   2    3.35    0.88
  -9  -1   2    3.33    0.77
  -9  -1   2    3.13    1.10
   9  -1  -2    2.60    0.97
   9  -1  -2    3.51    0.73
  -9   1   2    4.34    0.96
   9   1  -2    2.96    0.85
  -9   1   2    3.25    0.66
   9   1  -2    3.49    0.70
  -9   1   2    3.56    1.02
   9   1  -2    2.26    1.06
  -8  -1   2   41.78    1.97
   8  -1  -2   40.30    1.97
   8  -1  -2   43.70    1.99
  -8  -1   2   41.82    2.29
   8  -1  -2   38.95    2.29
  -8  -1   2   41.42    2.08
   8   1  -2   41.86    1.97
   8   1  -2   43.28    2.32
  -8   1   2   45.08    2.27
   8   1  -2   44.32    1.99
  -8   1   2   43.65    1.94
  -8   1   2   41.40    2.17
  -7  -1   2   20.22    1.22
   7  -1  -2   19.12    1.57
  -7  -1   2   19.16    1.47
   7  -1  -2   18.89    1.16
  -7  -1   2   18.66    1.17
   7  -1  -2   18.53    1.17
   7   1  -2   17.48    1.43
  -7   1   2   18.35    1.14
  -7   1   2   20.63    1.48
   7   1  -2   17.93    1.19
   7   1  -2   21.30    1.15
  -7   1   2   20.66    1.33
   6  -1  -2   57.11    2.58
  -6  -1   2   58.98    2.36
  -6  -1   2   56.55    2.35
  -6  -1   2   58.76    2.51
   6  -1  -2   54.42    2.34
  -6  -1   2   57.06    2.36
   6  -1  -2   56.81    2.37
  -6   1   2   58.10    2.34
  -6   1   2   57.68    2.52
   6   1  -2   58.18    2.38
  -6   1   2   58.68    2.44
   6   1  -2   56.99    2.35
   6   1  -2   55.31    2.49
   5  -1  -2   38.34    1.85
   5  -1  -2   35.29    1.62
  -5  -1   2   35.66    1.78
   5  -1  -2   37.97    1.60
  -5  -1   2   39.15    1.59
  -5  -1   2   37.36    1.61
  -5  -1   2   37.52    1.62
  -5   1   2   38.44    1.60
  -5   1   2   37.98    1.80
   5   1  -2   35.52    1.78
  -5   1   2   37.24    1.66
   5   1  -2   37.90    1.64
   5   1  -2   38.80    1.63
  -4  -1   2    2.06    0.34
   4  -1  -2    1.85    0.35
   4  -1  -2    3.08    0.53
   4  -1  -2    1.71    0.32
  -4  -1   2    2.13    0.38
  -4  -1   2    1.56    0.51
  -4  -1   2    1.31    0.36
  -4   1   2    1.67    0.34
  -4   1   2    2.03    0.37
  -4   1   2    1.72    0.49
   4   1  -2    1.48    0.32
   4   1  -2    2.13    0.52
   4   1  -2    1.52    0.38
  -3  -1   2   46.91    2.08
   3  -1  -2   49.89    1.92
   3  -1  -2   49.33    1.99
  -3  -1   2   48.92    1.94
  -3  -1   2   47.08    1.95
   3   1  -2   47.93    1.95
  -3   1   2   51.41    2.01
  -3   1   2   48.84    1.94
   3   1  -2   48.89    1.95
   3   1  -2   47.22    2.06
  -3   1   2   48.59    1.92
   2  -1  -2    9.05    0.55
  -2  -1   2    8.56    0.62
  -2  -1   2    9.43    0.84
  -2  -1   2    9.22    0.57
   2  -1  -2    7.85    0.45
   2  -1  -2   11.10    0.71
   2   1  -2    9.13    0.56
  -2   1   2   10.36    0.68
  -2   1   2    8.96    0.54
   2   1  -2    8.74    0.80
   2   1  -2    8.78    0.63
  -2   1   2   10.48    0.54
   1  -1  -2  634.68   23.11
  -1  -1   2  617.66   23.13
  -1  -1   2  597.02   23.18
   1  -1  -2  587.32   23.13
  -1  -1   2  634.60   23.26
  -1   1   2  668.00   23.11
   1   1  -2  608.78   23.18
  -1   1   2  577.99   23.10
  -1   1   2  673.40   23.11
   1   1  -2  640.89   23.30
   1   1  -2  591.07   23.12
   0  -1   2   61.22    2.53
   0  -1   2   66.53    2.51
   0  -1  -2   60.63    2.48
   0   1  -2   67.67    2.56
   0   1   2   61.82    2.48
   0   1  -2   70.03    2.49
   0   1  -2   66.12    2.65
   0   1  -2   64.90    2.52
   1  -1   2  343.34   12.87
  -1  -1  -2  318.67   12.87
   1  -1   2  353.34   12.91
   1  -1   2  352.89   12.89
  -1   1  -2  374.11   12.92
   1   1   2  330.21   12.88
   1   1   2  306.84   12.85
  -1   1  -2  356.86   12.90
  -1   1  -2  367.96   12.87
   2  -1   2   46.23    1.82
   2  -1   2   47.65    1.98
   2  -1   2   43.27    1.87
  -2  -1  -2   39.73    1.82
   2   1   2   41.74    1.79
  -2   1  -2   48.92    1.90
  -2   1  -2   47.58    1.80
   2   1   2   43.31    1.83
  -2   1  -2   49.03    1.93
   3  -1   2  116.67    4.63
   3  -1   2  114.42    4.66
  -3  -1  -2  116.81    4.58
   3  -1   2  120.06    4.58
  -3  -1  -2  122.48    4.62
  -3  -1  -2  120.34    4.53
   3   1   2  122.05    4.58
   3   1   2  125.87    4.61
  -3   1  -2  122.94    4.66
   3   1   2  120.30    4.58
  -3   1  -2  117.94    4.57
  -3   1  -2  122.82    4.66
   4  -1   2   39.81    1.71
   4  -1   2   39.99    1.78
   4  -1   2   40.40    1.92
  -4  -1  -2   40.11    1.82
  -4  -1  -2   41.57    1.77
  -4  -1  -2   40.84    1.63
   4   1   2   38.16    1.69
   4   1   2   39.20    1.76
   4   1   2   40.96    1.71
  -4   1  -2   40.76    1.68
  -4   1  -2   39.47    1.90
   5  -1   2   95.26    3.85
  -5  -1  -2  100.18    3.89
  -5  -1  -2   96.99    3.84
  -5  -1  -2   97.36    3.74
   5  -1   2   97.68    3.80
   5  -1   2   93.40    3.94
   5   1   2  100.64    3.82
   5   1   2  100.19    3.75
  -5   1  -2   93.08    3.88
   5   1   2   95.89    3.80
  -5   1  -2   96.57    3.94
   5   1   2   98.00    3.86
  -5   1  -2   96.74    3.77
   6  -1   2   44.65    2.06
  -6  -1  -2   45.70    1.94
  -6  -1  -2   44.71    2.13
   6  -1   2   43.55    2.02
   6  -1   2   44.26    2.40
  -6  -1  -2   46.26    2.20
  -6   1  -2   44.59    2.19
   6   1   2   47.57    2.00
  -6   1  -2   47.34    2.31
   6   1   2   45.51    2.02
   6   1   2   47.14    1.97
   6   1   2   47.34    2.26
  -6   1  -2   45.28    1.97
  -7  -1  -2    5.98    0.95
  -7  -1  -2    4.76    0.91
   7  -1   2    6.27    0.75
  -7  -1  -2    6.37    0.68
   7  -1   2    5.41    0.79
   7  -1   2    6.74    1.17
   7   1   2    5.55    0.69
   7   1   2    7.23    0.70
  -7   1  -2    6.51    0.69
   7   1   2    5.99    0.69
  -7   1  -2    5.15    0.89
  -7   1  -2    5.83    1.01
   7   1   2    5.39    0.99
  -8  -1  -2   79.74    3.58
  -8  -1  -2   83.64    3.30
   8  -1   2   77.25    3.42
   8  -1   2   78.96    3.74
  -8  -1  -2   76.15    3.56
   8  -1   2   83.58    3.34
   8   1   2   81.53    3.64
  -8   1  -2   76.99    3.31
  -8   1  -2   78.94    3.68
   8   1   2   77.83    3.33
   8   1   2   81.90    3.31
   8   1   2   80.12    3.39
   9  -1   2   17.56    1.26
   9  -1   2   19.51    2.18
   9  -1   2   18.12    1.58
  -9  -1  -2   17.14    1.60
  -9  -1  -2   16.84    1.56
  -9  -1  -2   16.25    1.21
  -9   1  -2   16.66    1.63
   9   1   2   14.03    1.49
  -9   1  -2   17.34    1.54
   9   1   2   15.01    1.51
  -9   1  -2   13.65    1.47
   9   1   2   15.02    1.52
   9   1   2   19.48    1.51
 -10  -1  -2    9.70    1.28
 -10  -1  -2    8.22    1.59
  10  -1   2    8.65    1.53
  10  -1   2    8.08    1.20
  10  -1   2    8.16    1.12
 -10  -1  -2    8.48    1.67
 -10   1  -2    8.73    1.08
  10   1   2    8.85    1.12
 -10   1  -2    8.15    1.61
  10   1   2    8.39    1.01
  10   1   2    7.97    1.11
 -10   1  -2   11.04    1.65
  10   1   2    8.63    1.39
 -11  -1  -2    4.11    1.51
  11  -1   2    1.34    1.56
 -11  -1  -2    2.59    1.64
 -11  -1  -2    3.67    1.84
  11  -1   2    3.23    1.14
  11  -1   2    5.26    1.28
 -11   1  -2    2.87    1.22
 -11   1  -2    3.31    1.75
 -11   1  -2    2.50    1.90
  11   1   2    4.61    1.05
  11   1   2    5.68    1.63
  11   1   2    3.89    1.13
  11   1   2    5.01    1.17
  12  -1   2   12.98    2.02
  12  -1   2   14.20    1.57
  12  -1   2   12.96    1.72
 -12  -1  -2    8.19    2.03
 -12  -1  -2   23.77    2.70
 -12  -1  -2   13.95    1.92
  12   1   2   12.19    1.62
 -12   1  -2    8.72    1.67
  12   1   2   10.86    1.69
 -12   1  -2    7.69    2.09
  12   1   2   12.35    1.50
  12   1   2   13.75    1.95
 -12   1  -2   11.85    2.53
 -13  -1  -2    8.50    2.49
  13  -1   2    9.41    1.73
  13  -1   2   10.97    1.89
  13  -1   2    6.78    2.21
 -13  -1  -2    8.71    3.06
  13   1   2   10.67    1.71
  13   1   2   10.63    2.01
  13   1   2    8.15    1.96
  15  -2  -2    3.18    2.77
  15  -2  -2    3.54    2.10
 -15  -2   2    1.07    2.74
  14  -2  -2    2.21    2.09
  14  -2  -2   -0.40    2.13
 -14  -2   2    2.05    2.31
  14  -2  -2    1.13    1.73
  14  -2  -2    3.83    2.57
 -14   2   2    1.99    2.56
  14   2  -2    0.92    1.78
  14   2  -2   -2.17    1.80
  14   2  -2   -0.28    2.44
 -14   2   2   -0.53    2.18
 -13  -2   2    5.76    1.96
 -13  -2   2    4.66    1.99
  13  -2  -2    8.17    1.66
 -13  -2   2    8.10    2.64
  13  -2  -2    5.81    2.21
  13  -2  -2    6.76    1.58
 -13   2   2    4.91    2.07
 -13   2   2    4.61    1.65
 -13   2   2    5.09    2.45
  13   2  -2    5.87    1.69
  13   2  -2    5.64    1.99
  13   2  -2    6.56    1.69
  12  -2  -2    1.76    1.82
 -12  -2   2    4.08    1.60
 -12  -2   2    1.92    2.13
  12  -2  -2    4.89    1.39
  12  -2  -2    2.94    1.29
 -12  -2   2    2.46    1.61
  12   2  -2    3.30    1.35
 -12   2   2    1.39    1.76
 -12   2   2    2.81    1.22
  12   2  -2    3.14    1.39
 -12   2   2    0.30    1.89
  12   2  -2    0.63    1.43
  11  -2  -2    0.50    1.06
  11  -2  -2    1.52    1.06
 -11  -2   2    0.83    1.31
  11  -2  -2    0.52    1.44
 -11  -2   2   -0.26    1.72
 -11  -2   2   -0.78    1.24
 -11   2   2    1.98    1.57
 -11   2   2   -0.47    1.04
  11   2  -2   -0.38    1.12
  11   2  -2    0.16    1.01
 -11   2   2    1.13    1.59
  11   2  -2    0.93    1.30
  10  -2  -2   55.58    2.75
 -10  -2   2   54.97    2.78
  10  -2  -2   51.28    3.14
 -10  -2   2   54.64    2.82
  10  -2  -2   54.70    2.68
 -10  -2   2   55.67    3.27
  10   2  -2   53.87    2.72
  10   2  -2   54.16    3.05
 -10   2   2   51.56    2.60
  10   2  -2   57.43    2.77
 -10   2   2   50.54    3.11
 -10   2   2   53.75    3.03
   9  -2  -2   29.51    1.81
  -9  -2   2   30.87    1.93
  -9  -2   2   29.02    1.96
   9  -2  -2   33.84    1.88
  -9  -2   2   32.33    2.44
   9  -2  -2   29.24    2.41
  -9   2   2   27.92    2.17
   9   2  -2   34.40    1.86
   9   2  -2   29.02    2.26
  -9   2   2   29.24    2.25
   9   2  -2   27.95    1.82
  -9   2   2   29.95    1.75
   8  -2  -2    4.63    0.76
   8  -2  -2    4.24    0.78
  -8  -2   2    3.97    0.82
  -8  -2   2    4.43    0.85
  -8  -2   2    6.22    0.86
  -8  -2   2    5.32    1.11
   8  -2  -2    5.60    1.09
  -8   2   2    4.01    0.92
  -8   2   2    4.04    0.66
   8   2  -2    5.01    0.81
  -8   2   2    4.20    0.95
   8   2  -2    4.34    0.75
   8   2  -2    4.42    0.99
  -7  -2   2   17.51    1.24
  -7  -2   2   17.22    1.24
  -7  -2   2   18.49    1.29
   7  -2  -2   17.91    1.72
   7  -2  -2   17.16    1.29
  -7  -2   2   18.83    1.77
   7  -2  -2   17.61    1.23
  -7   2   2   18.25    1.20
   7   2  -2   19.30    1.34
   7   2  -2   16.04    1.61
  -7   2   2   18.23    1.48
   7   2  -2   17.63    1.26
  -7   2   2   19.66    1.56
  -6  -2   2   50.85    2.15
   6  -2  -2   49.81    2.16
   6  -2  -2   51.60    2.16
  -6  -2   2   51.40    2.11
  -6  -2   2   50.80    2.52
   6  -2  -2   46.76    2.44
  -6  -2   2   49.73    2.22
   6   2  -2   49.33    2.19
   6   2  -2   50.66    2.17
  -6   2   2   50.25    2.25
  -6   2   2   48.53    2.31
   6   2  -2   49.25    2.39
  -6   2   2   49.30    2.11
  -5  -2   2   28.16    1.42
  -5  -2   2   30.31    1.49
   5  -2  -2   29.64    1.44
   5  -2  -2   29.20    1.39
   5  -2  -2   28.72    1.69
  -5  -2   2   31.87    1.87
  -5  -2   2   30.36    1.35
   5   2  -2   30.14    1.45
  -5   2   2   28.63    1.36
  -5   2   2   28.67    1.58
   5   2  -2   27.92    1.69
   5   2  -2   30.96    1.47
  -5   2   2   30.24    1.49
   4  -2  -2   43.93    1.81
  -4  -2   2   42.73    1.74
   4  -2  -2   42.22    2.02
   4  -2  -2   40.96    1.77
  -4  -2   2   43.03    1.88
  -4  -2   2   41.67    2.09
  -4  -2   2   42.08    1.84
   4   2  -2   41.65    1.85
  -4   2   2   46.74    1.96
   4   2  -2   41.92    1.85
   4   2  -2   42.23    2.04
  -4   2   2   40.32    1.82
   3  -2  -2   16.31    0.87
  -3  -2   2   17.44    1.40
   3  -2  -2   16.66    0.91
  -3  -2   2   17.58    1.04
   3  -2  -2   19.86    0.94
  -3  -2   2   19.03    1.00
   3  -2  -2   19.88    1.30
  -3   2   2   18.72    0.91
   3   2  -2   17.24    0.98
   3   2  -2   17.14    1.27
  -3   2   2   17.95    0.93
   3   2  -2   18.08    1.02
  -3   2   2   19.53    1.11
  -2  -2   2    3.40    0.47
  -2  -2   2    2.44    0.46
  -2  -2   2    2.65    0.66
   2  -2  -2    3.09    0.36
   2  -2  -2    2.98    0.39
   2  -2  -2    3.60    0.60
   2   2  -2    3.16    0.65
   2   2  -2    3.47    0.51
   2   2  -2    3.61    0.43
  -2   2   2    4.02    0.34
  -2   2   2    3.43    0.55
  -2   2   2    2.85    0.36
  -1  -2   2    3.19    0.68
  -1  -2   2    4.41    0.50
  -1  -2   2    3.69    0.51
   1  -2  -2    4.65    0.50
  -1   2   2    3.92    0.50
  -1   2   2    2.85    0.38
   1   2  -2    3.91    0.44
   1   2  -2    3.09    0.48
   1   2  -2    2.66    0.79
  -1   2   2    3.41    0.35
   0  -2  -2   54.31    2.23
   0  -2   2   57.93    2.23
   0  -2   2   56.00    2.32
   0   2  -2   59.39    2.32
   0   2   2   55.49    2.25
   0   2   2   54.76    2.25
   0   2   2   56.90    2.18
   0   2  -2   56.02    2.36
   0   2   2   55.87    2.37
   0   2   2   55.07    2.26
   0   2  -2   55.30    2.23
   0   2  -2   57.42    2.58
   1  -2   2    4.30    0.49
   1  -2   2    4.35    0.52
   1  -2   2    3.31    0.64
  -1  -2  -2    4.51    0.44
   1  -2   2    3.22    0.41
   1   2   2    3.51    0.41
  -1   2  -2    3.86    0.41
   1   2   2    4.02    0.42
  -1   2  -2    4.36    0.59
   1   2   2    3.31    0.59
  -1   2  -2    3.79    0.45
   1   2   2    3.81    0.40
   1   2   2    3.52    0.49
  -2  -2  -2   48.75    2.02
   2  -2   2   52.70    2.34
  -2  -2  -2   52.55    2.12
   2  -2   2   50.93    2.10
   2  -2   2   52.66    2.10
  -2  -2  -2   47.16    2.16
   2   2   2   51.31    2.03
   2   2   2   51.26    2.12
  -2   2  -2   52.51    2.07
  -2   2  -2   51.03    2.23
  -2   2  -2   52.49    2.14
   2   2   2   50.54    2.15
   3  -2   2   35.94    1.58
  -3  -2  -2   34.03    1.70
   3  -2   2   35.03    1.61
  -3  -2  -2   34.96    1.51
  -3  -2  -2   38.38    1.61
   3  -2   2   35.19    1.95
  -3   2  -2   36.41    1.70
   3   2   2   34.73    1.61
   3   2   2   35.74    1.49
  -3   2  -2   34.05    1.72
  -3   2  -2   37.24    1.55
   3   2   2   37.87    1.64
  -4  -2  -2    6.80    0.72
   4  -2   2    8.51    0.70
   4  -2   2    9.73    1.04
   4  -2   2    7.20    0.71
  -4  -2  -2    7.77    0.80
  -4  -2  -2    8.93    0.94
  -4  -2  -2    7.80    0.73
   4   2   2    8.78    0.99
   4   2   2    7.93    0.76
   4   2   2    8.41    0.66
  -4   2  -2    8.64    0.82
  -4   2  -2    7.92    0.81
   4   2   2    7.97    0.82
  -4   2  -2    8.08    0.76
  -5  -2  -2   35.47    1.79
   5  -2   2   34.70    1.71
  -5  -2  -2   34.74    1.86
   5  -2   2   33.25    2.16
   5  -2   2   33.86    1.72
  -5  -2  -2   35.34    1.56
  -5   2  -2   33.51    1.88
  -5   2  -2   35.63    1.91
   5   2   2   36.16    1.58
   5   2   2   36.59    1.79
   5   2   2   34.52    1.54
   5   2   2   36.06    1.72
  -5   2  -2   35.32    1.62
  -6  -2  -2    5.57    0.86
   6  -2   2    5.27    0.73
   6  -2   2    4.71    0.71
  -6  -2  -2    5.20    0.63
   6  -2   2    5.17    1.06
  -6  -2  -2    5.78    0.90
  -6   2  -2    4.93    0.60
   6   2   2    5.79    0.87
   6   2   2    5.53    0.67
  -6   2  -2    4.53    1.06
  -6   2  -2    4.64    0.87
   6   2   2    5.42    0.71
   6   2   2    5.18    0.63
  -7  -2  -2   13.00    1.27
  -7  -2  -2   15.52    1.79
   7  -2   2   13.32    1.37
  -7  -2  -2   12.12    1.15
   7  -2   2   13.58    1.32
   7  -2   2   12.23    1.28
  -7   2  -2   14.39    1.38
   7   2   2   12.16    1.22
   7   2   2   14.63    1.54
   7   2   2   11.86    1.05
   7   2   2   13.87    1.27
  -7   2  -2   11.75    1.14
  -7   2  -2   12.68    1.24
   8  -2   2   47.81    2.38
  -8  -2  -2   49.74    2.73
  -8  -2  -2   48.70    2.29
   8  -2   2   48.15    2.34
  -8  -2  -2   47.57    2.62
  -8   2  -2   41.21    2.75
   8   2   2   43.55    2.20
  -8   2  -2   45.35    2.28
   8   2   2   44.47    2.54
  -8   2  -2   43.77    2.73
   8   2   2   45.46    2.17
   8   2   2   51.53    2.43
  -9  -2  -2    2.34    1.27
  -9  -2  -2    2.77    1.40
   9  -2   2    1.87    1.41
  -9  -2  -2    3.01    1.02
   9  -2   2    3.34    0.95
   9  -2   2    1.11    1.00
   9   2   2    1.75    0.93
  -9   2  -2    3.92    1.38
  -9   2  -2    3.34    0.93
   9   2   2    2.73    1.39
   9   2   2    3.09    0.77
  -9   2  -2    1.49    1.28
  10  -2   2   14.42    1.39
  10  -2   2   12.81    1.87
 -10  -2  -2   13.26    1.62
 -10  -2  -2   16.11    1.46
 -10  -2  -2   14.57    1.91
  10  -2   2   12.05    1.40
  10   2   2   12.40    1.24
  10   2   2   12.51    1.64
 -10   2  -2   11.06    1.30
 -10   2  -2   16.36    1.83
  10   2   2   13.71    1.27
  10   2   2   11.52    1.44
 -10   2  -2   12.19    1.84
 -11  -2  -2    9.86    1.65
  11  -2   2    7.73    1.41
 -11  -2  -2    7.46    1.86
 -11  -2  -2    9.32    2.23
  11  -2   2    7.88    1.55
  11  -2   2    7.37    1.82
 -11   2  -2    6.06    1.97
  11   2   2    9.58    1.64
  11   2   2    9.67    1.74
 -11   2  -2    8.72    1.44
 -11   2  -2    7.28    2.11
  11   2   2    6.73    1.18
  11   2   2    8.02    1.28
 -12  -2  -2   11.81    2.89
  12  -2   2   11.70    1.97
 -12  -2  -2    9.55    1.90
  12  -2   2   15.10    2.36
 -12  -2  -2    7.87    2.19
  12  -2   2   12.11    1.72
  12   2   2   11.45    2.05
  12   2   2    8.32    1.57
  12   2   2   11.98    1.57
 -12   2  -2    7.95    2.41
 -12   2  -2   10.83    1.84
  12   2   2    9.84    1.95
 -12   2  -2   10.99    2.56
  13  -2   2   -0.42    1.81
 -13  -2  -2    3.69    2.50
  13   2   2   -1.38    1.84
  13   2   2    0.92    2.24
  14  -3  -2    1.32    1.98
 -14  -3   2    3.68    2.52
 -14   3   2    0.37    2.42
  13  -3  -2    4.71    1.83
  13  -3  -2    7.63    1.94
 -13  -3   2   11.79    2.22
  13  -3  -2    7.04    2.56
 -13  -3   2    2.45    3.42
  13   3  -2    6.61    1.97
 -13   3   2    4.95    2.54
  13   3  -2    8.52    1.79
 -13   3   2    6.40    1.95
 -13   3   2    6.87    2.72
  13   3  -2    7.39    1.97
  12  -3  -2   14.40    1.76
 -12  -3   2   11.63    1.90
 -12  -3   2   15.36    3.19
  12  -3  -2    9.77    2.30
 -12  -3   2   12.01    2.09
  12  -3  -2   13.59    1.72
 -12   3   2   10.05    2.31
 -12   3   2    9.96    1.69
  12   3  -2   14.32    1.97
 -12   3   2   13.47    2.41
  12   3  -2   13.12    1.69
  12   3  -2   13.24    1.82
  11  -3  -2    9.17    1.88
  11  -3  -2    9.70    1.52
  11  -3  -2   12.41    1.53
 -11  -3   2   11.93    1.77
 -11  -3   2   21.32    2.72
 -11  -3   2   12.19    1.54
  11   3  -2   11.20    1.59
 -11   3   2    8.20    1.95
  11   3  -2   10.62    1.47
 -11   3   2    9.18    1.39
 -11   3   2   11.11    2.00
  11   3  -2   11.32    1.59
  10  -3  -2    0.98    1.18
  10  -3  -2    0.97    1.49
 -10  -3   2    1.09    1.41
 -10  -3   2    0.42    2.01
 -10  -3   2    2.25    1.23
  10  -3  -2    0.59    1.10
 -10   3   2    2.12    1.51
  10   3  -2    1.08    1.13
  10   3  -2    1.48    1.07
 -10   3   2    1.57    1.38
  10   3  -2    1.26    1.31
 -10   3   2    0.94    0.97
  -9  -3   2   25.34    2.09
  -9  -3   2   25.53    1.94
   9  -3  -2   27.34    2.62
  -9  -3   2   26.63    3.09
   9  -3  -2   24.00    1.99
   9  -3  -2   25.94    1.88
  -9   3   2   24.96    2.27
  -9   3   2   23.68    1.79
  -9   3   2   23.02    2.27
   9   3  -2   23.57    2.36
   9   3  -2   25.52    1.95
   9   3  -2   24.91    1.99
   8  -3  -2   77.80    3.40
   8  -3  -2   74.01    3.79
  -8  -3   2   78.80    3.30
  -8  -3   2   78.69    3.41
  -8  -3   2   75.11    4.06
   8  -3  -2   75.88    3.34
  -8   3   2   79.43    3.56
  -8   3   2   71.51    3.57
   8   3  -2   80.27    3.40
   8   3  -2   77.75    3.43
   8   3  -2   80.55    3.65
  -8   3   2   73.97    3.26
  -7  -3   2   34.63    2.83
  -7  -3   2   32.05    1.95
  -7  -3   2   33.44    1.76
  -7  -3   2   32.97    1.91
   7  -3  -2   32.79    1.76
   7  -3  -2   30.63    2.42
   7  -3  -2   33.11    1.90
  -7   3   2   30.36    2.07
   7   3  -2   33.97    1.91
   7   3  -2   32.88    2.21
  -7   3   2   32.03    1.74
   7   3  -2   33.25    1.95
  -7   3   2   32.55    2.05
  -6  -3   2   24.07    1.32
  -6  -3   2   22.47    2.35
  -6  -3   2   24.37    1.60
   6  -3  -2   24.45    1.52
   6  -3  -2   21.04    2.02
   6  -3  -2   23.42    1.37
  -6  -3   2   24.53    1.52
  -6   3   2   20.69    1.68
   6   3  -2   24.68    1.53
   6   3  -2   22.63    1.47
  -6   3   2   22.64    1.64
  -6   3   2   23.49    1.38
   6   3  -2   22.81    2.09
   5  -3  -2   20.35    1.31
   5  -3  -2   20.43    1.20
   5  -3  -2   19.60    1.32
  -5  -3   2   18.42    2.08
   5  -3  -2   20.79    1.81
  -5  -3   2   20.72    1.39
  -5  -3   2   19.55    1.38
  -5   3   2   19.07    1.67
  -5   3   2   20.68    1.24
   5   3  -2   19.93    1.41
   5   3  -2   21.80    1.83
   5   3  -2   21.09    1.34
  -5   3   2   19.55    1.40
  -4  -3   2   12.75    1.28
  -4  -3   2   12.54    1.08
   4  -3  -2   14.24    1.22
  -4  -3   2   13.46    1.14
   4  -3  -2   13.57    1.09
   4  -3  -2   12.85    1.11
   4  -3  -2   12.53    0.91
   4   3  -2   14.16    1.21
  -4   3   2   11.77    1.29
  -4   3   2   13.07    0.95
  -4   3   2   12.29    1.05
   4   3  -2   13.37    1.22
   4   3  -2   11.86    1.06
  -3  -3   2    4.71    0.64
  -3  -3   2    5.00    0.98
   3  -3  -2    5.23    0.66
   3  -3  -2    5.17    0.88
   3  -3  -2    5.26    0.59
  -3  -3   2    5.65    0.73
  -3   3   2    6.47    0.83
   3   3  -2    5.10    0.72
   3   3  -2    5.87    0.64
  -3   3   2    6.02    0.58
  -3   3   2    5.75    0.56
   3   3  -2    5.47    1.05
  -2  -3   2    2.16    0.68
   2  -3  -2    2.37    0.75
  -2  -3   2    1.54    0.93
   2  -3  -2    1.29    0.42
  -2  -3   2    1.43    0.58
   2  -3  -2    1.68    0.49
   2   3  -2    1.32    0.63
  -2   3   2    1.76    0.40
  -2   3   2    2.24    0.58
   2   3  -2    1.24    0.49
   2   3  -2    0.94    0.90
   1  -3  -2  101.40    4.09
  -1  -3   2  105.72    4.17
   1   3  -2  103.80    4.05
   1   3  -2  103.65    4.14
   1   3  -2  102.14    4.50
   1   3  -2  107.89    4.22
   1   3  -2  104.10    4.14
  -1   3   2  103.37    4.10
  -1   3   2  103.34    4.02
  -1   3   2  107.26    4.16
   0  -3  -2   20.29    1.19
   0  -3   2   23.01    1.19
   0  -3   2   20.56    1.31
   0   3  -2   22.54    1.17
   0   3   2   23.81    1.75
   0   3   2   21.55    1.30
   0   3   2   24.18    1.10
   0   3  -2   23.03    1.42
   0   3  -2   22.43    1.46
   0   3   2   21.22    1.20
   0   3   2   24.13    1.36
   0   3  -2   23.19    2.00
   1  -3   2   75.32    3.16
  -1  -3  -2   76.86    3.08
   1  -3   2   76.86    2.99
  -1   3  -2   72.58    3.15
   1   3   2   65.36    2.95
   1   3   2   76.39    3.26
  -1   3  -2   76.41    3.19
   1   3   2   76.11    3.09
   1   3   2   78.60    3.09
   1   3   2   79.66    3.03
  -1   3  -2   75.04    2.99
  -1   3  -2   76.58    3.57
  -2  -3  -2   53.36    2.27
   2  -3   2   53.58    2.21
   2  -3   2   53.03    2.36
   2  -3   2   53.21    2.24
   2  -3   2   47.87    2.54
   2   3   2   53.23    2.12
   2   3   2   54.31    2.20
  -2   3  -2   50.75    2.39
  -2   3  -2   52.62    2.19
   2   3   2   51.54    2.28
   2   3   2   49.60    2.48
   2   3   2   52.54    2.25
   3  -3   2   56.62    2.47
   3  -3   2   50.78    2.64
  -3  -3  -2   55.62    2.36
  -3  -3  -2   50.13    2.59
   3  -3   2   53.16    2.29
   3  -3   2   55.15    2.32
   3   3   2   52.34    2.47
   3   3   2   54.31    2.25
   3   3   2   54.26    2.35
  -3   3  -2   53.34    2.58
  -3   3  -2   51.89    2.25
  -4  -3  -2    4.22    1.10
   4  -3   2    4.54    0.65
   4  -3   2    4.46    1.16
  -4  -3  -2    3.29    0.66
   4  -3   2    2.99    0.64
  -4  -3  -2    4.27    0.64
   4   3   2    3.30    0.59
  -4   3  -2    4.00    0.55
   4   3   2    3.59    0.68
  -4   3  -2    2.81    0.81
  -4   3  -2    3.19    0.83
   4   3   2    4.55    0.88
  -5  -3  -2   37.96    1.93
   5  -3   2   36.86    1.88
   5  -3   2   36.14    1.93
  -5  -3  -2   39.46    2.41
  -5  -3  -2   36.56    1.83
   5  -3   2   35.74    2.50
   5   3   2   38.13    2.06
   5   3   2   37.51    1.80
   5   3   2   41.46    1.94
  -5   3  -2   32.20    2.22
  -5   3  -2   35.78    1.78
   6  -3   2   50.57    3.05
  -6  -3  -2   45.24    2.33
   6  -3   2   48.43    2.36
  -6  -3  -2   53.59    3.03
   6  -3   2   49.53    2.44
   6   3   2   49.78    2.25
  -6   3  -2   51.84    2.34
  -6   3  -2   47.86    2.71
   6   3   2   52.62    2.48
   6   3   2   51.34    2.54
  -7  -3  -2    9.11    1.14
   7  -3   2   10.66    1.74
  -7  -3  -2   13.03    1.67
   7  -3   2   11.17    1.16
  -7  -3  -2   10.36    1.01
   7  -3   2    8.99    1.11
   7   3   2   11.80    0.95
  -7   3  -2    8.19    1.32
   7   3   2    9.06    1.07
   7   3   2   10.29    1.23
  -7   3  -2    7.71    1.31
  -7   3  -2   10.14    0.98
   7   3   2    9.41    1.12
   8  -3   2   11.37    1.23
  -8  -3  -2   13.83    1.85
   8  -3   2   10.94    1.80
  -8  -3  -2   11.97    1.23
   8  -3   2    9.81    1.27
  -8  -3  -2   10.70    1.35
   8   3   2   11.32    1.29
  -8   3  -2    8.34    1.47
   8   3   2   11.06    1.23
   8   3   2   12.69    1.31
   8   3   2   11.84    1.09
  -8   3  -2    7.55    1.39
  -8   3  -2    8.69    1.08
  -9  -3  -2   13.02    1.40
   9  -3   2   14.20    1.44
  -9  -3  -2   12.75    1.65
   9  -3   2   10.08    2.15
  -9  -3  -2   17.42    2.21
   9  -3   2   13.51    1.48
   9   3   2   11.78    1.47
  -9   3  -2   13.84    1.36
   9   3   2   15.33    1.52
  -9   3  -2   12.57    1.78
  -9   3  -2   14.45    1.85
   9   3   2   14.45    1.44
   9   3   2   15.70    1.28
 -10  -3  -2    2.59    1.50
  10  -3   2    0.72    1.33
  10  -3   2    1.82    2.10
  10  -3   2    3.00    1.46
 -10  -3  -2    3.08    2.51
 -10  -3  -2    2.90    1.55
  10   3   2    3.10    1.57
 -10   3  -2    3.48    1.85
 -10   3  -2    3.44    1.80
 -10   3  -2    2.68    1.40
  10   3   2    2.56    1.35
  10   3   2    2.52    1.11
  11  -3   2   -0.60    1.53
  11  -3   2   -1.03    1.66
 -11  -3  -2   -1.10    1.85
 -11  -3  -2    0.65    1.90
  11  -3   2    0.00    2.47
 -11  -3  -2    1.33    2.89
 -11   3  -2    3.56    2.16
  11   3   2   -0.54    1.74
 -11   3  -2   -2.07    2.10
 -11   3  -2   -0.85    1.75
  11   3   2    1.58    1.67
  11   3   2   -1.50    1.24
 -12  -3  -2    1.75    2.20
 -12  -3  -2    4.18    3.68
  12  -3   2    5.82    1.87
  12   3   2    3.33    2.09
  12   3   2    7.44    2.14
 -13  -3  -2    3.83    2.73
  13  -4  -2    5.51    2.23
 -13  -4   2    3.29    2.57
 -13   4   2   10.50    2.43
  12  -4  -2    1.03    2.00
 -12  -4   2    4.87    2.04
  12  -4  -2    4.57    1.95
  12  -4  -2    0.53    2.71
 -12   4   2    7.50    2.95
 -12   4   2    3.60    1.92
  12   4  -2    0.95    1.80
 -12   4   2    2.91    2.45
  12   4  -2    5.32    2.23
 -11  -4   2    9.22    3.58
  11  -4  -2    6.34    2.50
  11  -4  -2    3.26    1.73
 -11  -4   2    4.84    1.72
 -11  -4   2    1.20    2.16
  11  -4  -2    3.09    1.71
  11   4  -2    3.55    1.71
 -11   4   2    2.57    2.00
  11   4  -2    2.68    1.84
 -11   4   2    4.02    1.64
 -11   4   2    4.48    2.30
  11   4  -2    4.61    1.58
 -10  -4   2   26.85    2.08
  10  -4  -2   22.13    1.92
  10  -4  -2   20.08    1.80
  10  -4  -2   22.64    2.44
 -10  -4   2   23.14    3.30
 -10  -4   2   20.29    2.05
 -10   4   2   19.87    1.75
 -10   4   2   16.83    2.06
  10   4  -2   19.59    1.77
  10   4  -2   21.90    2.61
 -10   4   2   20.88    2.27
  10   4  -2   21.69    2.05
  -9  -4   2    1.19    1.50
  -9  -4   2    4.76    2.56
   9  -4  -2    0.90    1.20
   9  -4  -2    0.70    1.26
   9  -4  -2    3.10    1.79
  -9  -4   2    0.96    1.18
  -9   4   2    0.78    1.11
   9   4  -2    0.43    1.28
   9   4  -2   -0.01    1.25
  -9   4   2    1.06    1.31
  -9   4   2    0.73    1.59
   9   4  -2    1.68    1.48
  -8  -4   2    2.95    2.18
  -8  -4   2    4.73    1.39
   8  -4  -2    3.16    1.27
   8  -4  -2    0.66    1.47
   8  -4  -2    2.33    1.11
  -8  -4   2    3.61    1.14
   8  -4  -2    3.41    1.18
   8   4  -2    2.04    1.35
  -8   4   2    1.69    1.34
  -8   4   2    0.87    1.23
  -8   4   2    1.96    0.99
   8   4  -2    1.59    1.01
   8   4  -2    5.17    1.42
  -7  -4   2    2.01    1.23
  -7  -4   2    1.88    1.84
  -7  -4   2    1.86    1.09
   7  -4  -2    1.86    1.11
   7  -4  -2    2.27    1.09
   7  -4  -2    2.47    1.52
   7  -4  -2    1.99    0.83
   7   4  -2    0.49    1.36
   7   4  -2    2.23    1.16
   7   4  -2    0.68    1.07
  -7   4   2    1.98    1.16
  -7   4   2    2.38    0.87
  -7   4   2    1.28    1.15
  -6  -4   2   22.03    2.00
   6  -4  -2   20.47    1.53
   6  -4  -2   21.25    2.50
   6  -4  -2   20.29    1.97
   6  -4  -2   22.60    1.96
  -6  -4   2   39.01    3.90
  -6  -4   2   22.95    1.92
  -6   4   2   26.16    1.76
   6   4  -2   22.20    2.62
   6   4  -2   24.74    1.93
  -6   4   2   21.65    2.19
   6   4  -2   21.93    1.79
   5  -4  -2    9.81    1.45
  -5  -4   2    9.80    1.15
  -5  -4   2    8.02    1.10
  -5  -4   2    9.65    1.81
   5  -4  -2    6.58    0.78
   5  -4  -2   10.25    1.16
   5  -4  -2    9.05    1.01
   5   4  -2    6.31    1.00
  -5   4   2    5.77    0.91
  -5   4   2    8.75    0.90
  -5   4   2    9.33    1.16
   5   4  -2    8.34    1.10
   5   4  -2    7.85    1.50
   4  -4  -2   26.74    2.34
   4  -4  -2   34.90    1.93
  -4  -4   2   28.38    2.03
  -4  -4   2   31.95    3.09
   4  -4  -2   29.00    1.81
  -4  -4   2   29.15    1.84
  -4   4   2   28.40    2.10
   4   4  -2   29.87    2.53
   4   4  -2   32.00    1.94
  -4   4   2   29.99    1.62
   4   4  -2   29.28    1.84
   3  -4  -2    8.69    0.90
   3  -4  -2    9.97    1.05
   3  -4  -2    8.65    1.25
  -3  -4   2    8.78    1.03
  -3   4   2    8.48    1.05
   3   4  -2    6.76    1.49
   3   4  -2    7.66    1.06
  -3   4   2    7.94    0.73
   3   4  -2    9.27    0.98
   2  -4  -2    9.03    0.94
  -2  -4   2    8.70    1.05
  -2   4   2   10.41    0.95
   2   4  -2    8.67    1.07
  -2   4   2   12.10    1.09
   2   4  -2   10.33    0.83
   2   4  -2   11.21    1.22
   2   4  -2   11.30    1.16
   2   4  -2    9.06    1.51
  -1  -4   2   11.34    1.11
   1  -4  -2    9.22    0.96
   1   4  -2    9.51    0.80
  -1   4   2   10.17    1.12
  -1   4   2    9.26    0.90
  -1   4   2    9.92    1.06
   1   4  -2    8.95    1.72
   1   4  -2    9.44    1.09
  -1   4   2    8.81    1.40
  -1   4   2   10.15    1.09
   1   4  -2    8.66    1.11
   1   4  -2    9.89    1.15
   0  -4  -2   19.82    1.46
   0  -4   2   19.40    1.58
   0   4   2   20.17    1.19
   0   4   2   20.88    1.37
   0   4   2   21.99    1.61
   0   4  -2   18.92    1.25
   0   4  -2   18.75    1.69
   0   4   2   19.97    1.77
   0   4   2   19.12    1.61
   0   4  -2   21.87    1.75
   0   4  -2   20.36    2.10
   1  -4   2   35.35    2.03
  -1  -4  -2   34.64    1.86
  -1   4  -2   34.55    2.14
   1   4   2   38.80    2.61
  -1   4  -2   36.03    1.72
  -1   4  -2   33.94    3.45
   1   4   2   31.26    1.88
   1   4   2   35.62    1.94
   1   4   2   34.69    1.64
   1   4   2   35.31    1.82
  -1   4  -2   31.60    2.03
  -2  -4  -2   17.60    1.48
   2  -4   2   19.43    1.70
   2  -4   2   17.38    1.30
   2   4   2   19.54    2.22
   2   4   2   20.80    1.45
  -2   4  -2   19.36    1.49
   2   4   2   17.39    1.53
   2   4   2   15.80    1.19
   2   4   2   16.72    1.49
  -2   4  -2   19.54    1.98
  -2   4  -2   15.15    1.65
  -2   4  -2   16.07    1.18
   3  -4   2    1.46    0.74
  -3  -4  -2    0.78    0.80
   3  -4   2    0.60    0.95
   3  -4   2    1.14    0.68
   3   4   2    0.88    0.73
  -3   4  -2    0.50    0.98
   3   4   2    0.34    1.17
   3   4   2    0.79    0.59
   3   4   2    1.53    0.84
  -3   4  -2    0.96    0.65
   3   4   2   -0.07    0.82
   4  -4   2   10.79    1.04
  -4  -4  -2   13.02    1.56
   4  -4   2   12.40    1.62
   4  -4   2   13.34    1.11
   4  -4   2   12.32    1.30
  -4   4  -2   11.46    1.35
   4   4   2   11.19    1.37
   4   4   2   10.25    0.99
  -4   4  -2   10.99    0.94
   4   4   2   11.86    1.14
  -5  -4  -2    2.90    1.01
   5  -4   2    2.46    0.92
   5  -4   2    1.72    0.80
   5  -4   2    3.93    1.12
   5  -4   2    1.15    1.38
   5   4   2    2.35    1.11
   5   4   2    1.50    0.88
   5   4   2    1.44    0.82
  -5   4  -2    2.91    0.79
  -5   4  -2    0.88    0.85
  -5   4  -2    1.79    1.14
   6  -4   2    2.56    0.99
  -6  -4  -2    5.52    2.03
  -6  -4  -2    4.78    1.21
   6  -4   2    3.83    1.63
   6  -4   2    4.26    1.05
  -6  -4  -2    4.77    1.21
   6  -4   2    4.61    1.23
  -6   4  -2    4.11    1.31
  -6   4  -2    5.77    0.96
  -6   4  -2    1.43    0.98
   6   4   2    5.53    1.15
   6   4   2    5.16    1.25
   6   4   2    4.56    1.03
   7  -4   2    0.83    1.12
  -7  -4  -2   -0.15    3.02
  -7  -4  -2    1.21    1.41
   7  -4   2    4.58    1.87
   7  -4   2   -0.73    1.08
  -7  -4  -2    0.39    1.35
  -7   4  -2   -0.51    1.06
   7   4   2    0.39    1.06
   7   4   2    1.23    0.98
   7   4   2   -0.45    1.25
  -7   4  -2    0.48    1.62
  -7   4  -2    0.36    1.25
  -8  -4  -2    6.51    1.57
   8  -4   2    5.41    1.36
   8  -4   2    4.77    2.21
  -8  -4  -2    5.51    2.52
   8  -4   2    5.82    1.35
   8   4   2    5.57    1.50
  -8   4  -2    5.00    1.72
  -8   4  -2    1.24    1.49
   8   4   2    3.36    1.03
   8   4   2    3.44    1.33
  -8   4  -2    3.21    1.15
  -9  -4  -2    4.70    1.91
   9  -4   2    1.91    1.61
  -9  -4  -2    5.53    2.71
   9  -4   2    6.31    1.58
   9  -4   2   -0.20    2.35
  -9   4  -2    3.67    1.94
   9   4   2    2.71    1.48
   9   4   2    3.88    1.21
  -9   4  -2    3.62    1.51
   9   4   2    6.22    1.72
  -9   4  -2    0.83    1.84
  10  -4   2    5.78    1.87
 -10  -4  -2    9.84    3.58
  10  -4   2    1.74    2.77
  10  -4   2    5.73    1.80
 -10  -4  -2    9.78    2.25
  10   4   2    7.93    1.72
  10   4   2   14.98    2.15
 -10   4  -2    1.71    2.33
 -10   4  -2    2.94    2.25
 -10   4  -2    5.66    1.82
  10   4   2    5.69    1.40
  11  -4   2    1.19    1.89
 -11  -4  -2    3.50    4.43
  11   4   2    3.63    1.89
 -11   4  -2    4.68    2.43
  12   4   2    2.46    2.43
  12  -5  -2    4.13    2.74
  12  -5  -2    3.57    2.73
 -12   5   2    4.97    2.75
  11  -5  -2    9.20    2.44
  11  -5  -2    8.48    2.43
  11  -5  -2    8.09    3.13
 -11   5   2    4.98    2.32
 -11   5   2    1.57    2.43
  10  -5  -2    4.31    2.02
 -10  -5   2   -0.19    1.85
  10  -5  -2    1.90    2.76
  10  -5  -2    0.76    2.03
 -10  -5   2    1.63    4.94
  10  -5  -2   -1.03    1.82
  10   5  -2    2.01    2.05
 -10   5   2    2.09    1.81
  10   5  -2    0.95    1.97
 -10   5   2    2.77    2.71
  10   5  -2   -1.31    2.21
 -10   5   2    4.14    1.85
  -9  -5   2    7.82    2.35
  -9  -5   2    8.23    1.91
   9  -5  -2    5.07    2.58
   9  -5  -2    5.21    1.58
   9  -5  -2    7.88    1.76
   9  -5  -2   10.07    2.03
  -9  -5   2    3.39    4.61
   9   5  -2    7.51    2.00
   9   5  -2    3.18    2.16
  -9   5   2    4.53    2.26
   9   5  -2    5.81    1.94
  -9   5   2    3.04    1.66
  -9   5   2    4.48    1.55
  -8  -5   2   27.12    2.71
   8  -5  -2   24.53    2.15
   8  -5  -2   22.88    2.40
   8  -5  -2   24.43    2.13
  -8  -5   2   26.01    2.42
   8  -5  -2   23.67    2.60
  -8  -5   2   30.51    3.96
   8   5  -2   21.88    2.42
  -8   5   2   24.93    2.46
   8   5  -2   21.38    2.07
  -8   5   2   25.13    2.41
   8   5  -2   22.19    2.12
   7  -5  -2   21.13    1.86
  -7  -5   2   24.76    3.43
  -7  -5   2   24.62    2.68
   7  -5  -2   22.09    2.45
  -7  -5   2   24.42    2.18
   7  -5  -2   21.88    2.01
   7   5  -2   20.00    1.96
   7   5  -2   23.01    2.31
   7   5  -2   21.81    2.59
  -7   5   2   21.55    1.71
  -7   5   2   17.63    2.07
   6  -5  -2    3.33    1.45
   6  -5  -2    2.33    1.76
   6  -5  -2    2.77    1.25
  -6  -5   2    1.62    2.88
  -6  -5   2    3.42    1.46
   6   5  -2    2.68    1.26
   6   5  -2    1.47    1.44
  -6   5   2    0.75    0.93
   6   5  -2    3.63    1.92
  -6   5   2    2.86    1.15
  -6   5   2    3.31    1.57
  -5  -5   2   20.18    2.42
   5  -5  -2   23.75    2.21
   5  -5  -2   22.93    2.64
   5  -5  -2   20.47    2.20
   5   5  -2   25.26    2.51
  -5   5   2   21.21    2.53
   5   5  -2   27.17    2.39
  -5   5   2   24.72    1.98
   5   5  -2   23.02    2.48
   4  -5  -2    6.57    1.38
   4  -5  -2    8.29    1.13
   4  -5  -2    4.61    1.66
  -4  -5   2    3.87    1.25
   4   5  -2    6.76    1.24
  -4   5   2    5.05    1.05
   4   5  -2    6.37    1.73
   4   5  -2    6.99    0.97
  -4   5   2    6.55    1.44
   4   5  -2    5.62    1.36
   4   5  -2    5.45    1.39
  -3  -5   2    7.47    1.29
   3  -5  -2   10.96    1.46
   3   5  -2   10.15    2.14
  -3   5   2    6.89    1.85
  -3   5   2    7.28    2.05
   3   5  -2   10.25    1.02
  -3   5   2    9.53    1.04
   3   5  -2    9.31    1.50
   3   5  -2    9.80    1.29
   3   5  -2    8.16    1.21
  -2  -5   2    5.57    1.26
   2  -5  -2    6.16    1.28
   2   5  -2    3.47    0.98
  -2   5   2    4.10    1.19
  -2   5   2    3.14    1.94
   2   5  -2    4.41    0.92
   2   5  -2    5.60    1.45
   2   5  -2    4.92    1.19
   2   5  -2    6.26    1.96
  -2   5   2    3.50    1.58
   1  -5  -2   16.42    2.04
  -1  -5   2   19.36    2.05
  -1   5   2   19.11    1.73
   1   5  -2   21.36    1.55
   1   5  -2   26.39    2.46
  -1   5   2   22.97    2.63
   1   5  -2   18.20    1.86
   1   5  -2   21.09    1.78
  -1   5   2   22.22    1.68
  -1   5   2   20.29    1.73
  -1   5   2   19.11    1.44
   1   5  -2   16.00    1.66
   0  -5  -2   15.13    1.83
   0  -5   2   16.29    1.61
   0   5  -2   18.09    1.63
   0   5  -2   18.50    2.68
   0   5  -2   14.60    1.44
   0   5   2   19.94    1.55
   0   5   2   16.36    1.53
   0   5   2   17.70    1.70
   0   5   2   14.50    1.39
   0   5  -2   16.62    1.68
   0   5   2   18.38    2.33
  -1  -5  -2    2.87    1.14
   1  -5   2    3.71    1.17
  -1   5  -2    5.02    1.48
   1   5   2    2.34    0.77
   1   5   2    3.63    1.73
   1   5   2    4.02    1.29
   1   5   2    3.44    1.11
   1   5   2    3.53    0.99
  -1   5  -2    1.30    2.83
  -1   5  -2    4.04    0.82
  -1   5  -2    4.48    1.20
  -2  -5  -2    0.02    1.10
   2  -5   2    1.00    1.22
  -2   5  -2    1.53    1.37
  -2   5  -2   -0.06    1.55
   2   5   2    0.27    1.06
  -2   5  -2   -0.22    2.93
   2   5   2   -1.37    1.20
  -2   5  -2    0.13    0.80
   2   5   2    0.25    1.07
   2   5   2    0.40    1.69
   2   5   2    0.41    0.77
   3  -5   2   11.13    1.11
  -3  -5  -2    9.79    1.40
   3  -5   2   11.58    1.50
   3   5   2    9.85    0.96
   3   5   2   10.35    1.31
  -3   5  -2   10.49    2.64
   3   5   2   10.72    1.50
  -3   5  -2   11.52    1.66
  -3   5  -2   10.98    1.08
  -3   5  -2   11.34    1.89
   3   5   2   15.60    1.83
   3   5   2   10.62    1.30
   4  -5   2    1.43    1.07
   4  -5   2    2.04    1.41
  -4  -5  -2    1.42    1.18
  -4   5  -2   -0.07    1.36
  -4   5  -2    6.82    2.99
   4   5   2    0.18    1.62
  -4   5  -2    1.07    0.90
   4   5   2    1.95    1.15
  -4   5  -2    2.27    1.97
   4   5   2    1.21    0.86
   4   5   2    0.35    1.12
   4   5   2    0.96    1.27
  -5  -5  -2    5.51    1.43
   5  -5   2    5.75    1.53
   5  -5   2    5.98    1.30
   5   5   2    5.83    1.27
   5   5   2    8.76    1.36
  -5   5  -2    2.09    1.08
   5   5   2    6.86    1.07
   5   5   2    5.72    1.64
   5   5   2    5.42    1.29
   6  -5   2    4.57    1.82
  -6  -5  -2    5.58    1.63
   6  -5   2    2.95    2.18
   6  -5   2    4.81    1.40
   6  -5   2    5.88    1.40
  -6   5  -2    4.88    1.89
   6   5   2    5.47    1.45
  -6   5  -2    6.06    1.27
   6   5   2    6.75    1.23
  -6   5  -2    3.81    1.47
   6   5   2    6.41    1.56
   6   5   2    4.99    1.66
   6   5   2    5.34    1.41
   7  -5   2    7.64    1.91
   7  -5   2    7.50    1.69
   7  -5   2    8.25    2.44
   7  -5   2    7.09    1.59
  -7  -5  -2    8.69    1.93
  -7   5  -2    9.43    2.33
  -7   5  -2    5.19    1.79
   7   5   2    6.41    1.81
   7   5   2    7.19    1.37
  -7   5  -2    9.87    1.62
   7   5   2    9.05    1.66
   8  -5   2    9.36    1.76
   8  -5   2    8.15    1.96
   8  -5   2    8.81    2.67
   8  -5   2    9.06    2.06
  -8   5  -2    7.37    1.86
   8   5   2    5.44    1.69
   8   5   2    8.89    2.10
  -8   5  -2    6.17    2.00
  -8   5  -2    6.39    2.49
   8   5   2    6.67    1.38
   9  -5   2   -1.79    2.22
   9  -5   2    0.02    1.84
   9  -5   2    5.34    2.39
   9  -5   2    3.69    2.93
  -9   5  -2    1.59    2.18
  -9   5  -2    0.64    1.97
   9   5   2    1.56    1.43
   9   5   2   -2.21    1.75
  10  -5   2    2.78    2.25
 -10  -5  -2   -0.44    6.33
  10   5   2    4.54    2.00
  10  -6  -2    1.35    3.10
 -10   6   2   -1.83    2.89
   9  -6  -2    3.56    2.63
   9  -6  -2    6.42    2.49
   9  -6  -2    1.35    3.16
  -9   6   2    2.83    3.19
  -9   6   2   -3.10    2.57
  -9   6   2   -2.65    3.58
   8  -6  -2   -3.66    2.24
   8  -6  -2    6.55    2.95
   8  -6  -2    2.85    2.49
   8   6  -2    0.00    2.07
   8   6  -2    0.24    2.53
  -8   6   2   -1.97    1.94
  -8   6   2   -1.56    2.98
  -8   6   2   -0.22    2.11
   7  -6  -2    0.89    2.28
   7  -6  -2    7.29    2.75
   7  -6  -2    2.93    2.08
  -7  -6   2    0.99    2.05
  -7   6   2   -1.29    2.49
   7   6  -2    6.70    2.32
   7   6  -2    0.64    2.32
   7   6  -2   -0.31    2.11
  -7   6   2    2.47    1.97
   7   6  -2    4.45    2.74
   6  -6  -2    7.30    2.06
  -6  -6   2    4.48    2.02
   6   6  -2   11.25    2.28
   6   6  -2    8.03    1.40
  -6   6   2    8.65    2.32
   6   6  -2    8.28    2.06
  -6   6   2    5.24    1.92
   6   6  -2    8.94    2.94
   6   6  -2    6.39    2.18
   5  -6  -2    1.22    1.89
  -5  -6   2    3.04    1.92
   5   6  -2    4.33    2.08
  -5   6   2    1.84    3.16
   5   6  -2    0.70    1.20
  -5   6   2    1.63    3.62
  -5   6   2    7.25    2.15
  -5   6   2    1.89    1.51
   5   6  -2   -2.09    1.83
   5   6  -2   -1.59    2.65
   5   6  -2    3.34    1.80
  -4  -6   2   10.42    2.24
   4  -6  -2   14.34    2.12
   4   6  -2   15.37    2.13
   4   6  -2    3.41    1.34
  -4   6   2    5.82    3.20
  -4   6   2    7.33    2.72
   4   6  -2    8.02    1.97
   4   6  -2    6.87    2.78
  -4   6   2    6.03    1.96
   4   6  -2    5.91    1.70
  -4   6   2    9.72    1.41
  -3  -6   2    7.42    1.76
   3  -6  -2    6.20    1.78
   3   6  -2    7.21    1.35
   3   6  -2    5.42    1.87
   3   6  -2    9.27    2.13
  -3   6   2    8.97    3.39
  -3   6   2    7.28    1.33
  -3   6   2    7.19    2.37
   3   6  -2   10.58    2.73
   3   6  -2    6.05    1.72
  -3   6   2    7.18    1.70
   2  -6  -2    8.15    1.83
  -2  -6   2    8.36    1.76
   2   6  -2    7.07    1.23
  -2   6   2   10.02    1.74
   2   6  -2    8.72    2.79
   2   6  -2    7.39    1.83
  -2   6   2    7.62    1.24
   2   6  -2    9.52    2.09
   2   6  -2    8.62    1.69
  -2   6   2    8.95    2.17
  -2   6   2    9.73    3.67
   1  -6  -2   -0.55    1.66
  -1  -6   2    0.20    1.79
   1   6  -2    1.10    1.95
   1   6  -2    1.03    1.16
  -1   6   2   -0.18    3.03
  -1   6   2   -2.61    1.86
  -1   6   2   -0.85    1.01
   1   6  -2   -1.62    1.57
   1   6  -2   -1.89    2.98
  -1   6   2   -2.27    1.41
   0  -6   2    6.82    1.84
   0  -6  -2    3.79    1.57
   0   6   2    5.56    2.57
   0   6  -2    4.38    2.14
   0   6   2    9.85    1.89
   0   6   2    4.43    1.47
   0   6  -2    4.61    1.16
   0   6  -2    7.04    3.56
   0   6  -2    7.53    1.85
   0   6   2    5.63    1.07
  -1  -6  -2    3.50    1.67
   1  -6   2    3.17    1.74
   1   6   2    4.19    1.51
   1   6   2    6.88    1.16
  -1   6  -2    5.52    3.99
  -1   6  -2    4.29    1.13
  -1   6  -2    2.11    1.84
   1   6   2    3.60    1.66
   1   6   2    4.58    1.90
  -1   6  -2    2.24    2.16
   1   6   2    3.45    2.44
   2  -6   2   11.97    2.08
  -2  -6  -2    9.82    1.82
  -2   6  -2   11.83    2.22
  -2   6  -2   12.49    2.39
   2   6   2   14.41    1.80
   2   6   2   10.33    2.41
  -2   6  -2   10.80    4.96
   2   6   2    9.40    1.29
   2   6   2   12.93    1.83
   2   6   2    9.82    1.87
  -2   6  -2   11.22    1.46
  -3  -6  -2    2.70    1.76
   3  -6   2    3.05    2.03
   3   6   2    4.09    1.78
  -3   6  -2    1.59    1.96
   3   6   2    4.94    1.68
   3   6   2    4.29    2.27
  -3   6  -2    6.79    5.65
   3   6   2    4.48    1.74
  -3   6  -2    4.67    2.43
  -3   6  -2    3.28    1.27
   3   6   2    2.77    1.02
   4  -6   2    6.79    2.07
  -4  -6  -2    6.48    1.87
  -4   6  -2    6.04    2.18
   4   6   2    8.58    2.07
   4   6   2    4.36    1.31
  -4   6  -2    6.20    2.77
  -4   6  -2   16.30    4.29
  -4   6  -2    5.04    1.57
   4   6   2    8.13    2.14
   4   6   2    2.48    1.71
   4   6   2    4.43    1.69
   5  -6   2   11.99    2.19
  -5  -6  -2   12.78    2.04
   5  -6   2   12.26    1.93
   5   6   2    6.74    2.04
  -5   6  -2    9.17    3.84
   5   6   2    7.31    2.11
  -5   6  -2    7.62    3.06
  -5   6  -2   10.29    1.73
  -5   6  -2    9.01    2.69
   5   6   2    8.03    1.89
   5   6   2   10.00    1.59
   5   6   2   11.74    2.34
   5   6   2    7.24    2.37
   6  -6   2   19.54    2.32
  -6  -6  -2   19.81    2.39
   6  -6   2   11.51    2.45
   6   6   2   16.32    2.03
  -6   6  -2   12.17    2.08
  -6   6  -2   20.99    5.79
  -6   6  -2   16.56    3.53
   6   6   2   14.77    2.47
  -6   6  -2   14.51    2.99
   7  -6   2    1.74    2.39
   7  -6   2    2.39    2.95
  -7   6  -2   -1.37    2.46
   7   6   2    6.68    2.26
  -7   6  -2    2.30    4.11
   8  -6   2    3.96    2.74
  -8   6  -2    3.16    5.24
   8   6   2    3.31    2.31
  -8   6  -2    0.20    2.66
   6  -7  -2    0.03    3.25
  -6   7   2    0.53    3.58
   5  -7  -2   -1.63    2.77
  -5   7   2    3.84    3.28
   4  -7  -2    3.75    2.66
  -4   7   2    7.78    3.22
   4   7  -2    3.54    2.90
   3  -7  -2   14.13    2.70
   3   7  -2   11.41    3.07
  -3   7   2    8.84    2.88
   2  -7  -2    0.55    2.43
  -2   7   2    2.85    2.63
   2   7  -2    5.69    2.76
   2   7  -2    6.31    3.62
   1  -7  -2    6.22    2.36
   1   7  -2    3.93    2.94
   1   7  -2    6.97    3.01
  -1   7   2    0.61    2.61
   0  -7  -2   10.50    2.65
   0   7  -2    5.37    3.22
   0   7  -2    5.36    3.06
   0   7   2    4.99    3.71
  -1  -7  -2    0.57    2.68
  -1   7  -2    2.91    3.14
  -1   7  -2    8.04    3.20
   1   7   2    6.14    3.48
  -2  -7  -2   -1.72    2.58
  -2   7  -2    2.51    2.94
   2   7   2    3.07    3.59
   2   7   2    1.61    2.46
  -2   7  -2    2.43    3.26
  -3   7  -2    2.67    3.45
  -3   7  -2    8.14    3.37
 -15   0   3    9.19    2.60
  15   0  -3    5.88    2.10
  15   0  -3    5.66    2.76
 -15   0   3    8.52    2.49
  15   0  -3   10.16    2.00
  14   0  -3    3.08    1.67
 -14   0   3    4.08    2.13
  14   0  -3   -0.50    2.25
 -14   0   3    0.38    1.96
  14   0  -3    1.21    1.63
 -14   0   3    3.67    2.57
 -13   0   3    2.51    1.76
  13   0  -3    4.17    1.91
 -13   0   3    1.30    2.09
 -13   0   3    1.91    1.36
  13   0  -3    2.37    1.30
  13   0  -3    5.41    1.42
 -12   0   3   -1.57    1.65
  12   0  -3    0.97    1.71
  12   0  -3    0.01    0.91
 -12   0   3    0.76    1.09
  12   0  -3   -0.67    1.15
 -12   0   3   -0.93    1.34
  11   0  -3    5.59    1.09
  11   0  -3    4.72    1.51
 -11   0   3    5.42    1.46
  11   0  -3    4.54    0.89
 -11   0   3    4.16    0.98
 -11   0   3    5.14    1.24
  10   0  -3   43.61    2.26
 -10   0   3   42.34    2.18
  10   0  -3   44.22    2.89
  10   0  -3   42.23    2.13
 -10   0   3   45.30    2.42
   9   0  -3    0.18    0.51
  -9   0   3    0.20    0.65
  -9   0   3    0.11    0.90
   9   0  -3    0.14    0.72
  -9   0   3    0.04    0.77
   9   0  -3    1.28    1.01
  -8   0   3   17.88    1.32
   8   0  -3   17.75    1.71
  -8   0   3   17.21    1.61
   8   0  -3   19.52    1.11
  -8   0   3   17.48    1.23
   8   0  -3   18.00    1.26
  -7   0   3    4.35    0.80
  -7   0   3    5.03    0.64
   7   0  -3    6.09    0.66
  -7   0   3    5.60    0.61
   7   0  -3    4.50    0.51
   7   0  -3    4.02    0.81
  -6   0   3    0.83    0.44
  -6   0   3    1.14    0.44
   6   0  -3    0.80    0.64
   6   0  -3    0.45    0.44
   6   0  -3    0.37    0.34
  -6   0   3    1.08    0.62
   5   0  -3    0.17    0.57
   5   0  -3   -0.45    0.39
  -5   0   3    0.41    0.53
  -5   0   3    0.09    0.36
  -5   0   3    0.05    0.37
   5   0  -3    0.16    0.28
   4   0  -3    7.58    0.51
  -4   0   3    8.56    0.49
   4   0  -3    8.01    0.87
   4   0  -3    7.56    0.66
  -4   0   3    8.03    0.80
  -4   0   3    8.32    0.66
  -3   0   3    2.49    0.43
   3   0  -3    2.96    0.45
   3   0  -3    2.42    0.30
  -3   0   3    2.37    0.24
  -3   0   3    2.38    0.30
   3   0  -3    2.57    0.34
   2   0  -3  118.04    4.11
   2   0  -3  101.62    4.04
  -2   0   3  101.89    4.04
  -2   0   3  107.94    4.06
  -2   0   3  108.71    4.11
  -1   0   3    6.95    0.45
  -1   0   3    6.60    0.58
   1   0  -3    6.77    0.57
   0   0  -3   14.61    0.61
   0   0  -3   14.65    0.63
   0   0   3   13.69    0.83
   0   0   3   14.46    0.66
   1   0   3   92.16    3.69
   1   0   3   93.29    3.61
   1   0   3   88.33    3.66
  -1   0  -3  103.71    3.65
  -1   0  -3  102.70    3.61
   2   0   3  327.92   12.35
  -2   0  -3  350.49   12.30
   2   0   3  336.75   12.31
   2   0   3  331.16   12.27
  -2   0  -3  317.01   12.27
  -2   0  -3  311.34   12.34
   3   0   3   10.62    0.67
  -3   0  -3   11.37    0.79
  -3   0  -3   11.10    0.61
   3   0   3   10.83    0.90
   3   0   3   10.00    0.78
  -3   0  -3   10.73    0.96
  -4   0  -3    9.01    1.02
  -4   0  -3    9.03    0.86
   4   0   3    8.73    0.67
  -4   0  -3    8.56    0.66
   4   0   3    8.29    0.83
   4   0   3    8.72    0.99
   5   0   3   25.51    1.56
  -5   0  -3   27.11    1.45
  -5   0  -3   25.61    1.59
   5   0   3   26.43    1.39
   5   0   3   27.73    1.28
  -5   0  -3   26.82    1.23
  -6   0  -3    4.44    0.74
   6   0   3    5.42    0.83
  -6   0  -3    3.53    0.54
   6   0   3    4.41    0.59
  -6   0  -3    3.83    0.88
   6   0   3    4.64    0.63
  -7   0  -3    1.91    0.60
   7   0   3    2.48    0.94
   7   0   3    2.94    0.64
   7   0   3    1.67    0.64
  -7   0  -3    2.05    0.88
  -7   0  -3    3.16    1.10
   8   0   3    1.97    0.74
  -8   0  -3    2.31    1.20
   8   0   3    0.87    0.74
  -8   0  -3    0.71    1.11
   8   0   3    2.14    1.04
  -8   0  -3    1.72    0.71
  -9   0  -3   27.43    2.47
   9   0   3   30.49    2.34
   9   0   3   28.46    1.83
  -9   0  -3   29.01    1.79
  -9   0  -3   25.43    2.51
   9   0   3   26.82    1.88
  10   0   3    1.58    1.32
  10   0   3    0.82    1.07
 -10   0  -3    2.05    1.51
 -10   0  -3    1.39    1.00
  10   0   3    0.22    0.98
 -10   0  -3    0.76    1.58
  10   0   3    0.70    0.96
  11   0   3   -1.03    1.09
 -11   0  -3    0.37    1.25
 -11   0  -3   -0.35    1.87
  11   0   3   -0.03    1.16
 -11   0  -3    0.17    1.79
  11   0   3   -1.15    1.31
  11   0   3    0.36    1.67
  12   0   3    8.27    1.99
 -12   0  -3   10.27    1.57
 -12   0  -3    8.85    2.45
  12   0   3    9.16    1.72
 -12   0  -3   10.47    2.31
  12   0   3    9.56    1.82
  12   0   3   10.26    1.62
  13   0   3    3.24    2.21
  15  -1  -3   13.16    2.73
 -15  -1   3   10.78    2.63
  15  -1  -3    7.35    2.04
  15  -1  -3   11.68    2.03
 -15   1   3   13.20    2.47
  15   1  -3   11.19    2.86
  15   1  -3   16.16    2.33
  15   1  -3   10.71    2.06
  14  -1  -3    2.92    1.66
  14  -1  -3    4.20    1.64
 -14  -1   3    2.45    2.23
  14  -1  -3    3.99    2.21
 -14  -1   3    2.99    2.04
 -14  -1   3    3.97    2.80
 -14   1   3    1.59    2.65
  14   1  -3    0.97    2.22
 -14   1   3    2.32    2.22
  14   1  -3    0.10    1.71
  14   1  -3    0.35    1.68
 -14   1   3    1.11    1.93
 -13  -1   3   25.36    2.25
 -13  -1   3   25.81    2.68
  13  -1  -3   27.18    2.67
  13  -1  -3   20.95    2.50
  13  -1  -3   25.44    2.49
 -13  -1   3   29.48    2.19
  13   1  -3   25.00    2.61
  13   1  -3   28.99    2.48
  13   1  -3   27.86    1.97
 -13   1   3   25.10    2.63
 -13   1   3   23.52    1.94
 -13   1   3   25.36    2.29
 -12  -1   3    1.92    1.42
  12  -1  -3    1.18    1.02
  12  -1  -3    1.38    1.64
  12  -1  -3    1.27    1.18
 -12  -1   3    3.49    1.34
 -12  -1   3    3.06    1.83
  12  -1  -3    1.04    1.06
  12   1  -3    1.74    1.24
  12   1  -3    2.11    1.19
 -12   1   3    3.23    1.77
 -12   1   3    0.72    1.49
  12   1  -3    3.30    1.64
 -12   1   3    2.94    1.13
 -11  -1   3    7.60    1.14
  11  -1  -3    8.53    1.13
  11  -1  -3   10.56    1.16
  11  -1  -3   12.76    1.45
 -11  -1   3   11.18    1.41
 -11  -1   3   12.13    1.61
  11  -1  -3    8.25    1.49
  11   1  -3    8.63    1.25
 -11   1   3    8.79    1.59
 -11   1   3    8.12    1.07
 -11   1   3   12.42    1.51
  11   1  -3   12.14    1.24
  11   1  -3   11.88    1.51
 -10  -1   3   19.78    1.71
  10  -1  -3   15.93    1.50
 -10  -1   3   19.85    1.82
  10  -1  -3   22.00    2.17
  10  -1  -3   19.71    1.70
  10  -1  -3   22.84    1.50
 -10  -1   3   23.32    2.24
  10   1  -3   23.64    1.63
  10   1  -3   20.04    2.16
 -10   1   3   20.51    1.60
  10   1  -3   22.23    1.74
 -10   1   3   24.80    2.19
 -10   1   3   20.27    1.91
   9  -1  -3   43.50    2.58
  -9  -1   3   43.42    2.49
  -9  -1   3   46.93    2.16
   9  -1  -3   42.39    2.11
  -9  -1   3   45.16    2.26
   9  -1  -3   45.15    2.18
  -9   1   3   43.70    2.51
   9   1  -3   45.17    2.15
   9   1  -3   44.61    2.54
   9   1  -3   45.35    2.18
  -9   1   3   45.22    2.35
  -9   1   3   46.30    2.13
  -8  -1   3   19.89    1.38
   8  -1  -3   18.68    1.91
  -8  -1   3   20.82    1.31
   8  -1  -3   20.56    1.25
  -8  -1   3   20.61    1.71
   8  -1  -3   19.73    1.37
   8   1  -3   20.86    1.37
  -8   1   3   20.57    1.26
  -8   1   3   21.44    1.51
   8   1  -3   22.82    1.28
  -8   1   3   18.89    1.64
   8   1  -3   20.61    1.68
  -7  -1   3   76.55    3.02
   7  -1  -3   72.43    3.28
   7  -1  -3   74.64    3.01
  -7  -1   3   73.29    3.00
  -7  -1   3   72.26    3.18
   7  -1  -3   71.69    3.00
  -7  -1   3   75.49    3.05
  -7   1   3   74.75    3.17
  -7   1   3   74.84    3.00
   7   1  -3   71.74    3.21
  -7   1   3   73.93    3.07
   7   1  -3   75.97    3.04
   7   1  -3   76.11    3.02
  -6  -1   3   27.36    1.32
  -6  -1   3   26.56    1.58
  -6  -1   3   28.95    1.37
   6  -1  -3   27.95    1.73
  -6  -1   3   28.92    1.34
   6  -1  -3   29.26    1.37
   6   1  -3   27.03    1.36
  -6   1   3   28.25    1.31
   6   1  -3   27.18    1.59
   6   1  -3   28.45    1.33
  -6   1   3   27.10    1.42
  -6   1   3   27.01    1.57
  -5  -1   3   40.91    2.02
   5  -1  -3   43.70    1.83
  -5  -1   3   42.44    1.83
  -5  -1   3   42.12    1.83
  -5  -1   3   48.88    1.83
   5  -1  -3   44.67    2.05
  -5   1   3   44.79    1.97
   5   1  -3   43.64    1.86
  -5   1   3   41.54    1.79
   5   1  -3   44.24    1.85
   5   1  -3   42.16    2.03
  -5   1   3   41.89    1.86
  -4  -1   3   49.32    2.17
  -4  -1   3   47.73    2.02
  -4  -1   3   49.67    2.01
   4  -1  -3   53.18    2.14
   4  -1  -3   50.63    1.99
  -4   1   3   51.98    2.13
   4   1  -3   46.19    2.12
   4   1  -3   49.42    2.02
  -4   1   3   51.27    1.99
  -4   1   3   46.97    2.01
   4   1  -3   48.67    2.02
  -3  -1   3    2.95    0.36
  -3  -1   3    3.10    0.40
  -3  -1   3    3.71    0.55
   3  -1  -3    3.28    0.48
   3  -1  -3    3.90    0.35
   3   1  -3    3.44    0.35
   3   1  -3    3.23    0.42
  -3   1   3    4.44    0.52
   3   1  -3    3.17    0.58
  -3   1   3    4.15    0.35
  -2  -1   3   51.33    2.12
  -2  -1   3   52.31    2.12
  -2  -1   3   48.88    2.22
   2  -1  -3   56.19    2.13
  -2   1   3   57.69    2.15
   2   1  -3   51.52    2.11
  -2   1   3   56.80    2.07
   2   1  -3   51.96    2.11
   2   1  -3   51.75    2.23
  -1  -1   3  165.54    6.20
  -1  -1   3  168.69    6.28
   1  -1  -3  148.26    6.12
  -1  -1   3  159.62    6.17
   1   1  -3  168.23    6.17
  -1   1   3  174.36    6.15
  -1   1   3  156.54    6.13
   1   1  -3  169.38    6.27
   0  -1   3   74.71    2.98
   0   1  -3   81.77    2.95
   0   1  -3   76.59    2.98
   0   1  -3   76.05    3.13
   0   1   3   71.10    2.94
   0   1  -3   82.65    3.04
   1  -1   3   84.93    3.35
   1  -1   3   85.64    3.43
   1  -1   3   88.49    3.41
   1   1   3   84.59    3.35
   1   1   3   82.43    3.35
  -1   1  -3   91.85    3.34
  -1   1  -3   94.55    3.42
   2  -1   3  129.42    5.02
   2  -1   3  137.21    5.13
  -2  -1  -3  124.71    5.03
   2  -1   3  131.13    5.08
  -2   1  -3  142.49    5.09
   2   1   3  127.08    5.03
  -2   1  -3  128.81    5.08
   2   1   3  131.96    5.04
  -2   1  -3  138.61    5.02
  -3  -1  -3    9.60    0.87
   3  -1   3   10.74    0.82
   3  -1   3   11.09    0.78
   3  -1   3   10.90    1.13
  -3   1  -3   10.83    0.70
  -3   1  -3   10.95    0.96
   3   1   3   10.24    0.74
  -3   1  -3   10.81    0.99
   3   1   3    9.97    0.66
  -4  -1  -3   24.20    1.25
   4  -1   3   25.02    1.17
  -4  -1  -3   23.47    1.33
   4  -1   3   24.60    1.41
   4  -1   3   23.72    1.29
   4   1   3   26.46    1.12
   4   1   3   23.52    1.20
  -4   1  -3   24.68    1.42
   4   1   3   22.80    1.15
  -4   1  -3   22.73    1.34
  -4   1  -3   25.13    1.15
  -5  -1  -3  107.77    4.13
   5  -1   3  104.71    4.28
   5  -1   3  106.46    4.39
  -5  -1  -3  105.04    4.30
   5  -1   3  108.08    4.20
  -5  -1  -3  104.76    4.22
   5   1   3  110.47    4.27
   5   1   3  106.05    4.22
  -5   1  -3  106.08    4.29
   5   1   3  112.56    4.15
  -5   1  -3  108.65    4.17
   5   1   3  110.49    4.22
  -5   1  -3  109.58    4.36
   6  -1   3   20.77    1.79
  -6  -1  -3   22.25    1.47
   6  -1   3   21.82    1.31
  -6  -1  -3   21.65    1.18
   6  -1   3   20.66    1.40
  -6  -1  -3   23.26    1.63
   6   1   3   23.58    1.56
   6   1   3   24.16    1.21
   6   1   3   21.86    1.27
  -6   1  -3   23.32    1.75
  -6   1  -3   23.52    1.24
   6   1   3   24.17    1.31
  -6   1  -3   22.32    1.64
  -7  -1  -3  119.94    4.64
   7  -1   3  114.00    4.79
   7  -1   3  114.53    4.93
  -7  -1  -3  116.15    4.82
   7  -1   3  121.55    4.71
  -7  -1  -3  126.37    4.91
  -7   1  -3  114.65    4.91
   7   1   3  117.78    4.82
   7   1   3  125.90    4.65
  -7   1  -3  122.68    4.97
   7   1   3  118.70    4.73
   7   1   3  119.16    4.76
  -7   1  -3  117.79    4.68
   8  -1   3   13.94    1.08
  -8  -1  -3   13.67    1.27
   8  -1   3   14.80    1.52
   8  -1   3   13.79    1.36
  -8  -1  -3   12.80    1.34
  -8  -1  -3   12.99    1.38
  -8   1  -3   13.10    1.47
   8   1   3   11.07    1.27
   8   1   3   11.49    1.22
  -8   1  -3   11.51    1.00
   8   1   3   11.69    1.30
   8   1   3   14.00    1.40
  -8   1  -3   12.15    1.36
  -9  -1  -3   14.34    1.62
   9  -1   3   15.83    1.55
  -9  -1  -3   15.54    1.53
  -9  -1  -3   15.77    1.22
   9  -1   3   17.44    1.60
   9  -1   3   14.88    1.70
   9   1   3   14.51    1.47
   9   1   3   13.81    1.49
  -9   1  -3   16.42    1.73
  -9   1  -3   15.21    1.20
   9   1   3   13.42    1.54
   9   1   3   13.53    1.54
  -9   1  -3   13.64    1.54
  10  -1   3   23.71    2.19
  10  -1   3   26.94    2.02
 -10  -1  -3   29.51    2.26
 -10  -1  -3   26.10    2.79
  10  -1   3   26.89    2.72
 -10  -1  -3   27.62    2.41
  10   1   3   25.55    2.05
  10   1   3   28.50    1.97
 -10   1  -3   31.01    2.88
 -10   1  -3   25.65    2.25
  10   1   3   27.88    2.57
  10   1   3   26.14    2.08
 -10   1  -3   26.65    2.05
 -11  -1  -3   23.24    2.17
 -11  -1  -3   32.00    2.71
 -11  -1  -3   27.37    2.49
  11  -1   3   27.95    2.22
  11  -1   3   25.15    2.27
  11  -1   3   22.71    2.54
  11   1   3   22.37    2.36
  11   1   3   23.89    2.26
 -11   1  -3   21.49    2.37
 -11   1  -3   24.34    2.57
  11   1   3   25.50    2.78
 -11   1  -3   21.97    2.43
  11   1   3   22.67    2.14
 -12  -1  -3    8.83    2.32
 -12  -1  -3   12.72    1.90
  12  -1   3   10.91    1.95
  12  -1   3   12.54    1.58
  12  -1   3   14.88    2.23
 -12  -1  -3   16.24    2.78
  12   1   3   13.45    1.52
 -12   1  -3    9.04    1.72
 -12   1  -3   10.91    2.71
  12   1   3   11.34    1.81
  12   1   3   14.73    2.05
  12   1   3   11.24    1.72
 -12   1  -3   12.05    2.14
 -13  -1  -3    0.67    2.41
  13   1   3   -0.11    2.10
  13   1   3    4.18    2.23
 -15  -2   3    6.06    2.67
  15  -2  -3    5.25    2.02
  15  -2  -3    5.24    2.79
 -15   2   3    3.91    3.86
  14  -2  -3    6.06    1.76
  14  -2  -3   10.56    2.02
 -14  -2   3    7.61    2.29
 -14  -2   3   -0.10    3.07
  14  -2  -3    4.91    2.45
 -14  -2   3    6.91    2.27
  14   2  -3    4.89    2.34
  14   2  -3    4.25    2.00
 -14   2   3    1.84    2.29
  14   2  -3    5.29    2.02
 -14   2   3    5.43    2.73
 -14   2   3    2.04    2.01
  13  -2  -3    6.71    1.64
 -13  -2   3    8.27    1.94
  13  -2  -3   10.93    1.81
 -13  -2   3    6.33    1.96
 -13  -2   3   11.94    2.64
  13  -2  -3    5.73    2.00
  13  -2  -3    6.89    1.55
  13   2  -3    6.98    1.90
 -13   2   3    7.62    2.08
 -13   2   3    6.26    2.28
  13   2  -3    9.34    1.72
 -13   2   3    4.68    1.58
  13   2  -3    8.81    1.58
 -12  -2   3    9.52    1.59
  12  -2  -3    7.59    1.39
 -12  -2   3   10.67    1.66
 -12  -2   3    9.85    2.16
  12  -2  -3    6.69    1.85
  12  -2  -3    9.74    1.36
  12   2  -3    8.06    1.72
 -12   2   3    8.73    2.03
  12   2  -3    9.00    1.47
 -12   2   3    9.80    1.29
  12   2  -3   10.60    1.59
 -12   2   3    9.85    1.76
  11  -2  -3    5.93    1.20
  11  -2  -3    8.66    1.56
 -11  -2   3    6.45    1.38
 -11  -2   3    6.54    1.28
  11  -2  -3    6.51    1.10
 -11  -2   3    8.99    1.83
 -11   2   3    7.26    1.52
  11   2  -3    7.57    1.25
  11   2  -3    6.32    1.19
 -11   2   3    7.71    1.18
  11   2  -3    8.94    1.53
 -11   2   3    4.88    1.56
  10  -2  -3   20.16    1.70
 -10  -2   3   22.35    1.92
  10  -2  -3   21.85    2.27
 -10  -2   3   22.28    1.92
  10  -2  -3   19.71    1.77
 -10  -2   3   24.84    2.58
  10   2  -3   20.14    1.84
 -10   2   3   20.54    2.19
  10   2  -3   18.98    2.22
 -10   2   3   19.44    1.73
 -10   2   3   19.13    1.63
  10   2  -3   19.61    1.78
  -9  -2   3    6.27    1.33
  -9  -2   3    5.19    0.94
   9  -2  -3    4.79    1.14
   9  -2  -3    5.22    0.92
  -9  -2   3    6.75    1.00
  -9  -2   3    4.44    0.96
   9  -2  -3    4.64    0.83
  -9   2   3    4.66    1.15
  -9   2   3    5.29    1.05
   9   2  -3    4.15    0.94
   9   2  -3    4.52    0.85
   9   2  -3    4.19    1.18
  -9   2   3    4.42    0.81
  -8  -2   3   56.98    3.00
  -8  -2   3   57.14    2.49
  -8  -2   3   56.92    2.52
   8  -2  -3   54.86    2.50
   8  -2  -3   51.83    2.82
  -8  -2   3   57.88    2.53
   8  -2  -3   53.81    2.51
   8   2  -3   56.79    2.52
  -8   2   3   57.22    2.69
   8   2  -3   58.39    2.56
  -8   2   3   55.18    2.44
  -8   2   3   50.56    2.70
   8   2  -3   56.34    2.84
   7  -2  -3   25.44    1.81
  -7  -2   3   26.15    2.05
  -7  -2   3   25.21    1.52
   7  -2  -3   27.76    1.52
  -7  -2   3   26.88    1.47
  -7  -2   3   24.71    1.49
   7  -2  -3   24.88    1.44
   7   2  -3   27.33    1.60
   7   2  -3   27.81    1.50
  -7   2   3   26.77    1.41
   7   2  -3   27.36    1.91
  -7   2   3   30.05    1.78
  -7   2   3   26.19    1.60
  -6  -2   3   16.64    1.11
  -6  -2   3   16.56    1.58
   6  -2  -3   16.62    1.50
  -6  -2   3   18.02    1.21
  -6  -2   3   17.13    1.04
   6  -2  -3   16.07    1.04
   6  -2  -3   17.29    1.15
   6   2  -3   17.69    1.21
   6   2  -3   17.97    1.11
  -6   2   3   14.04    1.41
   6   2  -3   14.99    1.47
  -6   2   3   15.96    1.24
  -6   2   3   15.77    1.03
  -5  -2   3    2.99    0.60
   5  -2  -3    3.70    0.84
   5  -2  -3    4.39    0.53
  -5  -2   3    4.04    0.86
   5   2  -3    3.96    0.53
  -5   2   3    3.62    0.48
  -5   2   3    3.08    0.57
   5   2  -3    3.73    0.62
   5   2  -3    3.31    0.86
  -5   2   3    3.25    0.67
   4  -2  -3  149.64    5.60
  -4  -2   3  150.01    5.67
  -4  -2   3  139.47    5.78
   4  -2  -3  146.82    5.69
   4  -2  -3  141.85    5.58
  -4  -2   3  147.52    5.63
  -4   2   3  148.15    5.60
   4   2  -3  149.68    5.63
  -4   2   3  148.04    5.67
   4   2  -3  151.33    5.68
   4   2  -3  144.97    5.76
  -4   2   3  143.31    5.58
  -3  -2   3   19.66    1.50
   3  -2  -3   21.14    1.04
   3  -2  -3   22.86    1.31
   3  -2  -3   24.67    1.10
  -3  -2   3   22.65    1.19
  -3  -2   3   21.34    1.16
  -3   2   3   23.70    1.25
  -3   2   3   23.72    1.08
   3   2  -3   21.84    1.18
   3   2  -3   21.94    1.15
   3   2  -3   22.16    1.42
   2  -2  -3   16.97    0.81
  -2  -2   3   16.14    1.40
  -2  -2   3   18.04    0.96
   2  -2  -3   17.84    1.04
  -2  -2   3   16.90    0.99
   2   2  -3   15.94    1.33
   2   2  -3   17.25    1.02
  -2   2   3   17.95    0.99
  -2   2   3   16.34    0.79
   2   2  -3   16.86    0.95
  -2   2   3   14.25    0.80
  -2   2   3   16.83    0.84
   1  -2  -3   58.88    2.33
  -1  -2   3   57.19    2.47
   1  -2  -3   58.05    2.36
   1  -2  -3   57.85    2.42
  -1  -2   3   62.01    2.49
  -1  -2   3   56.41    2.71
   1   2  -3   62.84    2.47
  -1   2   3   61.06    2.41
  -1   2   3   59.61    2.38
  -1   2   3   63.46    2.34
   1   2  -3   65.26    2.47
   1   2  -3   59.16    2.70
   0  -2  -3   33.52    1.43
   0  -2   3   32.06    1.46
   0  -2   3   31.98    1.52
   0   2  -3   34.41    1.44
   0   2   3   32.40    1.42
   0   2   3   34.92    1.35
   0   2  -3   34.44    1.62
   0   2  -3   33.20    1.91
   0   2   3   34.75    1.49
   0   2   3   33.48    1.42
   0   2   3   31.23    1.55
   0   2  -3   34.06    1.56
   1  -2   3    4.63    0.58
   1  -2   3    4.64    0.52
  -1  -2  -3    4.78    0.48
  -1   2  -3    4.91    0.68
  -1   2  -3    4.67    0.43
   1   2   3    4.75    0.45
  -1   2  -3    6.04    0.69
  -1   2  -3    5.32    1.00
   2  -2   3  103.35    4.29
   2  -2   3  105.99    4.16
   2  -2   3  105.36    4.12
  -2  -2  -3  107.57    4.12
   2   2   3  111.35    4.17
  -2   2  -3  105.64    4.23
  -2   2  -3  107.63    4.18
  -2   2  -3  105.88    4.11
   3  -2   3   25.72    1.26
   3  -2   3   26.30    1.71
   3  -2   3   23.02    1.33
  -3   2  -3   24.16    1.19
   3   2   3   24.49    1.26
  -3   2  -3   22.35    1.44
   3   2   3   26.03    1.27
  -3   2  -3   25.76    1.38
  -4  -2  -3    8.36    0.76
  -4  -2  -3    6.16    0.69
   4  -2   3    8.85    0.72
   4  -2   3    8.28    0.77
   4  -2   3    8.92    1.06
  -4   2  -3    7.26    0.79
  -4   2  -3    7.97    0.88
   4   2   3    7.60    0.69
   4   2   3    7.29    0.71
  -4   2  -3    7.28    0.87
   4   2   3    8.82    0.72
  -5  -2  -3   68.24    3.01
   5  -2   3   69.04    2.95
  -5  -2  -3   67.94    2.94
   5  -2   3   71.93    2.91
   5  -2   3   69.12    3.23
   5   2   3   70.80    2.83
  -5   2  -3   69.79    3.08
   5   2   3   73.77    2.80
  -5   2  -3   68.67    2.86
  -5   2  -3   63.95    3.05
   5   2   3   70.90    2.93
   5   2   3   74.34    2.96
  -6  -2  -3   20.73    1.44
   6  -2   3   14.08    1.34
   6  -2   3   19.49    1.60
   6  -2   3   14.75    1.31
  -6  -2  -3   17.66    1.27
  -6   2  -3   15.02    1.63
  -6   2  -3   16.16    1.19
  -6   2  -3   16.47    1.65
   6   2   3   15.25    1.33
   6   2   3   16.24    1.09
   6   2   3   15.99    1.15
   6   2   3   14.47    1.56
  -7  -2  -3    8.36    1.18
  -7  -2  -3    8.96    0.88
  -7  -2  -3   13.63    1.26
   7  -2   3    9.28    1.00
   7  -2   3    8.79    0.99
   7  -2   3   10.33    1.53
  -7   2  -3    9.17    0.88
   7   2   3    9.75    1.07
   7   2   3    8.60    1.01
   7   2   3    9.60    1.21
   7   2   3   10.12    0.89
  -7   2  -3    8.79    1.28
  -7   2  -3    8.98    1.19
  -8  -2  -3    3.94    1.31
   8  -2   3    4.64    1.03
   8  -2   3    4.39    0.90
  -8  -2  -3    4.15    1.27
   8  -2   3    3.02    1.47
  -8  -2  -3    2.84    0.90
   8   2   3    4.97    0.83
  -8   2  -3    2.50    1.21
   8   2   3    4.54    1.22
   8   2   3    3.11    0.72
  -8   2  -3    3.74    0.84
   8   2   3    2.51    0.89
  -8   2  -3    2.88    1.20
  -9  -2  -3    5.87    1.64
  -9  -2  -3    5.67    1.17
   9  -2   3    6.14    1.13
   9  -2   3    8.89    1.77
   9  -2   3    6.98    1.12
  -9  -2  -3    7.84    1.49
  -9   2  -3    7.72    1.59
  -9   2  -3    8.10    1.10
   9   2   3    8.10    0.99
   9   2   3   10.35    1.37
   9   2   3    5.39    0.92
  -9   2  -3    6.25    1.54
   9   2   3    8.81    1.28
 -10  -2  -3    5.44    1.64
  10  -2   3    7.21    1.42
  10  -2   3    5.23    1.29
 -10  -2  -3    7.46    1.98
 -10  -2  -3    6.19    1.39
  10  -2   3    7.85    1.98
 -10   2  -3    3.00    1.80
  10   2   3    7.80    1.57
 -10   2  -3    7.48    1.85
  10   2   3    5.93    1.13
  10   2   3    6.64    1.13
 -10   2  -3    7.85    1.33
  10   2   3    6.61    1.40
  11  -2   3   -0.16    1.58
  11  -2   3    2.05    1.42
  11  -2   3    1.53    2.16
 -11  -2  -3   -1.25    1.74
 -11  -2  -3    4.19    2.37
 -11  -2  -3   -1.17    1.68
  11   2   3    2.21    1.54
  11   2   3   -0.66    1.05
 -11   2  -3    0.96    1.43
 -11   2  -3    1.78    2.21
 -11   2  -3    1.45    2.14
  11   2   3    2.06    1.63
  11   2   3    0.26    1.35
  12  -2   3    5.78    1.59
 -12  -2  -3    6.07    3.20
  12  -2   3    2.71    2.58
 -12  -2  -3    2.12    2.21
  12   2   3    7.40    2.03
  12   2   3    3.45    1.60
  12   2   3    4.83    1.39
 -13  -2  -3    0.88    2.96
  13   2   3    3.19    2.20
  13   2   3    1.87    2.05
  15  -3  -3    1.82    3.27
  15  -3  -3   -1.63    2.45
 -15  -3   3    5.70    2.99
 -14  -3   3    6.04    2.53
  14  -3  -3    2.29    2.06
  14  -3  -3    3.09    2.62
 -14   3   3    3.19    2.35
 -13  -3   3   20.89    2.60
 -13  -3   3   25.87    3.73
  13  -3  -3   22.19    2.64
 -13  -3   3   32.03    3.36
  13  -3  -3   25.08    2.18
  13   3  -3   26.94    2.21
 -13   3   3   24.48    2.27
 -13   3   3   19.66    3.12
 -13   3   3   27.24    2.89
  13   3  -3   22.56    2.49
  13   3  -3   22.07    2.53
 -12  -3   3    3.40    2.99
  12  -3  -3   -0.69    1.55
  12  -3  -3    0.61    1.37
 -12  -3   3    1.23    1.72
 -12  -3   3   -0.32    1.94
  12  -3  -3    2.67    2.10
 -12   3   3    0.63    1.40
 -12   3   3   -0.37    2.10
  12   3  -3    2.99    1.49
 -12   3   3    1.01    2.08
  12   3  -3    1.12    1.82
  12   3  -3    2.12    1.57
  11  -3  -3   13.56    1.49
 -11  -3   3   17.03    1.89
  11  -3  -3   13.75    1.56
 -11  -3   3   12.35    1.59
 -11  -3   3   15.29    2.71
  11  -3  -3   15.39    2.06
  11   3  -3   13.78    1.57
  11   3  -3   15.30    1.59
 -11   3   3   12.04    2.13
 -11   3   3   18.48    2.01
 -11   3   3   12.20    1.46
  11   3  -3   14.30    1.91
 -10  -3   3   12.70    2.23
  10  -3  -3   12.24    1.45
  10  -3  -3   13.89    1.83
 -10  -3   3   17.72    1.64
 -10  -3   3   14.09    1.42
  10  -3  -3   12.58    1.29
 -10  -3   3   15.45    1.62
 -10   3   3   10.69    1.23
 -10   3   3   16.75    1.75
  10   3  -3   13.86    1.34
 -10   3   3    8.07    1.59
  10   3  -3   12.63    1.39
  10   3  -3   14.07    1.61
  -9  -3   3   52.29    2.74
  -9  -3   3   54.00    2.66
   9  -3  -3   51.28    3.24
   9  -3  -3   51.81    2.79
   9  -3  -3   47.05    2.59
  -9  -3   3   53.47    3.62
  -9  -3   3   51.68    2.78
  -9   3   3   51.27    2.97
   9   3  -3   54.36    2.72
   9   3  -3   55.69    2.74
   9   3  -3   53.48    3.01
  -9   3   3   52.73    2.95
  -9   3   3   53.95    2.53
  -8  -3   3    6.66    0.90
   8  -3  -3    6.04    0.89
  -8  -3   3    8.23    1.64
   8  -3  -3    7.18    1.04
  -8  -3   3    6.71    1.00
  -8  -3   3    6.97    1.07
   8   3  -3    6.98    1.33
   8   3  -3    6.85    1.11
  -8   3   3    7.26    1.21
  -8   3   3    6.78    1.18
  -8   3   3    5.77    0.88
   8   3  -3    4.53    0.89
   7  -3  -3   17.73    1.32
  -7  -3   3   20.40    1.89
   7  -3  -3   19.60    1.66
  -7  -3   3   21.06    1.63
   7  -3  -3   18.61    1.58
  -7  -3   3   18.85    1.42
  -7  -3   3   17.28    1.58
   7   3  -3   20.14    1.61
  -7   3   3   18.14    1.74
  -7   3   3   17.79    1.33
   7   3  -3   19.19    1.44
   7   3  -3   18.97    2.02
  -7   3   3   20.68    1.75
   6  -3  -3   32.71    2.24
   6  -3  -3   32.37    1.78
  -6  -3   3   32.28    1.81
  -6  -3   3   31.79    1.62
  -6  -3   3   33.43    1.85
   6  -3  -3   31.54    1.72
  -6  -3   3   32.73    2.59
  -6   3   3   29.28    1.64
   6   3  -3   34.68    1.88
   6   3  -3   34.48    1.79
   6   3  -3   36.55    2.36
  -6   3   3   33.02    1.87
  -6   3   3   31.55    1.94
   5  -3  -3   14.81    1.26
   5  -3  -3   13.81    1.12
   5  -3  -3   12.22    1.06
  -5  -3   3   12.79    1.25
  -5  -3   3   14.45    1.46
  -5  -3   3   13.20    1.21
  -5   3   3   12.26    1.34
   5   3  -3   13.02    1.15
  -5   3   3   12.19    1.26
  -5   3   3   14.66    1.07
   5   3  -3   12.85    1.31
   5   3  -3   13.05    1.01
   4  -3  -3   45.06    1.99
   4  -3  -3   44.54    2.02
  -4  -3   3   43.61    2.04
  -4  -3   3   41.31    2.53
   4  -3  -3   46.10    2.36
  -4  -3   3   42.71    2.06
  -4   3   3   44.10    1.97
   4   3  -3   44.42    2.07
  -4   3   3   43.41    2.20
   4   3  -3   44.75    2.08
  -4   3   3   44.30    1.94
   4   3  -3   44.02    2.38
  -3  -3   3   29.19    1.60
  -3  -3   3   28.74    2.17
   3  -3  -3   32.63    1.49
   3  -3  -3   31.43    1.50
  -3  -3   3   31.69    1.65
   3  -3  -3   32.19    1.88
   3   3  -3   29.58    1.63
  -3   3   3   30.70    1.65
   3   3  -3   29.67    1.59
  -3   3   3   30.76    1.42
   3   3  -3   32.22    2.09
  -2  -3   3   54.43    2.82
   2  -3  -3   52.70    2.48
   2  -3  -3   60.95    2.33
   2  -3  -3   57.57    2.33
  -2  -3   3   56.15    2.45
  -2  -3   3   53.80    2.45
  -2   3   3   54.27    2.41
   2   3  -3   53.77    2.39
   2   3  -3   55.80    2.45
   2   3  -3   53.40    2.78
  -2   3   3   54.78    2.30
  -2   3   3   57.60    2.27
   1  -3  -3   17.58    1.04
  -1  -3   3   18.77    1.26
  -1  -3   3   17.45    1.02
  -1   3   3   17.79    0.97
   1   3  -3   17.49    1.33
   1   3  -3   18.05    1.01
   1   3  -3   16.35    1.13
   1   3  -3   16.99    1.58
  -1   3   3   17.37    1.23
   1   3  -3   17.50    1.38
  -1   3   3   16.67    1.05
   0  -3   3   34.79    1.79
   0  -3  -3   33.33    1.64
   0  -3   3   37.19    1.65
   0   3  -3   34.02    1.87
   0   3   3   41.32    1.73
   0   3   3   33.87    1.65
   0   3  -3   38.19    2.45
   0   3   3   33.77    2.08
   0   3   3   35.92    1.54
   0   3  -3   37.52    1.82
   0   3   3   33.45    1.65
   0   3  -3   35.45    1.62
  -1  -3  -3   80.56    3.12
   1  -3   3   75.24    3.09
   1  -3   3   77.59    3.25
  -1   3  -3   79.41    3.24
   1   3   3   74.68    3.09
  -1   3  -3   72.50    3.21
   1   3   3   78.51    3.12
  -1   3  -3   77.68    3.63
   1   3   3   78.76    2.98
   1   3   3   72.78    3.23
  -1   3  -3   73.40    3.05
   1   3   3   76.63    3.04
   2  -3   3    8.43    0.75
   2  -3   3    8.55    0.92
  -2  -3  -3    8.45    0.78
   2   3   3    7.41    0.66
   2   3   3    8.14    0.80
  -2   3  -3    8.71    1.43
   2   3   3    8.94    0.76
  -2   3  -3    7.52    0.66
  -2   3  -3    8.70    0.95
   2   3   3    7.52    0.85
   3  -3   3    7.88    0.73
  -3  -3  -3    8.99    1.02
   3  -3   3    8.42    1.17
   3  -3   3    7.64    0.79
  -3   3  -3    4.92    0.82
   3   3   3    7.29    0.80
   3   3   3    6.82    0.67
   3   3   3    8.49    0.85
  -3   3  -3    7.40    0.79
  -3   3  -3    7.85    0.99
   4  -3   3   16.82    1.28
   4  -3   3   14.01    1.20
  -4  -3  -3   16.68    1.40
  -4  -3  -3   15.01    1.69
   4  -3   3   18.05    1.48
   4   3   3   14.38    1.40
   4   3   3   15.77    1.24
  -4   3  -3   15.39    1.33
  -4   3  -3   13.82    1.61
  -4   3  -3   13.31    1.08
   5  -3   3   65.36    2.95
   5  -3   3   68.22    3.52
  -5  -3  -3   64.82    3.65
   5  -3   3   65.23    2.94
  -5   3  -3   67.63    2.84
   5   3   3   68.37    2.96
   5   3   3   66.67    2.96
   5   3   3   70.55    3.00
  -5   3  -3   66.43    3.20
   6  -3   3    7.98    1.50
   6  -3   3    5.64    0.88
  -6  -3  -3    7.17    1.39
   6  -3   3    5.22    0.96
   6   3   3    5.58    0.75
  -6   3  -3    7.19    0.87
  -6   3  -3    4.26    1.15
   6   3   3    6.03    0.98
   6   3   3    5.50    0.92
  -6   3  -3    6.08    1.22
  -7  -3  -3   13.03    1.71
  -7  -3  -3   10.83    1.22
   7  -3   3   11.73    1.85
   7  -3   3   10.72    1.16
   7  -3   3   12.24    1.21
   7   3   3   11.89    1.21
  -7   3  -3    8.96    1.46
   7   3   3   13.87    1.63
  -7   3  -3   13.78    1.48
   7   3   3   14.30    1.31
   7   3   3   15.01    1.32
  -7   3  -3   11.49    1.15
   8  -3   3    8.66    2.09
  -8  -3  -3    7.51    1.31
   8  -3   3   10.57    1.32
  -8  -3  -3   11.32    1.96
   8  -3   3    7.64    1.26
   8   3   3    8.25    1.15
   8   3   3    9.58    1.42
  -8   3  -3    5.96    1.58
  -8   3  -3    7.01    1.08
   8   3   3    8.15    0.95
  -8   3  -3    7.58    1.52
   8   3   3    8.15    1.00
  -9  -3  -3    3.91    1.51
   9  -3   3    1.39    2.21
   9  -3   3    2.89    1.33
   9  -3   3    3.71    1.32
  -9  -3  -3    4.13    2.15
   9   3   3    0.79    1.30
   9   3   3    1.07    0.92
   9   3   3    1.05    1.44
  -9   3  -3    0.77    1.84
  -9   3  -3    1.88    1.14
  -9   3  -3    2.02    1.60
  10  -3   3    3.82    1.46
  10  -3   3    4.42    2.49
 -10  -3  -3    5.67    1.83
  10  -3   3    6.83    1.55
 -10  -3  -3    4.11    2.59
  10   3   3    4.71    1.74
  10   3   3    5.21    1.17
  10   3   3    6.22    1.67
  10   3   3    5.22    1.24
 -10   3  -3    4.66    2.20
 -10   3  -3    6.72    2.01
 -10   3  -3    6.16    1.67
 -11  -3  -3   17.14    3.40
  11  -3   3   13.11    1.93
  11  -3   3    9.60    1.96
 -11  -3  -3   10.98    2.29
  11  -3   3   10.33    2.93
 -11   3  -3    6.79    1.88
  11   3   3   10.65    2.18
  11   3   3   12.39    1.95
  11   3   3   10.60    1.44
  11   3   3   10.35    1.35
 -11   3  -3    7.25    2.62
 -12  -3  -3    4.85    4.15
 -12  -3  -3    1.61    2.57
  12   3   3    1.54    1.91
 -14  -4   3    5.61    3.40
  14  -4  -3    5.33    2.73
 -14   4   3   10.11    4.27
  13  -4  -3    2.89    2.25
 -13  -4   3    3.25    2.61
  13  -4  -3    1.65    2.94
 -13   4   3    2.39    2.30
 -13   4   3   -1.52    3.96
  12  -4  -3    2.94    2.01
  12  -4  -3    3.10    2.59
 -12  -4   3    0.20    4.87
 -12  -4   3    2.00    1.98
  12   4  -3    2.81    1.84
  12   4  -3    4.00    2.25
 -12   4   3    1.37    2.74
 -12   4   3    1.28    2.40
 -12   4   3    0.67    1.68
  12   4  -3    2.54    1.80
  11  -4  -3   12.06    2.31
 -11  -4   3   14.28    2.06
 -11  -4   3    7.58    2.20
 -11  -4   3    8.07    3.60
  11  -4  -3    9.91    1.61
 -11  -4   3   12.01    1.79
 -11   4   3   10.67    2.14
 -11   4   3   10.69    2.12
  11   4  -3    9.30    1.79
  11   4  -3   10.74    1.76
  11   4  -3   10.98    2.00
 -11   4   3    8.81    1.58
  10  -4  -3    4.23    2.01
 -10  -4   3    6.59    1.82
 -10  -4   3    5.02    1.42
 -10  -4   3    6.49    1.42
 -10  -4   3    6.59    3.10
  10  -4  -3    3.97    1.42
  10   4  -3    4.58    1.43
  10   4  -3    6.30    1.70
 -10   4   3    5.53    1.29
 -10   4   3    5.92    1.77
 -10   4   3    2.41    1.92
  10   4  -3    5.01    1.58
  -9  -4   3    1.14    1.24
  -9  -4   3    4.22    2.61
  -9  -4   3    0.69    1.50
   9  -4  -3    1.30    1.76
   9  -4  -3    0.26    1.24
   9  -4  -3    1.24    1.28
   9   4  -3    1.57    1.24
  -9   4   3    2.11    1.05
   9   4  -3   -0.29    1.51
  -9   4   3   -0.71    1.44
  -9   4   3    2.83    1.47
   9   4  -3    2.06    1.44
   8  -4  -3   22.22    2.15
  -8  -4   3   24.10    2.39
   8  -4  -3   20.51    2.16
  -8  -4   3   25.99    2.66
   8  -4  -3   21.62    1.71
  -8  -4   3   20.93    2.14
   8   4  -3   23.89    1.77
  -8   4   3   20.58    2.52
   8   4  -3   22.71    2.11
  -8   4   3   24.18    2.17
   8   4  -3   25.86    2.03
  -8   4   3   22.53    1.81
  -7  -4   3    9.09    2.02
  -7  -4   3    7.64    1.31
   7  -4  -3    9.55    1.23
  -7  -4   3   10.27    1.34
   7  -4  -3   11.53    1.29
   7  -4  -3    9.60    1.69
   7   4  -3   10.29    1.65
   7   4  -3    8.82    1.22
   7   4  -3    8.70    1.29
  -7   4   3    9.75    1.34
  -7   4   3    9.43    1.03
  -7   4   3    7.16    1.28
   6  -4  -3    5.03    1.04
   6  -4  -3    5.88    1.53
  -6  -4   3    5.69    2.04
  -6  -4   3    5.07    1.12
   6  -4  -3    5.04    1.10
  -6  -4   3    4.43    1.06
   6   4  -3    4.86    1.00
  -6   4   3    3.73    1.02
  -6   4   3    4.31    1.11
   6   4  -3    6.97    1.21
   6   4  -3    3.17    1.45
  -6   4   3    4.81    0.85
   5  -4  -3    1.96    0.89
   5  -4  -3    2.17    0.88
   5  -4  -3    1.82    1.26
  -5  -4   3    2.90    1.07
  -5  -4   3    2.57    0.97
  -5  -4   3    0.83    1.76
   5   4  -3    2.98    0.88
  -5   4   3    1.54    0.78
   5   4  -3    2.92    1.05
  -5   4   3    4.92    1.13
   5   4  -3    4.25    1.42
  -5   4   3    1.61    0.82
  -4  -4   3   45.36    2.31
  -4  -4   3   42.54    2.33
   4  -4  -3   44.52    2.27
  -4  -4   3   38.20    3.52
   4  -4  -3   42.02    2.17
   4  -4  -3   39.13    2.61
   4   4  -3   43.66    2.29
  -4   4   3   39.39    1.98
   4   4  -3   43.03    2.34
   4   4  -3   40.40    2.79
  -4   4   3   42.73    2.40
  -3  -4   3    2.63    0.89
   3  -4  -3    2.71    1.15
   3  -4  -3    2.97    0.76
   3  -4  -3    3.15    0.79
  -3   4   3    4.01    0.94
   3   4  -3    1.79    1.31
   3   4  -3    1.79    0.95
   3   4  -3    2.63    0.78
  -3   4   3    2.88    0.65
   2  -4  -3   26.63    1.67
  -2  -4   3   27.16    1.85
   2   4  -3   24.54    1.49
   2   4  -3   26.55    1.67
  -2   4   3   25.44    1.50
  -2   4   3   26.69    1.76
   2   4  -3   28.91    1.91
   2   4  -3   25.30    2.57
  -2   4   3   28.08    1.41
   2   4  -3   27.79    1.94
   1  -4  -3    1.98    0.76
  -1  -4   3    1.66    0.83
  -1   4   3    2.45    0.94
   1   4  -3    2.15    0.96
   1   4  -3    1.64    0.58
  -1   4   3    0.80    0.56
   1   4  -3    1.25    1.55
  -1   4   3    2.14    0.57
  -1   4   3    2.91    0.82
   1   4  -3    1.98    0.97
  -1   4   3    2.62    1.25
   0  -4   3   20.30    1.76
   0  -4  -3   19.84    1.45
   0  -4   3   22.34    1.41
   0   4  -3   20.36    1.30
   0   4   3   22.69    1.85
   0   4   3   21.03    1.42
   0   4  -3   23.07    1.90
   0   4   3   21.98    1.59
   0   4   3   20.45    1.54
   0   4  -3   20.13    1.74
   0   4  -3   23.34    2.16
   0   4   3   15.20    1.23
   1  -4   3   31.67    2.03
   1  -4   3   30.10    1.70
  -1  -4  -3   30.65    1.81
  -1   4  -3   33.68    3.63
   1   4   3   32.50    1.83
   1   4   3   35.47    1.59
   1   4   3   30.76    1.80
  -1   4  -3   31.27    2.03
  -1   4  -3   32.33    1.67
   1   4   3   30.56    2.43
  -1   4  -3   30.31    2.20
   1   4   3   34.30    1.86
  -2  -4  -3    8.98    0.97
   2  -4   3    9.00    0.87
   2  -4   3    8.29    1.11
   2   4   3    9.17    1.24
  -2   4  -3    8.45    1.29
   2   4   3    7.20    0.87
  -2   4  -3    8.03    0.77
   2   4   3    7.99    0.75
   2   4   3    7.67    0.94
   2   4   3    7.72    0.97
  -2   4  -3    8.91    1.81
  -2   4  -3    8.04    1.14
   3  -4   3   33.59    1.86
   3  -4   3   36.82    2.25
  -3  -4  -3   31.49    1.93
   3   4   3   32.84    1.72
  -3   4  -3   29.53    2.32
   3   4   3   31.04    1.98
  -3   4  -3   36.20    3.94
   3   4   3   30.28    1.85
  -3   4  -3   30.90    1.70
   3   4   3   34.08    1.90
  -3   4  -3   30.88    2.69
   3   4   3   28.84    2.29
   4  -4   3    2.15    0.88
   4  -4   3    1.50    0.90
  -4  -4  -3    1.73    0.95
   4  -4   3    4.91    1.40
   4  -4   3    2.14    0.97
   4   4   3    2.48    1.02
   4   4   3    0.92    0.82
  -4   4  -3    1.49    1.04
  -4   4  -3    2.69    0.75
   4   4   3    1.33    0.97
   4   4   3    1.60    0.77
   4   4   3    1.94    0.71
   5  -4   3    5.71    1.07
   5  -4   3    7.62    1.08
   5  -4   3    7.80    1.38
  -5  -4  -3    9.43    1.21
   5  -4   3    7.19    1.73
   5   4   3    9.74    0.91
   5   4   3    5.15    1.21
   5   4   3    6.77    1.06
  -5   4  -3    6.59    0.97
  -5   4  -3    4.42    1.27
   6  -4   3    2.82    1.12
   6  -4   3    3.30    1.06
   6  -4   3    1.24    1.69
   6   4   3    1.46    1.17
  -6   4  -3    1.51    1.03
  -6   4  -3    2.83    1.41
   6   4   3    1.58    0.99
  -6   4  -3    1.95    0.93
   6   4   3    1.80    0.86
   7  -4   3    3.10    1.30
  -7  -4  -3    2.95    2.28
   7  -4   3    2.39    1.23
   7  -4   3    1.00    1.85
  -7   4  -3   -0.90    1.09
   7   4   3    1.80    1.16
  -7   4  -3    1.67    1.30
   7   4   3    1.21    1.18
   7   4   3    1.10    0.91
  -7   4  -3   -0.65    1.77
   8  -4   3   21.91    2.53
   8  -4   3   24.88    1.84
  -8  -4  -3   19.47    2.91
   8  -4   3   20.76    2.55
  -8   4  -3   23.85    2.23
  -8   4  -3   19.32    1.70
   8   4   3   18.80    1.92
   8   4   3   20.25    2.44
   8   4   3   23.87    2.16
   9  -4   3    3.75    2.60
  -9  -4  -3    2.81    3.17
   9  -4   3    1.24    1.50
   9  -4   3    4.94    1.76
   9   4   3    3.92    1.24
  -9   4  -3    2.50    1.59
  -9   4  -3    1.65    2.04
  -9   4  -3   11.86    2.25
   9   4   3    4.35    1.45
   9   4   3    3.05    1.80
  10  -4   3    4.68    2.00
  10  -4   3    1.80    1.77
  10  -4   3    1.65    2.91
 -10  -4  -3    2.88    3.82
 -10   4  -3    1.91    2.30
  10   4   3    2.36    1.75
  10   4   3    3.32    1.32
 -10   4  -3    6.07    1.90
 -11  -4  -3    5.79    4.78
  11  -4   3   -0.31    2.17
  11   4   3    3.59    2.02
  12  -5  -3    0.96    2.90
  12  -5  -3    2.97    2.75
 -12   5   3   -2.88    2.53
 -12   5   3   -1.41    2.83
  11  -5  -3   17.08    2.56
  11  -5  -3    6.20    3.06
  11  -5  -3   10.24    2.34
 -11   5   3    4.22    3.03
 -11   5   3   11.57    2.29
  11   5  -3   11.66    3.53
 -10  -5   3    1.26    1.82
  10  -5  -3    3.26    2.69
  10  -5  -3    6.47    2.10
 -10  -5   3    6.65    4.77
  10  -5  -3    2.89    2.09
 -10   5   3    1.64    1.77
 -10   5   3    2.81    1.84
 -10   5   3    6.18    2.67
  10   5  -3    4.18    2.14
  10   5  -3    1.72    2.04
  10   5  -3    0.42    2.30
   9  -5  -3    8.98    2.47
  -9  -5   3    7.45    2.31
   9  -5  -3    7.24    1.81
  -9  -5   3    7.22    1.69
  -9  -5   3    7.18    4.50
   9  -5  -3    6.49    1.82
   9   5  -3    7.44    2.19
   9   5  -3    5.04    2.05
  -9   5   3    4.53    2.24
  -9   5   3    2.88    1.49
  -9   5   3    8.17    1.62
   9   5  -3    4.39    1.82
   8  -5  -3    0.89    1.53
  -8  -5   3    1.59    1.51
  -8  -5   3    1.88    2.07
  -8  -5   3   -1.33    3.65
   8  -5  -3    0.31    2.18
   8  -5  -3    0.71    1.58
  -8   5   3   -0.65    1.89
   8   5  -3    0.66    1.78
   8   5  -3    0.26    1.57
  -8   5   3   -1.43    1.33
   8   5  -3    1.81    1.93
  -8   5   3    0.37    1.28
  -7  -5   3   10.23    3.22
   7  -5  -3    3.87    1.51
   7  -5  -3    2.31    2.01
   7  -5  -3    3.78    1.39
  -7  -5   3    2.81    1.50
  -7  -5   3    6.18    1.95
   7   5  -3    3.93    1.48
  -7   5   3    3.33    1.59
   7   5  -3    6.46    1.79
  -7   5   3    3.71    1.16
  -7   5   3    1.09    1.25
   7   5  -3    2.81    2.14
   6  -5  -3   22.23    2.25
  -6  -5   3   25.37    3.45
  -6  -5   3   20.16    2.22
  -6  -5   3   22.15    2.59
   6  -5  -3   19.09    1.69
   6  -5  -3   22.30    1.93
   6   5  -3   21.34    2.56
   6   5  -3   19.40    1.97
  -6   5   3   22.73    1.98
  -6   5   3   24.50    2.18
   6   5  -3   22.85    2.49
  -5  -5   3    7.78    1.49
   5  -5  -3    8.20    1.51
   5  -5  -3    9.05    1.28
   5  -5  -3    6.84    1.80
  -5   5   3    9.90    1.15
   5   5  -3    8.82    1.40
   5   5  -3    7.13    2.20
   5   5  -3    7.97    1.57
  -5   5   3   11.04    1.58
   4  -5  -3    7.26    1.74
   4  -5  -3    8.97    1.18
   4  -5  -3    9.79    1.45
  -4  -5   3    7.96    1.36
  -4   5   3    8.40    1.02
   4   5  -3    9.12    1.42
   4   5  -3    8.13    1.35
   4   5  -3    9.37    1.04
   4   5  -3    8.26    1.95
   4   5  -3    8.78    1.50
  -4   5   3    8.76    1.39
  -3  -5   3    5.83    1.33
   3  -5  -3    6.51    1.29
   3   5  -3    7.84    0.99
   3   5  -3    5.94    1.20
   3   5  -3    6.77    2.11
   3   5  -3    5.09    1.30
  -3   5   3    6.54    1.28
  -3   5   3    5.32    0.90
   3   5  -3    5.90    1.48
  -3   5   3    5.69    2.23
   2  -5  -3   22.93    2.12
  -2  -5   3   25.78    2.24
  -2   5   3   27.12    1.94
   2   5  -3   17.00    1.74
  -2   5   3   21.84    1.58
   2   5  -3   23.71    2.39
  -2   5   3   25.45    2.13
   2   5  -3   24.18    1.74
  -2   5   3   22.91    2.19
   2   5  -3   21.70    1.98
   2   5  -3   23.11    2.50
  -1  -5   3   16.29    1.57
   1  -5  -3   16.47    1.88
  -1   5   3   20.39    1.52
   1   5  -3   18.68    1.72
  -1   5   3   15.21    1.36
  -1   5   3   16.17    1.71
  -1   5   3   18.57    1.63
  -1   5   3   15.87    2.40
   1   5  -3   16.46    1.49
   1   5  -3   17.97    1.71
   1   5  -3   16.93    2.45
   0  -5   3   14.57    1.64
   0  -5  -3   15.75    1.40
   0   5  -3   16.80    1.66
   0   5   3   14.39    1.72
   0   5  -3   17.93    2.74
   0   5   3   15.67    1.52
   0   5   3   13.53    1.45
   0   5   3   16.92    2.17
   0   5  -3   14.43    1.43
   0   5   3   17.58    1.47
   1  -5   3   11.79    1.40
  -1  -5  -3   10.89    1.31
   1   5   3    8.27    1.21
  -1   5  -3   10.14    1.47
  -1   5  -3   10.98    3.01
   1   5   3    9.81    1.31
  -1   5  -3   10.62    1.02
   1   5   3   10.52    1.92
   1   5   3    9.35    1.27
   1   5   3   10.25    0.96
  -1   5  -3    8.50    1.63
   2  -5   3   16.15    1.65
   2  -5   3   17.01    1.75
  -2  -5  -3   13.04    1.46
   2   5   3   17.02    1.91
   2   5   3   18.23    1.96
   2   5   3   16.11    1.51
  -2   5  -3   20.41    3.31
  -2   5  -3   17.11    1.90
  -2   5  -3   16.88    1.83
  -2   5  -3   14.69    1.54
   2   5   3   15.90    1.54
   2   5   3   17.94    1.47
   3  -5   3    8.76    1.55
  -3  -5  -3   10.42    1.39
   3  -5   3   11.96    1.24
  -3   5  -3    9.79    1.15
   3   5   3    8.83    1.31
   3   5   3    9.81    1.34
  -3   5  -3   11.23    1.63
  -3   5  -3   10.27    2.70
   3   5   3    8.89    1.04
   3   5   3    9.21    1.42
  -3   5  -3   12.39    2.06
   3   5   3   10.27    1.63
   4  -5   3   -0.34    1.42
  -4  -5  -3    1.57    1.28
   4  -5   3    1.24    1.11
  -4   5  -3    0.20    1.98
   4   5   3   -1.89    1.22
   4   5   3    1.39    1.14
   4   5   3   -0.25    0.89
   4   5   3    0.54    1.63
  -4   5  -3   -0.98    3.33
  -4   5  -3   -0.14    1.46
   4   5   3    0.38    1.26
  -4   5  -3    1.09    0.98
  -5  -5  -3   11.00    1.63
   5  -5   3   12.74    1.54
   5  -5   3    8.76    1.76
  -5   5  -3    7.25    1.25
  -5   5  -3   14.16    2.36
   5   5   3    7.93    1.09
   5   5   3    9.28    1.52
  -5   5  -3    7.56    1.76
   5   5   3    7.36    1.55
  -5   5  -3   12.21    3.89
   5   5   3   12.23    1.72
   6  -5   3    4.23    1.93
   6  -5   3    0.74    1.33
   6  -5   3    0.38    1.46
  -6  -5  -3    0.96    1.66
   6   5   3    1.45    1.34
   6   5   3    2.25    1.15
   6   5   3    0.84    1.15
   6   5   3   -0.53    1.49
   6   5   3    1.42    1.64
  -6   5  -3    0.67    1.79
  -6   5  -3    0.85    1.28
   7  -5   3   15.07    1.87
   7  -5   3   13.13    2.12
   7  -5   3   12.08    2.78
   7  -5   3    9.30    1.73
  -7   5  -3   10.50    2.52
   7   5   3   11.58    1.38
   7   5   3    7.23    1.58
  -7   5  -3   10.83    1.76
   7   5   3   15.84    2.15
   7   5   3   12.77    1.65
   7   5   3   11.15    1.28
   8  -5   3    6.81    2.10
   8  -5   3    5.49    2.99
   8  -5   3    5.08    2.20
   8  -5   3    3.87    1.66
   8   5   3    6.14    1.39
   8   5   3    5.64    1.65
  -8   5  -3    3.43    2.27
   8   5   3    3.53    2.20
  -8   5  -3    7.19    2.01
   9  -5   3    2.32    2.01
   9  -5   3    1.25    2.23
  -9   5  -3   -2.17    2.45
   9   5   3    2.85    1.76
  -9   5  -3    5.46    2.14
  10  -5   3   -4.02    2.50
  10  -6  -3    6.70    3.55
  10  -6  -3    8.38    2.96
 -10   6   3   -3.72    2.91
   9  -6  -3    6.40    2.75
   9  -6  -3    3.85    3.13
  -9   6   3    2.16    3.44
  -9   6   3    0.74    2.56
   8  -6  -3    4.92    3.01
   8  -6  -3    4.22    2.43
   8  -6  -3    9.31    2.47
  -8   6   3    0.29    1.94
   8   6  -3    1.88    2.58
   8   6  -3   -2.30    2.86
  -8   6   3    2.57    2.91
  -7  -6   3    2.88    2.14
   7  -6  -3    5.48    2.81
   7  -6  -3    6.54    2.24
   7  -6  -3    8.67    2.18
   7   6  -3    8.85    3.14
  -7   6   3    4.74    2.18
   7   6  -3    2.16    1.74
   7   6  -3    4.71    2.34
  -7   6   3    7.12    1.86
   7   6  -3    5.33    2.22
   7   6  -3    5.34    2.46
  -6  -6   3    6.76    2.10
   6  -6  -3   13.53    2.27
   6   6  -3   10.23    1.55
   6   6  -3    6.04    2.83
   6   6  -3    6.71    2.03
  -6   6   3   11.67    2.28
  -6   6   3    9.12    1.81
   6   6  -3    8.51    2.10
   5  -6  -3    0.33    1.79
  -5  -6   3    0.01    1.91
  -5   6   3   -3.82    3.10
   5   6  -3    3.72    2.29
  -5   6   3    1.74    2.05
  -5   6   3   -0.72    3.66
   5   6  -3   -1.32    1.68
   5   6  -3    1.12    1.86
  -5   6   3    0.13    1.52
   5   6  -3   -1.55    1.29
   5   6  -3    1.13    2.78
  -4  -6   3    0.13    1.90
   4  -6  -3    2.85    1.74
  -4   6   3    3.65    1.38
   4   6  -3    0.80    1.60
  -4   6   3    5.13    2.69
   4   6  -3    4.47    2.06
  -4   6   3    2.07    1.86
   4   6  -3    2.65    3.03
   4   6  -3    1.43    1.92
  -4   6   3    7.28    2.90
   4   6  -3    4.13    1.20
   3  -6  -3    2.07    1.66
  -3  -6   3    2.23    1.96
  -3   6   3   -0.47    1.68
  -3   6   3    1.45    3.29
  -3   6   3   -0.55    2.16
   3   6  -3    3.36    2.18
  -3   6   3    2.58    1.20
   3   6  -3    3.42    1.50
   3   6  -3    1.01    1.78
   3   6  -3    1.86    1.27
   3   6  -3    2.12    3.10
   2  -6  -3    6.07    1.67
  -2  -6   3    9.98    1.91
  -2   6   3    9.11    2.20
   2   6  -3    8.93    2.26
  -2   6   3   12.48    3.61
   2   6  -3    9.89    1.98
  -2   6   3   10.38    1.28
  -2   6   3    8.37    1.71
   2   6  -3    9.26    1.34
   2   6  -3    7.13    2.95
   1  -6  -3    3.19    1.51
  -1  -6   3    6.80    1.78
  -1   6   3    3.92    3.05
  -1   6   3    2.55    1.93
  -1   6   3    3.48    1.59
  -1   6   3    2.63    1.10
   1   6  -3    4.09    1.74
   1   6  -3    1.94    2.04
   1   6  -3    3.30    1.19
   1   6  -3    4.39    3.31
   0  -6   3    0.09    1.76
   0  -6  -3    0.55    1.55
   0   6   3    2.05    1.06
   0   6  -3    1.77    3.31
   0   6  -3    1.74    1.77
   0   6   3    1.33    1.35
   0   6   3    2.38    2.73
   0   6   3    1.17    1.60
   0   6   3    1.86    1.80
   0   6  -3    2.03    2.15
   0   6  -3    0.72    1.09
   1  -6   3    0.95    1.76
  -1  -6  -3   -0.81    1.62
  -1   6  -3    2.66    2.19
   1   6   3   -0.44    2.37
   1   6   3   -0.30    1.58
   1   6   3   -0.34    0.99
   1   6   3   -2.15    1.48
  -1   6  -3   -1.81    3.77
   1   6   3   -3.19    1.70
  -1   6  -3   -0.50    1.14
  -1   6  -3    0.74    2.00
   2  -6   3    1.98    1.95
  -2  -6  -3    2.22    1.71
   2   6   3    2.51    1.53
  -2   6  -3    0.82    1.27
  -2   6  -3   -3.78    4.62
   2   6   3    2.53    1.25
   2   6   3    0.89    1.61
  -2   6  -3    4.55    2.08
  -2   6  -3    3.71    2.50
   2   6   3    3.04    1.58
   2   6   3   -0.67    2.40
  -3  -6  -3    8.71    1.80
   3  -6   3    8.06    2.15
   3   6   3    6.74    1.59
   3   6   3    7.49    2.34
  -3   6  -3    7.98    1.45
  -3   6  -3   14.43    2.36
   3   6   3    3.89    1.39
   3   6   3    5.91    1.88
   3   6   3    3.10    1.77
  -3   6  -3   13.74    5.99
  -3   6  -3    5.39    2.52
   4  -6   3    1.79    2.08
   4  -6   3    3.09    1.74
  -4  -6  -3    0.03    1.89
   4   6   3    4.49    1.94
   4   6   3    2.04    1.36
  -4   6  -3   -1.97    5.78
  -4   6  -3    8.46    3.04
  -4   6  -3    1.30    1.46
  -4   6  -3    4.39    2.38
   4   6   3    2.08    1.55
   4   6   3    4.68    1.70
   4   6   3    0.94    2.05
   5  -6   3    8.14    1.96
  -5  -6  -3    9.46    2.11
   5  -6   3    2.06    2.14
  -5   6  -3   14.06    3.29
   5   6   3    7.07    2.24
  -5   6  -3    7.93    6.24
   5   6   3    2.99    1.49
   5   6   3    4.81    1.69
  -5   6  -3    7.13    1.77
   5   6   3    5.24    2.02
  -5   6  -3   15.02    2.68
  -6  -6  -3   -0.36    2.37
   6  -6   3   -0.45    2.15
   6  -6   3    1.28    3.13
   6   6   3   -0.30    2.06
  -6   6  -3   10.10    5.12
  -6   6  -3   -2.55    2.03
   6   6   3   -5.67    2.63
  -6   6  -3    2.88    3.81
   7  -6   3    9.68    2.77
  -7   6  -3    8.77    4.23
   7   6   3    4.16    2.19
  -7   6  -3    2.14    2.72
   8   6   3   12.50    2.24
  -8   6  -3   25.46    5.47
   6  -7  -3    5.01    2.98
   5  -7  -3   12.70    2.98
  -5   7   3    3.36    4.84
   5   7  -3    3.75    3.59
   4  -7  -3    8.44    2.66
  -4   7   3    3.44    3.93
   4   7  -3   -4.54    3.17
   3  -7  -3    0.06    2.47
  -3   7   3    1.16    3.77
   3   7  -3    5.93    2.98
   2  -7  -3    2.32    2.35
   2   7  -3    6.21    2.97
   2   7  -3    7.83    3.07
   1  -7  -3    7.74    2.44
   1   7  -3   12.06    3.26
  -1   7   3   16.66    5.14
   1   7  -3   10.36    2.86
   0  -7  -3    3.99    2.50
   0   7  -3    3.22    3.43
   0   7   3    2.28    3.43
   0   7  -3    5.19    3.08
  -1  -7  -3    0.91    2.61
  -1   7  -3    0.07    3.30
  -1   7  -3    2.31    3.23
   1   7   3    0.23    3.73
  -2  -7  -3    5.58    2.66
  -2   7  -3    8.72    3.39
   2   7   3    0.15    2.75
   2   7   3    3.29    3.38
  -2   7  -3    5.24    3.20
  -3   7  -3   -3.57    3.80
  16   0  -4   28.44    3.07
  16   0  -4   25.40    2.83
 -15   0   4    0.42    2.39
  15   0  -4    3.10    1.89
 -15   0   4    2.40    2.29
  15   0  -4    0.52    2.09
  15   0  -4    3.56    2.56
  14   0  -4   16.52    2.56
  14   0  -4   16.56    1.87
 -14   0   4   13.92    2.28
  14   0  -4   13.96    1.83
 -14   0   4   11.78    2.61
 -14   0   4   15.26    2.05
 -13   0   4    9.92    1.55
  13   0  -4   13.38    1.53
  13   0  -4   12.06    2.11
 -13   0   4   10.76    2.06
 -13   0   4   10.63    1.91
  13   0  -4   12.23    1.58
 -12   0   4    2.49    1.14
  12   0  -4    0.92    1.14
  12   0  -4    1.92    1.71
 -12   0   4    3.34    1.33
 -12   0   4    3.20    1.66
  12   0  -4    2.11    1.03
 -11   0   4    1.35    0.94
  11   0  -4    1.46    1.01
 -11   0   4    2.49    1.33
  11   0  -4    1.49    0.85
 -11   0   4    0.29    1.06
  11   0  -4    0.91    1.49
 -10   0   4   20.67    2.14
 -10   0   4   22.99    1.82
  10   0  -4   21.49    1.50
  10   0  -4   23.46    2.23
 -10   0   4   20.83    1.57
  10   0  -4   22.43    1.71
  -9   0   4    3.05    0.95
  -9   0   4    2.75    0.69
   9   0  -4    1.98    0.96
   9   0  -4    2.92    0.62
  -9   0   4    3.08    0.74
   9   0  -4    2.79    0.81
  -8   0   4    9.04    0.99
   8   0  -4    7.32    0.84
   8   0  -4    7.62    0.79
  -8   0   4    9.98    0.90
   8   0  -4    7.85    1.08
  -8   0   4    7.91    0.74
   7   0  -4  131.60    5.00
  -7   0   4  135.43    4.99
   7   0  -4  126.76    4.97
   7   0  -4  127.30    5.12
  -7   0   4  128.74    5.12
  -7   0   4  125.24    5.02
  -6   0   4    0.67    0.58
   6   0  -4    0.87    0.50
   6   0  -4    1.41    0.34
   6   0  -4    1.63    0.69
  -6   0   4    1.18    0.48
  -6   0   4    1.19    0.46
   5   0  -4   19.31    1.01
   5   0  -4   21.30    1.26
  -5   0   4   18.50    0.89
  -5   0   4   20.21    1.22
  -5   0   4   18.57    0.99
   5   0  -4   18.66    0.89
   4   0  -4   20.72    1.15
   4   0  -4   20.56    0.98
  -4   0   4   20.16    0.88
  -4   0   4   19.75    0.96
   4   0  -4   17.85    0.86
  -4   0   4   21.02    1.16
   3   0  -4   -0.39    0.43
   3   0  -4   -0.02    0.18
  -3   0   4   -0.49    0.28
  -3   0   4    0.07    0.17
  -3   0   4    0.33    0.40
   3   0  -4   -0.02    0.30
  -2   0   4  312.79   11.47
  -2   0   4  309.21   11.52
  -2   0   4  296.96   11.46
   2   0  -4  310.49   11.51
  -1   0   4   32.28    1.44
   1   0  -4   34.07    1.44
  -1   0   4   33.22    1.35
   0   0  -4  152.71    5.62
   0   0  -4  147.83    5.66
   1   0   4    1.82    0.42
  -1   0  -4    2.38    0.38
  -1   0  -4    2.40    0.80
   2   0   4   19.65    1.12
  -2   0  -4   22.20    1.13
  -2   0  -4   21.36    1.02
  -2   0  -4   20.07    0.89
   2   0   4   20.05    1.17
   2   0   4   20.30    0.94
   3   0   4    1.30    0.51
  -3   0  -4    1.24    0.45
  -3   0  -4    0.84    0.51
   3   0   4    1.43    0.55
  -3   0  -4    0.61    0.29
   3   0   4    0.96    0.30
   4   0   4   98.37    3.99
   4   0   4  101.22    3.87
  -4   0  -4  101.48    3.86
  -4   0  -4  100.42    3.95
   4   0   4   99.27    4.00
  -4   0  -4  103.07    4.06
   5   0   4    1.26    0.57
  -5   0  -4    1.08    0.75
  -5   0  -4    1.25    0.41
   5   0   4    1.07    0.48
   5   0   4    1.06    0.70
   6   0   4    0.76    0.53
   6   0   4    0.66    0.67
   6   0   4    0.82    0.83
  -6   0  -4    1.35    0.51
  -6   0  -4    1.34    0.74
  -6   0  -4    1.58    0.86
   7   0   4  120.08    4.59
   7   0   4  110.25    4.68
  -7   0  -4  117.78    4.57
   7   0   4  115.74    4.82
  -7   0  -4  118.71    4.90
  -7   0  -4  116.54    4.78
   8   0   4   31.98    1.76
  -8   0  -4   31.94    1.79
  -8   0  -4   34.51    2.45
  -8   0  -4   36.47    2.46
   8   0   4   30.64    1.97
   8   0   4   30.16    2.32
  -9   0  -4    1.89    1.41
   9   0   4    1.83    0.81
   9   0   4    1.44    0.98
  -9   0  -4    5.57    1.46
   9   0   4    0.17    1.23
  -9   0  -4    2.26    0.92
  10   0   4    5.36    1.04
  10   0   4    4.91    1.36
 -10   0  -4    5.76    1.14
  10   0   4    6.24    1.34
 -10   0  -4    4.69    1.71
  10   0   4    4.29    1.26
 -10   0  -4    5.94    1.83
  11   0   4   40.54    2.58
 -11   0  -4   41.16    3.80
 -11   0  -4   34.62    2.77
  11   0   4   37.52    2.79
  11   0   4   35.91    3.27
  11   0   4   39.81    2.98
 -11   0  -4   40.13    3.88
 -12   0  -4    4.91    2.46
  12   0   4    1.53    1.29
  12   0   4    0.58    1.90
 -12   0  -4    1.81    2.54
  12   0   4    3.23    2.01
  16  -1  -4    2.33    2.60
  16  -1  -4    4.97    2.41
 -15  -1   4    2.61    2.49
  15  -1  -4    1.97    1.96
  15  -1  -4    0.71    2.47
 -15  -1   4   -0.39    2.42
  15  -1  -4    3.88    1.92
 -15   1   4    0.00    2.67
 -15   1   4    2.26    2.33
  15   1  -4    0.30    2.11
  15   1  -4    5.43    1.94
  15   1  -4    2.08    2.65
  14  -1  -4    5.28    2.32
 -14  -1   4    4.20    2.04
  14  -1  -4    4.48    1.72
 -14  -1   4    4.63    2.77
  14  -1  -4    4.91    1.47
 -14  -1   4    6.27    2.22
  14   1  -4    4.67    1.62
  14   1  -4    4.76    1.68
 -14   1   4    6.30    1.83
 -14   1   4    4.05    2.16
  14   1  -4    7.00    2.40
 -14   1   4    5.90    2.55
 -13  -1   4   20.57    2.00
  13  -1  -4   17.08    2.12
  13  -1  -4   18.39    1.75
 -13  -1   4   16.88    1.89
 -13  -1   4   18.73    2.48
  13  -1  -4   20.28    1.75
 -13   1   4   17.93    2.37
 -13   1   4   16.57    1.66
  13   1  -4   16.67    2.18
 -13   1   4   20.13    1.99
  13   1  -4   19.14    1.89
  13   1  -4   19.33    1.74
  12  -1  -4    0.43    1.43
 -12  -1   4    3.59    1.73
  12  -1  -4   -0.04    1.04
  12  -1  -4   -0.06    1.17
 -12  -1   4    4.15    1.33
 -12  -1   4   -0.22    1.24
 -12   1   4   -1.47    1.15
  12   1  -4   -0.12    1.51
  12   1  -4    0.02    1.30
 -12   1   4    0.95    1.67
 -12   1   4    0.33    1.43
  12   1  -4   -0.12    1.02
 -11  -1   4   18.19    2.00
  11  -1  -4   19.69    1.44
  11  -1  -4   13.22    1.67
 -11  -1   4   16.87    1.76
 -11  -1   4   17.09    1.40
  11  -1  -4   17.83    1.59
 -11   1   4   16.29    1.73
  11   1  -4   16.38    1.72
  11   1  -4   21.31    1.48
  11   1  -4   18.56    1.86
 -11   1   4   15.93    1.76
 -11   1   4   22.76    1.69
 -10  -1   4    6.00    1.34
  10  -1  -4    7.55    1.43
  10  -1  -4    9.47    1.01
 -10  -1   4    8.43    0.97
 -10  -1   4    6.76    1.06
  10  -1  -4    7.20    0.86
  10   1  -4    7.09    0.88
 -10   1   4    8.08    1.33
 -10   1   4    6.38    0.93
 -10   1   4    7.96    1.14
  10   1  -4    8.12    1.02
  10   1  -4    7.25    1.34
  -9  -1   4   11.78    1.27
   9  -1  -4   13.16    1.41
  -9  -1   4   11.33    1.01
   9  -1  -4   10.64    1.00
   9  -1  -4   12.45    1.01
  -9  -1   4   12.23    1.26
  -9   1   4   11.24    0.91
   9   1  -4   11.81    1.33
  -9   1   4   13.10    1.27
   9   1  -4   12.38    1.04
  -9   1   4   12.49    1.14
   9   1  -4   11.72    1.18
   8  -1  -4    2.33    0.99
  -8  -1   4    2.31    0.62
   8  -1  -4    2.63    0.50
  -8  -1   4    4.73    0.71
   8  -1  -4    2.26    0.67
  -8  -1   4    2.37    0.84
   8   1  -4    1.73    0.89
  -8   1   4    1.99    0.60
   8   1  -4    2.16    0.69
  -8   1   4    1.83    0.92
   8   1  -4    2.48    0.57
  -8   1   4    2.75    0.72
  -7  -1   4  131.10    4.93
  -7  -1   4  129.06    4.91
   7  -1  -4  120.16    4.83
   7  -1  -4  125.63    5.11
  -7  -1   4  130.26    4.92
   7  -1  -4  127.64    4.91
  -7  -1   4  124.81    5.08
  -7   1   4  128.19    4.90
   7   1  -4  122.95    5.07
  -7   1   4  124.86    5.06
   7   1  -4  127.22    4.93
   7   1  -4  129.16    4.92
  -7   1   4  121.77    4.97
  -6  -1   4   33.90    1.55
  -6  -1   4   35.60    1.56
   6  -1  -4   33.94    1.58
  -6  -1   4   31.26    1.81
  -6  -1   4   33.15    1.56
   6  -1  -4   33.60    1.84
  -6   1   4   34.54    1.53
   6   1  -4   35.77    1.64
  -6   1   4   33.03    1.57
   6   1  -4   33.85    1.84
   6   1  -4   34.60    1.55
  -6   1   4   33.60    1.81
  -5  -1   4   30.71    1.47
  -5  -1   4   31.69    1.70
   5  -1  -4   34.14    1.48
  -5  -1   4   31.40    1.49
   5   1  -4   34.34    1.46
  -5   1   4   34.61    1.66
   5   1  -4   33.12    1.73
  -5   1   4   34.58    1.45
   5   1  -4   32.92    1.49
  -5   1   4   31.59    1.50
  -4  -1   4   58.33    2.33
   4  -1  -4   56.48    2.41
  -4  -1   4   53.83    2.51
  -4  -1   4   55.67    2.32
   4  -1  -4   59.86    2.30
  -4   1   4   61.02    2.41
   4   1  -4   58.49    2.49
  -4   1   4   59.36    2.29
   4   1  -4   56.45    2.32
   4   1  -4   57.58    2.31
  -3  -1   4   51.33    2.09
  -3  -1   4   50.42    2.09
  -3  -1   4   48.90    2.28
  -3   1   4   52.09    2.14
   3   1  -4   52.85    2.23
   3   1  -4   52.40    2.09
  -3   1   4   51.62    2.04
   3   1  -4   54.08    2.10
  -2  -1   4   46.14    1.88
   2  -1  -4   45.65    1.79
  -2  -1   4   46.46    2.08
  -2  -1   4   48.48    1.90
   2  -1  -4   47.63    1.86
   2   1  -4   49.06    1.89
   2   1  -4   46.03    2.02
   2   1  -4   46.66    1.88
  -2   1   4   42.72    1.88
  -2   1   4   43.19    1.79
  -1  -1   4   35.08    1.72
  -1  -1   4   34.13    1.47
  -1  -1   4   35.01    1.49
   1   1  -4   34.86    1.68
  -1   1   4   33.24    1.36
   1   1  -4   35.33    1.47
   0  -1   4   28.18    1.31
   0   1   4   27.77    1.20
   0   1  -4   30.70    1.24
   0   1  -4   29.91    1.30
   0   1  -4   28.33    1.58
   0   1  -4   31.22    1.42
   1  -1   4   65.18    2.57
  -1   1  -4   65.22    2.46
   1   1   4   60.99    2.51
  -1   1  -4   68.33    2.57
  -1   1  -4   62.56    2.79
   1   1   4   59.85    2.47
  -1   1  -4   60.59    2.52
   2  -1   4   17.42    0.85
   2  -1   4   15.89    1.13
   2  -1   4   16.58    1.17
  -2   1  -4   16.51    0.84
   2   1   4   15.80    0.85
   2   1   4   15.57    1.02
  -2   1  -4   17.61    1.08
  -2   1  -4   16.90    1.09
   3  -1   4    7.87    0.71
  -3  -1  -4    7.33    0.68
   3  -1   4    6.45    0.72
   3  -1   4   10.79    0.90
  -3   1  -4    8.73    0.76
  -3   1  -4    6.44    0.66
   3   1   4    7.20    0.74
   3   1   4    6.94    0.66
  -3   1  -4    8.82    0.76
   4  -1   4   42.06    1.83
  -4  -1  -4   40.63    1.94
   4  -1   4   42.17    1.95
   4  -1   4   40.55    2.15
  -4   1  -4   41.55    1.98
   4   1   4   41.62    1.86
  -4   1  -4   43.81    2.04
   4   1   4   43.12    1.82
  -4   1  -4   43.08    1.80
   4   1   4   42.90    1.89
   5  -1   4    0.07    0.93
   5  -1   4    0.69    0.54
   5  -1   4    0.64    0.60
  -5  -1  -4    0.62    0.74
  -5  -1  -4    0.47    0.60
   5   1   4   -0.18    0.47
  -5   1  -4   -0.16    0.82
   5   1   4    0.48    0.47
  -5   1  -4    0.12    0.61
   5   1   4    0.45    0.63
   5   1   4    0.11    0.41
  -5   1  -4    0.30    0.42
   6  -1   4   25.31    1.61
   6  -1   4   25.54    1.87
  -6  -1  -4   24.91    1.62
  -6  -1  -4   28.22    1.33
  -6  -1  -4   26.75    1.84
   6  -1   4   26.17    1.44
   6   1   4   28.42    1.43
   6   1   4   26.80    1.70
  -6   1  -4   28.13    1.97
  -6   1  -4   27.46    1.39
   6   1   4   24.94    1.43
  -6   1  -4   26.84    1.83
   7  -1   4   19.15    1.39
   7  -1   4   18.22    1.97
  -7  -1  -4   21.59    1.94
  -7  -1  -4   20.29    1.76
  -7  -1  -4   19.36    1.35
   7  -1   4   21.83    1.54
   7   1   4   24.27    1.46
   7   1   4   20.07    1.69
   7   1   4   22.89    1.37
  -7   1  -4   21.47    2.05
  -7   1  -4   18.86    1.80
   7   1   4   17.17    1.45
  -7   1  -4   20.68    1.38
   8  -1   4    6.08    0.89
   8  -1   4    4.24    1.25
  -8  -1  -4    5.57    1.27
  -8  -1  -4    5.73    0.87
  -8  -1  -4    3.43    1.22
   8  -1   4    4.82    0.97
  -8   1  -4    4.13    1.32
   8   1   4    3.86    0.86
   8   1   4    4.35    0.88
   8   1   4    5.97    1.19
   8   1   4    4.12    0.78
  -8   1  -4    4.04    0.84
  -8   1  -4    4.28    1.23
  -9  -1  -4   14.71    1.73
   9  -1   4   18.77    1.74
   9  -1   4   16.90    1.60
  -9  -1  -4   17.99    1.94
  -9  -1  -4   18.87    1.77
   9  -1   4   17.22    1.36
   9   1   4   20.10    1.76
   9   1   4   18.21    1.53
   9   1   4   17.57    1.60
   9   1   4   16.20    1.71
  -9   1  -4   17.07    1.30
  -9   1  -4   17.24    1.85
  -9   1  -4   19.42    1.84
 -10  -1  -4    1.57    1.40
 -10  -1  -4    2.33    1.82
  10  -1   4    3.01    1.15
  10  -1   4    1.66    1.31
 -10  -1  -4    1.77    1.74
  10  -1   4    3.08    1.65
 -10   1  -4    3.66    1.77
  10   1   4    2.27    1.18
  10   1   4    3.27    1.47
  10   1   4    1.99    1.01
 -10   1  -4    1.76    1.77
  10   1   4    2.87    1.21
 -10   1  -4    2.53    1.14
 -11  -1  -4    1.70    2.11
 -11  -1  -4    6.01    1.68
  11  -1   4    4.77    1.61
 -11  -1  -4    4.06    2.27
  11  -1   4    3.93    1.29
  11  -1   4    4.12    1.82
  11   1   4    2.95    1.42
 -11   1  -4    4.27    2.34
 -11   1  -4    3.36    1.50
  11   1   4    1.92    1.19
  11   1   4    1.85    1.63
  11   1   4    4.55    1.41
 -11   1  -4    1.36    2.22
  12  -1   4    6.87    2.32
  12  -1   4    6.16    1.54
 -12  -1  -4    6.99    3.00
 -12  -1  -4    4.34    2.63
  12   1   4    7.34    2.00
  12   1   4    6.10    1.41
  12   1   4    5.98    2.11
  16  -2  -4   14.79    2.76
  16  -2  -4   16.20    3.15
  15  -2  -4    2.31    2.58
  15  -2  -4    1.59    2.64
  15  -2  -4   -0.44    1.97
 -15  -2   4    3.83    2.56
 -15   2   4    3.67    2.47
  15   2  -4    4.62    2.62
  15   2  -4    2.27    2.23
 -14  -2   4   15.85    3.04
  14  -2  -4   17.46    2.66
 -14  -2   4   15.10    2.27
  14  -2  -4   15.59    1.86
 -14  -2   4   16.62    2.58
  14  -2  -4   23.45    2.31
  14   2  -4   17.88    2.56
 -14   2   4   12.96    2.06
  14   2  -4   17.49    2.25
 -14   2   4   12.71    2.43
 -14   2   4   10.81    2.96
  14   2  -4   17.40    2.10
  13  -2  -4    4.05    1.52
 -13  -2   4    3.77    1.62
  13  -2  -4    6.32    1.52
 -13  -2   4    3.96    2.41
  13  -2  -4    3.10    2.01
 -13  -2   4    3.79    1.88
  13   2  -4    1.39    1.95
  13   2  -4    3.82    1.68
 -13   2   4    2.44    1.50
 -13   2   4    4.21    1.85
 -13   2   4    6.35    2.34
  13   2  -4    1.10    1.63
 -12  -2   4   -1.45    1.47
  12  -2  -4    1.45    1.29
  12  -2  -4   -0.66    1.53
 -12  -2   4    1.20    1.42
 -12  -2   4    0.67    1.94
  12  -2  -4    0.09    1.26
  12   2  -4    0.44    1.29
 -12   2   4    0.89    1.75
  12   2  -4    0.15    1.23
 -12   2   4    0.79    1.22
  12   2  -4   -0.79    1.66
 -12   2   4    7.65    1.64
  11  -2  -4   25.78    2.24
  11  -2  -4   22.90    2.80
 -11  -2   4   26.45    3.03
 -11  -2   4   24.62    2.20
 -11  -2   4   28.34    2.31
  11   2  -4   28.45    2.20
  11   2  -4   26.99    2.74
 -11   2   4   33.99    2.46
 -11   2   4   28.04    1.98
  11   2  -4   27.16    2.14
 -11   2   4   24.67    2.83
 -10  -2   4   25.52    1.90
 -10  -2   4   24.34    2.76
 -10  -2   4   25.99    1.95
  10  -2  -4   23.80    1.96
  10  -2  -4   23.36    2.51
 -10   2   4   23.59    1.73
 -10   2   4   22.48    2.15
  10   2  -4   25.22    1.97
  10   2  -4   24.65    1.83
 -10   2   4   24.84    2.44
  10   2  -4   23.42    2.43
  -9  -2   4   47.80    2.37
  -9  -2   4   48.43    2.33
   9  -2  -4   45.41    2.42
  -9  -2   4   49.48    2.32
   9  -2  -4   46.36    2.81
  -9   2   4   46.88    2.50
  -9   2   4   45.94    2.59
   9   2  -4   46.14    2.34
   9   2  -4   45.91    2.77
   9   2  -4   47.46    2.39
  -9   2   4   45.08    2.23
   8  -2  -4   17.92    1.91
  -8  -2   4   16.38    1.34
  -8  -2   4   18.78    1.59
   8  -2  -4   15.89    1.51
  -8  -2   4   20.12    1.40
  -8  -2   4   16.89    1.38
  -8   2   4   16.34    1.26
  -8   2   4   14.49    1.61
   8   2  -4   15.76    1.29
   8   2  -4   16.98    1.56
   8   2  -4   15.07    1.82
  -8   2   4   15.27    1.56
  -7  -2   4   69.21    2.87
  -7  -2   4   65.42    3.22
  -7  -2   4   64.59    2.82
   7  -2  -4   63.99    3.09
  -7  -2   4   71.52    2.79
   7  -2  -4   66.32    2.84
  -7   2   4   67.72    2.89
   7   2  -4   64.72    3.10
   7   2  -4   68.44    2.87
   7   2  -4   67.50    2.85
  -7   2   4   64.63    2.98
  -7   2   4   64.65    2.75
   6  -2  -4   20.89    1.26
  -6  -2   4   20.86    1.26
  -6  -2   4   19.52    1.28
  -6  -2   4   17.52    1.76
   6  -2  -4   19.49    1.62
   6   2  -4   20.23    1.19
  -6   2   4   21.75    1.32
  -6   2   4   19.86    1.49
   6   2  -4   20.52    1.59
  -6   2   4   21.56    1.17
   6   2  -4   21.91    1.34
  -5  -2   4   20.55    1.24
   5  -2  -4   21.21    1.18
   5  -2  -4   21.21    1.46
  -5  -2   4   22.22    1.23
  -5  -2   4   21.44    1.69
  -5   2   4   21.18    1.13
  -5   2   4   21.55    1.22
   5   2  -4   20.64    1.18
   5   2  -4   21.65    1.31
  -5   2   4   20.66    1.40
   5   2  -4   20.73    1.59
  -4  -2   4   53.51    2.26
   4  -2  -4   53.74    2.17
   4  -2  -4   55.97    2.41
   4  -2  -4   54.22    2.13
  -4  -2   4   51.43    2.59
  -4  -2   4   53.06    2.28
   4   2  -4   51.52    2.53
  -4   2   4   52.16    2.15
   4   2  -4   53.75    2.26
   4   2  -4   55.95    2.27
  -4   2   4   52.93    2.28
  -4   2   4   51.41    2.17
   3  -2  -4    7.64    0.73
   3  -2  -4    7.77    0.53
  -3  -2   4    8.72    0.67
  -3  -2   4    8.99    1.02
  -3  -2   4    7.37    0.78
   3   2  -4    7.89    0.83
  -3   2   4    8.18    0.85
  -3   2   4    7.63    0.70
  -3   2   4    8.21    0.69
   3   2  -4    7.40    0.89
   3   2  -4    6.61    0.73
  -2  -2   4  124.14    5.10
   2  -2  -4  123.89    4.84
   2  -2  -4  126.60    4.78
  -2  -2   4  126.10    4.92
   2  -2  -4  124.78    4.78
  -2  -2   4  124.47    4.87
   2   2  -4  126.84    5.05
   2   2  -4  132.60    4.91
  -2   2   4  126.86    4.84
  -2   2   4  132.16    4.78
   2   2  -4  129.01    4.87
  -2   2   4  118.29    4.78
  -1  -2   4   24.29    1.28
  -1  -2   4   23.31    1.71
  -1  -2   4   22.70    1.32
   1  -2  -4   25.32    1.08
   1   2  -4   24.19    1.61
   1   2  -4   25.39    1.28
  -1   2   4   23.40    1.07
   0  -2  -4   74.82    3.01
   0  -2   4   77.83    3.08
   0  -2   4   76.96    3.15
   0   2  -4   76.58    3.11
   0   2   4   76.25    3.03
   0   2  -4   78.30    3.04
   0   2  -4   78.59    3.40
   0   2  -4   81.37    3.18
   1  -2   4   20.32    1.16
  -1  -2  -4   20.12    1.07
  -1   2  -4   20.49    1.31
   1   2   4   20.06    1.04
  -1   2  -4   20.41    1.02
  -1   2  -4   20.86    1.26
  -1   2  -4   20.14    1.76
   2  -2   4    3.97    0.81
   2  -2   4    5.26    0.65
   2  -2   4    4.39    0.52
  -2   2  -4    4.29    0.48
   2   2   4    6.34    0.69
  -2   2  -4    5.17    0.74
   2   2   4    2.77    0.42
   3  -2   4    8.00    0.66
   3  -2   4    9.36    1.00
   3  -2   4    8.59    0.76
  -3   2  -4    7.52    0.63
   3   2   4    7.52    0.75
  -3   2  -4    9.15    0.85
   3   2   4    7.80    0.80
  -3   2  -4    8.45    0.85
  -4  -2  -4   80.40    3.22
   4  -2   4   78.05    3.21
   4  -2   4   80.54    3.58
   4  -2   4   78.88    3.30
  -4   2  -4   79.67    3.18
  -4   2  -4   73.50    3.39
   4   2   4   85.82    3.28
   4   2   4   77.65    3.15
  -4   2  -4   78.75    3.33
  -5  -2  -4    7.61    0.86
   5  -2   4    9.54    1.30
   5  -2   4   10.66    0.94
   5  -2   4    8.90    0.82
  -5   2  -4    9.81    0.99
  -5   2  -4    9.50    1.03
   5   2   4    9.66    0.96
   5   2   4   10.18    0.88
  -5   2  -4   10.54    1.10
   6  -2   4    0.53    0.80
  -6  -2  -4    0.15    0.82
   6  -2   4    1.45    1.25
   6  -2   4    0.49    0.79
  -6   2  -4    2.94    0.62
   6   2   4    0.41    0.89
   6   2   4    0.06    0.59
  -6   2  -4    0.99    1.07
  -6   2  -4    0.57    0.99
   6   2   4    1.34    0.67
   7  -2   4   50.73    2.65
  -7  -2  -4   52.18    2.95
  -7  -2  -4   56.51    2.80
   7  -2   4   49.46    3.20
  -7   2  -4   54.19    2.91
   7   2   4   57.35    2.36
  -7   2  -4   51.61    2.94
   7   2   4   51.16    2.64
  -7   2  -4   54.65    2.49
   7   2   4   57.80    2.65
   7   2   4   53.32    2.46
   8  -2   4   17.71    1.83
  -8  -2  -4   21.63    2.28
   8  -2   4   18.09    1.81
  -8  -2  -4   21.76    1.78
   8  -2   4   20.52    1.76
  -8   2  -4   22.17    1.83
  -8   2  -4   21.42    2.02
   8   2   4   20.03    1.47
   8   2   4   22.49    1.92
   8   2   4   18.45    1.56
   8   2   4   20.03    2.08
  -8   2  -4   19.23    1.69
   9  -2   4    1.12    1.75
   9  -2   4    1.34    1.18
  -9  -2  -4   -0.15    1.53
  -9  -2  -4   -1.00    1.72
   9  -2   4    0.27    1.03
  -9   2  -4    1.18    1.74
   9   2   4    0.62    1.14
  -9   2  -4    0.15    1.06
  -9   2  -4    1.69    1.73
   9   2   4    0.04    1.25
   9   2   4    1.07    0.83
   9   2   4    0.55    0.96
  10  -2   4    3.83    1.35
 -10  -2  -4   12.35    1.90
  10  -2   4    5.88    1.60
  10  -2   4    4.03    2.09
 -10  -2  -4    3.43    2.25
  10   2   4    4.89    1.04
 -10   2  -4    5.71    2.00
  10   2   4    5.79    1.29
  10   2   4    4.72    1.51
 -10   2  -4    4.12    1.37
 -10   2  -4    4.23    2.12
  11  -2   4   10.74    1.99
 -11  -2  -4   11.25    2.20
  11  -2   4   12.36    1.71
 -11  -2  -4   14.84    2.89
 -11  -2  -4   10.64    1.88
  11  -2   4    9.05    2.47
 -11   2  -4   12.89    1.69
  11   2   4   14.03    1.67
 -11   2  -4   22.18    2.64
  11   2   4   15.38    1.87
  11   2   4   12.50    1.37
  11   2   4   10.73    1.92
 -11   2  -4   10.43    2.48
 -12  -2  -4   -0.37    3.56
 -12  -2  -4    0.18    2.51
  12   2   4    1.12    1.93
  12   2   4    1.53    1.99
 -15  -3   4   -0.42    2.93
  15  -3  -4   -1.53    2.50
  15  -3  -4    4.44    3.18
 -15   3   4    4.48    3.20
 -14  -3   4    8.15    2.49
  14  -3  -4    9.10    2.24
  14  -3  -4    8.18    2.82
  14   3  -4    9.06    2.16
  14   3  -4    6.00    2.49
 -14   3   4    9.27    2.26
 -13  -3   4    8.79    3.41
 -13  -3   4    4.18    2.44
  13  -3  -4    5.62    1.82
 -13  -3   4    5.52    2.00
  13  -3  -4    6.14    2.35
 -13   3   4    5.88    2.75
 -13   3   4    5.77    1.73
  13   3  -4    2.66    2.02
  13   3  -4    1.31    1.88
 -13   3   4    3.70    2.20
  13   3  -4    5.27    1.80
  12  -3  -4    2.77    1.51
 -12  -3   4    1.59    2.94
 -12  -3   4    3.54    1.60
  12  -3  -4    3.62    2.11
 -12  -3   4   -0.36    1.91
 -12   3   4    5.10    2.16
 -12   3   4    1.87    1.35
  12   3  -4    2.86    1.51
 -12   3   4    5.13    1.94
  12   3  -4    4.49    1.64
  12   3  -4    2.26    1.83
 -11  -3   4   23.33    1.99
  11  -3  -4   23.10    1.85
 -11  -3   4   25.61    2.73
  11  -3  -4   24.33    2.31
 -11  -3   4   22.20    2.80
 -11  -3   4   27.22    2.42
 -11   3   4   26.60    2.13
  11   3  -4   25.94    2.15
  11   3  -4   23.47    2.33
 -11   3   4   20.91    2.12
 -11   3   4   19.17    2.15
  11   3  -4   24.31    2.46
 -10  -3   4   16.04    1.45
 -10  -3   4   13.80    1.57
  10  -3  -4    8.55    1.87
 -10  -3   4   16.22    2.35
 -10  -3   4   16.23    1.89
  10  -3  -4   13.91    1.44
 -10   3   4   13.47    1.73
 -10   3   4   14.28    1.26
  10   3  -4   13.22    1.43
 -10   3   4   16.82    1.74
  10   3  -4   15.45    1.44
  10   3  -4   14.28    1.74
   9  -3  -4    3.35    1.08
  -9  -3   4    1.93    1.19
  -9  -3   4    2.69    1.02
  -9  -3   4    3.41    0.98
  -9  -3   4    2.74    1.69
   9  -3  -4    2.60    1.53
   9   3  -4    2.01    0.98
   9   3  -4    2.22    1.37
  -9   3   4    4.09    1.23
  -9   3   4    2.84    0.82
  -9   3   4    1.19    1.25
   9   3  -4    3.49    1.13
  -8  -3   4    2.78    0.96
   8  -3  -4    2.30    0.96
  -8  -3   4    2.39    1.56
   8  -3  -4    2.09    1.33
  -8  -3   4    3.69    1.02
  -8  -3   4    1.83    0.80
   8   3  -4    1.11    1.24
   8   3  -4    1.64    1.01
  -8   3   4    2.87    0.82
  -8   3   4    3.51    1.15
  -8   3   4    3.43    1.10
   8   3  -4    2.21    0.84
   7  -3  -4   37.64    2.58
  -7  -3   4   43.82    2.03
  -7  -3   4   41.89    3.13
  -7  -3   4   42.51    2.23
   7  -3  -4   41.74    2.18
  -7  -3   4   40.07    2.18
   7  -3  -4   39.98    2.05
  -7   3   4   39.65    2.43
  -7   3   4   43.35    2.22
   7   3  -4   42.23    2.19
  -7   3   4   39.29    1.98
   7   3  -4   42.60    2.22
   7   3  -4   40.82    2.65
   6  -3  -4    8.92    0.80
   6  -3  -4    9.58    1.24
  -6  -3   4   11.32    1.51
   6  -3  -4   10.11    0.91
  -6  -3   4    9.01    0.94
  -6  -3   4   10.00    1.02
  -6   3   4   10.59    0.95
  -6   3   4    9.50    0.79
  -6   3   4   10.10    1.06
   6   3  -4    9.39    1.32
   6   3  -4    9.79    0.99
   6   3  -4   10.03    0.98
   5  -3  -4   20.30    1.29
  -5  -3   4   20.56    1.45
   5  -3  -4   20.44    1.91
  -5  -3   4   19.60    2.26
   5  -3  -4   21.67    1.36
  -5  -3   4   20.65    1.42
   5   3  -4   20.75    1.54
   5   3  -4   19.06    1.35
   5   3  -4   20.23    2.03
  -5   3   4   21.71    1.37
  -5   3   4   20.11    1.57
  -5   3   4   19.79    1.21
   4  -3  -4    7.93    0.73
  -4  -3   4    8.89    1.29
  -4  -3   4   12.08    1.16
   4  -3  -4    7.66    0.90
  -4  -3   4    9.18    0.87
   4  -3  -4    8.20    1.04
   4   3  -4    8.44    0.84
  -4   3   4    8.04    0.94
  -4   3   4    9.06    0.88
   4   3  -4    9.20    1.02
  -4   3   4    8.22    0.91
   4   3  -4    8.87    1.19
   3  -3  -4   23.65    1.64
  -3  -3   4   20.65    2.17
  -3  -3   4   22.28    1.42
   3  -3  -4   20.19    1.18
  -3  -3   4   23.25    1.42
   3   3  -4   22.49    1.35
  -3   3   4   23.20    1.49
  -3   3   4   22.94    1.20
   3   3  -4   21.74    1.99
   3   3  -4   21.67    1.43
   2  -3  -4   43.64    1.94
  -2  -3   4   42.92    2.18
   2  -3  -4   43.05    2.14
  -2  -3   4   45.51    2.13
  -2  -3   4   44.78    2.68
  -2   3   4   45.87    2.07
  -2   3   4   49.74    1.92
   2   3  -4   49.53    2.16
   2   3  -4   47.70    2.09
   2   3  -4   43.26    2.54
  -2   3   4   43.29    1.92
  -1  -3   4   35.98    1.67
   1  -3  -4   36.14    1.66
  -1  -3   4   36.05    1.83
   1   3  -4   36.08    1.95
  -1   3   4   37.53    1.56
  -1   3   4   36.63    1.72
   1   3  -4   36.17    1.66
  -1   3   4   34.79    1.64
   1   3  -4   36.63    1.88
   1   3  -4   34.52    2.39
   0  -3  -4   48.00    2.01
   0  -3   4   45.92    2.22
   0  -3   4   47.62    2.06
   0   3   4   45.33    2.05
   0   3   4   45.17    2.35
   0   3  -4   47.79    2.20
   0   3  -4   46.20    2.01
   0   3  -4   44.52    2.85
   0   3   4   45.47    2.01
   0   3   4   45.45    1.99
   0   3   4   47.12    1.89
   0   3  -4   44.35    2.24
  -1  -3  -4   29.23    1.50
   1  -3   4   32.23    1.65
   1  -3   4   29.92    1.67
   1   3   4   28.62    1.72
   1   3   4   29.64    1.46
  -1   3  -4   29.09    1.42
  -1   3  -4   31.35    2.48
  -1   3  -4   29.88    1.78
  -1   3  -4   27.68    1.70
   1   3   4   28.66    1.54
   2  -3   4   10.42    1.16
   2  -3   4   12.76    1.40
  -2  -3  -4   11.06    1.06
  -2   3  -4   13.73    1.15
  -2   3  -4   11.24    0.90
   2   3   4    9.39    0.98
  -2   3  -4   12.07    1.16
  -2   3  -4   13.25    1.75
   3  -3   4    2.43    0.71
   3  -3   4    1.85    1.08
   3  -3   4    1.22    0.65
  -3  -3  -4    2.59    0.71
   3   3   4    2.66    0.59
  -3   3  -4    1.79    0.86
  -3   3  -4    1.85    0.54
   4  -3   4    9.13    0.87
   4  -3   4   12.48    1.04
   4  -3   4   11.08    1.39
  -4   3  -4    8.48    0.83
  -4   3  -4    7.63    1.04
  -4   3  -4    8.84    1.13
   4   3   4    9.94    0.94
   5  -3   4    6.45    0.83
   5  -3   4    6.13    1.36
   5  -3   4    6.51    0.96
   5   3   4    7.75    0.92
  -5   3  -4    5.19    1.08
  -5   3  -4    6.77    1.14
  -5   3  -4    6.92    0.83
   6  -3   4    3.99    1.65
   6  -3   4    2.24    0.99
   6  -3   4    1.73    0.87
  -6   3  -4    2.87    0.78
  -6   3  -4    2.93    1.18
   6   3   4    2.55    0.92
  -6   3  -4    1.50    1.12
  -7  -3  -4    8.27    1.26
   7  -3   4    7.05    1.15
   7  -3   4    8.22    1.19
   7  -3   4    8.44    1.95
  -7   3  -4    8.14    1.04
  -7   3  -4    4.81    1.43
   7   3   4    7.44    1.21
  -7   3  -4    9.81    1.53
   7   3   4    7.88    0.85
   8  -3   4    8.32    1.33
   8  -3   4   10.83    1.97
   8  -3   4    8.90    1.34
  -8  -3  -4    6.36    1.37
   8   3   4    6.72    1.34
  -8   3  -4    7.04    1.68
  -8   3  -4    8.65    1.19
  -8   3  -4    7.67    1.65
   8   3   4   10.12    1.01
   9  -3   4    9.80    1.67
  -9  -3  -4   11.65    1.57
   9  -3   4    3.93    2.21
   9  -3   4    9.28    1.53
  -9   3  -4    9.64    2.00
  -9   3  -4    8.44    2.00
   9   3   4    9.17    1.72
  -9   3  -4    5.56    1.40
   9   3   4    6.87    1.17
  10  -3   4    6.29    1.82
  10  -3   4    5.05    1.62
 -10  -3  -4    5.43    1.84
  10  -3   4   -1.06    2.45
 -10   3  -4    5.66    2.37
  10   3   4    6.28    1.81
  10   3   4    5.14    1.36
  10   3   4    5.78    1.62
 -10   3  -4    2.69    2.13
 -10   3  -4    3.63    1.64
  11  -3   4    1.77    1.75
 -11  -3  -4    0.61    2.28
  11   3   4    1.11    1.61
 -12  -3  -4    0.83    2.94
  12   3   4    0.36    2.06
  12   3   4    5.54    1.97
  14  -4  -4   12.27    2.77
 -14  -4   4   14.42    3.23
 -14   4   4   12.21    2.91
  13  -4  -4    6.67    2.28
 -13  -4   4    7.85    2.57
  13  -4  -4    5.12    2.87
 -13   4   4    5.51    2.89
 -13   4   4    4.43    2.21
 -12  -4   4    4.00    1.97
 -12  -4   4    6.54    2.20
  12  -4  -4    4.46    1.85
 -12  -4   4    6.02    2.54
 -12  -4   4    2.41    4.32
  12  -4  -4    3.50    2.47
  12   4  -4    2.34    2.25
 -12   4   4    6.79    2.68
 -12   4   4    1.71    1.68
  12   4  -4    2.43    1.97
 -12   4   4    4.95    2.32
  12   4  -4    7.93    2.04
 -11  -4   4    7.80    1.74
  11  -4  -4    5.08    2.18
 -11  -4   4    2.07    3.49
  11  -4  -4    4.89    1.62
 -11  -4   4    2.10    2.15
 -11  -4   4    3.63    1.63
 -11   4   4    4.09    1.47
 -11   4   4    4.26    2.24
 -11   4   4    1.52    2.15
  11   4  -4    3.50    1.64
  11   4  -4    5.40    2.16
  11   4  -4    5.11    1.74
  10  -4  -4    6.74    2.07
  10  -4  -4    8.73    1.55
 -10  -4   4    8.88    1.44
 -10  -4   4    7.71    1.94
  10  -4  -4    7.51    1.47
 -10  -4   4    7.20    1.52
 -10  -4   4    9.89    3.14
  10   4  -4    5.38    1.69
 -10   4   4    5.14    1.67
 -10   4   4    5.57    1.78
 -10   4   4    8.86    1.34
  10   4  -4    6.66    1.83
  10   4  -4    6.56    1.56
  -9  -4   4    7.65    1.14
   9  -4  -4    6.14    1.32
  -9  -4   4    4.12    1.62
  -9  -4   4    8.71    1.46
  -9  -4   4    9.44    2.72
   9  -4  -4    5.28    1.39
   9  -4  -4    2.44    1.73
   9   4  -4    5.67    1.81
   9   4  -4    3.40    1.48
  -9   4   4    7.45    1.46
   9   4  -4    5.66    1.36
  -9   4   4    5.83    1.19
  -9   4   4    5.39    1.53
  -8  -4   4   17.78    1.65
   8  -4  -4   17.30    1.97
   8  -4  -4   18.23    1.54
  -8  -4   4   18.66    2.65
  -8  -4   4   15.47    1.55
   8  -4  -4   18.39    2.05
  -8   4   4   17.84    1.85
  -8   4   4   18.79    1.64
   8   4  -4   17.71    2.03
   8   4  -4   18.59    1.66
   8   4  -4   22.15    2.03
  -8   4   4   17.87    1.38
   7  -4  -4   34.38    2.30
  -7  -4   4   34.25    2.77
  -7  -4   4   38.71    2.43
   7  -4  -4   31.46    2.35
  -7  -4   4   31.03    2.41
   7  -4  -4   29.80    2.90
  -7   4   4   35.53    1.99
  -7   4   4   35.92    2.30
   7   4  -4   36.60    3.25
  -7   4   4   32.85    2.45
   7   4  -4   37.46    2.30
   7   4  -4   27.60    2.39
  -6  -4   4    3.68    1.99
   6  -4  -4    4.71    1.04
   6  -4  -4    4.31    1.05
  -6  -4   4    4.14    1.19
   6  -4  -4    4.97    1.45
  -6  -4   4    2.64    1.09
  -6   4   4    4.69    1.07
   6   4  -4    3.74    1.16
  -6   4   4    5.48    1.22
   6   4  -4    4.62    0.99
  -6   4   4    4.17    0.81
   6   4  -4    2.76    1.57
  -5  -4   4   -0.13    1.75
   5  -4  -4    2.07    1.33
   5  -4  -4    3.00    0.90
  -5  -4   4    2.64    0.92
   5  -4  -4    1.92    0.84
  -5  -4   4    3.26    1.07
  -5   4   4    3.15    0.71
  -5   4   4    1.47    0.90
   5   4  -4    1.65    0.90
   5   4  -4    1.33    1.07
   5   4  -4    2.49    1.50
  -5   4   4    1.91    1.01
   4  -4  -4   27.77    1.75
  -4  -4   4   24.75    2.03
  -4  -4   4   32.56    2.42
   4  -4  -4   26.67    2.29
   4  -4  -4   28.03    1.81
  -4  -4   4   28.41    1.98
   4   4  -4   27.88    1.99
   4   4  -4   28.17    1.88
   4   4  -4   24.88    2.60
  -4   4   4   26.76    2.14
  -4   4   4   29.08    1.63
  -3  -4   4   27.56    1.87
   3  -4  -4   22.87    2.09
   3  -4  -4   21.78    1.69
   3  -4  -4   26.78    1.66
   3   4  -4   25.54    1.90
   3   4  -4   26.93    1.94
   3   4  -4   25.01    1.68
  -3   4   4   25.97    1.43
   3   4  -4   28.81    2.73
  -3   4   4   24.12    1.79
   3   4  -4   25.87    1.51
  -2  -4   4   14.05    1.55
   2  -4  -4   13.79    1.28
   2   4  -4   13.10    1.37
   2   4  -4   13.53    1.27
  -2   4   4   15.29    1.45
  -2   4   4   14.03    1.19
   2   4  -4   16.97    1.36
  -2   4   4   13.44    1.18
   2   4  -4   16.12    1.33
   2   4  -4   15.77    1.85
  -1  -4   4    9.56    1.10
   1  -4  -4   10.07    0.94
  -1  -4   4    9.15    0.88
  -1   4   4    8.00    0.87
  -1   4   4    8.42    1.64
   1   4  -4    9.74    0.85
   1   4  -4    7.94    1.20
   1   4  -4   10.23    1.19
  -1   4   4    7.99    1.05
  -1   4   4    9.81    0.95
  -1   4   4    9.20    0.96
   1   4  -4   10.56    1.86
   0  -4  -4   45.82    2.17
   0  -4   4   44.58    2.20
   0  -4   4   42.44    2.41
   0   4  -4   47.83    2.58
   0   4  -4   43.74    2.07
   0   4   4   43.20    2.14
   0   4   4   44.93    2.17
   0   4   4   44.02    1.99
   0   4   4   43.86    3.01
   0   4  -4   43.14    3.82
   0   4  -4   42.82    2.48
   0   4   4   44.05    2.23
   1  -4   4   25.44    1.59
   1  -4   4   27.03    1.99
  -1  -4  -4   25.26    1.69
   1   4   4   31.30    1.68
   1   4   4   25.47    1.39
  -1   4  -4   26.05    2.48
  -1   4  -4   23.05    1.93
   1   4   4   23.04    1.67
   1   4   4   21.91    2.23
  -1   4  -4   25.10    1.49
   1   4   4   23.30    1.68
  -1   4  -4   26.01    2.11
  -2  -4  -4   26.04    1.75
   2  -4   4   30.16    2.06
   2  -4   4   24.91    1.73
   2   4   4   24.28    1.59
  -2   4  -4   30.65    2.66
   2   4   4   24.21    2.06
   2   4   4   25.78    1.39
   2   4   4   25.23    1.69
  -2   4  -4   26.01    1.47
  -2   4  -4   23.97    2.30
  -2   4  -4   22.05    2.04
   2   4   4   23.02    1.67
  -3  -4  -4   10.38    1.09
   3  -4   4    9.52    1.28
   3  -4   4    9.55    1.07
   3   4   4   10.95    1.06
  -3   4  -4    8.97    0.91
  -3   4  -4   11.40    1.49
  -3   4  -4    9.15    1.35
   3   4   4    8.83    1.00
  -3   4  -4   11.61    2.37
   3   4   4    8.73    1.20
   4  -4   4   16.96    1.71
   4  -4   4   18.67    2.09
  -4  -4  -4   16.45    1.87
  -4   4  -4   21.58    2.87
  -4   4  -4   15.75    1.48
  -4   4  -4   17.13    1.61
   4   4   4   17.61    1.67
  -4   4  -4   22.25    1.95
   5  -4   4   23.27    2.41
   5  -4   4   21.51    2.07
   5  -4   4   20.92    1.89
   5  -4   4   22.03    1.92
   5   4   4   16.26    1.96
  -5   4  -4   19.82    1.83
   5   4   4   22.26    1.92
  -5   4  -4   19.54    1.71
   6  -4   4   -0.85    1.85
   6  -4   4    1.02    1.16
   6  -4   4   -0.48    1.04
   6   4   4    1.57    1.11
  -6   4  -4   -0.06    1.45
  -6   4  -4   -0.26    1.30
  -6   4  -4   -0.37    0.91
   7  -4   4    6.21    1.41
   7  -4   4    6.07    2.14
   7  -4   4    6.06    1.41
  -7   4  -4    6.05    1.31
  -7   4  -4    1.36    1.45
   7   4   4    9.67    1.60
  -7   4  -4    6.53    1.86
   8  -4   4    3.71    2.29
   8  -4   4    3.39    1.45
   8  -4   4    3.21    1.62
  -8   4  -4    3.46    1.44
  -8   4  -4    1.52    1.66
  -8   4  -4    5.01    1.96
   8   4   4    7.22    1.74
   9  -4   4   -0.29    2.50
   9  -4   4    3.89    1.62
   9  -4   4    1.36    1.93
   9   4   4   -0.40    1.85
  -9   4  -4    0.80    1.83
  -9   4  -4    3.23    2.18
  10  -4   4    5.49    1.83
  12  -5  -4    3.96    2.54
  12  -5  -4    5.47    3.50
  12  -5  -4    5.39    2.65
 -12   5   4    2.54    2.63
 -12   5   4   -0.87    2.41
  11  -5  -4    1.80    2.82
  11  -5  -4    5.74    2.40
  11  -5  -4    4.36    2.36
  11   5  -4    6.13    3.03
 -11   5   4    2.88    2.81
  11   5  -4    7.30    2.36
 -11   5   4    4.54    2.09
 -11   5   4    2.28    2.22
  10  -5  -4    4.62    2.02
 -10  -5   4    1.77    1.85
  10  -5  -4    0.76    2.64
 -10  -5   4   -4.76    2.60
 -10  -5   4    0.49    4.88
  10  -5  -4    1.94    2.14
  10   5  -4    2.18    2.17
 -10   5   4    1.87    2.51
  10   5  -4    0.90    2.04
 -10   5   4    1.06    1.87
  10   5  -4    1.23    2.49
 -10   5   4    1.13    1.75
  -9  -5   4   -4.52    4.33
   9  -5  -4    3.11    2.31
   9  -5  -4    0.07    1.76
   9  -5  -4    3.32    1.73
  -9  -5   4    3.74    2.36
  -9  -5   4    2.86    1.64
   9   5  -4    3.79    2.19
  -9   5   4   -0.05    1.48
  -9   5   4    3.27    1.56
  -9   5   4    1.12    2.00
   9   5  -4    2.50    2.43
   9   5  -4    3.08    1.75
  -8  -5   4    8.87    3.86
   8  -5  -4    7.34    1.62
  -8  -5   4    7.56    2.15
   8  -5  -4    7.26    2.31
   8  -5  -4    5.87    1.60
  -8  -5   4    3.75    1.71
  -8   5   4    2.95    1.34
  -8   5   4    7.27    2.00
   8   5  -4    8.42    1.80
  -8   5   4    9.18    1.38
   8   5  -4    5.86    2.38
   8   5  -4    6.32    1.86
   7  -5  -4    9.08    2.05
  -7  -5   4   11.38    1.94
  -7  -5   4   14.27    3.42
   7  -5  -4   17.85    1.76
  -7  -5   4   12.79    2.16
   7  -5  -4   14.24    1.64
  -7   5   4   12.32    1.45
   7   5  -4   12.75    1.87
   7   5  -4   14.35    2.47
   7   5  -4   12.43    1.82
  -7   5   4   14.13    1.94
  -6  -5   4    2.83    1.49
   6  -5  -4   -0.46    1.77
  -6  -5   4   -2.30    1.90
   6  -5  -4    1.87    1.37
   6  -5  -4    2.86    1.23
  -6  -5   4   -0.58    3.01
   6   5  -4   -0.19    1.56
  -6   5   4    0.83    1.09
   6   5  -4   -0.24    2.16
   6   5  -4   -0.22    1.34
  -6   5   4    0.40    1.43
  -5  -5   4    7.99    1.53
   5  -5  -4   10.09    1.52
   5  -5  -4    7.75    1.29
   5  -5  -4    9.52    1.81
   5   5  -4    8.98    1.46
  -5   5   4   11.38    1.25
  -5   5   4    7.56    1.45
   5   5  -4    8.05    2.16
   5   5  -4    9.39    1.59
   4  -5  -4   -0.59    1.15
   4  -5  -4   -0.31    1.57
  -4  -5   4   -0.15    1.28
   4   5  -4   -0.42    2.07
   4   5  -4    0.10    1.27
   4   5  -4    0.67    0.88
  -4   5   4    3.19    1.33
   4   5  -4   -0.48    1.52
   4   5  -4    1.31    1.07
  -4   5   4    3.04    0.94
   3  -5  -4   15.06    1.47
  -3  -5   4   15.46    1.57
   3   5  -4   14.02    2.29
  -3   5   4   15.96    1.61
  -3   5   4   17.05    1.58
   3   5  -4   13.40    1.65
   3   5  -4   14.43    1.67
   3   5  -4   15.33    1.30
   3   5  -4   14.30    1.47
  -3   5   4   14.11    2.36
   2  -5  -4   15.11    1.45
  -2  -5   4   18.05    2.13
   2   5  -4   16.15    1.83
   2   5  -4   17.14    1.78
  -2   5   4   17.43    1.67
  -2   5   4   17.91    1.51
   2   5  -4   11.46    2.45
  -2   5   4   22.08    3.25
   2   5  -4   14.63    1.61
  -2   5   4   15.88    1.19
   1  -5  -4   15.90    1.40
  -1  -5   4   14.82    1.59
   1   5  -4   14.85    1.75
  -1   5   4   17.03    2.26
   1   5  -4   15.01    1.77
  -1   5   4   12.83    1.13
  -1   5   4   16.59    1.47
  -1   5   4   16.94    1.47
  -1   5   4   14.41    1.62
   1   5  -4   16.68    1.51
   1   5  -4   16.21    2.47
   0  -5  -4    4.97    1.16
   0  -5   4    5.89    1.36
   0   5  -4    5.81    0.90
   0   5  -4    6.34    1.63
   0   5   4    7.43    1.91
   0   5  -4    4.48    2.58
   0   5   4    3.73    1.05
   0   5  -4    5.43    1.43
   0   5   4    6.44    1.18
   0   5   4    5.22    0.89
   0   5   4    3.64    1.17
  -1  -5  -4   11.64    1.36
   1  -5   4   16.91    1.79
   1  -5   4   15.33    1.74
   1   5   4   11.82    1.89
  -1   5  -4   16.65    3.01
   1   5   4   16.76    1.83
  -1   5  -4   13.51    1.66
   1   5   4   15.45    1.36
  -1   5  -4   14.31    1.93
  -1   5  -4   15.68    1.24
   1   5   4   15.14    1.14
   1   5   4   10.11    1.34
   2  -5   4   16.63    1.38
  -2  -5  -4   16.36    1.45
   2  -5   4   16.62    1.80
   2   5   4   16.83    1.78
   2   5   4   16.81    1.84
   2   5   4   16.57    1.51
  -2   5  -4   25.01    3.46
   2   5   4   15.96    1.53
   2   5   4   16.55    1.41
  -2   5  -4   15.26    1.82
  -2   5  -4   17.98    1.97
  -2   5  -4   15.44    1.63
  -3  -5  -4    2.74    1.32
   3  -5   4    2.82    1.12
   3  -5   4    1.13    1.49
   3   5   4    1.90    1.37
  -3   5  -4    2.17    3.35
  -3   5  -4    1.31    1.60
  -3   5  -4    0.94    0.96
  -3   5  -4    2.10    1.90
   3   5   4    3.34    1.07
   3   5   4    2.36    0.89
   3   5   4    1.92    1.12
   3   5   4   -0.49    1.08
   4  -5   4   14.21    1.91
  -4  -5  -4   15.84    1.59
   4  -5   4   14.28    1.55
  -4   5  -4   11.16    2.30
   4   5   4    8.52    1.26
   4   5   4   11.16    1.37
   4   5   4   16.72    1.70
  -4   5  -4   12.03    2.94
  -4   5  -4   13.45    1.87
  -4   5  -4   12.57    1.31
   4   5   4   11.44    1.63
   5  -5   4   12.42    1.90
  -5  -5  -4   11.53    1.80
   5  -5   4    8.63    1.49
  -5   5  -4   11.67    4.24
   5   5   4    5.77    1.50
   5   5   4    7.08    1.64
  -5   5  -4    8.12    1.86
  -5   5  -4    7.94    1.33
  -5   5  -4   10.26    2.34
   5   5   4    7.37    1.62
   6  -5   4    6.83    2.08
   6  -5   4    6.41    1.74
  -6   5  -4   10.39    4.41
  -6   5  -4    6.76    1.49
   6   5   4    5.47    1.72
  -6   5  -4    5.83    2.59
  -6   5  -4    8.04    2.19
   7  -5   4    5.75    2.01
   7  -5   4    9.60    2.22
  -7   5  -4    7.70    1.97
  -7   5  -4    8.17    2.83
  -7   5  -4    7.89    3.40
  -7   5  -4    8.78    4.82
   7   5   4    6.96    2.34
   8  -5   4    6.57    1.83
   8  -5   4    6.33    2.33
  -8   5  -4    3.62    2.12
   9  -5   4    4.56    2.31
  10  -6  -4   -1.03    3.66
  10  -6  -4    1.73    3.13
 -10   6   4   10.70    3.77
 -10   6   4    1.80    3.05
   9  -6  -4    8.14    2.86
   9  -6  -4    8.25    3.27
  -9   6   4    8.10    3.53
   8  -6  -4   18.12    2.61
   8  -6  -4   11.00    3.01
   8  -6  -4    2.80    2.24
  -8   6   4   13.06    3.06
   8   6  -4   16.91    3.81
   8   6  -4    9.68    2.65
   7  -6  -4    3.28    2.17
  -7  -6   4    6.84    2.35
   7  -6  -4    3.24    2.18
   7  -6  -4    0.91    2.65
   7   6  -4    5.15    2.43
   7   6  -4    1.72    2.30
  -7   6   4    5.99    2.53
   7   6  -4    2.79    1.43
   7   6  -4    2.54    2.20
   7   6  -4    4.82    3.11
  -7   6   4    2.52    1.71
  -6  -6   4    0.03    2.13
   6  -6  -4    1.56    1.96
   6   6  -4    1.35    1.94
   6   6  -4    2.58    1.44
  -6   6   4    3.96    1.53
   6   6  -4   -0.78    3.10
   6   6  -4   -2.99    1.96
  -6   6   4    1.22    2.18
   6   6  -4    3.16    2.26
  -5  -6   4    5.24    1.95
   5  -6  -4    8.70    1.93
   5   6  -4    8.72    1.53
  -5   6   4    9.10    3.38
   5   6  -4    9.00    2.39
   5   6  -4    5.98    2.96
  -5   6   4    2.03    2.13
  -5   6   4    3.06    1.61
   5   6  -4    4.68    1.83
   5   6  -4    8.76    1.96
   4  -6  -4   12.89    1.94
  -4  -6   4   10.68    2.00
   4   6  -4   13.16    2.31
  -4   6   4    4.69    2.82
   4   6  -4    8.62    1.82
  -4   6   4    9.97    2.67
  -4   6   4   12.53    1.55
  -4   6   4    8.90    2.13
   4   6  -4   11.15    2.08
   4   6  -4    9.46    3.26
   4   6  -4   10.19    1.49
  -3  -6   4   13.94    2.05
   3  -6  -4    8.32    1.80
   3   6  -4   11.99    3.26
  -3   6   4   10.50    1.39
   3   6  -4   10.36    1.44
  -3   6   4   12.04    3.41
  -3   6   4    8.88    2.28
  -3   6   4   10.74    1.96
   3   6  -4   13.33    2.39
   3   6  -4    7.45    1.95
   2  -6  -4    2.07    1.60
  -2  -6   4    1.90    1.82
  -2   6   4   -0.03    3.01
   2   6  -4    1.30    1.89
  -2   6   4    1.36    1.74
   2   6  -4    1.26    3.01
   2   6  -4    0.21    1.17
  -2   6   4    1.43    2.03
  -2   6   4    2.12    1.20
   2   6  -4   -3.62    2.18
  -1  -6   4    2.34    1.81
   1  -6  -4    4.46    1.58
   1   6  -4    0.80    3.25
   1   6  -4    5.68    2.03
  -1   6   4    1.84    2.82
   1   6  -4    1.74    1.91
   1   6  -4    2.45    1.17
  -1   6   4    3.29    1.17
  -1   6   4    1.90    1.78
  -1   6   4    2.82    1.67
   0  -6  -4    4.24    1.51
   0  -6   4    8.24    1.89
   0   6  -4    7.33    1.32
   0   6   4   11.12    1.66
   0   6   4    6.78    1.78
   0   6   4    6.22    1.56
   0   6  -4    8.67    2.05
   0   6   4    6.28    1.21
   0   6  -4    7.58    2.23
   0   6  -4   10.58    3.58
   0   6   4    2.74    2.44
   1  -6   4    6.57    2.07
  -1  -6  -4    4.03    1.63
   1   6   4    4.84    1.27
   1   6   4    4.46    1.59
   1   6   4    5.76    2.35
  -1   6  -4    6.75    4.04
  -1   6  -4    5.34    1.33
  -1   6  -4    2.48    2.34
   1   6   4    6.01    1.72
  -1   6  -4    5.96    2.19
   1   6   4    2.40    1.68
  -2  -6  -4   16.55    1.85
   2  -6   4   20.55    2.38
  -2   6  -4   10.99    1.57
  -2   6  -4   18.27    2.63
   2   6   4   14.74    1.47
   2   6   4   15.51    2.04
  -2   6  -4   21.74    4.56
   2   6   4   12.87    1.74
   2   6   4   16.76    1.81
  -2   6  -4   17.31    2.56
   2   6   4   12.56    2.50
   3  -6   4    2.73    2.21
  -3  -6  -4    0.30    1.72
   3  -6   4   -1.19    1.73
  -3   6  -4    1.90    1.47
   3   6   4    0.63    1.35
   3   6   4    3.32    1.81
  -3   6  -4    2.72    2.57
  -3   6  -4    8.00    5.28
   3   6   4   -0.30    1.44
   3   6   4    5.95    2.09
  -3   6  -4    2.74    2.46
   3   6   4    1.41    1.58
   4  -6   4    7.39    1.91
  -4  -6  -4    6.28    2.18
   4  -6   4    8.16    2.35
  -4   6  -4    8.73    5.98
   4   6   4    4.36    2.15
  -4   6  -4    5.45    1.71
   4   6   4    7.89    1.98
   4   6   4    2.96    1.42
  -4   6  -4    4.55    2.55
   4   6   4    6.24    1.67
  -4   6  -4   19.06    3.17
  -5  -6  -4    5.78    2.35
   5  -6   4    0.98    2.13
   5   6   4   -0.43    1.91
  -5   6  -4   12.48    3.46
  -5   6  -4    2.90    6.18
  -5   6  -4    5.00    1.87
   5   6   4    0.89    2.51
   6  -6   4    0.98    2.49
   6   6   4    2.70    1.97
  -6   6  -4    7.18    2.31
  -6   6  -4   -3.79    4.00
   7  -6   4    2.49    2.94
  -7   6  -4    6.23    4.75
   6  -7  -4    1.61    3.10
   5  -7  -4    1.69    2.77
   5   7  -4    0.17    3.35
   4  -7  -4   -0.51    2.59
   4   7  -4   -0.89    3.60
   3  -7  -4    3.02    2.60
   3   7  -4   -1.39    3.05
   2  -7  -4    1.77    2.46
   2   7  -4    0.14    3.29
   2   7  -4   -1.09    3.10
   1  -7  -4    0.44    2.45
  -1   7   4   -0.57    4.21
   1   7  -4    1.89    3.02
   1   7  -4    3.09    3.20
   0  -7  -4   -2.58    2.41
   0   7   4    0.81    3.47
   0   7  -4   -2.38    3.37
   0   7  -4   -2.38    3.37
  -1  -7  -4    7.13    2.45
   1   7   4    7.91    2.86
   1   7   4    8.51    3.48
  -1   7  -4    4.68    3.57
  -2  -7  -4    5.12    2.55
  -2   7  -4    4.95    3.86
   2   7   4    1.33    2.92
   2   7   4    4.80    3.27
   3   7   4    5.95    3.23
  -3   7  -4   -3.22    3.93
  16   0  -5    3.83    2.29
  16   0  -5   -1.19    2.63
 -15   0   5    5.05    2.38
  15   0  -5    4.83    2.44
 -15   0   5    5.39    2.86
 -15   0   5    5.72    2.29
  15   0  -5    4.90    1.91
  15   0  -5    8.93    2.11
 -14   0   5   32.80    2.59
  14   0  -5   29.64    2.85
  14   0  -5   29.68    3.04
 -14   0   5   34.25    3.19
 -14   0   5   28.78    3.14
  14   0  -5   35.80    3.02
  13   0  -5    8.33    1.39
 -13   0   5    6.16    2.04
  13   0  -5    8.09    1.50
  13   0  -5    7.90    1.99
 -13   0   5    9.01    1.67
 -13   0   5    9.19    1.47
  12   0  -5    5.88    1.89
 -12   0   5    6.28    1.25
  12   0  -5    6.20    1.10
 -12   0   5    6.83    1.72
  12   0  -5    3.55    1.27
 -12   0   5    4.34    1.42
 -11   0   5   31.34    2.63
  11   0  -5   33.62    1.97
 -11   0   5   28.69    2.03
 -11   0   5   32.25    2.26
  11   0  -5   31.41    2.71
  11   0  -5   31.68    2.16
  10   0  -5   22.60    1.50
  10   0  -5   21.43    1.77
 -10   0   5   22.97    1.61
  10   0  -5   21.94    2.24
 -10   0   5   20.65    2.06
 -10   0   5   20.98    1.77
  -9   0   5   36.01    1.82
  -9   0   5   35.83    2.22
  -9   0   5   35.73    2.00
   9   0  -5   37.44    1.97
   9   0  -5   34.14    2.30
   9   0  -5   35.81    1.79
   8   0  -5  116.36    4.47
  -8   0   5  116.81    4.46
  -8   0   5  110.71    4.61
   8   0  -5  112.73    4.63
   8   0  -5  111.51    4.41
  -8   0   5  109.39    4.49
   7   0  -5    6.59    0.69
  -7   0   5    7.17    0.73
   7   0  -5    5.79    0.68
   7   0  -5    7.25    0.93
  -7   0   5    6.15    0.61
  -7   0   5    5.70    0.81
  -6   0   5   24.65    1.49
  -6   0   5   24.65    1.23
   6   0  -5   23.02    1.13
   6   0  -5   25.73    1.26
   6   0  -5   25.02    1.54
  -5   0   5  184.19    7.04
  -5   0   5  186.85    6.99
  -5   0   5  190.21    7.13
   5   0  -5  168.33    6.99
   5   0  -5  194.45    7.04
   5   0  -5  193.22    7.12
   4   0  -5   43.12    1.83
  -4   0   5   40.10    1.62
  -4   0   5   43.36    1.82
  -4   0   5   40.31    1.69
   4   0  -5   36.64    1.62
   4   0  -5   43.05    1.70
  -3   0   5   17.55    0.87
   3   0  -5   18.67    1.07
  -3   0   5   16.57    1.04
  -3   0   5   17.15    0.76
   3   0  -5   14.62    0.89
  -2   0   5    4.88    0.41
  -2   0   5    5.40    0.57
   2   0  -5    4.88    0.49
  -2   0   5    3.45    0.44
  -1   0   5  154.88    6.06
   1   0  -5  158.56    5.96
  -1   0   5  162.90    5.97
   1   0  -5  158.81    6.03
   0   0  -5    0.29    0.36
   0   0  -5   -0.13    0.49
   1   0   5    9.44    0.82
  -1   0  -5   10.43    0.79
  -1   0  -5   13.79    1.24
   2   0   5   40.03    1.87
  -2   0  -5   43.56    1.77
   2   0   5   40.40    1.66
  -2   0  -5   43.90    1.66
   2   0   5   39.94    1.86
  -3   0  -5    9.52    0.69
   3   0   5    9.44    0.81
  -3   0  -5    9.27    0.85
   3   0   5    8.06    0.79
  -3   0  -5    9.03    0.64
   3   0   5    7.58    0.68
   4   0   5   88.75    3.55
   4   0   5   89.47    3.74
   4   0   5   90.47    3.70
  -4   0  -5   90.94    3.74
  -4   0  -5   94.32    3.53
  -4   0  -5   94.03    3.65
  -5   0  -5    1.51    0.67
  -5   0  -5    1.69    0.45
  -5   0  -5    0.56    0.82
   5   0   5    1.32    0.81
   5   0   5    1.16    0.49
   5   0   5    0.86    0.63
   6   0   5   44.47    2.45
  -6   0  -5   49.53    2.50
  -6   0  -5   45.92    2.31
  -6   0  -5   45.83    2.03
   6   0   5   46.85    2.05
   6   0   5   44.00    2.22
   7   0   5    9.56    1.19
   7   0   5    7.02    0.91
   7   0   5    6.35    0.79
  -7   0  -5    7.97    1.17
  -7   0  -5    5.80    1.27
  -7   0  -5    7.58    0.81
  -8   0  -5   -0.36    1.24
   8   0   5    0.27    1.15
  -8   0  -5    0.20    0.76
   8   0   5    0.28    0.93
  -8   0  -5   -0.25    1.34
   8   0   5    1.72    0.79
   9   0   5    7.29    1.42
  -9   0  -5    8.64    1.68
  -9   0  -5    7.07    1.08
   9   0   5    7.01    1.01
   9   0   5    7.24    1.35
  -9   0  -5    6.59    1.68
 -10   0  -5   28.19    3.36
  10   0   5   29.13    2.97
  10   0   5   23.30    2.61
  10   0   5   24.81    2.11
  10   0   5   30.58    2.55
 -10   0  -5   26.26    2.44
 -10   0  -5   30.42    2.28
  11   0   5   -0.03    1.24
 -11   0  -5    0.89    1.64
  11   0   5    0.47    1.83
 -11   0  -5    1.61    2.31
  11   0   5    0.26    1.74
  11   0   5    2.51    1.50
 -11   0  -5    0.63    2.23
  12   0   5    2.25    2.12
  16  -1  -5    3.03    2.32
  16  -1  -5    1.96    2.63
  16   1  -5    1.89    2.26
  16   1  -5    2.06    2.41
  15  -1  -5    6.36    2.58
 -15  -1   5    1.32    2.27
  15  -1  -5    5.59    1.95
  15  -1  -5    4.24    1.96
 -15  -1   5    3.03    2.56
 -15   1   5    3.65    3.59
  15   1  -5    4.74    1.99
  15   1  -5    3.51    1.98
 -15   1   5    4.23    2.28
 -15   1   5    2.81    2.46
  15   1  -5    0.05    2.64
 -14  -1   5   11.35    2.77
 -14  -1   5   11.73    2.15
  14  -1  -5   13.62    2.32
  14  -1  -5    9.56    1.66
  14  -1  -5    8.43    1.82
 -14  -1   5   10.05    1.94
  14   1  -5   10.43    1.84
 -14   1   5    9.09    1.86
  14   1  -5    9.76    1.72
 -14   1   5    6.65    2.52
  14   1  -5    8.96    2.34
 -14   1   5    9.68    2.11
 -13  -1   5    5.22    2.21
  13  -1  -5    3.18    1.19
  13  -1  -5    0.80    1.88
  13  -1  -5    3.86    1.52
 -13  -1   5    2.76    1.59
 -13   1   5    3.63    1.40
  13   1  -5    3.29    1.97
 -13   1   5    3.01    2.03
 -13   1   5    5.31    1.67
  13   1  -5    5.22    1.52
  13   1  -5    4.86    1.34
 -12  -1   5    7.37    1.38
  12  -1  -5    6.07    1.63
  12  -1  -5    5.90    1.38
 -12  -1   5   11.61    1.89
 -12  -1   5    7.66    1.42
  12  -1  -5    7.10    1.02
 -12   1   5    4.82    1.42
  12   1  -5    6.62    1.44
 -12   1   5    4.74    1.65
  12   1  -5    9.06    1.26
  12   1  -5    5.96    1.69
 -12   1   5    6.11    1.15
  11  -1  -5   21.51    1.70
 -11  -1   5   24.00    2.01
  11  -1  -5   24.97    2.00
 -11  -1   5   24.94    2.58
 -11  -1   5   18.44    1.97
  11  -1  -5   20.35    1.96
 -11   1   5   22.78    2.26
  11   1  -5   21.64    1.75
  11   1  -5   20.71    2.08
 -11   1   5   21.53    2.57
 -11   1   5   22.21    1.80
  11   1  -5   22.93    1.93
 -10  -1   5   14.17    1.64
 -10  -1   5   20.18    1.64
  10  -1  -5   19.19    1.73
 -10  -1   5   17.13    1.81
  10  -1  -5   21.24    1.74
  10  -1  -5   18.76    1.43
 -10   1   5   18.22    1.56
  10   1  -5   20.22    2.33
  10   1  -5   18.61    1.49
 -10   1   5   19.16    1.51
  10   1  -5   21.61    1.71
 -10   1   5   17.92    1.81
   9  -1  -5    5.37    1.30
  -9  -1   5    3.61    0.80
   9  -1  -5    3.85    0.83
   9  -1  -5    4.75    0.65
  -9  -1   5    4.14    0.81
  -9  -1   5    2.53    1.14
  -9   1   5    4.96    0.95
   9   1  -5    5.27    0.77
   9   1  -5    3.94    0.81
   9   1  -5    5.48    1.14
  -9   1   5    3.92    0.76
  -9   1   5    3.86    1.02
  -8  -1   5    5.54    0.76
   8  -1  -5    8.13    1.17
   8  -1  -5    7.47    0.82
  -8  -1   5    7.12    0.79
  -8  -1   5    6.36    0.65
   8  -1  -5    5.66    0.56
  -8  -1   5    6.26    1.04
  -8   1   5    7.62    0.78
   8   1  -5    7.00    0.79
  -8   1   5    7.53    0.89
  -8   1   5    7.03    1.01
   8   1  -5    5.82    0.70
   8   1  -5    5.91    0.98
  -7  -1   5    5.29    0.64
  -7  -1   5    4.74    0.85
   7  -1  -5    4.68    0.92
   7  -1  -5    5.16    0.64
  -7  -1   5    6.21    0.67
  -7  -1   5    6.03    0.68
   7  -1  -5    5.46    0.65
   7   1  -5    4.64    0.58
  -7   1   5    6.06    0.89
  -7   1   5    5.71    0.70
   7   1  -5    5.88    0.72
  -7   1   5    5.61    0.62
   7   1  -5    4.56    0.89
   6  -1  -5    8.39    0.61
   6  -1  -5   11.77    1.23
  -6  -1   5   11.80    0.93
  -6  -1   5   13.59    1.30
   6  -1  -5   11.06    0.95
  -6  -1   5   11.19    0.88
  -6   1   5   11.51    1.23
   6   1  -5   11.85    1.38
   6   1  -5   10.72    1.00
  -6   1   5   10.26    0.89
   6   1  -5   10.75    0.80
  -6   1   5    9.74    0.96
  -5  -1   5  166.90    6.46
  -5  -1   5  170.16    6.32
  -5  -1   5  166.13    6.32
   5  -1  -5  166.42    6.29
   5  -1  -5  168.51    6.39
  -5   1   5  159.58    6.28
   5   1  -5  167.36    6.31
   5   1  -5  161.34    6.32
  -5   1   5  167.57    6.39
   5   1  -5  163.63    6.42
  -4  -1   5    1.41    0.63
  -4  -1   5    2.45    0.40
  -4  -1   5    1.74    0.43
   4  -1  -5    1.32    0.37
   4  -1  -5    1.91    0.56
   4   1  -5    1.56    0.64
   4   1  -5    1.81    0.36
  -4   1   5    1.25    0.38
  -4   1   5    1.44    0.54
   4   1  -5    1.73    0.43
  -3  -1   5   31.52    1.39
   3  -1  -5   33.72    1.48
  -3  -1   5   29.06    1.65
  -3  -1   5   29.81    1.41
   3   1  -5   33.08    1.65
   3   1  -5   31.91    1.43
   3   1  -5   32.77    1.38
  -3   1   5   28.85    1.47
  -3   1   5   32.14    1.34
  -2  -1   5   78.12    3.21
   2  -1  -5   83.08    3.05
  -2  -1   5   83.71    3.07
  -2  -1   5   74.45    3.04
  -2   1   5   76.19    2.97
   2   1  -5   78.35    3.17
  -2   1   5   69.15    3.02
   2   1  -5   78.31    3.03
  -1  -1   5   48.04    2.22
  -1  -1   5   47.55    1.99
  -1  -1   5   50.50    2.03
  -1   1   5   44.29    1.88
   1   1  -5   50.40    2.18
   1   1  -5   51.47    1.98
   0  -1   5   61.44    2.58
   0   1   5   57.23    2.47
   0   1  -5   67.35    2.61
   0   1  -5   67.84    2.49
   0   1  -5   66.93    2.54
   0   1  -5   61.81    2.77
   1  -1   5  123.48    4.85
   1   1   5  115.69    4.79
  -1   1  -5  144.04    4.82
  -1   1  -5  123.30    4.82
  -1   1  -5  121.74    4.74
  -1   1  -5  119.34    4.94
   2  -1   5    2.21    0.40
   2  -1   5    1.50    0.51
   2  -1   5    1.84    0.73
  -2   1  -5    2.63    0.39
   2   1   5    2.96    0.56
  -2   1  -5    2.58    0.61
   3  -1   5   16.62    1.19
   3  -1   5   17.06    0.99
   3  -1   5   14.46    1.42
  -3   1  -5   16.80    1.24
  -3   1  -5   18.21    0.94
   3   1   5   16.82    1.17
  -3   1  -5   17.20    1.29
   3   1   5   17.43    1.03
   4  -1   5   21.43    1.38
   4  -1   5   20.85    1.74
   4  -1   5   23.05    1.18
  -4  -1  -5   22.20    1.45
   4   1   5   20.35    1.31
  -4   1  -5   20.35    1.12
   4   1   5   22.30    1.22
  -4   1  -5   19.97    1.51
  -4   1  -5   19.08    1.41
  -5  -1  -5   27.24    1.68
   5  -1   5   26.77    1.67
   5  -1   5   27.14    2.07
   5  -1   5   28.44    1.48
  -5   1  -5   27.53    1.70
   5   1   5   27.13    1.60
   5   1   5   26.83    1.45
  -5   1  -5   26.10    1.36
  -5   1  -5   29.92    1.84
   5   1   5   27.18    1.53
   6  -1   5    6.77    1.29
   6  -1   5    5.78    0.79
   6  -1   5    7.23    0.97
  -6  -1  -5    6.93    1.07
  -6  -1  -5    6.52    0.91
  -6   1  -5    6.77    0.70
  -6   1  -5    8.14    1.05
   6   1   5    6.11    0.81
   6   1   5    8.47    0.83
   6   1   5    6.36    0.93
  -6   1  -5    6.55    1.22
   7  -1   5    3.29    1.39
  -7  -1  -5    3.30    1.02
  -7  -1  -5    2.30    1.11
   7  -1   5    3.72    0.97
   7  -1   5    3.89    0.74
  -7   1  -5    2.32    1.22
  -7   1  -5    4.91    1.07
   7   1   5    2.86    1.04
   7   1   5    3.96    0.86
   7   1   5    3.97    0.81
  -7   1  -5    4.21    0.81
   7   1   5    3.37    0.63
   8  -1   5   18.78    1.78
   8  -1   5   16.92    1.67
  -8  -1  -5   17.12    1.70
   8  -1   5   12.07    1.68
  -8  -1  -5   19.64    1.68
  -8  -1  -5   15.42    1.71
  -8   1  -5   19.63    1.60
   8   1   5   19.87    1.78
   8   1   5   16.42    1.78
   8   1   5   19.77    1.41
   8   1   5   19.96    1.54
  -8   1  -5   20.53    1.75
  -8   1  -5   18.50    1.87
   9  -1   5    5.61    1.09
   9  -1   5    5.53    1.31
   9  -1   5    4.80    1.74
  -9  -1  -5    5.40    1.64
  -9  -1  -5    8.15    1.28
  -9  -1  -5    5.81    1.68
   9   1   5    6.19    1.25
  -9   1  -5    5.02    1.62
   9   1   5    5.69    1.20
   9   1   5    6.72    0.95
  -9   1  -5    4.89    1.75
  -9   1  -5    5.52    1.04
   9   1   5    3.55    1.04
  10  -1   5    3.88    2.05
 -10  -1  -5   12.07    1.56
  10  -1   5    9.11    1.32
  10  -1   5    6.90    1.61
 -10  -1  -5    5.62    1.88
 -10  -1  -5    8.94    2.06
  10   1   5    8.83    1.58
  10   1   5    8.43    1.11
  10   1   5    8.82    1.35
 -10   1  -5    8.35    1.32
 -10   1  -5    4.92    2.04
  10   1   5    8.72    1.46
 -10   1  -5    6.92    2.09
 -11  -1  -5    2.51    2.22
  11  -1   5    0.90    2.28
  11  -1   5    2.48    1.62
  11  -1   5    0.44    1.44
 -11  -1  -5    2.39    2.58
 -11  -1  -5    5.24    1.83
  11   1   5   -0.55    1.61
 -11   1  -5    0.63    2.26
  11   1   5   -1.91    1.78
 -11   1  -5   -0.89    2.47
  11   1   5    7.02    1.59
  11   1   5    1.26    1.22
 -12  -1  -5    0.46    3.10
  12   1   5    3.50    2.07
  16  -2  -5    0.22    2.50
  16  -2  -5    4.80    2.35
  15  -2  -5    3.33    2.56
  15  -2  -5   -0.90    2.24
  15  -2  -5   -1.07    1.87
 -15  -2   5    2.73    2.50
  15   2  -5   -1.92    2.21
  15   2  -5    6.41    4.21
 -15   2   5    4.75    2.29
  15   2  -5   -1.31    2.08
  14  -2  -5   18.74    2.01
 -14  -2   5   23.11    3.32
  14  -2  -5   20.55    2.60
  14  -2  -5   26.31    2.31
 -14  -2   5   24.35    2.66
 -14  -2   5   21.84    2.18
 -14   2   5   14.57    2.99
 -14   2   5   20.42    2.56
 -14   2   5   21.83    2.17
  14   2  -5   20.16    2.65
  14   2  -5   26.98    2.30
  14   2  -5   22.38    2.26
  13  -2  -5   -0.13    1.98
 -13  -2   5    1.21    1.62
 -13  -2   5   -0.40    2.41
  13  -2  -5   -0.46    1.44
 -13  -2   5   -0.38    1.82
  13  -2  -5   -0.01    1.49
  13   2  -5    0.76    2.01
  13   2  -5    0.85    1.66
 -13   2   5    0.47    2.15
  13   2  -5   -0.47    1.45
 -13   2   5    1.94    1.70
 -13   2   5    0.66    1.42
  12  -2  -5   12.08    1.58
  12  -2  -5   12.24    1.93
 -12  -2   5   10.53    1.57
  12  -2  -5   14.18    1.34
 -12  -2   5   14.03    1.64
 -12  -2   5   12.34    2.20
  12   2  -5   13.23    1.56
  12   2  -5   13.39    1.95
  12   2  -5    9.97    1.49
 -12   2   5   15.14    1.77
 -12   2   5    9.06    1.92
 -12   2   5    9.79    1.38
 -11  -2   5    3.43    1.29
 -11  -2   5    4.63    1.84
  11  -2  -5    1.73    1.45
  11  -2  -5    7.34    1.06
  11  -2  -5    3.96    1.24
 -11  -2   5    2.83    1.23
 -11   2   5    5.26    1.43
 -11   2   5    5.42    1.02
  11   2  -5    3.93    1.59
 -11   2   5    5.55    1.55
  11   2  -5    6.87    1.12
  11   2  -5    4.64    1.19
 -10  -2   5   22.08    1.90
 -10  -2   5   16.83    1.40
 -10  -2   5   20.83    1.86
 -10  -2   5   21.46    2.00
  10  -2  -5   19.42    1.96
  10  -2  -5   22.01    1.83
  10   2  -5   18.89    1.76
 -10   2   5   21.52    2.39
 -10   2   5   23.25    1.63
  10   2  -5   16.76    1.74
 -10   2   5   16.08    1.55
  10   2  -5   19.87    1.89
  -9  -2   5   35.42    2.00
   9  -2  -5   34.78    2.54
  -9  -2   5   30.99    2.75
  -9  -2   5   35.93    1.97
  -9  -2   5   35.32    2.02
   9  -2  -5   31.95    2.01
   9   2  -5   35.40    2.55
   9   2  -5   35.60    2.07
  -9   2   5   34.70    2.22
   9   2  -5   39.47    2.00
  -9   2   5   34.68    1.91
  -9   2   5   34.00    2.36
  -8  -2   5  108.63    4.11
  -8  -2   5  102.96    4.12
  -8  -2   5   99.10    4.56
   8  -2  -5   98.71    4.11
   8  -2  -5   98.50    4.40
  -8  -2   5  100.51    4.15
  -8   2   5   98.95    4.35
  -8   2   5   98.54    4.06
   8   2  -5   97.38    4.42
   8   2  -5  103.84    4.15
  -8   2   5  103.82    4.19
   8   2  -5  103.62    4.16
  -7  -2   5   12.79    1.22
  -7  -2   5   15.80    1.29
   7  -2  -5   16.27    1.36
  -7  -2   5   16.41    1.92
   7  -2  -5   15.25    1.31
  -7   2   5   16.75    1.10
   7   2  -5   16.02    1.17
  -7   2   5   13.01    1.33
  -7   2   5   13.42    1.52
   7   2  -5   14.14    1.33
   7   2  -5   14.48    1.35
  -6  -2   5    9.88    1.05
  -6  -2   5    9.17    1.21
   6  -2  -5   10.99    1.08
  -6  -2   5    9.42    1.09
   6  -2  -5   11.05    1.08
   6   2  -5   11.49    1.12
  -6   2   5    9.32    0.90
  -6   2   5    8.86    1.05
   6   2  -5   10.06    1.16
  -6   2   5    9.63    0.99
   6   2  -5    9.24    0.93
  -5  -2   5   56.38    2.48
   5  -2  -5   59.50    2.41
  -5  -2   5   57.42    2.79
  -5  -2   5   56.41    2.48
   5  -2  -5   60.47    2.66
   5  -2  -5   57.13    2.28
   5   2  -5   58.27    2.47
  -5   2   5   58.41    2.38
  -5   2   5   59.52    2.60
   5   2  -5   60.39    2.51
  -5   2   5   57.59    2.43
   5   2  -5   58.75    2.76
  -4  -2   5    8.14    0.70
  -4  -2   5    7.54    1.04
   4  -2  -5    8.55    0.81
   4  -2  -5    9.76    0.83
  -4  -2   5    9.80    0.94
   4   2  -5    8.30    0.73
  -4   2   5    8.48    0.79
   4   2  -5    8.37    0.83
   4   2  -5    7.65    1.03
  -4   2   5    9.17    0.83
  -4   2   5    6.95    0.82
   3  -2  -5   14.84    1.13
  -3  -2   5   15.51    1.04
  -3  -2   5   15.91    1.58
   3  -2  -5   15.19    0.73
  -3  -2   5   15.75    1.06
   3   2  -5   15.30    0.96
  -3   2   5   14.21    0.86
  -3   2   5   16.85    1.12
   3   2  -5   15.18    1.38
   3   2  -5   16.89    1.05
   2  -2  -5   79.04    3.16
  -2  -2   5   84.78    3.37
   2  -2  -5   92.38    3.31
  -2  -2   5   81.19    3.58
   2  -2  -5   81.67    3.17
  -2  -2   5   80.49    3.31
   2   2  -5   84.25    3.32
  -2   2   5   82.82    3.18
   2   2  -5   84.16    3.57
  -2   2   5   79.06    3.19
  -2   2   5   84.13    3.26
  -1  -2   5   87.33    3.53
   1   2  -5   92.46    3.40
  -1   2   5   80.14    3.36
   1   2  -5   88.55    3.51
   1   2  -5   88.24    3.47
   1   2  -5   86.27    3.74
   0  -2   5   19.53    1.24
   0  -2   5   22.75    1.18
   0   2  -5   20.85    1.78
   0   2  -5   19.15    1.25
   0   2   5   19.31    0.98
   0   2  -5   19.62    1.06
   0   2  -5   20.38    1.38
   1  -2   5   36.99    1.77
  -1   2  -5   36.63    1.61
  -1   2  -5   38.50    2.28
   1   2   5   37.81    1.63
  -1   2  -5   36.98    1.77
   1   2   5   35.49    1.62
  -1   2  -5   39.42    1.84
   2  -2   5    8.02    0.85
   2   2   5    6.84    0.80
  -2   2  -5    7.62    0.83
  -2   2  -5    8.05    0.86
  -2   2  -5    9.21    1.34
  -2   2  -5    6.71    0.61
   2   2   5    7.37    0.62
   3  -2   5    4.78    1.11
   3  -2   5    5.15    0.64
   3  -2   5    5.61    0.76
   3   2   5    6.00    0.63
   3   2   5    5.44    0.62
  -3   2  -5    5.48    0.58
  -3   2  -5    5.27    0.82
   4  -2   5    8.99    0.75
   4  -2   5    9.95    0.97
   4  -2   5   11.02    1.23
  -4   2  -5   11.76    1.12
  -4   2  -5    9.35    0.99
   4   2   5    9.53    1.01
  -4   2  -5   12.88    1.15
   4   2   5    8.67    1.09
   5  -2   5    2.17    0.85
   5  -2   5    4.47    0.73
  -5  -2  -5    1.43    0.80
   5  -2   5    3.84    1.29
  -5   2  -5    2.01    0.86
  -5   2  -5    2.38    0.65
  -5   2  -5    3.18    1.00
   5   2   5    3.72    0.76
   5   2   5    1.92    0.62
  -6  -2  -5   58.67    2.88
   6  -2   5   59.47    2.90
   6  -2   5   58.65    2.67
   6   2   5   63.99    2.81
  -6   2  -5   55.93    3.02
  -6   2  -5   65.15    2.99
  -6   2  -5   57.33    2.64
   6   2   5   59.30    2.64
   7  -2   5    8.63    1.04
  -7  -2  -5    9.75    1.32
   7  -2   5    6.55    1.66
   7  -2   5    9.37    1.20
  -7   2  -5    8.96    1.33
  -7   2  -5    8.58    1.49
   7   2   5    7.44    1.03
   7   2   5    8.86    1.14
  -7   2  -5    8.07    1.02
   8  -2   5   -0.21    1.75
   8  -2   5    1.47    0.97
  -8  -2  -5    1.86    1.37
   8  -2   5    1.65    1.09
   8   2   5    2.41    0.87
  -8   2  -5    0.84    1.61
   8   2   5    1.35    1.10
  -8   2  -5    0.52    1.40
  -8   2  -5    2.19    0.99
   9  -2   5   18.28    1.58
  -9  -2  -5   13.19    1.79
   9  -2   5   12.11    2.15
   9  -2   5   17.27    1.70
   9   2   5   15.12    1.69
  -9   2  -5   18.16    2.12
  -9   2  -5   14.96    2.09
   9   2   5   16.49    1.46
  -9   2  -5   16.95    1.46
   9   2   5   15.74    1.60
 -10  -2  -5    9.65    2.00
  10  -2   5   11.34    1.82
  10  -2   5    7.32    2.52
  10  -2   5   12.29    1.62
 -10  -2  -5   10.55    2.63
 -10   2  -5    8.84    1.55
 -10   2  -5    5.97    2.37
 -10   2  -5   10.37    2.44
  10   2   5   10.39    1.79
  10   2   5   11.89    1.74
  10   2   5    9.85    1.47
  11  -2   5    3.35    1.73
 -11  -2  -5    0.96    2.25
 -11  -2  -5   -2.35    3.24
  11  -2   5   -0.60    3.12
  11   2   5    1.93    1.77
  11   2   5    4.76    1.74
 -12  -2  -5    4.27    2.80
  12   2   5    7.91    2.31
  12   2   5    4.93    2.03
 -15  -3   5    1.96    2.97
  15  -3  -5    1.24    2.46
  15  -3  -5    0.62    3.20
 -15   3   5   -2.31    2.67
  14  -3  -5    8.12    2.69
  14  -3  -5    3.92    2.13
  14  -3  -5   12.17    2.36
 -14  -3   5    5.41    2.42
 -14   3   5    4.51    2.17
  14   3  -5    5.39    2.17
 -14   3   5    6.26    2.62
  14   3  -5    4.14    2.52
 -14   3   5    9.15    3.31
  14   3  -5    4.97    2.16
 -13  -3   5    1.68    2.44
 -13  -3   5    0.92    3.44
  13  -3  -5    1.97    2.28
 -13  -3   5    3.00    1.82
  13  -3  -5    3.86    1.79
 -13   3   5    0.71    1.61
  13   3  -5    3.80    1.83
  13   3  -5    2.35    1.90
  13   3  -5    2.47    2.17
 -13   3   5    3.10    2.24
 -13   3   5    1.89    2.72
  12  -3  -5    5.78    1.40
  12  -3  -5   13.01    2.12
 -12  -3   5    8.68    1.73
 -12  -3   5    7.84    2.01
 -12  -3   5    7.74    2.82
 -12   3   5    6.07    1.90
 -12   3   5    6.05    2.19
  12   3  -5    5.40    1.79
  12   3  -5    5.51    1.50
 -12   3   5    7.86    1.47
  12   3  -5    7.31    2.12
 -11  -3   5    4.36    1.49
 -11  -3   5    0.89    1.31
 -11  -3   5    3.65    1.59
  11  -3  -5    1.85    1.77
  11  -3  -5    1.11    1.26
  11   3  -5    3.96    1.78
  11   3  -5    5.14    1.32
 -11   3   5    5.00    1.64
 -11   3   5    0.77    1.12
 -11   3   5    1.10    1.69
  11   3  -5    4.18    1.46
  10  -3  -5    2.68    1.63
 -10  -3   5    3.32    1.11
  10  -3  -5    3.47    1.19
 -10  -3   5    4.50    2.09
 -10  -3   5    2.76    1.35
 -10  -3   5    3.56    1.09
 -10   3   5    1.64    0.94
 -10   3   5    1.41    1.39
  10   3  -5    5.25    1.14
 -10   3   5    2.03    1.41
  10   3  -5    2.41    1.29
  10   3  -5    3.67    1.64
   9  -3  -5   14.17    1.77
  -9  -3   5   16.44    2.13
   9  -3  -5   14.95    1.36
  -9  -3   5   15.15    1.45
  -9  -3   5   13.92    1.64
  -9  -3   5   17.73    1.44
  -9   3   5   15.27    1.50
   9   3  -5   15.30    1.78
   9   3  -5   15.57    1.47
  -9   3   5   14.52    1.18
  -9   3   5   15.95    1.54
   9   3  -5   15.60    1.73
   8  -3  -5   14.48    1.28
  -8  -3   5   14.34    2.00
   8  -3  -5   14.86    1.74
  -8  -3   5   16.48    1.68
  -8  -3   5   14.90    1.54
  -8  -3   5   14.30    1.27
   8  -3  -5   12.55    1.45
  -8   3   5   15.14    1.39
   8   3  -5   13.83    1.52
  -8   3   5   13.15    1.07
   8   3  -5   14.64    1.60
  -8   3   5   15.15    1.76
   8   3  -5   14.75    1.33
  -7  -3   5   17.88    1.62
   7  -3  -5   17.23    1.56
   7  -3  -5   15.21    1.29
  -7  -3   5   17.35    1.58
  -7  -3   5   18.17    1.90
   7  -3  -5   19.90    1.72
  -7   3   5   17.91    1.33
   7   3  -5   18.90    1.73
   7   3  -5   16.87    1.65
  -7   3   5   16.62    1.64
  -7   3   5   16.08    1.83
   7   3  -5   16.66    1.48
   6  -3  -5   20.88    1.50
  -6  -3   5   19.11    1.52
   6  -3  -5   20.52    1.33
   6  -3  -5   16.58    1.99
  -6  -3   5   20.28    1.89
  -6  -3   5   21.55    1.54
  -6   3   5   20.31    1.27
   6   3  -5   20.65    1.47
   6   3  -5   20.99    2.29
  -6   3   5   20.75    1.50
  -6   3   5   19.60    1.86
   6   3  -5   21.49    1.64
  -5  -3   5   51.73    2.44
   5  -3  -5   48.75    2.67
  -5  -3   5   52.67    2.40
   5  -3  -5   50.95    2.20
  -5  -3   5   52.28    3.11
   5  -3  -5   54.53    2.30
   5   3  -5   50.45    2.88
   5   3  -5   51.47    2.42
  -5   3   5   52.45    2.29
   5   3  -5   51.31    2.44
  -5   3   5   51.88    2.22
  -5   3   5   51.52    2.48
   4  -3  -5    3.50    0.89
   4  -3  -5    3.45    0.51
   4  -3  -5    2.79    0.86
  -4  -3   5    2.25    0.72
  -4  -3   5    3.57    0.79
  -4  -3   5    3.82    1.26
   4   3  -5    2.16    1.03
   4   3  -5    2.73    0.80
  -4   3   5    2.61    0.55
  -4   3   5    3.44    0.63
  -4   3   5    6.32    0.82
   4   3  -5    2.72    0.65
  -3  -3   5   14.25    1.31
   3  -3  -5   14.43    0.89
  -3  -3   5   14.87    1.48
  -3  -3   5   12.87    1.17
   3  -3  -5   14.13    1.49
   3   3  -5   14.28    1.40
  -3   3   5   12.45    1.02
   3   3  -5   15.00    1.13
   3   3  -5   14.49    1.31
  -3   3   5   12.62    1.26
   2  -3  -5    0.17    0.70
  -2  -3   5    0.86    1.19
   2  -3  -5    1.32    0.43
  -2  -3   5    1.30    0.71
   2  -3  -5    1.27    0.45
  -2   3   5    0.49    0.46
  -2   3   5    1.29    0.65
   2   3  -5    0.59    0.74
   2   3  -5   -0.74    1.09
  -2   3   5    1.19    0.42
  -1  -3   5   28.34    1.54
  -1  -3   5   29.12    1.74
   1  -3  -5   27.14    1.42
   1   3  -5   30.94    1.46
  -1   3   5   29.05    1.43
   1   3  -5   29.76    2.38
  -1   3   5   30.70    1.61
   1   3  -5   29.69    1.76
   1   3  -5   31.80    1.80
   0  -3   5   49.23    2.46
   0  -3   5   53.48    2.34
   0  -3  -5   50.17    2.20
   0   3  -5   51.78    2.49
   0   3  -5   53.73    2.48
   0   3   5   49.70    2.20
   0   3  -5   53.58    3.19
   0   3  -5   53.13    2.23
   1  -3   5   30.66    1.79
   1  -3   5   28.38    1.76
  -1  -3  -5   27.98    1.46
   1   3   5   29.63    1.48
  -1   3  -5   26.75    1.41
  -1   3  -5   26.52    1.73
  -1   3  -5   28.70    2.67
  -1   3  -5   30.00    1.81
   2  -3   5    8.23    1.07
   2  -3   5    7.13    0.84
  -2   3  -5    8.58    1.57
   2   3   5    6.39    0.74
  -2   3  -5    5.85    1.06
  -2   3  -5    6.04    0.67
  -2   3  -5    7.82    1.03
   3  -3   5    0.37    0.76
   3   3   5    0.90    0.64
  -3   3  -5    1.05    0.98
  -3   3  -5    0.42    1.07
  -3   3  -5    0.85    1.83
  -3   3  -5    1.42    0.57
   4  -3   5   19.11    1.49
   4  -3   5   19.60    1.66
   4  -3   5   25.32    1.86
  -4   3  -5   18.38    1.39
  -4   3  -5   18.17    1.97
   4   3   5   23.80    1.57
   5  -3   5   -0.48    1.39
   5  -3   5    1.21    0.91
   5  -3   5    0.74    0.80
  -5   3  -5    0.53    1.06
   5   3   5    0.20    0.83
  -5   3  -5    0.42    0.73
  -5   3  -5    0.14    1.06
   6  -3   5    7.36    1.62
   6  -3   5    7.22    1.20
   6  -3   5    5.63    0.96
  -6   3  -5    3.86    1.29
   6   3   5    7.03    0.80
  -6   3  -5    5.68    1.37
  -6   3  -5    6.57    0.93
   6   3   5    8.05    1.12
   7  -3   5   17.60    2.05
   7  -3   5   17.53    1.89
   7  -3   5   15.14    2.03
  -7   3  -5   21.50    1.87
  -7   3  -5   13.99    1.75
   7   3   5   19.97    1.49
  -7   3  -5   18.77    1.84
   7   3   5   22.17    2.12
   8  -3   5   13.67    1.69
   8  -3   5   13.08    2.29
   8  -3   5   10.45    1.41
   8   3   5   14.37    1.23
  -8   3  -5   12.97    1.94
   8   3   5   14.75    1.78
  -8   3  -5    7.30    1.87
  -8   3  -5   12.52    1.43
   9  -3   5   -1.27    1.45
   9  -3   5    3.28    1.66
   9  -3   5    3.19    2.43
   9   3   5    2.45    1.64
  -9   3  -5   -0.57    2.19
  -9   3  -5   -0.38    2.11
   9   3   5    2.59    1.08
  -9   3  -5    0.96    1.44
  10  -3   5    1.65    2.89
 -10  -3  -5    5.58    2.27
  10  -3   5    2.65    1.72
  10   3   5    6.31    1.66
 -11  -3  -5    4.70    2.89
  11   3   5    3.04    2.02
 -14  -4   5    5.14    3.07
  14  -4  -5   10.34    2.79
 -14   4   5    1.90    2.83
  13  -4  -5    4.86    2.27
 -13  -4   5    0.85    2.43
  13  -4  -5    5.44    2.73
  13   4  -5    3.20    2.31
 -13   4   5    2.35    3.27
 -13   4   5    2.13    2.87
 -13   4   5    3.47    2.19
  12  -4  -5   10.45    2.66
  12  -4  -5    8.27    1.95
 -12  -4   5    3.49    2.65
  12  -4  -5   10.67    1.92
 -12  -4   5   12.41    2.02
 -12  -4   5   19.25    2.13
 -12  -4   5   14.42    4.45
 -12   4   5    8.53    2.36
  12   4  -5   10.88    2.25
  12   4  -5   12.89    2.23
 -12   4   5    4.84    2.60
  12   4  -5   10.50    2.60
 -12   4   5   11.14    1.90
  11  -4  -5    9.80    1.79
  11  -4  -5    9.43    1.72
 -11  -4   5    8.88    2.24
  11  -4  -5    8.18    2.30
 -11  -4   5    8.09    3.90
 -11  -4   5   11.03    1.61
 -11  -4   5   11.27    1.75
  11   4  -5    9.89    1.83
 -11   4   5    7.72    2.13
  11   4  -5   10.64    1.98
 -11   4   5    9.15    2.09
 -11   4   5    6.92    1.47
  11   4  -5    7.38    2.13
  10  -4  -5   10.95    1.54
 -10  -4   5   13.25    3.29
  10  -4  -5    8.54    2.05
 -10  -4   5   11.96    1.99
 -10  -4   5   12.22    1.50
 -10  -4   5   11.31    1.52
  10  -4  -5    9.24    1.54
 -10   4   5    8.48    1.91
  10   4  -5   12.28    1.89
  10   4  -5   11.27    1.74
  10   4  -5   10.98    2.08
 -10   4   5   14.17    1.94
 -10   4   5   10.53    1.42
  -9  -4   5    0.46    1.12
  -9  -4   5    7.16    2.86
  -9  -4   5    1.72    1.57
   9  -4  -5    1.11    1.74
   9  -4  -5    1.24    1.24
   9  -4  -5    0.70    1.18
  -9   4   5    1.27    1.40
   9   4  -5    1.50    1.51
  -9   4   5   -1.05    1.11
   9   4  -5    0.33    1.43
   9   4  -5   -0.14    1.84
  -9   4   5   -0.15    1.43
  -8  -4   5   11.96    1.57
   8  -4  -5   13.58    1.35
  -8  -4   5   12.25    2.58
  -8  -4   5   12.53    1.29
   8  -4  -5   11.05    1.38
  -8  -4   5   10.21    1.49
   8  -4  -5   12.31    1.94
   8   4  -5   12.45    2.10
  -8   4   5   13.83    1.30
  -8   4   5   14.71    1.54
  -8   4   5   13.89    1.66
   8   4  -5   14.20    1.50
   8   4  -5   12.75    1.54
   7  -4  -5    1.22    0.98
   7  -4  -5    1.19    1.61
   7  -4  -5    1.69    1.16
  -7  -4   5    0.06    1.22
  -7  -4   5    0.96    1.22
  -7  -4   5    1.20    0.93
  -7  -4   5    1.81    2.12
   7   4  -5    0.78    1.00
   7   4  -5    0.57    1.25
  -7   4   5    0.14    1.11
  -7   4   5    1.76    0.82
   7   4  -5    0.81    1.79
  -7   4   5    2.18    1.27
   6  -4  -5    0.45    1.55
  -6  -4   5    0.32    1.10
   6  -4  -5    0.02    0.86
  -6  -4   5   -0.46    0.93
   6  -4  -5    1.07    0.96
  -6  -4   5    1.58    2.15
   6   4  -5    0.81    0.94
  -6   4   5    2.26    1.01
  -6   4   5    1.69    1.06
   6   4  -5   -0.36    1.13
  -6   4   5    0.69    0.81
   6   4  -5    0.20    1.60
  -5  -4   5   40.10    2.25
  -5  -4   5   40.35    3.89
  -5  -4   5   35.30    2.33
   5  -4  -5   37.83    2.13
   5  -4  -5   37.94    2.71
   5  -4  -5   34.58    2.11
   5   4  -5   42.84    3.14
  -5   4   5   36.80    2.41
   5   4  -5   39.06    2.44
  -5   4   5   34.96    1.94
   5   4  -5   37.33    2.25
   4  -4  -5   11.11    1.02
  -4  -4   5    9.93    1.17
   4  -4  -5    9.42    1.04
  -4  -4   5   11.84    1.34
  -4  -4   5   11.24    2.08
   4  -4  -5   10.79    1.44
   4   4  -5   10.88    1.06
   4   4  -5   12.91    1.78
  -4   4   5   14.24    1.26
  -4   4   5   12.23    1.24
   4   4  -5   12.01    1.25
   3  -4  -5   21.28    1.47
  -3  -4   5   19.24    1.60
   3  -4  -5   18.72    2.02
  -3  -4   5   23.14    1.76
   3   4  -5   25.01    1.93
  -3   4   5   23.16    1.57
   3   4  -5   23.33    1.99
   3   4  -5   20.58    2.00
   3   4  -5   20.06    1.66
   3   4  -5   20.27    1.42
  -3   4   5   20.03    1.89
  -2  -4   5   58.73    2.77
   2  -4  -5   55.42    2.56
  -2  -4   5   57.15    2.63
   2   4  -5   59.60    2.91
  -2   4   5   53.47    2.49
   2   4  -5   56.09    3.59
  -2   4   5   60.47    2.49
   2   4  -5   53.84    2.92
  -2   4   5   54.42    2.67
   2   4  -5   56.14    2.57
  -1  -4   5   84.17    3.52
  -1  -4   5   83.93    3.82
   1  -4  -5   80.47    3.49
   1   4  -5   84.31    4.61
  -1   4   5   87.86    3.58
  -1   4   5   77.67    4.25
  -1   4   5   88.28    3.54
   1   4  -5   87.05    3.51
  -1   4   5   79.69    3.54
  -1   4   5   84.37    3.41
   1   4  -5   86.68    3.78
   1   4  -5   80.82    3.82
   0  -4   5    5.69    1.05
   0  -4   5    5.24    0.95
   0  -4  -5    5.01    0.83
   0   4  -5    4.84    1.17
   0   4   5    5.71    0.71
   0   4  -5    4.98    0.74
   0   4   5    5.00    1.23
   0   4   5    4.90    0.83
   0   4   5    4.65    0.83
   0   4  -5    4.18    1.86
   0   4  -5    4.63    1.11
   0   4   5    5.85    0.93
   1  -4   5   21.77    2.02
   1  -4   5   18.31    1.68
  -1  -4  -5   21.02    1.57
  -1   4  -5   20.25    2.38
  -1   4  -5   16.66    1.85
  -1   4  -5   21.97    2.11
   1   4   5   19.74    1.56
   1   4   5   19.17    1.56
  -1   4  -5   16.21    1.39
   1   4   5   19.33    1.48
   2  -4   5   36.12    2.46
  -2  -4  -5   34.43    2.02
   2  -4   5   30.12    2.09
   2   4   5   35.03    1.95
  -2   4  -5   37.49    4.07
  -2   4  -5   28.95    2.39
  -2   4  -5   33.77    1.79
  -2   4  -5   36.19    2.65
   3  -4   5    3.83    1.01
  -3  -4  -5    5.69    1.18
   3  -4   5    4.03    1.19
  -3   4  -5    4.24    1.29
  -3   4  -5    3.74    0.80
   3   4   5    4.60    0.97
  -3   4  -5    4.43    1.51
  -3   4  -5    5.60    2.13
   4  -4   5   18.42    1.92
   4  -4   5   13.72    1.62
  -4   4  -5   14.88    1.65
  -4   4  -5   15.51    1.79
  -4   4  -5   14.42    1.23
   4   4   5   12.86    1.34
  -4   4  -5   19.03    3.23
   5  -4   5    3.75    1.25
   5  -4   5    4.61    1.45
  -5   4  -5    5.22    1.00
  -5   4  -5   10.77    3.18
  -5   4  -5    5.15    1.47
  -5   4  -5    6.27    1.92
   5   4   5    3.86    1.20
   6  -4   5   12.36    2.09
   6  -4   5   11.12    1.56
   6  -4   5   12.09    1.44
  -6   4  -5   12.24    1.39
  -6   4  -5   11.85    1.85
   6   4   5   12.80    1.53
   7  -4   5    1.94    1.62
   7  -4   5    3.34    1.33
   7  -4   5    2.24    2.33
  -7   4  -5    3.78    2.00
  -7   4  -5    1.92    1.47
   7   4   5    2.26    1.61
   8  -4   5    2.32    1.60
   8  -4   5    3.54    2.64
   8  -4   5    0.88    1.80
  -8   4  -5    2.35    2.23
   8   4   5    3.73    1.94
  -8   4  -5    2.69    1.75
  -8   4  -5    2.44    1.93
   9  -4   5    2.70    1.76
  12  -5  -5    3.12    2.62
  12  -5  -5    4.54    3.46
  12  -5  -5   -0.60    3.13
 -12   5   5    2.50    2.48
 -12   5   5    1.44    3.39
  11  -5  -5   13.11    2.82
  11  -5  -5    7.46    2.39
  11  -5  -5    8.79    2.44
 -11   5   5    6.90    2.21
 -11   5   5    5.66    2.03
  11   5  -5    8.54    2.37
 -11   5   5    4.27    3.10
  11   5  -5   12.02    3.54
 -10  -5   5   11.79    6.90
  10  -5  -5   10.52    2.13
  10  -5  -5   11.89    2.91
  10  -5  -5   13.92    2.33
 -10  -5   5    9.07    2.79
 -10  -5   5   14.46    2.22
 -10   5   5    6.98    1.84
  10   5  -5   11.16    2.11
  10   5  -5   12.20    2.79
 -10   5   5   13.47    2.02
 -10   5   5   10.30    2.53
  10   5  -5   11.63    2.50
  -9  -5   5   -2.18    4.45
   9  -5  -5   -0.25    1.73
  -9  -5   5   -1.31    1.82
  -9  -5   5   -2.85    2.39
   9  -5  -5    2.80    2.30
   9  -5  -5   -1.50    1.80
   9   5  -5   -1.28    2.39
  -9   5   5   -0.85    1.51
   9   5  -5   -0.12    2.12
   9   5  -5    0.80    1.75
  -9   5   5   -0.49    1.55
  -9   5   5    2.11    2.05
  -8  -5   5    6.48    3.73
   8  -5  -5    2.79    2.28
  -8  -5   5    3.28    1.71
   8  -5  -5    4.65    1.66
  -8  -5   5    2.95    2.13
   8  -5  -5    8.73    1.69
  -8   5   5    5.34    1.47
  -8   5   5    6.72    1.96
   8   5  -5    3.49    2.64
  -8   5   5    2.46    1.40
   8   5  -5    4.99    2.03
   8   5  -5    6.71    1.83
   7  -5  -5    5.74    1.55
  -7  -5   5    7.63    1.80
   7  -5  -5    6.54    1.57
   7  -5  -5    5.21    2.06
  -7  -5   5   10.28    3.32
  -7  -5   5    8.30    2.05
   7   5  -5    6.96    1.85
  -7   5   5    9.71    1.75
  -7   5   5    5.92    1.28
   7   5  -5    9.83    2.55
   7   5  -5    8.32    1.70
   6  -5  -5   14.99    1.58
  -6  -5   5   11.94    1.69
  -6  -5   5   13.90    2.11
   6  -5  -5   12.02    1.45
   6  -5  -5   11.06    2.10
  -6  -5   5   16.38    3.43
  -6   5   5   13.42    1.32
   6   5  -5   13.40    1.91
   6   5  -5   12.87    1.68
  -6   5   5   13.07    1.76
   6   5  -5   21.79    2.68
   5  -5  -5   17.84    1.52
   5  -5  -5   17.36    2.05
  -5  -5   5   17.40    1.77
   5  -5  -5   20.43    2.10
  -5   5   5   18.80    1.86
  -5   5   5   19.54    1.79
   5   5  -5   20.25    1.93
   5   5  -5   22.04    2.59
   5   5  -5   22.31    1.92
   4  -5  -5    4.97    1.59
  -4  -5   5    4.73    1.36
   4  -5  -5    6.43    1.21
  -4   5   5    5.51    1.08
   4   5  -5    5.36    1.59
  -4   5   5    4.22    1.36
   4   5  -5    4.79    2.24
   4   5  -5    3.26    1.54
   4   5  -5    4.80    0.98
   4   5  -5    3.99    1.21
   3  -5  -5   10.49    1.27
  -3  -5   5   11.56    1.56
   3   5  -5    6.94    2.36
   3   5  -5   11.74    1.14
   3   5  -5   12.87    1.64
  -3   5   5   12.18    1.53
  -3   5   5   12.67    1.19
   3   5  -5    8.59    1.68
  -3   5   5    9.04    2.20
  -2  -5   5    3.58    1.43
   2  -5  -5    2.21    1.13
  -2   5   5    1.33    1.29
  -2   5   5    1.72    0.81
   2   5  -5   -0.36    1.57
   2   5  -5    0.60    2.17
   2   5  -5    0.76    1.34
  -2   5   5    0.43    1.49
   2   5  -5    1.75    0.94
  -2   5   5    3.19    2.87
  -2   5   5    1.89    0.89
  -1  -5   5    0.83    0.98
  -1  -5   5   -0.18    1.36
   1  -5  -5   -0.43    1.00
   1   5  -5   -0.68    2.33
  -1   5   5   -0.08    2.06
  -1   5   5    1.41    0.87
   1   5  -5    1.60    0.88
  -1   5   5   -0.63    1.32
   1   5  -5    0.37    1.61
  -1   5   5    0.86    0.92
  -1   5   5    1.33    1.15
   0  -5  -5    5.71    1.23
   0  -5   5    6.73    1.12
   0  -5   5    5.21    1.43
   0   5  -5    7.08    1.78
   0   5   5    5.20    1.16
   0   5   5    2.32    1.75
   0   5  -5    6.54    1.45
   0   5   5    5.50    1.16
   0   5  -5    5.07    0.99
   0   5   5    5.68    1.19
   0   5   5    6.37    0.93
   0   5  -5    2.73    2.59
  -1  -5  -5   10.80    1.31
   1  -5   5    9.39    1.30
   1  -5   5   13.52    1.73
   1   5   5    9.97    1.20
  -1   5  -5   11.49    1.94
   1   5   5   10.14    1.30
   1   5   5   10.81    1.37
  -1   5  -5   15.71    3.14
   1   5   5   10.75    1.74
  -1   5  -5    9.19    1.61
   1   5   5    9.93    0.99
  -1   5  -5    7.90    1.08
   2  -5   5    5.75    1.25
   2  -5   5    5.77    1.55
  -2  -5  -5    5.36    1.31
   2   5   5    3.84    1.28
   2   5   5    4.88    1.20
  -2   5  -5    6.40    3.21
  -2   5  -5    5.01    1.06
  -2   5  -5    5.08    1.58
   2   5   5    4.54    1.45
  -2   5  -5    3.94    1.89
   3  -5   5    2.54    1.68
   3  -5   5    2.93    1.35
  -3  -5  -5    4.59    1.50
  -3   5  -5    9.00    1.91
  -3   5  -5    5.09    3.60
  -3   5  -5    4.04    1.86
  -3   5  -5    2.54    1.04
   3   5   5    1.37    1.24
   4  -5   5   15.75    1.64
   4  -5   5   14.07    1.95
  -4   5  -5   17.17    3.91
  -4   5  -5   12.10    2.09
   4   5   5   15.43    1.81
  -4   5  -5   15.17    1.48
  -4   5  -5   16.82    2.42
   5  -5   5    7.20    1.77
   5  -5   5    8.39    2.14
  -5   5  -5    4.96    3.43
  -5   5  -5    5.70    2.09
  -5   5  -5    6.21    2.51
   5   5   5    8.44    1.72
  -5   5  -5    4.47    1.43
   6  -5   5    8.40    1.87
   6  -5   5    9.09    2.20
   6   5   5   12.26    2.14
  -6   5  -5    7.88    1.77
  -6   5  -5   10.18    2.91
  -6   5  -5    9.47    5.19
  -6   5  -5    6.05    2.21
   7  -5   5   10.98    2.24
   7   5   5    6.75    2.33
  -7   5  -5    6.65    5.62
  -7   5  -5    8.64    2.29
  -7   5  -5   10.14    3.38
  -8   5  -5   12.71    4.85
  -8   5  -5    8.99    6.46
  10  -6  -5    3.95    3.91
 -10   6   5    1.87    3.74
   9  -6  -5   11.61    2.76
   9  -6  -5   11.58    3.35
  -9   6   5   10.04    3.74
   8  -6  -5    4.71    3.01
   8  -6  -5    1.65    2.36
  -8   6   5    2.07    3.25
   8   6  -5    0.05    2.60
  -7  -6   5   11.95    2.79
   7  -6  -5   12.15    2.23
   7  -6  -5    9.69    2.99
  -7   6   5    9.71    2.78
   7   6  -5    6.55    1.74
   7   6  -5   12.09    2.26
   7   6  -5   10.51    3.63
   7   6  -5   11.50    2.58
   6  -6  -5    8.77    2.01
  -6  -6   5    8.77    2.53
   6   6  -5    8.19    2.53
   6   6  -5    9.53    2.08
   6   6  -5    9.03    1.69
  -6   6   5    7.08    1.60
   6   6  -5    6.64    2.21
   6   6  -5    8.43    3.45
  -6   6   5   14.97    2.55
   5  -6  -5    9.62    1.90
  -5  -6   5    5.61    2.20
   5   6  -5    6.50    1.61
   5   6  -5    8.12    2.07
   5   6  -5    5.31    2.49
  -5   6   5    2.35    3.22
  -5   6   5    5.27    1.48
   5   6  -5    8.74    3.56
  -5   6   5    6.68    2.15
   5   6  -5    6.58    2.10
  -4  -6   5    4.66    1.95
   4  -6  -5    3.87    1.69
   4   6  -5    8.55    3.47
  -4   6   5    7.89    2.10
  -4   6   5    5.27    2.75
   4   6  -5    6.96    1.96
   4   6  -5    6.85    2.27
  -4   6   5    5.74    2.88
   4   6  -5    7.06    1.90
   4   6  -5    3.03    1.43
  -4   6   5    4.20    1.46
  -3  -6   5   12.47    2.16
   3  -6  -5   10.99    1.77
   3   6  -5   12.75    3.50
   3   6  -5    9.59    2.26
  -3   6   5   11.00    2.33
  -3   6   5    9.93    1.50
   3   6  -5   11.51    2.42
   3   6  -5   10.80    1.57
  -3   6   5   13.89    3.86
  -3   6   5   12.46    2.09
  -2  -6   5    8.47    1.91
   2  -6  -5    7.06    1.72
   2   6  -5    6.50    2.32
   2   6  -5    5.10    3.42
  -2   6   5    8.78    2.79
  -2   6   5   10.37    1.33
  -2   6   5    7.70    2.05
   2   6  -5    9.81    1.42
  -2   6   5    8.08    1.95
   2   6  -5   12.78    2.49
  -1  -6   5    6.33    1.85
   1  -6  -5    2.64    1.61
   1   6  -5    6.14    2.12
  -1   6   5    6.95    1.61
   1   6  -5    7.58    1.44
  -1   6   5    5.77    1.95
   1   6  -5    6.31    3.58
  -1   6   5    8.47    2.49
  -1   6   5    4.30    1.80
   1   6  -5    8.67    2.41
   0  -6  -5    0.34    1.68
   0  -6   5    0.05    2.03
   0   6   5    0.83    1.53
   0   6   5   -0.39    1.52
   0   6   5   -0.57    2.44
   0   6   5    1.59    1.71
   0   6  -5    6.38    3.75
   0   6   5    1.34    1.19
   0   6  -5    1.08    2.02
   0   6  -5   -0.57    1.25
   0   6  -5   -3.14    2.39
  -1  -6  -5    1.71    1.56
   1  -6   5    0.84    2.09
  -1   6  -5    7.52    4.28
   1   6   5    0.43    1.75
   1   6   5    0.40    1.25
   1   6   5    2.11    1.66
   1   6   5    0.56    1.45
   1   6   5    0.78    2.33
  -1   6  -5    0.89    2.43
  -1   6  -5   -0.87    2.36
  -1   6  -5   -0.32    1.36
   2  -6   5    8.62    2.40
   2  -6   5    6.40    1.84
  -2  -6  -5    8.35    1.79
   2   6   5    7.88    2.06
  -2   6  -5    6.43    2.66
   2   6   5    5.62    1.32
   2   6   5    5.89    1.65
  -2   6  -5    7.73    2.43
   2   6   5    8.20    2.29
   2   6   5    7.62    2.02
  -2   6  -5    7.40    1.58
  -2   6  -5    3.81    4.57
  -3  -6  -5   12.53    2.11
   3  -6   5   15.26    2.07
   3  -6   5   16.73    2.54
  -3   6  -5   10.01    1.73
  -3   6  -5    7.92    2.82
   3   6   5   10.86    1.96
  -3   6  -5   18.51    5.11
   3   6   5    8.62    2.17
  -3   6  -5   17.85    3.15
  -4  -6  -5    6.91    2.40
   4  -6   5    4.04    2.17
   4   6   5    3.22    2.30
  -4   6  -5    5.89    1.88
  -4   6  -5    9.33    3.11
  -4   6  -5    8.15    5.27
   5  -6   5    1.48    2.44
  -5   6  -5    4.06    2.12
  -5   6  -5    5.17    6.02
  -5   6  -5   10.15    3.76
   5   6   5   -1.32    2.53
   6  -6   5   15.91    3.06
  -6   6  -5   18.83    4.65
   6   7  -5   -1.45    3.42
   5  -7  -5   -0.48    2.74
   5   7  -5   -3.20    3.40
   4  -7  -5    4.77    2.63
   4   7  -5   -6.85    3.69
   3  -7  -5    0.96    2.49
   3   7  -5    5.87    3.36
   2  -7  -5    2.23    2.52
   2   7  -5   -0.97    3.10
   2   7  -5    8.58    3.26
   1  -7  -5    2.16    2.54
   1   7  -5    3.92    4.45
  -1   7   5    2.21    3.49
   1   7  -5   -0.93    3.54
   0  -7  -5    1.34    2.34
   0   7  -5   -0.45    3.67
   0   7   5   -0.05    3.35
  -1  -7  -5    0.55    2.47
  -1   7  -5    7.26    3.85
   1   7   5    1.83    2.98
   1   7   5    3.99    3.20
  -2  -7  -5    3.04    2.74
  -2   7  -5   -0.66    3.84
   2   7   5    3.04    4.13
   2   7   5   -1.02    2.97
  17   0  -6    3.19    3.70
  16   0  -6   -0.67    2.28
 -16   0   6   -2.65    2.75
  16   0  -6    1.51    2.57
 -15   0   6    0.84    2.19
  15   0  -6   -0.70    2.46
  15   0  -6    1.32    1.88
 -15   0   6   -2.33    2.25
  15   0  -6    1.35    1.89
 -15   0   6   -2.61    2.93
  14   0  -6    1.37    1.59
 -14   0   6    0.67    1.83
 -14   0   6   -1.80    1.67
  14   0  -6   -0.21    2.21
  14   0  -6    1.80    1.43
 -14   0   6   -2.18    2.47
 -13   0   6   18.20    1.90
 -13   0   6   13.01    1.59
  13   0  -6   17.04    1.69
  13   0  -6   17.40    2.36
 -13   0   6   12.32    2.19
  13   0  -6   20.28    2.21
 -12   0   6   25.86    2.98
 -12   0   6   20.13    1.70
  12   0  -6   24.23    2.02
  12   0  -6   26.65    2.16
 -12   0   6   25.92    2.35
  12   0  -6   25.17    2.39
 -11   0   6   16.35    1.72
 -11   0   6   16.11    1.46
 -11   0   6   15.92    1.70
  11   0  -6   17.35    1.37
  11   0  -6   16.93    1.56
  11   0  -6   18.67    1.75
  10   0  -6    6.22    1.25
 -10   0   6    3.74    1.20
  10   0  -6    5.12    0.77
  10   0  -6    6.11    1.06
 -10   0   6    5.30    1.07
 -10   0   6    6.41    0.90
  -9   0   6   10.26    0.95
  -9   0   6    8.56    1.16
  -9   0   6   11.59    1.01
   9   0  -6   10.16    1.03
   9   0  -6   10.96    1.30
   9   0  -6    9.86    0.99
  -8   0   6   80.38    3.42
  -8   0   6   84.97    3.62
  -8   0   6   82.52    3.38
   8   0  -6   84.28    3.68
   8   0  -6   83.44    3.42
   8   0  -6   82.51    3.32
   7   0  -6   13.28    1.43
  -7   0   6   11.73    1.00
   7   0  -6   11.52    1.09
  -7   0   6   12.65    1.42
   7   0  -6   11.87    0.79
   6   0  -6   55.39    2.24
  -6   0   6   52.72    2.09
  -6   0   6   52.51    2.20
   6   0  -6   47.82    2.10
   6   0  -6   56.11    2.42
  -6   0   6   53.46    2.38
  -5   0   6   18.53    1.26
   5   0  -6   17.35    1.03
   5   0  -6   19.31    1.29
  -5   0   6   17.57    0.86
  -5   0   6   17.05    0.98
   5   0  -6   16.48    0.84
  -4   0   6   74.73    2.96
   4   0  -6   76.58    3.08
   4   0  -6   78.98    2.96
  -4   0   6   70.56    2.90
  -4   0   6   77.21    3.09
  -3   0   6   92.73    3.64
  -3   0   6   95.30    3.68
  -3   0   6   94.56    3.79
   3   0  -6   99.52    3.76
   2   0  -6   49.01    1.99
  -2   0   6   43.09    1.87
  -2   0   6   47.45    2.02
  -1   0   6   -0.28    0.30
   1   0  -6    0.30    0.46
  -1   0   6    0.24    0.52
   1   0  -6    0.21    0.29
   0   0  -6    0.24    0.57
   0   0  -6    0.36    0.44
   1   0   6  129.10    5.26
  -1   0  -6  139.19    5.52
  -1   0  -6  139.53    5.18
   2   0   6   17.07    1.22
  -2   0  -6   16.92    1.06
  -2   0  -6   19.56    1.33
   3   0   6    2.85    0.42
   3   0   6    3.53    0.72
   3   0   6    2.23    0.72
  -3   0  -6    3.09    0.56
  -4   0  -6   12.85    1.42
   4   0   6   12.62    1.26
   4   0   6   13.24    1.56
   4   0   6   13.72    0.90
  -4   0  -6   14.15    1.22
  -4   0  -6   13.10    0.89
   5   0   6    4.25    0.64
   5   0   6    3.72    1.02
  -5   0  -6    4.14    1.06
   5   0   6    4.57    0.85
  -5   0  -6    4.62    0.59
  -5   0  -6    4.46    0.82
  -6   0  -6   50.76    2.50
   6   0   6   49.85    2.53
  -6   0  -6   50.67    2.78
   6   0   6   51.04    2.22
  -6   0  -6   49.35    2.19
   7   0   6    2.22    1.00
  -7   0  -6    2.94    1.22
  -7   0  -6    5.15    0.77
   7   0   6    3.77    0.74
   7   0   6    1.83    1.22
  -7   0  -6    4.49    1.17
   8   0   6   -0.48    0.80
  -8   0  -6   -0.35    0.85
  -8   0  -6   -0.35    1.39
   8   0   6    0.13    1.09
  -8   0  -6   -0.82    1.44
   8   0   6    0.90    1.27
  -9   0  -6    1.24    1.84
   9   0   6   -0.78    1.30
  -9   0  -6   -0.17    1.05
   9   0   6    0.66    1.00
   9   0   6   -0.18    1.96
  -9   0  -6    2.73    1.86
  10   0   6    1.17    1.62
  10   0   6   -4.16    2.23
 -10   0  -6   -0.65    2.08
  10   0   6    0.76    1.10
 -10   0  -6    2.29    2.01
 -10   0  -6    2.51    1.35
  10   0   6    0.85    1.38
 -11   0  -6    1.17    2.50
  11   0   6    0.73    2.78
 -11   0  -6    2.34    3.59
  17  -1  -6   10.05    3.26
  16  -1  -6    5.84    2.37
  16  -1  -6    0.40    2.57
  16   1  -6    0.68    2.67
  16   1  -6    0.09    2.12
 -16   1   6   -2.83    2.87
  15  -1  -6   27.47    3.13
 -15  -1   6   28.10    4.53
 -15  -1   6   28.20    2.92
  15  -1  -6   31.68    2.57
 -15  -1   6   30.98    2.78
  15  -1  -6   29.72    3.60
  15   1  -6   32.92    2.65
 -15   1   6   32.25    2.90
 -15   1   6   25.60    2.62
  15   1  -6   30.99    3.45
  15   1  -6   37.10    2.65
  14  -1  -6   -1.88    2.13
  14  -1  -6    0.67    1.67
 -14  -1   6    1.43    2.62
  14  -1  -6    2.52    1.45
 -14  -1   6   -0.59    1.88
 -14  -1   6   -0.45    1.89
 -14   1   6    0.77    1.72
  14   1  -6    0.47    2.21
  14   1  -6    1.82    1.71
 -14   1   6   -1.85    2.00
 -14   1   6   -2.20    2.47
  14   1  -6    0.17    1.55
  13  -1  -6    1.43    1.14
 -13  -1   6    0.12    1.50
  13  -1  -6   -0.44    1.83
  13  -1  -6   -0.01    1.43
 -13  -1   6    0.39    1.60
 -13  -1   6   -1.47    2.09
  13   1  -6   -1.21    1.50
 -13   1   6   -0.13    1.49
  13   1  -6    0.28    1.25
  13   1  -6    7.97    1.90
 -13   1   6    1.65    1.90
 -13   1   6    2.10    1.35
  12  -1  -6   30.09    3.11
  12  -1  -6   31.19    2.09
 -12  -1   6   32.58    3.40
  12  -1  -6   27.65    2.52
 -12  -1   6   32.94    2.48
 -12  -1   6   34.13    2.47
  12   1  -6   31.84    3.14
 -12   1   6   30.40    2.72
 -12   1   6   29.55    3.12
  12   1  -6   32.73    2.34
 -12   1   6   29.99    2.25
  12   1  -6   31.27    2.56
 -11  -1   6   36.04    2.99
 -11  -1   6   34.67    2.25
 -11  -1   6   32.17    2.37
  11  -1  -6   33.11    2.94
  11  -1  -6   36.65    2.32
  11  -1  -6   33.17    1.94
  11   1  -6   34.77    2.12
  11   1  -6   32.72    2.90
 -11   1   6   35.44    2.35
 -11   1   6   32.95    2.08
  11   1  -6   32.59    2.28
 -11   1   6   33.40    2.81
  10  -1  -6   12.51    1.16
 -10  -1   6   11.34    1.54
  10  -1  -6   13.36    1.58
 -10  -1   6   12.90    1.16
  10  -1  -6   10.79    1.21
 -10  -1   6   10.97    1.13
  10   1  -6   11.97    1.32
  10   1  -6   15.72    1.53
 -10   1   6   11.97    1.23
 -10   1   6   12.31    1.08
  10   1  -6   12.22    1.20
 -10   1   6   12.44    1.45
   9  -1  -6    4.84    1.36
   9  -1  -6    6.16    0.66
  -9  -1   6    5.63    0.91
  -9  -1   6    7.19    1.16
  -9  -1   6    6.26    0.87
   9  -1  -6    5.33    0.89
  -9  -1   6    5.86    0.80
   9   1  -6    5.75    1.18
  -9   1   6    7.16    0.82
  -9   1   6    6.10    0.91
   9   1  -6    4.99    0.94
   9   1  -6    7.00    0.78
  -9   1   6    5.47    1.15
   8  -1  -6  107.61    4.26
  -8  -1   6  106.41    4.51
   8  -1  -6   97.56    4.11
  -8  -1   6  105.37    4.26
  -8  -1   6  112.40    4.28
  -8  -1   6  116.33    4.24
   8  -1  -6  105.74    4.55
   8   1  -6  103.97    4.48
  -8   1   6  105.23    4.46
   8   1  -6  108.23    4.24
   8   1  -6  108.61    4.28
  -8   1   6  103.03    4.22
  -8   1   6  104.55    4.29
   7  -1  -6    9.52    1.07
   7  -1  -6    8.60    0.67
  -7  -1   6   10.37    1.05
  -7  -1   6    9.82    1.08
  -7  -1   6    9.55    1.00
   7  -1  -6   10.80    1.10
   7   1  -6   11.16    1.13
  -7   1   6   10.33    0.90
   7   1  -6    8.57    0.86
  -7   1   6   10.29    1.06
   7   1  -6   10.36    1.06
  -7   1   6    9.64    0.99
   6  -1  -6   30.58    1.53
  -6  -1   6   30.80    1.91
  -6  -1   6   29.85    1.55
  -6  -1   6   34.11    1.54
   6  -1  -6   31.42    1.86
  -6   1   6   31.76    1.77
   6   1  -6   32.32    1.49
  -6   1   6   32.37    1.52
   6   1  -6   34.37    1.62
   6   1  -6   33.15    1.89
   5  -1  -6   23.65    1.21
   5  -1  -6   22.35    1.50
  -5  -1   6   21.95    1.21
  -5  -1   6   23.64    1.17
  -5  -1   6   24.20    1.61
   5   1  -6   24.48    1.17
  -5   1   6   22.11    1.18
   5   1  -6   24.87    1.51
   5   1  -6   23.38    1.27
  -5   1   6   24.24    1.46
  -4  -1   6    7.88    0.79
  -4  -1   6    8.32    0.93
   4  -1  -6    9.29    1.01
  -4  -1   6    8.43    0.74
   4   1  -6    9.00    0.88
  -4   1   6    8.16    0.79
   4   1  -6    7.71    0.67
   4   1  -6    9.37    0.67
  -4   1   6    8.48    0.73
  -3  -1   6  151.20    5.93
   3  -1  -6  159.77    5.87
   3  -1  -6  159.94    5.92
  -3  -1   6  154.79    6.09
  -3  -1   6  162.44    5.95
  -3   1   6  141.24    5.93
   3   1  -6  161.30    6.06
  -3   1   6  150.86    5.86
   3   1  -6  159.07    5.93
  -2  -1   6   23.90    1.51
  -2  -1   6   22.84    1.18
  -2  -1   6   25.72    1.17
   2   1  -6   25.49    1.43
   2   1  -6   24.39    1.15
  -2   1   6   21.67    0.95
  -2   1   6   21.32    1.19
  -1  -1   6   42.94    1.90
  -1  -1   6   43.06    2.16
   1   1  -6   48.63    1.89
   1   1  -6   44.12    2.13
   0  -1   6   11.24    0.99
   0   1  -6   13.13    0.77
   0   1  -6   14.25    1.31
   0   1  -6   10.57    1.09
   0   1  -6   13.08    1.30
   1  -1   6   22.91    1.34
  -1   1  -6   22.80    1.32
  -1   1  -6   20.39    1.58
   1   1   6   23.69    1.28
  -1   1  -6   21.45    1.08
   2  -1   6    0.51    0.56
  -2   1  -6    0.93    0.39
  -2   1  -6    0.54    0.88
  -2   1  -6    0.96    0.63
   2   1   6    0.72    0.54
   3  -1   6   48.12    2.24
   3  -1   6   45.70    2.38
   3  -1   6   46.63    2.03
   3   1   6   49.06    2.17
  -3   1  -6   48.86    2.22
  -3   1  -6   48.53    2.02
   4  -1   6   22.26    1.55
   4  -1   6   21.26    1.24
   4  -1   6   19.57    1.77
   4   1   6   23.71    1.48
  -4   1  -6   20.61    1.57
  -4   1  -6   22.05    1.22
  -4   1  -6   22.04    1.72
   4   1   6   24.18    1.34
   5  -1   6    4.35    0.72
  -5  -1  -6    4.23    0.92
   5  -1   6    3.03    1.25
   5  -1   6    5.12    0.96
  -5   1  -6    3.91    0.61
   5   1   6    5.82    0.70
   5   1   6    5.30    0.80
  -5   1  -6    5.27    1.23
  -5   1  -6    4.52    0.91
   6  -1   6   36.64    2.17
   6  -1   6   36.66    1.84
  -6  -1  -6   35.15    2.35
  -6   1  -6   35.25    2.50
   6   1   6   32.68    1.96
  -6   1  -6   34.82    1.79
  -6   1  -6   32.60    2.32
   6   1   6   35.93    1.93
  -7  -1  -6    7.80    1.37
   7  -1   6    5.61    1.51
   7  -1   6    7.43    0.93
   7  -1   6    8.24    1.25
  -7  -1  -6    9.51    1.24
   7   1   6    7.14    1.04
  -7   1  -6    9.32    0.93
  -7   1  -6    9.35    1.39
   7   1   6    8.55    1.14
  -7   1  -6    7.96    1.46
   7   1   6   10.75    1.03
  -8  -1  -6    4.42    1.61
   8  -1   6    3.84    1.69
   8  -1   6    5.06    1.06
   8  -1   6    5.03    1.22
  -8  -1  -6    4.32    1.44
  -8   1  -6    4.61    1.65
  -8   1  -6    4.32    0.97
  -8   1  -6    5.47    1.53
   8   1   6    5.94    1.16
   8   1   6    3.23    1.22
   8   1   6    5.10    1.13
   9  -1   6    8.61    1.46
  -9  -1  -6   10.95    1.89
  -9  -1  -6    9.43    1.82
   9  -1   6    8.95    1.28
   9  -1   6    4.49    1.92
  -9   1  -6   10.09    1.23
   9   1   6    9.87    1.53
   9   1   6    8.48    1.36
   9   1   6    8.31    1.02
  -9   1  -6    7.94    1.85
   9   1   6    7.61    1.51
  -9   1  -6   10.40    2.07
 -10  -1  -6   13.82    2.44
  10  -1   6   12.84    1.56
 -10  -1  -6   14.11    2.44
  10  -1   6   16.00    2.03
  10  -1   6    2.93    2.23
 -10   1  -6    8.54    2.28
 -10   1  -6   12.10    2.51
 -10   1  -6   11.10    1.52
  10   1   6    9.53    1.75
  10   1   6   17.93    1.77
  10   1   6   11.81    1.25
 -11  -1  -6    2.37    2.91
  11  -1   6    5.98    3.02
 -11  -1  -6    2.57    2.58
  11   1   6    0.58    2.02
  11   1   6    2.10    2.36
  12   1   6    8.32    3.10
  16  -2  -6    0.06    2.60
  16  -2  -6   -0.64    2.44
 -16   2   6    1.51    2.98
 -15  -2   6    3.75    2.44
 -15  -2   6    6.53    3.23
  15  -2  -6    4.68    2.02
  15  -2  -6    9.35    2.06
  15  -2  -6    2.21    2.54
  15   2  -6    6.49    2.62
  15   2  -6    6.09    2.33
  15   2  -6    3.05    2.24
 -15   2   6    8.49    2.18
 -14  -2   6    1.83    2.25
 -14  -2   6    2.45    3.07
  14  -2  -6    3.11    1.77
 -14  -2   6    2.85    1.98
  14  -2  -6    4.24    1.61
  14   2  -6    0.77    2.46
  14   2  -6    3.94    1.87
 -14   2   6   -0.11    1.76
 -14   2   6    3.85    2.07
  14   2  -6    0.81    1.92
 -14   2   6    3.95    2.73
  13  -2  -6    0.84    1.38
  13  -2  -6    2.14    1.95
 -13  -2   6    5.05    1.83
 -13  -2   6    2.62    2.59
  13  -2  -6    4.42    1.66
 -13  -2   6    1.08    1.58
 -13   2   6    0.89    1.85
 -13   2   6    0.32    1.41
  13   2  -6    2.11    1.54
  13   2  -6    2.56    2.12
  13   2  -6    2.20    1.47
 -13   2   6    1.06    2.12
  12  -2  -6   13.55    1.62
 -12  -2   6   14.90    2.51
  12  -2  -6   14.92    1.33
 -12  -2   6   13.40    1.73
 -12  -2   6   12.37    1.65
  12  -2  -6   13.82    2.03
 -12   2   6   11.56    2.02
  12   2  -6   15.19    1.63
  12   2  -6   11.89    1.97
 -12   2   6   13.53    1.46
  12   2  -6   13.27    1.73
 -12   2   6   16.10    1.83
  11  -2  -6    3.62    1.21
 -11  -2   6   -0.38    1.88
  11  -2  -6    3.13    0.87
 -11  -2   6    2.31    1.24
  11  -2  -6    3.44    1.54
 -11  -2   6    1.15    1.30
 -11  -2   6    1.17    1.17
 -11   2   6    1.31    1.32
 -11   2   6   -0.27    1.54
  11   2  -6    1.23    1.55
  11   2  -6    2.24    1.09
  11   2  -6    1.52    1.27
 -11   2   6    1.62    0.99
  10  -2  -6    5.03    1.08
  10  -2  -6    4.21    1.53
 -10  -2   6    4.50    1.65
 -10  -2   6    4.05    1.04
 -10  -2   6    5.55    1.05
  10  -2  -6    5.71    0.79
 -10  -2   6    4.63    1.07
 -10   2   6    2.71    1.16
  10   2  -6    5.34    1.19
  10   2  -6    3.91    1.00
 -10   2   6    3.07    1.36
  10   2  -6    3.50    1.39
 -10   2   6    3.25    0.90
   9  -2  -6    6.49    0.68
   9  -2  -6    6.71    1.29
  -9  -2   6    6.52    0.98
  -9  -2   6    8.91    1.60
  -9  -2   6    6.21    1.03
   9  -2  -6    5.33    0.98
  -9  -2   6    7.12    0.99
   9   2  -6    6.62    1.09
  -9   2   6    6.97    1.09
  -9   2   6    5.63    1.28
  -9   2   6    5.67    0.89
   9   2  -6    6.76    0.92
   9   2  -6    7.65    1.34
  -8  -2   6   43.98    2.06
  -8  -2   6   39.53    2.10
  -8  -2   6   41.72    2.74
   8  -2  -6   39.51    2.13
   8  -2  -6   40.95    2.49
  -8   2   6   40.47    2.01
   8   2  -6   41.65    2.09
  -8   2   6   40.64    2.28
  -8   2   6   39.99    2.46
   8   2  -6   44.23    2.26
   8   2  -6   42.72    2.61
   7  -2  -6   11.60    1.20
  -7  -2   6   11.99    1.21
  -7  -2   6   10.73    1.21
   7  -2  -6   10.01    0.91
  -7  -2   6   10.64    1.48
   7   2  -6   10.95    1.07
  -7   2   6   11.53    0.98
   7   2  -6   10.19    1.25
  -7   2   6   10.33    1.12
  -7   2   6   12.37    1.17
   7   2  -6   12.79    1.36
  -6  -2   6   47.16    2.18
   6  -2  -6   47.88    2.44
   6  -2  -6   48.23    2.11
  -6  -2   6   47.17    2.67
  -6  -2   6   47.40    2.18
   6   2  -6   51.22    2.62
  -6   2   6   45.72    2.13
   6   2  -6   47.02    2.13
  -6   2   6   47.40    2.36
  -6   2   6   45.56    2.06
   6   2  -6   47.14    2.19
  -5  -2   6   16.28    1.21
   5  -2  -6   17.38    1.52
   5  -2  -6   15.11    1.18
  -5  -2   6   15.24    1.82
  -5  -2   6   16.27    1.21
   5   2  -6   16.03    1.71
  -5   2   6   14.26    1.37
   5   2  -6   16.06    1.10
   5   2  -6   17.20    1.26
  -5   2   6   15.89    1.03
  -4  -2   6   32.71    1.66
  -4  -2   6   33.44    2.10
  -4  -2   6   34.55    1.66
   4  -2  -6   33.42    1.75
   4   2  -6   32.06    1.58
  -4   2   6   34.39    1.53
   4   2  -6   34.84    2.09
  -4   2   6   31.66    1.73
   4   2  -6   34.33    1.72
   3  -2  -6   53.66    2.35
  -3  -2   6   52.94    2.77
  -3  -2   6   55.98    2.39
   3  -2  -6   53.54    2.19
  -3  -2   6   55.35    2.34
  -3   2   6   54.37    2.34
   3   2  -6   56.15    2.36
   3   2  -6   55.20    2.61
  -3   2   6   54.77    2.20
  -2  -2   6   67.69    2.85
  -2  -2   6   66.78    3.18
  -2  -2   6   63.70    2.79
  -2   2   6   64.55    2.61
   2   2  -6   71.24    2.79
   2   2  -6   71.48    3.12
  -1  -2   6    6.16    0.73
   1   2  -6    4.53    0.50
   1   2  -6    5.49    0.80
   1   2  -6    4.06    1.05
  -1   2   6    4.80    0.55
   1   2  -6    4.94    0.67
   0  -2   6   25.34    1.41
   0  -2   6   25.87    1.52
   0   2   6   25.14    1.23
   0   2  -6   28.77    1.30
   0   2  -6   26.66    1.62
   0   2  -6   26.00    1.46
   0   2  -6   25.18    2.15
   0   2   6   24.66    1.28
   1  -2   6   61.82    2.57
  -1   2  -6   56.21    2.39
   1   2   6   54.95    2.42
  -1   2  -6   61.47    3.07
   1   2   6   58.58    2.42
  -1   2  -6   58.12    2.59
  -1   2  -6   58.46    2.52
   2  -2   6    8.38    0.93
  -2   2  -6    8.15    0.90
  -2   2  -6    9.11    1.34
   2   2   6    6.82    0.69
  -2   2  -6    7.21    0.78
   2   2   6    7.15    0.86
  -2   2  -6    7.55    0.92
   3  -2   6   11.49    1.01
   3  -2   6    9.67    1.02
  -3   2  -6   11.27    0.95
  -3   2  -6   12.06    1.78
   3   2   6    9.41    1.06
  -3   2  -6   12.66    1.11
  -3   2  -6   11.30    1.07
   3   2   6    9.12    1.04
   4  -2   6    5.37    0.71
   4  -2   6    4.65    1.28
   4  -2   6    5.70    0.93
  -4   2  -6    4.66    0.69
  -4   2  -6    6.88    1.04
   4   2   6    6.96    0.79
   4   2   6    5.67    0.79
   5  -2   6    8.12    0.87
   5  -2   6    8.00    1.08
   5  -2   6    8.37    1.40
  -5   2  -6    8.26    1.13
   5   2   6    8.34    0.95
  -5   2  -6    8.72    0.86
  -5   2  -6    9.68    1.25
   5   2   6    8.81    0.87
   6  -2   6    3.10    1.45
   6  -2   6    6.12    1.13
   6  -2   6    5.22    0.92
  -6   2  -6    5.01    1.47
   6   2   6    6.94    1.02
  -6   2  -6    4.31    0.82
   6   2   6    5.71    0.88
  -6   2  -6    3.64    1.21
   7  -2   6    8.67    1.06
   7  -2   6    8.92    1.34
   7  -2   6    6.48    1.71
  -7   2  -6    5.99    1.65
  -7   2  -6    9.05    1.49
  -7   2  -6    8.30    1.00
   7   2   6    8.93    1.29
   7   2   6    4.92    1.03
   8  -2   6   23.82    2.38
  -8  -2  -6   23.72    2.76
   8  -2   6   27.16    2.16
   8  -2   6   30.69    3.48
  -8   2  -6   25.22    2.10
  -8   2  -6   27.60    3.12
   8   2   6   25.82    2.05
   8   2   6   26.15    2.43
  -8   2  -6   29.39    3.15
   9  -2   6    7.38    1.66
   9  -2   6    7.83    1.41
  -9  -2  -6    8.58    2.00
   9  -2   6   13.15    2.43
  -9   2  -6    8.84    1.40
   9   2   6    8.45    1.69
  -9   2  -6    7.40    2.31
  -9   2  -6    9.52    2.30
   9   2   6    7.60    1.38
  10  -2   6    1.05    1.42
  10  -2   6   -0.15    2.75
 -10  -2  -6   -0.95    2.24
  10   2   6    1.03    1.49
  10   2   6   -0.44    1.81
 -11  -2  -6    2.80    2.78
  11   2   6    1.47    2.19
 -15  -3   6   10.18    2.80
  15  -3  -6    2.93    3.75
  15  -3  -6    9.43    2.65
  15  -3  -6    8.91    2.93
 -15   3   6   11.58    2.82
 -14  -3   6    7.29    2.17
  14  -3  -6    1.96    2.62
  14  -3  -6    4.96    2.29
 -14  -3   6    6.20    3.24
  14  -3  -6    5.90    2.06
 -14   3   6    3.83    2.56
 -14   3   6    5.22    2.12
 -14   3   6    5.87    2.99
  14   3  -6    6.22    2.70
  14   3  -6    4.55    2.28
  14   3  -6    5.09    2.24
 -13  -3   6   -0.11    3.49
  13  -3  -6    0.25    2.11
 -13  -3   6    1.57    1.82
 -13  -3   6   -1.11    2.49
  13  -3  -6   -0.34    1.73
  13  -3  -6   -0.96    1.63
 -13   3   6    2.48    2.20
  13   3  -6    0.55    1.77
 -13   3   6    5.24    1.69
  13   3  -6    1.25    2.38
  13   3  -6    0.70    1.90
 -13   3   6   -0.86    2.51
  12  -3  -6   14.19    1.79
 -12  -3   6   16.20    2.21
 -12  -3   6   16.58    1.80
  12  -3  -6   11.38    2.25
 -12  -3   6   17.59    2.05
 -12  -3   6   16.28    3.09
  12   3  -6   16.77    1.95
 -12   3   6   17.72    2.14
  12   3  -6   17.73    2.33
  12   3  -6   17.29    1.87
 -12   3   6   17.14    1.68
 -12   3   6   13.42    2.28
  11  -3  -6   11.51    1.99
 -11  -3   6    9.00    2.57
 -11  -3   6   15.64    1.62
 -11  -3   6   11.93    1.77
 -11  -3   6   13.12    1.63
  11  -3  -6   12.89    1.59
 -11   3   6   12.23    1.73
  11   3  -6   11.80    1.54
  11   3  -6   12.04    1.96
  11   3  -6   11.53    1.66
 -11   3   6   12.71    1.86
 -11   3   6   11.63    1.36
 -10  -3   6    5.02    1.44
  10  -3  -6    6.67    1.22
 -10  -3   6    8.01    2.40
  10  -3  -6    6.81    1.74
 -10  -3   6    8.18    1.26
 -10  -3   6   10.37    1.30
  10   3  -6    8.50    1.72
 -10   3   6    4.46    1.14
 -10   3   6    5.50    1.54
  10   3  -6    6.91    1.46
  10   3  -6    8.48    1.30
 -10   3   6    8.83    1.52
  -9  -3   6   13.23    1.30
  -9  -3   6   12.95    2.07
   9  -3  -6   10.56    1.10
   9  -3  -6   11.02    1.66
  -9  -3   6   12.66    1.36
   9  -3  -6   10.89    1.29
  -9  -3   6   10.26    1.27
  -9   3   6   12.09    1.42
  -9   3   6   15.68    1.50
   9   3  -6   12.64    1.36
  -9   3   6   10.88    1.12
   9   3  -6   11.54    1.71
   9   3  -6   11.76    1.49
  -8  -3   6   21.07    1.91
  -8  -3   6   22.02    1.73
   8  -3  -6   25.67    1.86
   8  -3  -6   21.70    1.84
   8  -3  -6   22.10    1.51
  -8  -3   6   24.29    1.90
  -8  -3   6   24.05    2.25
   8   3  -6   24.60    2.01
  -8   3   6   22.32    1.94
  -8   3   6   17.80    2.06
  -8   3   6   21.51    1.57
   8   3  -6   23.37    1.80
   8   3  -6   21.82    2.63
  -7  -3   6   10.32    1.23
   7  -3  -6   10.78    1.07
   7  -3  -6    7.14    1.44
  -7  -3   6    8.34    1.11
   7  -3  -6    8.41    0.81
  -7  -3   6   13.70    1.91
   7   3  -6   10.75    1.17
  -7   3   6   12.53    1.26
   7   3  -6   11.45    1.39
  -7   3   6   10.57    1.09
  -7   3   6    9.41    0.87
  -6  -3   6   28.05    1.79
   6  -3  -6   26.60    1.73
  -6  -3   6   24.20    2.71
  -6  -3   6   26.58    1.78
   6  -3  -6   25.58    2.26
   6  -3  -6   25.64    1.38
  -6   3   6   27.32    1.53
   6   3  -6   28.06    1.75
   6   3  -6   26.72    1.91
  -6   3   6   28.60    1.80
   6   3  -6   28.40    2.44
  -6   3   6   26.81    1.90
   5  -3  -6    9.99    0.92
  -5  -3   6    9.30    1.47
  -5  -3   6   11.09    1.05
   5  -3  -6    8.60    0.86
  -5  -3   6   10.32    0.97
   5  -3  -6    9.93    1.21
  -5   3   6   10.08    0.88
   5   3  -6   11.35    1.02
  -5   3   6   11.38    1.13
   5   3  -6    9.87    1.43
  -5   3   6   10.01    0.79
   5   3  -6    8.93    1.03
  -4  -3   6   30.64    1.78
   4  -3  -6   28.68    1.39
  -4  -3   6   28.89    2.64
   4  -3  -6   28.11    1.92
  -4  -3   6   29.14    1.78
  -4   3   6   30.04    1.50
   4   3  -6   30.08    2.30
  -4   3   6   31.85    1.53
  -4   3   6   30.22    1.82
   4   3  -6   31.19    1.78
   4   3  -6   29.49    1.66
  -3  -3   6   16.74    1.40
   3  -3  -6   17.84    1.03
  -3  -3   6   20.97    2.39
   3  -3  -6   17.19    1.59
  -3  -3   6   17.28    1.47
   3  -3  -6   18.63    1.14
   3   3  -6   18.64    1.63
  -3   3   6   18.01    1.09
  -3   3   6   18.40    1.56
  -3   3   6   17.07    0.99
   3   3  -6   18.84    1.51
   2  -3  -6   21.41    1.15
  -2  -3   6   22.16    1.52
   2  -3  -6   19.26    1.44
   2   3  -6   20.16    1.22
   2   3  -6   23.33    2.30
   2   3  -6   21.10    1.62
   2   3  -6   21.06    1.61
  -2   3   6   21.04    1.44
  -2   3   6   20.89    1.17
  -2   3   6   21.45    1.14
   1  -3  -6   63.18    2.68
  -1  -3   6   68.32    3.03
  -1  -3   6   67.57    2.85
   1   3  -6   68.23    2.97
   1   3  -6   66.05    2.76
   1   3  -6   68.48    3.51
  -1   3   6   66.26    2.72
   1   3  -6   65.24    3.01
   0  -3   6   16.77    1.45
   0  -3   6   19.07    1.63
   0   3  -6   17.37    1.61
   0   3  -6   20.11    1.90
   0   3   6   16.31    1.12
   0   3  -6   16.35    1.12
   0   3  -6   16.90    1.57
   1  -3   6    5.27    1.04
   1  -3   6    4.19    0.81
  -1   3  -6    4.03    0.60
  -1   3  -6    4.55    1.54
  -1   3  -6    4.83    1.02
   1   3   6    4.14    0.64
  -1   3  -6    4.20    0.92
   2  -3   6    4.23    0.91
   2  -3   6    7.11    1.11
  -2   3  -6    5.43    0.68
  -2   3  -6    3.91    1.00
  -2   3  -6    5.82    1.63
  -2   3  -6    6.24    1.06
   2   3   6    5.77    0.77
   3  -3   6   41.48    2.34
  -3   3  -6   45.23    2.58
  -3   3  -6   48.51    3.84
  -3   3  -6   42.58    2.08
   3   3   6   44.30    2.16
  -3   3  -6   41.17    2.60
   4  -3   6   12.25    1.25
  -4   3  -6   12.83    1.38
  -4   3  -6   13.80    1.52
  -4   3  -6   16.46    2.65
   4   3   6   13.25    1.19
  -4   3  -6   11.80    1.03
   5  -3   6    1.78    0.91
   5  -3   6    2.69    1.13
   5  -3   6    0.47    1.39
   5   3   6    2.85    0.73
   5   3   6    2.01    0.89
  -5   3  -6    2.05    0.79
  -5   3  -6    2.63    1.29
   6  -3   6   18.41    1.69
   6  -3   6   16.15    1.78
   6  -3   6   14.48    1.97
   6   3   6   17.53    1.98
   6   3   6   16.23    1.44
  -6   3  -6   17.63    1.82
  -6   3  -6   17.53    1.78
   7  -3   6   13.26    1.47
   7  -3   6   15.84    1.60
   7  -3   6   11.75    2.11
  -7   3  -6   15.62    1.88
   7   3   6   14.48    1.61
   7   3   6   16.88    1.67
  -7   3  -6   12.19    1.90
  -7   3  -6   13.55    1.44
   8  -3   6    0.73    2.27
   8  -3   6    2.45    1.41
   8  -3   6    2.64    1.55
   8   3   6    4.62    1.65
   8   3   6    2.76    1.09
  -8   3  -6    1.87    2.02
  -8   3  -6    2.48    1.93
  -8   3  -6    2.07    1.35
   9  -3   6    1.04    1.54
   9  -3   6    7.79    1.79
   9  -3   6    4.99    2.59
   9   3   6    2.12    2.01
   9   3   6    4.27    1.51
  -9   3  -6   -0.43    2.41
  10   3   6    6.41    1.88
 -14  -4   6    9.21    3.08
  14  -4  -6   12.75    2.73
  14  -4  -6    5.75    3.43
  14  -4  -6    2.61    3.79
 -14   4   6    2.84    2.56
 -13  -4   6    6.03    2.32
  13  -4  -6    4.88    2.26
  13  -4  -6    1.88    2.92
  13  -4  -6    3.25    2.14
 -13  -4   6    3.80    3.52
 -13   4   6    3.10    2.89
  13   4  -6    3.45    2.32
 -13   4   6    2.09    2.32
 -13   4   6    5.60    3.25
  12  -4  -6    1.82    1.87
 -12  -4   6    2.60    2.74
  12  -4  -6    5.21    2.44
  12  -4  -6    2.72    1.87
 -12  -4   6    7.25    1.95
 -12  -4   6   -0.22    4.58
 -12  -4   6    2.51    1.92
  12   4  -6    4.83    2.07
  12   4  -6    5.09    1.96
 -12   4   6    1.76    2.19
 -12   4   6    5.87    1.87
  12   4  -6    2.39    2.48
 -12   4   6   -0.19    2.69
 -11  -4   6    6.26    1.77
  11  -4  -6    5.81    2.27
 -11  -4   6    6.15    1.62
  11  -4  -6    6.78    1.81
 -11  -4   6    8.95    3.92
 -11  -4   6    5.93    2.33
  11  -4  -6    4.10    1.55
 -11   4   6    4.28    1.97
  11   4  -6    4.38    2.07
 -11   4   6    1.45    1.98
 -11   4   6    6.15    1.51
  11   4  -6    5.26    2.50
  11   4  -6    5.10    1.84
 -10  -4   6   -0.13    3.24
 -10  -4   6    4.63    1.90
 -10  -4   6    5.70    1.64
  10  -4  -6    4.01    1.43
 -10  -4   6    3.52    1.44
  10  -4  -6    2.71    2.07
  10  -4  -6    3.11    1.50
 -10   4   6    5.48    1.73
 -10   4   6    3.40    1.29
 -10   4   6    3.69    1.84
  10   4  -6    4.62    2.22
  10   4  -6    4.11    1.85
  10   4  -6    4.38    1.63
   9  -4  -6    4.09    1.35
   9  -4  -6    3.65    1.93
  -9  -4   6    2.97    1.64
  -9  -4   6    5.52    1.34
  -9  -4   6    6.85    3.00
  -9  -4   6    4.92    1.49
   9  -4  -6    4.46    1.30
   9   4  -6    5.78    1.45
  -9   4   6    4.74    1.20
   9   4  -6    5.52    1.96
   9   4  -6    3.12    1.56
  -9   4   6    6.61    1.68
  -9   4   6    7.05    1.40
  -8  -4   6    5.28    1.17
   8  -4  -6    5.15    1.66
  -8  -4   6    2.46    1.50
   8  -4  -6    3.59    1.07
   8  -4  -6    5.04    1.22
  -8  -4   6    8.38    2.73
  -8  -4   6    4.44    1.36
  -8   4   6    3.50    1.36
   8   4  -6    4.88    1.20
   8   4  -6    5.22    1.41
  -8   4   6    2.89    1.23
   8   4  -6    5.63    2.04
  -8   4   6    5.20    1.05
   7  -4  -6    0.33    1.53
  -7  -4   6    1.13    1.28
   7  -4  -6    0.68    1.07
   7  -4  -6    1.14    0.97
  -7  -4   6    1.24    1.21
  -7  -4   6    2.56    2.26
   7   4  -6    1.43    1.76
   7   4  -6    0.99    1.03
   7   4  -6    1.75    1.37
  -7   4   6   -0.65    1.26
  -7   4   6   -1.05    1.05
  -7   4   6   -0.57    0.92
   6  -4  -6   22.29    1.90
   6  -4  -6   20.31    1.90
  -6  -4   6   20.37    2.12
  -6  -4   6   22.24    2.68
  -6  -4   6   22.25    2.07
   6  -4  -6   19.20    1.67
  -6   4   6   24.03    1.65
   6   4  -6   24.85    2.20
  -6   4   6   20.92    1.81
   6   4  -6   21.30    2.00
  -6   4   6   22.74    2.40
   6   4  -6   22.16    2.24
  -5  -4   6   11.68    1.37
   5  -4  -6   10.67    1.01
  -5  -4   6   11.32    2.21
  -5  -4   6   12.31    1.28
   5  -4  -6    9.79    1.17
   5  -4  -6    9.73    1.56
   5   4  -6   11.03    1.89
   5   4  -6   14.12    1.63
  -5   4   6   11.73    1.30
   5   4  -6    9.58    1.35
  -5   4   6   10.67    0.99
   4  -4  -6    2.65    1.28
   4  -4  -6    0.20    0.71
  -4  -4   6    5.46    1.27
  -4  -4   6    2.89    1.02
  -4  -4   6    2.61    1.92
   4  -4  -6    3.59    0.80
  -4   4   6    3.29    0.78
  -4   4   6    4.40    1.08
   4   4  -6    4.18    1.70
   4   4  -6    2.87    1.01
   4   4  -6    4.25    1.15
   3  -4  -6   27.83    1.69
  -3  -4   6   21.37    1.91
  -3  -4   6   29.59    1.90
   3  -4  -6   25.64    1.61
   3  -4  -6   26.77    2.14
  -3   4   6   27.68    1.72
  -3   4   6   27.26    1.99
   3   4  -6   27.43    3.09
   3   4  -6   29.45    1.71
   3   4  -6   28.96    2.24
   3   4  -6   31.85    2.25
  -2  -4   6   16.83    1.67
   2  -4  -6   15.03    1.42
  -2  -4   6   14.47    1.74
  -2   4   6   18.00    1.50
   2   4  -6   15.24    1.53
   2   4  -6   18.04    1.55
  -2   4   6   15.70    1.32
  -2   4   6   14.88    1.67
   2   4  -6   19.45    1.48
   2   4  -6   17.78    2.10
  -2   4   6   18.55    1.73
   1  -4  -6    1.76    0.77
  -1  -4   6    0.40    0.99
  -1  -4   6    0.37    0.87
   1   4  -6    1.44    1.78
  -1   4   6   -0.76    1.43
   1   4  -6    0.68    1.10
   1   4  -6    1.92    1.22
  -1   4   6    0.42    0.68
   1   4  -6   -0.20    0.69
  -1   4   6    0.14    0.89
  -1   4   6    0.34    0.83
   0  -4   6   29.91    2.21
   0  -4   6   26.59    2.04
   0  -4  -6   29.93    1.73
   0   4  -6   24.59    1.61
   0   4  -6   30.49    3.62
   0   4  -6   26.40    2.35
   0   4   6   25.16    1.70
   0   4  -6   24.31    2.29
   1  -4   6   44.66    2.73
   1  -4   6   39.97    2.46
  -1  -4  -6   46.60    2.40
  -1   4  -6   47.46    2.92
  -1   4  -6   47.84    2.23
   1   4   6   47.46    2.31
  -1   4  -6   40.31    2.70
  -1   4  -6   43.45    4.23
   2  -4   6    5.80    1.35
   2  -4   6    3.39    1.09
  -2   4  -6    4.65    2.26
   2   4   6    6.31    0.96
  -2   4  -6    5.30    1.27
  -2   4  -6    3.65    0.88
  -2   4  -6    4.31    1.33
   3  -4   6   21.50    2.08
   3  -4   6   19.34    1.81
  -3   4  -6   16.70    1.80
  -3   4  -6   16.38    1.75
   3   4   6   13.51    1.72
  -3   4  -6   19.35    2.83
  -3   4  -6   17.36    1.63
   4  -4   6   13.25    1.51
   4  -4   6   15.84    1.87
  -4   4  -6   12.47    2.76
  -4   4  -6   12.35    1.24
  -4   4  -6   13.00    1.89
   4   4   6   11.46    1.37
  -4   4  -6   11.35    1.64
   5  -4   6   15.02    1.81
   5  -4   6   11.95    1.63
  -5   4  -6   15.80    2.07
  -5   4  -6   23.00    4.07
  -5   4  -6   10.81    1.70
   5   4   6   13.65    1.57
  -5   4  -6   11.70    1.33
   6  -4   6   -1.08    1.46
  -6   4  -6    1.27    2.03
  -6   4  -6   -6.19    3.92
  -6   4  -6    1.10    1.27
   6   4   6    0.49    1.38
  -6   4  -6   -3.38    1.77
   7  -4   6   12.45    2.00
   7  -4   6   13.36    1.61
  -7   4  -6   12.10    2.42
  -7   4  -6    9.73    1.86
  -7   4  -6   22.89    4.61
  -7   4  -6   12.82    2.75
   7   4   6   10.92    1.92
   8  -4   6    6.94    1.95
   8  -4   6    5.85    3.09
   8  -4   6    7.02    1.77
   8   4   6    4.10    2.14
  12  -5  -6    1.43    3.35
 -12   5   6    4.65    3.50
 -12   5   6    0.97    2.58
  11  -5  -6    6.77    2.44
  11  -5  -6    4.33    2.92
  11  -5  -6    7.02    2.20
 -11   5   6    7.94    2.25
 -11   5   6    3.00    1.99
  11   5  -6   10.77    2.57
 -11   5   6    7.20    3.00
 -10  -5   6    2.86    2.87
  10  -5  -6    3.29    2.57
  10  -5  -6    0.57    2.07
 -10  -5   6    3.11    2.01
  10  -5  -6    4.89    1.98
  10   5  -6   -0.12    2.75
  10   5  -6    3.79    1.96
  10   5  -6    1.99    2.27
 -10   5   6    1.82    2.27
 -10   5   6   -1.18    1.85
 -10   5   6    3.01    1.99
   9  -5  -6   18.38    1.99
  -9  -5   6   14.13    2.20
   9  -5  -6   17.24    2.62
   9  -5  -6   18.78    2.17
  -9  -5   6   18.37    2.77
  -9  -5   6   17.14    4.80
  -9   5   6   15.38    1.84
   9   5  -6   19.27    2.31
   9   5  -6   18.06    2.40
  -9   5   6   15.31    2.29
  -9   5   6   17.36    1.85
   9   5  -6   16.97    2.94
  -8  -5   6   16.06    2.47
  -8  -5   6   18.94    4.16
  -8  -5   6   17.22    2.22
   8  -5  -6   13.84    2.52
   8  -5  -6   18.94    1.85
   8  -5  -6   16.59    1.88
   8   5  -6   15.27    2.19
  -8   5   6   15.59    1.68
  -8   5   6   12.69    2.24
   8   5  -6   19.99    2.08
  -8   5   6   19.51    1.78
   8   5  -6   23.66    3.02
   7  -5  -6    1.03    1.43
  -7  -5   6   -3.39    3.41
  -7  -5   6    0.68    1.74
  -7  -5   6   -2.60    1.98
   7  -5  -6    2.23    2.05
   7  -5  -6    1.41    1.45
   7   5  -6    2.52    1.83
   7   5  -6    0.93    2.57
  -7   5   6    0.21    1.83
  -7   5   6   -0.06    1.31
   7   5  -6   -1.41    1.48
   6  -5  -6    2.08    1.22
  -6  -5   6   -0.94    2.05
   6  -5  -6    2.14    1.81
  -6  -5   6    1.40    1.50
  -6  -5   6   -0.76    3.29
   6  -5  -6   -1.28    1.27
   6   5  -6   -0.43    1.70
  -6   5   6   -0.56    1.65
  -6   5   6   -1.46    1.05
   6   5  -6    0.57    2.39
   6   5  -6    0.11    1.36
   5  -5  -6   12.77    1.41
   5  -5  -6   13.85    1.96
   5  -5  -6   14.50    1.62
  -5  -5   6   16.67    1.84
  -5   5   6   15.22    1.78
  -5   5   6   15.15    1.31
   5   5  -6   17.41    1.73
   5   5  -6   13.05    1.87
   5   5  -6   16.81    1.38
   5   5  -6   15.75    1.79
   5   5  -6   19.08    2.82
   4  -5  -6   18.74    2.03
  -4  -5   6   21.16    2.39
   4   5  -6   17.94    2.73
   4   5  -6   18.97    2.27
   4   5  -6   22.13    2.07
   4   5  -6   21.18    2.03
   4   5  -6   17.58    1.89
  -4   5   6   20.53    1.92
  -4   5   6   22.87    2.67
   3  -5  -6    2.37    1.10
  -3  -5   6    5.09    1.36
  -3  -5   6    4.38    1.14
  -3   5   6    6.03    1.00
   3   5  -6    3.12    1.68
   3   5  -6    2.40    0.97
  -3   5   6    6.15    1.66
  -3   5   6    1.40    1.38
   3   5  -6    4.12    1.48
  -3   5   6    6.39    2.01
   3   5  -6    2.90    2.42
   2  -5  -6    3.84    1.05
  -2  -5   6    4.28    1.32
  -2  -5   6    4.19    1.13
   2   5  -6    4.74    1.08
   2   5  -6    1.80    1.51
  -2   5   6    2.81    1.35
  -2   5   6    2.27    1.39
   2   5  -6    3.91    1.86
  -2   5   6    4.31    1.11
   2   5  -6    4.56    2.34
  -2   5   6    5.56    1.03
  -2   5   6    4.44    2.15
  -1  -5   6   16.58    1.80
  -1  -5   6   16.73    1.50
   1  -5  -6   17.75    1.43
   1   5  -6   18.34    2.79
  -1   5   6   20.11    2.20
  -1   5   6   16.16    1.77
   1   5  -6   16.04    1.99
   1   5  -6   16.37    1.93
  -1   5   6   17.07    2.18
   1   5  -6   18.10    1.77
  -1   5   6   15.04    1.84
  -1   5   6   16.70    1.47
   0  -5  -6   18.44    2.12
   0  -5   6   18.61    2.17
   0  -5   6   24.10    2.06
   0   5  -6   17.83    1.82
   0   5   6   19.57    2.09
   0   5  -6   19.03    2.09
   0   5   6   17.87    2.10
   0   5  -6   21.30    2.01
   0   5   6   18.38    2.00
   0   5  -6   17.58    3.19
   1  -5   6   12.61    1.87
   1  -5   6    7.46    1.38
  -1  -5  -6   12.50    1.47
  -1   5  -6    9.77    1.90
  -1   5  -6   11.48    1.77
   1   5   6   11.06    1.36
  -1   5  -6    7.94    2.96
  -1   5  -6   10.29    1.22
   2  -5   6    2.02    1.35
   2  -5   6    0.72    1.67
  -2  -5  -6   -0.90    1.40
  -2   5  -6    0.26    1.07
   2   5   6    0.16    1.23
  -2   5  -6   -0.53    3.27
  -2   5  -6    0.02    1.81
  -2   5  -6    2.07    1.98
   3  -5   6    4.65    1.46
   3  -5   6    4.03    1.85
  -3   5  -6    3.72    1.25
  -3   5  -6    3.64    1.88
  -3   5  -6    8.13    3.47
  -3   5  -6    2.61    2.04
   3   5   6    5.37    1.49
   4  -5   6    1.25    1.81
   4  -5   6    2.72    1.67
  -4   5  -6    0.78    3.97
  -4   5  -6    2.69    1.33
  -4   5  -6    1.66    2.30
   4   5   6    0.79    1.64
  -4   5  -6   -1.67    2.01
   5  -5   6    5.28    1.79
   5  -5   6    1.68    2.17
  -5   5  -6    2.32    1.95
  -5   5  -6   11.24    4.25
   5   5   6    5.33    1.92
  -5   5  -6    2.86    1.59
  -5   5  -6    2.66    2.64
   6  -5   6    8.54    2.26
  -6   5  -6    5.28    1.92
   6   5   6    9.34    2.33
  -6   5  -6    9.34    4.46
  -6   5  -6    7.47    3.12
   7  -5   6    5.85    2.72
  -7   5  -6    6.68    4.00
  -7   5  -6    9.43    5.82
  -8   5  -6   12.51    7.80
  10  -6  -6   11.31    3.98
 -10   6   6    3.57    3.35
   9  -6  -6   11.00    3.42
  -9   6   6   16.24    3.56
   8  -6  -6    3.68    2.17
   8  -6  -6    2.26    3.10
  -8   6   6    0.61    3.14
   8   6  -6   -0.01    2.77
   7  -6  -6    6.86    3.04
   7  -6  -6    7.70    2.17
  -7   6   6    1.97    2.94
   7   6  -6   15.34    2.59
   7   6  -6    5.20    1.96
   7   6  -6    7.69    2.68
   7   6  -6    7.61    3.63
  -6  -6   6    4.25    2.28
   6  -6  -6    4.91    1.88
   6   6  -6   12.52    3.92
  -6   6   6    4.83    2.60
   6   6  -6    5.34    2.00
   6   6  -6    7.08    2.66
   6   6  -6    6.33    1.71
   6   6  -6    7.97    2.42
   5  -6  -6    2.85    1.81
  -5  -6   6   -0.01    2.13
  -5   6   6    1.73    2.38
   5   6  -6    3.12    1.94
   5   6  -6    2.99    3.20
   5   6  -6   -0.58    2.44
  -5   6   6    0.62    1.44
   5   6  -6   -0.34    2.11
   5   6  -6    1.92    1.62
  -5   6   6   -3.67    3.38
   4  -6  -6    1.04    1.66
  -4  -6   6    2.50    2.17
  -4   6   6    1.39    1.40
  -4   6   6    1.37    2.59
   4   6  -6    0.44    2.14
   4   6  -6    2.37    2.31
  -4   6   6    5.53    2.20
   4   6  -6    4.54    3.49
  -4   6   6    6.52    2.76
   4   6  -6    1.31    1.49
  -3  -6   6    1.44    1.94
  -3   6   6    5.35    3.53
  -3   6   6    2.18    2.21
  -3   6   6    5.65    1.43
   3   6  -6    3.73    3.63
  -3   6   6    3.87    1.99
   3   6  -6    1.34    1.51
   3   6  -6    2.69    2.48
   3   6  -6    1.36    2.23
   2  -6  -6    0.37    1.59
  -2  -6   6    0.20    1.79
   2   6  -6    5.62    2.36
  -2   6   6    0.03    2.80
   2   6  -6    1.44    1.37
  -2   6   6    0.35    1.56
   2   6  -6    4.21    3.61
   2   6  -6    1.39    2.29
  -2   6   6    2.29    1.80
  -2   6   6    0.90    1.86
   1  -6  -6    1.67    1.55
  -1  -6   6    1.66    2.00
   1   6  -6    1.46    1.41
   1   6  -6    4.61    2.45
  -1   6   6    3.30    1.55
  -1   6   6    0.95    1.81
   1   6  -6    3.76    2.32
  -1   6   6    2.24    2.54
  -1   6   6    1.60    1.50
   1   6  -6   -1.58    3.80
  -1   6   6    2.33    1.68
   0  -6  -6    6.58    1.73
   0  -6   6    6.76    2.22
   0   6   6    6.29    1.74
   0   6   6    2.58    2.28
   0   6  -6    4.47    3.97
   0   6  -6    6.17    2.43
   0   6   6    5.74    1.65
   0   6   6    4.36    1.50
   0   6   6    5.31    1.76
   0   6  -6    4.92    1.51
   0   6  -6    5.28    2.45
   1  -6   6    6.64    1.87
  -1  -6  -6    6.18    1.79
   1  -6   6    2.61    2.15
  -1   6  -6    5.53    4.27
  -1   6  -6    2.04    1.55
   1   6   6    3.72    2.02
   1   6   6    5.96    1.87
  -1   6  -6    1.79    2.65
  -1   6  -6    8.40    2.68
  -2  -6  -6    5.03    1.95
   2  -6   6    1.05    1.90
   2  -6   6   -0.91    2.47
  -2   6  -6    4.88    1.78
  -2   6  -6    3.03    4.38
   2   6   6    0.22    2.00
  -2   6  -6    2.39    2.79
  -2   6  -6   -0.24    2.82
   3  -6   6    2.22    2.17
  -3   6  -6   -0.89    4.62
  -3   6  -6    9.91    3.29
   3   6   6    5.53    2.21
  -3   6  -6    2.21    1.88
   4  -6   6    0.90    2.41
  -4   6  -6    2.67    3.83
  -4   6  -6    2.75    2.14
  -4   6  -6   -3.13    5.24
   4   6   6   -1.43    2.55
   5  -6   6    6.57    2.85
  -5   6  -6   14.82    4.12
   3  -7  -6    0.26    3.66
   2  -7  -6   -0.01    2.53
   2   7  -6    2.48    3.62
   1  -7  -6    1.54    2.44
  -1   7   6    2.31    3.56
   1   7  -6    0.75    3.76
   0  -7  -6    1.56    2.61
   0   7   6   -1.59    3.43
   0   7   6    2.36    2.84
   0   7  -6   -2.35    3.90
   1   7   6   -2.69    3.13
  -1   7  -6    5.46    3.98
  17   0  -7   -1.46    2.94
  17   0  -7   -4.31    2.72
  16   0  -7    3.23    2.26
  16   0  -7    0.13    2.32
 -16   0   7    4.36    2.89
  16   0  -7    0.90    3.40
  15   0  -7   21.38    2.24
  15   0  -7   30.35    3.32
  15   0  -7   22.37    3.05
 -15   0   7   25.59    3.65
 -15   0   7   21.65    2.53
 -15   0   7   29.17    2.64
  14   0  -7   23.60    2.08
 -14   0   7   24.30    2.21
 -14   0   7   25.78    2.36
  14   0  -7   20.00    2.84
  14   0  -7   19.49    1.90
 -14   0   7   24.26    2.95
 -13   0   7    1.13    1.95
 -13   0   7   -0.77    1.48
 -13   0   7   -1.34    1.42
  13   0  -7    1.71    2.02
  13   0  -7   -0.66    1.47
  13   0  -7   -0.61    1.17
 -12   0   7   -0.53    1.13
  12   0  -7   -0.04    1.23
 -12   0   7    0.50    1.60
  12   0  -7    1.19    1.60
 -12   0   7    1.10    1.30
  12   0  -7    0.24    0.96
  11   0  -7   55.40    2.58
 -11   0   7   54.23    2.73
  11   0  -7   48.91    3.24
 -11   0   7   51.55    2.89
  11   0  -7   57.29    2.87
 -11   0   7   50.06    3.23
 -10   0   7   13.32    1.13
  10   0  -7   13.12    1.23
 -10   0   7   14.65    1.26
  10   0  -7   13.13    1.50
  10   0  -7   13.36    1.30
 -10   0   7   12.28    1.44
   9   0  -7   22.71    1.67
   9   0  -7   23.39    2.10
  -9   0   7   22.74    1.51
  -9   0   7   21.65    1.62
   9   0  -7   20.90    1.27
  -9   0   7   18.88    1.95
   8   0  -7   10.95    0.96
  -8   0   7   12.21    1.45
   8   0  -7    8.82    0.84
  -8   0   7   10.23    0.86
   8   0  -7   10.47    1.20
   7   0  -7    8.24    0.80
  -7   0   7   10.96    1.01
   7   0  -7    8.78    0.71
   7   0  -7    9.07    1.07
  -7   0   7    9.61    0.98
  -7   0   7    8.53    0.76
  -6   0   7   10.60    0.71
  -6   0   7    9.61    0.93
   6   0  -7   11.11    1.30
   6   0  -7    8.98    0.68
   6   0  -7    9.80    0.97
  -6   0   7   11.18    1.32
  -5   0   7    7.22    0.77
   5   0  -7    5.79    0.80
   5   0  -7    6.53    0.61
  -5   0   7    7.72    0.82
  -5   0   7    5.35    0.56
   4   0  -7    3.05    0.67
  -4   0   7    4.37    0.52
  -4   0   7    4.18    0.41
   4   0  -7    3.69    0.55
  -4   0   7    3.44    0.67
  -3   0   7   33.32    1.71
   3   0  -7   33.79    1.60
  -3   0   7   31.56    1.46
  -3   0   7   31.57    1.41
   2   0  -7   36.60    1.48
  -2   0   7   33.01    1.73
  -2   0   7   37.42    1.52
   2   0  -7   33.53    1.68
  -1   0   7   79.18    3.13
   1   0  -7   78.54    3.22
   1   0  -7   83.32    3.11
  -1   0   7   81.06    3.31
   0   0  -7   97.04    3.90
   0   0  -7  104.89    3.98
   0   0   7   98.73    3.98
   1   0   7    4.29    0.69
  -1   0  -7    4.09    0.60
  -2   0  -7   -0.17    0.50
   2   0   7   -0.37    0.62
  -3   0  -7   37.98    1.73
   3   0   7   35.33    1.92
  -3   0  -7   29.57    2.18
  -4   0  -7   11.37    1.28
   4   0   7   13.73    1.12
   4   0   7   10.62    0.89
   4   0   7    8.23    1.06
   5   0   7    0.10    0.55
   5   0   7    0.20    0.88
  -5   0  -7    0.23    0.82
   5   0   7    0.49    0.86
   6   0   7    7.59    1.13
   6   0   7    7.69    0.77
  -6   0  -7    9.59    1.18
   6   0   7    4.57    1.19
   7   0   7    1.08    1.23
   7   0   7    2.77    1.15
  -7   0  -7    4.24    0.86
   7   0   7    4.57    0.80
  -7   0  -7    4.81    1.33
  -7   0  -7    4.24    1.47
  -8   0  -7    1.25    1.00
  -8   0  -7    2.41    1.86
   8   0   7    0.35    1.23
  -8   0  -7    4.88    1.57
   8   0   7    1.84    1.87
   8   0   7    2.51    0.85
  -9   0  -7   26.58    2.30
   9   0   7   26.10    2.08
  -9   0  -7   23.76    2.32
   9   0   7   23.70    2.79
   9   0   7   25.63    2.85
  -9   0  -7   27.33    2.70
 -10   0  -7   -2.28    2.56
  10   0   7    1.03    1.14
  10   0   7    3.48    1.98
 -10   0  -7   -1.04    2.27
  10   0   7    6.57    2.47
  11   0   7    0.06    2.93
  17  -1  -7    8.64    2.99
  17  -1  -7    9.74    3.12
  16  -1  -7   18.40    2.64
 -16  -1   7    7.66    4.45
  16  -1  -7    8.24    3.55
  16  -1  -7    9.69    2.51
 -16   1   7    5.15    2.80
  16   1  -7    6.96    2.46
  16   1  -7    4.59    2.71
 -15  -1   7    9.84    3.14
 -15  -1   7    2.59    2.40
  15  -1  -7    4.66    2.71
 -15  -1   7    7.07    2.19
  15  -1  -7    6.05    1.96
  15  -1  -7    6.11    2.08
 -15   1   7    0.91    3.15
  15   1  -7    1.05    2.75
 -15   1   7    0.68    2.46
  15   1  -7    5.23    2.04
 -15   1   7    4.04    2.26
  15   1  -7    4.54    2.15
 -14  -1   7   -0.48    1.93
  14  -1  -7    0.53    1.49
  14  -1  -7   -0.94    1.72
 -14  -1   7    1.70    2.52
  14  -1  -7   -1.19    2.19
 -14  -1   7   -0.98    1.78
 -14   1   7   -1.34    2.56
  14   1  -7    0.81    2.33
 -14   1   7   -1.32    1.92
  14   1  -7    1.46    1.78
  14   1  -7   -0.16    1.55
 -14   1   7   -0.48    1.67
 -13  -1   7   26.38    2.64
  13  -1  -7   21.79    2.46
 -13  -1   7   23.92    2.06
  13  -1  -7   22.31    1.95
 -13  -1   7   21.83    1.88
  13  -1  -7   22.04    2.29
  13   1  -7   25.76    2.05
 -13   1   7   21.38    2.50
 -13   1   7   24.81    2.15
 -13   1   7   22.29    1.89
  13   1  -7   23.13    2.51
  13   1  -7   21.95    2.37
 -12  -1   7   -0.66    1.28
  12  -1  -7    0.55    0.94
  12  -1  -7    1.34    1.70
  12  -1  -7    0.25    1.27
 -12  -1   7    2.96    1.35
 -12  -1   7    1.74    1.77
 -12   1   7    0.88    1.15
  12   1  -7    1.23    1.33
  12   1  -7    0.46    1.61
 -12   1   7    0.05    1.67
 -12   1   7    0.85    1.34
  12   1  -7    1.29    1.07
  11  -1  -7   18.14    1.51
 -11  -1   7   20.06    1.96
  11  -1  -7   20.23    2.00
 -11  -1   7   19.59    1.89
  11  -1  -7   16.88    1.54
 -11  -1   7   17.70    1.92
 -11   1   7   22.02    1.80
 -11   1   7   16.96    1.78
  11   1  -7   21.74    2.09
  11   1  -7   12.57    1.75
  11   1  -7   19.59    1.73
 -11   1   7   22.61    2.04
  10  -1  -7   83.19    4.13
 -10  -1   7   82.07    3.52
  10  -1  -7   77.72    3.28
  10  -1  -7   78.22    3.54
 -10  -1   7   82.31    3.50
 -10  -1   7   80.66    3.99
  10   1  -7   77.85    3.54
 -10   1   7   78.23    3.46
  10   1  -7   76.26    3.93
 -10   1   7   79.69    3.82
  10   1  -7   80.61    3.44
 -10   1   7   79.67    3.55
   9  -1  -7   94.07    4.44
  -9  -1   7   94.32    4.29
  -9  -1   7  102.51    4.00
   9  -1  -7   91.58    3.76
  -9  -1   7   94.58    3.95
  -9  -1   7  106.39    3.90
   9  -1  -7   91.91    3.96
   9   1  -7   93.80    4.21
   9   1  -7   95.54    3.98
  -9   1   7   92.16    4.00
  -9   1   7   94.14    3.94
  -9   1   7   91.93    4.18
   9   1  -7   95.02    3.90
  -8  -1   7   15.97    1.78
  -8  -1   7   16.71    1.39
   8  -1  -7   15.98    1.47
   8  -1  -7   15.54    1.40
  -8  -1   7   19.47    1.26
   8  -1  -7   15.47    0.95
  -8   1   7   15.51    1.32
  -8   1   7   17.30    1.76
   8   1  -7   17.00    1.44
   8   1  -7   15.57    1.18
  -8   1   7   14.79    1.42
   8   1  -7   16.49    1.83
  -7  -1   7   27.21    1.44
  -7  -1   7   27.65    1.89
  -7  -1   7   26.13    1.47
   7  -1  -7   24.77    1.97
   7  -1  -7   23.72    1.50
   7   1  -7   28.27    1.87
   7   1  -7   23.84    1.36
  -7   1   7   24.05    1.73
   7   1  -7   27.83    1.61
  -7   1   7   25.37    1.44
   6  -1  -7  101.17    3.98
  -6  -1   7  106.61    4.00
   6  -1  -7   98.27    4.14
  -6  -1   7   99.77    4.00
  -6  -1   7  104.62    4.27
   6   1  -7  108.50    4.04
  -6   1   7   96.79    3.97
  -6   1   7   95.72    4.12
   6   1  -7  106.66    4.22
   6   1  -7   96.54    3.98
   5  -1  -7   25.02    1.37
   5  -1  -7   27.45    1.54
  -5  -1   7   25.48    1.36
  -5  -1   7   26.63    1.34
  -5  -1   7   25.56    1.76
  -5   1   7   24.15    1.55
   5   1  -7   27.05    1.37
   5   1  -7   26.72    1.27
   5   1  -7   28.88    1.65
  -5   1   7   25.18    1.32
  -4  -1   7   12.90    1.05
   4  -1  -7   12.35    1.10
  -4  -1   7   11.05    0.95
  -4  -1   7   11.00    0.84
  -4   1   7    9.27    0.87
   4   1  -7   13.82    1.30
  -4   1   7   11.00    1.06
   4   1  -7   10.45    0.97
  -3  -1   7   13.79    0.95
   3  -1  -7   13.58    1.04
  -3  -1   7   12.95    0.93
   3  -1  -7   12.32    0.82
  -3  -1   7   14.18    1.39
   3   1  -7   12.47    1.35
   3   1  -7   12.86    0.96
  -3   1   7   12.25    1.02
  -3   1   7   11.94    0.81
  -2  -1   7  109.55    4.12
  -2  -1   7  101.94    4.08
  -2  -1   7  100.87    4.31
   2   1  -7  104.30    4.26
   2   1  -7  107.31    4.07
  -1  -1   7   10.95    1.08
  -1  -1   7   10.36    0.82
   1   1  -7    9.52    0.71
   1   1  -7    9.53    1.00
   1   1  -7    9.83    0.90
   0  -1   7   80.87    3.40
   0   1  -7   81.94    3.56
   0   1  -7   91.63    3.43
   0   1  -7   85.82    3.26
   0   1   7   76.94    3.36
   1  -1   7    7.48    0.80
   1   1   7    6.40    0.71
  -1   1  -7    5.94    0.56
  -1   1  -7    7.35    0.82
  -1   1  -7    7.73    1.07
   2  -1   7    8.81    0.89
  -2   1  -7    7.07    1.13
   2   1   7    5.71    0.75
  -2   1  -7    6.51    0.87
  -2   1  -7    6.05    0.57
   3  -1   7    2.89    0.84
  -3   1  -7    3.81    0.80
  -3   1  -7    4.08    0.54
   3   1   7    5.03    0.77
  -3   1  -7    4.71    1.25
   4  -1   7    4.61    0.97
   4  -1   7    3.30    0.62
   4  -1   7    3.17    1.08
  -4   1  -7    4.95    0.90
  -4   1  -7    4.42    0.61
   4   1   7    6.32    0.81
  -4   1  -7    6.15    0.87
   4   1   7    4.56    0.85
   5  -1   7   51.19    2.23
   5  -1   7   49.94    2.63
  -5   1  -7   53.03    2.20
  -5   1  -7   49.72    2.56
   5   1   7   40.50    2.32
   5   1   7   52.38    2.53
   6  -1   7   19.64    1.60
   6  -1   7   14.39    1.40
  -6   1  -7   19.62    1.79
   6   1   7   20.37    1.61
  -6   1  -7   17.76    1.58
  -6   1  -7   15.88    1.39
   6   1   7   17.52    1.42
   7  -1   7    0.19    1.15
   7  -1   7    3.58    1.47
   7  -1   7    0.01    0.80
  -7   1  -7    0.34    0.88
  -7   1  -7    2.74    1.63
  -7   1  -7    1.24    1.38
   7   1   7    0.54    1.05
   7   1   7   -0.38    0.86
   8  -1   7   -0.09    1.29
   8  -1   7    0.35    1.74
   8  -1   7    0.51    0.99
   8   1   7    0.74    1.24
  -8   1  -7    4.09    1.02
  -8   1  -7    0.67    1.84
   8   1   7    0.53    1.15
  -8   1  -7   -0.21    1.70
   9  -1   7    2.92    1.93
   9  -1   7    3.84    1.21
   9  -1   7    5.50    1.64
  -9  -1  -7    9.33    1.98
  -9   1  -7    2.79    2.09
  -9   1  -7    6.46    1.28
  -9   1  -7   -0.28    2.27
   9   1   7    4.29    1.36
   9   1   7    7.40    1.72
 -10  -1  -7    0.26    2.38
  10  -1   7    2.23    2.02
  10  -1   7   -0.52    2.28
 -10   1  -7   -0.11    2.52
  10   1   7    2.17    1.96
  16  -2  -7   -3.88    2.32
  16  -2  -7    6.85    2.40
 -16   2   7    3.94    2.97
  16   2  -7    3.73    2.93
  15  -2  -7    7.89    2.22
 -15  -2   7    4.01    2.84
  15  -2  -7    8.91    2.71
 -15  -2   7    4.97    2.41
  15  -2  -7    7.13    2.04
 -15   2   7    2.65    2.28
  15   2  -7    3.52    2.34
  15   2  -7    4.29    2.40
  15   2  -7    5.06    2.87
 -15   2   7    4.20    3.29
  14  -2  -7   10.29    1.73
 -14  -2   7   10.82    2.08
  14  -2  -7   13.19    2.45
  14  -2  -7   11.08    2.02
 -14  -2   7   18.75    3.46
 -14  -2   7   11.47    2.39
  14   2  -7   12.56    1.96
 -14   2   7    7.91    2.87
 -14   2   7   11.39    1.92
  14   2  -7   12.13    2.10
 -14   2   7   13.08    2.33
  14   2  -7   12.18    2.56
 -13  -2   7    2.12    1.79
  13  -2  -7    0.61    1.54
 -13  -2   7    1.56    1.61
  13  -2  -7    1.45    1.24
  13  -2  -7    3.42    2.05
 -13  -2   7   -1.76    2.63
 -13   2   7   -0.08    2.13
 -13   2   7   -1.40    1.38
 -13   2   7   -1.20    1.71
  13   2  -7    1.25    2.21
  13   2  -7    2.45    1.75
  13   2  -7    3.07    1.52
  12  -2  -7    4.32    1.91
  12  -2  -7    6.05    1.42
 -12  -2   7    3.60    1.49
 -12  -2   7    6.65    1.56
 -12  -2   7    4.21    2.31
  12  -2  -7    6.07    1.02
 -12   2   7    4.29    1.72
  12   2  -7    5.78    1.52
  12   2  -7    6.09    1.36
 -12   2   7    8.69    1.31
 -12   2   7    6.95    1.61
  12   2  -7    6.73    2.06
  11  -2  -7   21.98    2.29
 -11  -2   7   19.38    2.25
  11  -2  -7   18.22    1.54
 -11  -2   7   19.53    1.68
  11  -2  -7   18.20    1.96
 -11  -2   7   17.56    2.11
 -11  -2   7   19.28    2.11
 -11   2   7   18.62    2.01
  11   2  -7   22.77    2.10
 -11   2   7   18.28    1.89
  11   2  -7   20.47    1.67
 -11   2   7   20.36    1.77
  11   2  -7   20.80    1.94
 -10  -2   7    2.35    1.01
 -10  -2   7    2.90    1.75
  10  -2  -7    1.03    1.32
 -10  -2   7    1.28    1.08
  10  -2  -7    1.69    1.08
  10  -2  -7    0.74    0.60
 -10  -2   7    2.70    1.00
 -10   2   7    1.50    1.08
  10   2  -7    2.23    1.19
  10   2  -7    1.65    0.87
 -10   2   7    1.22    1.40
  10   2  -7    0.38    1.43
 -10   2   7    1.70    0.97
   9  -2  -7    1.22    0.48
  -9  -2   7    2.03    0.87
   9  -2  -7    2.51    1.16
  -9  -2   7    1.88    0.94
  -9  -2   7    0.83    1.50
  -9  -2   7    2.58    0.93
   9  -2  -7    1.68    0.97
   9   2  -7    1.76    1.08
   9   2  -7    1.79    1.39
   9   2  -7    1.75    0.81
  -9   2   7    1.23    1.17
  -9   2   7    2.73    1.06
  -9   2   7    1.47    0.83
  -8  -2   7    4.78    0.90
   8  -2  -7    5.30    0.89
  -8  -2   7    5.59    0.92
  -8  -2   7    6.40    1.52
   8  -2  -7    4.52    1.11
  -8   2   7    4.25    1.13
   8   2  -7    6.07    1.34
   8   2  -7    5.22    0.78
   8   2  -7    4.59    0.97
  -8   2   7    5.42    0.88
  -8   2   7    2.95    0.76
   7  -2  -7   16.40    1.40
  -7  -2   7   19.11    1.68
   7  -2  -7   17.19    1.79
  -7  -2   7   18.14    1.42
  -7  -2   7   19.62    1.48
   7   2  -7   17.31    2.02
  -7   2   7   18.02    1.45
   7   2  -7   17.59    1.53
  -7   2   7   16.82    1.27
   7   2  -7   17.16    1.30
  -7   2   7   19.29    1.84
  -6  -2   7   42.69    2.66
   6  -2  -7   42.36    1.99
  -6  -2   7   46.60    2.09
  -6  -2   7   42.05    2.12
   6  -2  -7   44.11    2.26
   6   2  -7   42.69    2.59
   6   2  -7   45.00    2.05
  -6   2   7   40.20    1.98
   6   2  -7   46.04    2.16
  -6   2   7   44.33    2.33
   5  -2  -7    1.07    0.95
  -5  -2   7    3.48    0.69
  -5  -2   7    2.54    1.01
  -5  -2   7    1.64    0.63
   5  -2  -7    2.21    0.84
  -5   2   7    1.83    0.76
   5   2  -7    1.86    0.50
  -5   2   7    2.18    0.59
   5   2  -7    2.09    0.97
   5   2  -7    2.64    0.76
  -4  -2   7    4.40    1.17
   4  -2  -7    4.37    0.75
   4  -2  -7    6.62    0.57
  -4  -2   7    4.35    0.68
  -4  -2   7    4.55    0.73
  -4   2   7    3.52    0.75
   4   2  -7    3.95    0.78
  -4   2   7    3.84    0.53
   4   2  -7    4.45    1.03
   4   2  -7    3.86    0.61
   3  -2  -7   14.32    1.27
  -3  -2   7   19.20    1.91
  -3  -2   7   15.80    1.18
  -3  -2   7   17.53    1.19
   3   2  -7   18.41    1.24
  -3   2   7   14.23    1.24
   3   2  -7   18.39    1.67
  -3   2   7   16.01    1.01
  -2  -2   7   26.15    2.14
  -2  -2   7   26.68    1.54
  -2  -2   7   23.18    1.50
   2   2  -7   26.26    2.00
  -2   2   7   25.49    1.15
   2   2  -7   27.24    1.46
  -1  -2   7   14.38    1.22
  -1  -2   7   13.48    1.17
  -1   2   7   13.97    0.87
   1   2  -7   14.79    0.97
   1   2  -7   17.41    1.48
   1   2  -7   15.19    1.43
   1   2  -7   14.60    1.22
   0  -2   7   40.80    1.99
   0  -2   7   41.35    2.07
   0   2  -7   41.05    1.80
   0   2  -7   39.84    1.96
   0   2  -7   39.53    2.59
   0   2   7   38.48    1.75
   0   2   7   36.41    1.80
   0   2  -7   41.78    2.10
   1  -2   7   15.50    1.39
  -1   2  -7   17.10    1.61
  -1   2  -7   15.13    1.40
  -1   2  -7   14.59    1.04
  -1   2  -7   14.56    1.40
   1   2   7   15.29    1.24
   1   2   7   16.10    1.09
   2  -2   7    3.02    0.93
   2   2   7    4.77    0.72
  -2   2  -7    2.29    1.39
  -2   2  -7    2.47    0.86
  -2   2  -7    2.90    0.55
  -2   2  -7    1.89    0.88
   2   2   7    3.23    0.57
   3  -2   7   42.49    2.32
   3   2   7   44.95    2.11
  -3   2  -7   35.59    2.41
   3   2   7   46.00    2.15
  -3   2  -7   46.41    3.33
  -3   2  -7   44.74    2.01
  -3   2  -7   47.87    2.41
   4  -2   7   15.39    1.72
  -4   2  -7   13.37    1.29
   4   2   7   14.05    1.50
   4   2   7   12.16    1.32
  -4   2  -7   14.31    1.24
  -4   2  -7   20.70    2.53
  -4   2  -7   16.95    1.37
   5  -2   7    2.47    1.08
   5  -2   7    5.53    1.37
   5  -2   7    3.42    0.84
   5   2   7    2.72    0.87
  -5   2  -7    4.63    0.78
  -5   2  -7    3.56    1.11
   5   2   7    3.43    0.88
   6  -2   7    7.08    1.03
   6  -2   7    6.84    1.35
   6  -2   7    5.12    1.71
   6   2   7    5.73    1.01
   6   2   7    6.65    1.10
  -6   2  -7    4.83    0.88
  -6   2  -7    7.94    1.36
   7  -2   7   27.25    3.38
   7  -2   7   31.93    2.18
   7  -2   7   34.88    2.70
   7   2   7   38.99    2.49
  -7   2  -7   31.54    2.13
   7   2   7   34.93    2.29
  -7   2  -7   33.41    3.02
   8  -2   7    2.81    2.10
   8  -2   7    2.90    1.22
   8  -2   7    5.20    1.46
   8   2   7    4.41    1.46
  -8   2  -7    4.75    2.09
  -8   2  -7    5.52    1.87
  -8   2  -7    4.95    1.26
   8   2   7    4.52    1.35
   9  -2   7    6.71    1.34
   9  -2   7    5.21    1.73
   9  -2   7    3.61    2.44
  -9   2  -7    4.90    2.22
   9   2   7    5.03    1.87
   9   2   7    6.42    1.66
  -9   2  -7    3.86    2.43
  10   2   7    4.62    1.97
  15  -3  -7    4.65    3.24
 -15  -3   7   -0.89    2.85
  15  -3  -7    5.78    2.12
  15  -3  -7    7.39    2.57
 -15   3   7    3.43    2.69
  15   3  -7    7.31    2.88
  14  -3  -7    0.77    2.09
  14  -3  -7    0.64    2.73
 -14  -3   7    0.60    2.90
 -14  -3   7    0.14    2.31
  14  -3  -7    0.89    1.97
  14   3  -7    0.65    2.33
 -14   3   7    0.39    2.41
 -14   3   7    0.51    2.14
 -14   3   7    2.25    3.27
  14   3  -7    2.66    2.83
  14   3  -7    1.60    2.13
 -13  -3   7    9.28    3.60
 -13  -3   7   15.50    2.63
  13  -3  -7   11.85    2.00
 -13  -3   7   10.41    2.01
  13  -3  -7   11.15    2.43
  13  -3  -7   12.02    1.64
 -13   3   7   10.33    1.83
  13   3  -7   11.65    2.09
 -13   3   7   10.23    2.35
  13   3  -7    7.19    2.52
  13   3  -7   11.60    2.10
 -13   3   7    9.49    2.47
  12  -3  -7    3.74    1.55
 -12  -3   7    3.03    1.68
  12  -3  -7    6.42    1.42
 -12  -3   7    4.76    1.67
  12  -3  -7    4.89    2.16
 -12  -3   7    5.91    3.04
 -12  -3   7    3.33    1.97
  12   3  -7    4.18    2.17
 -12   3   7    3.43    1.97
  12   3  -7    3.07    1.72
 -12   3   7    2.82    2.10
  12   3  -7    4.06    1.54
 -12   3   7    4.17    1.46
  11  -3  -7    9.27    1.14
 -11  -3   7    6.28    1.71
 -11  -3   7    6.51    1.40
  11  -3  -7    6.27    1.97
 -11  -3   7    5.91    1.45
 -11  -3   7    5.52    2.62
  11  -3  -7    6.13    1.46
 -11   3   7    5.96    1.26
  11   3  -7    5.85    1.39
 -11   3   7    7.28    1.60
 -11   3   7    5.57    1.98
  11   3  -7    4.89    1.56
  11   3  -7    5.57    1.96
 -10  -3   7    2.69    1.28
 -10  -3   7    2.37    2.15
  10  -3  -7    2.74    1.25
  10  -3  -7    2.30    0.90
  10  -3  -7    2.74    1.73
 -10  -3   7    2.55    1.21
 -10  -3   7    3.15    1.47
  10   3  -7    3.22    1.71
  10   3  -7    2.55    1.15
 -10   3   7    3.16    1.44
 -10   3   7    1.92    1.10
  10   3  -7    2.39    1.43
 -10   3   7    3.60    1.53
   9  -3  -7   28.91    2.26
  -9  -3   7   30.11    2.68
  -9  -3   7   30.48    2.12
   9  -3  -7   27.23    2.88
   9  -3  -7   28.04    1.78
  -9  -3   7   26.75    2.36
   9   3  -7   26.00    2.96
  -9   3   7   30.17    2.34
   9   3  -7   30.30    2.47
   9   3  -7   27.67    2.15
  -9   3   7   27.57    2.61
  -9   3   7   26.44    1.95
   8  -3  -7    5.10    1.40
  -8  -3   7    7.52    1.21
   8  -3  -7    5.39    1.02
  -8  -3   7    7.72    2.01
  -8  -3   7    5.60    1.13
   8  -3  -7    5.87    0.70
   8   3  -7    5.17    1.56
  -8   3   7    5.87    1.31
   8   3  -7    3.08    1.00
  -8   3   7    4.45    1.14
   8   3  -7    5.65    1.21
  -8   3   7    5.63    0.90
  -7  -3   7    5.24    1.08
  -7  -3   7    2.57    1.67
  -7  -3   7    6.30    1.05
   7  -3  -7    4.14    0.97
   7  -3  -7    5.03    1.32
   7   3  -7    6.47    1.18
   7   3  -7    5.25    0.93
  -7   3   7    6.50    1.23
   7   3  -7    6.17    1.55
  -7   3   7    8.39    1.06
  -7   3   7    5.60    0.83
   6  -3  -7   26.20    2.41
   6  -3  -7   26.19    1.80
  -6  -3   7   26.81    1.86
  -6  -3   7   26.95    1.88
  -6  -3   7   25.04    2.90
  -6   3   7   27.91    1.58
   6   3  -7   26.42    2.57
  -6   3   7   25.92    2.02
  -6   3   7   26.75    1.71
   6   3  -7   27.43    1.76
   6   3  -7   29.14    1.98
   5  -3  -7   29.14    2.11
  -5  -3   7   26.72    2.82
  -5  -3   7   29.96    1.82
  -5  -3   7   29.71    1.93
  -5   3   7   29.06    1.64
   5   3  -7   28.84    1.70
   5   3  -7   28.94    2.48
   5   3  -7   29.23    1.96
  -5   3   7   27.59    1.94
  -4  -3   7   40.26    2.11
   4  -3  -7   38.84    2.25
  -4  -3   7   39.70    2.13
   4  -3  -7   37.36    1.65
   4  -3  -7   39.40    1.85
   4   3  -7   39.89    2.03
  -4   3   7   41.49    1.87
   4   3  -7   38.93    2.63
  -4   3   7   39.83    2.17
   4   3  -7   40.47    2.18
  -3  -3   7    2.17    0.82
   3  -3  -7    2.37    0.92
  -3  -3   7    2.29    1.44
  -3  -3   7    1.96    0.95
   3   3  -7    2.37    1.25
  -3   3   7    1.85    0.41
  -3   3   7    1.49    0.59
   3   3  -7    2.56    0.92
  -3   3   7    1.70    0.77
  -2  -3   7   94.48    3.98
  -2  -3   7   92.32    3.82
   2   3  -7   96.78    4.46
   2   3  -7   96.34    3.76
   2   3  -7   93.20    3.94
   2   3  -7   93.67    4.03
  -2   3   7   86.92    3.66
  -1  -3   7   14.44    1.31
  -1  -3   7   12.66    1.07
   1   3  -7   10.97    1.70
   1   3  -7   14.68    1.27
   1   3  -7   11.94    1.17
  -1   3   7   10.50    0.97
   1   3  -7   12.89    1.10
   0  -3   7   35.47    2.12
   0  -3   7   37.10    2.19
   0   3  -7   36.21    1.79
   0   3  -7   36.30    3.13
   0   3  -7   37.64    2.23
   0   3  -7   37.80    2.27
   0   3   7   34.98    1.76
   1  -3   7    8.87    1.07
   1  -3   7    9.62    1.26
  -1   3  -7    7.75    1.85
  -1   3  -7    7.40    1.19
  -1   3  -7    7.92    1.13
  -1   3  -7    8.55    0.85
   1   3   7    8.08    0.80
   2  -3   7   17.75    1.82
   2  -3   7   25.04    1.98
  -2   3  -7   21.63    1.92
  -2   3  -7   23.86    2.23
   2   3   7   20.40    1.44
  -2   3  -7   18.71    1.98
  -2   3  -7   18.54    1.36
   3  -3   7    8.84    1.21
  -3   3  -7    9.42    1.29
  -3   3  -7    8.93    2.08
  -3   3  -7    9.66    1.34
   3   3   7    8.69    1.07
  -3   3  -7    8.72    0.89
   4  -3   7    3.44    1.18
  -4   3  -7    3.55    1.26
  -4   3  -7    3.61    2.37
  -4   3  -7    3.42    1.37
   4   3   7    3.13    0.75
   4   3   7    2.67    1.01
  -4   3  -7    3.38    0.88
   5  -3   7   22.89    2.38
   5   3   7   23.77    2.20
  -5   3  -7   20.31    1.85
   5   3   7   23.22    1.69
  -5   3  -7   26.73    1.97
  -5   3  -7   24.97    2.65
   6  -3   7   18.49    1.93
   6  -3   7   21.68    1.88
  -6   3  -7   19.76    2.05
   6   3   7   15.13    1.76
   6   3   7   16.35    1.74
  -6   3  -7   19.41    1.52
  -6   3  -7   23.68    3.70
  -6   3  -7   17.58    1.97
   7  -3   7    9.53    1.70
   7  -3   7    7.11    1.48
   7  -3   7    7.21    1.98
  -7   3  -7    9.27    1.94
   7   3   7    9.41    1.76
  -7   3  -7    8.81    1.35
   7   3   7    8.34    1.20
   8  -3   7    2.85    2.44
   8  -3   7    3.67    1.61
   8  -3   7    5.85    1.44
   8   3   7    3.99    1.37
   8   3   7    4.98    2.04
   9   3   7    7.51    1.73
  10   3   7   -5.65    1.98
 -14  -4   7    2.51    2.94
  14  -4  -7    4.24    3.61
  13  -4  -7    2.07    2.89
 -13  -4   7    8.60    2.46
  13  -4  -7    7.78    2.44
 -13  -4   7    9.85    2.28
  13  -4  -7   10.09    2.15
  13  -4  -7   15.06    2.20
  13   4  -7    4.68    2.48
 -13   4   7    8.87    2.61
  13   4  -7    7.09    3.96
 -13   4   7    7.76    3.51
 -13   4   7    6.22    2.34
  12  -4  -7   11.77    2.31
 -12  -4   7    8.13    1.98
  12  -4  -7   12.25    1.99
 -12  -4   7   27.22    7.18
 -12  -4   7   16.44    2.12
 -12  -4   7   10.33    2.85
  12  -4  -7    7.92    2.45
 -12   4   7    8.32    2.39
  12   4  -7    8.12    2.15
  12   4  -7    7.87    2.60
 -12   4   7    9.40    1.97
  12   4  -7    8.77    2.37
 -12   4   7    8.10    2.73
  11  -4  -7    3.30    2.37
 -11  -4   7    2.07    4.07
 -11  -4   7    6.42    1.65
 -11  -4   7    3.76    1.62
 -11  -4   7    0.73    2.30
  11  -4  -7    4.82    1.49
  11  -4  -7    2.69    1.83
 -11   4   7    4.79    1.95
  11   4  -7    2.57    1.74
  11   4  -7   -0.96    2.34
  11   4  -7    3.12    1.94
 -11   4   7    3.01    2.35
 -11   4   7    1.63    1.46
 -10  -4   7   -0.34    1.43
 -10  -4   7    3.40    3.46
 -10  -4   7    1.46    1.92
 -10  -4   7    0.67    1.58
  10  -4  -7    3.01    2.08
  10  -4  -7    3.37    1.55
  10  -4  -7    0.46    1.27
 -10   4   7    5.11    1.35
  10   4  -7    1.92    2.11
 -10   4   7    0.86    1.60
  10   4  -7    2.02    1.84
  10   4  -7    2.32    1.60
 -10   4   7    3.76    1.85
   9  -4  -7   17.52    2.16
   9  -4  -7   18.76    1.73
  -9  -4   7   22.08    3.39
  -9  -4   7   21.53    2.59
   9  -4  -7   22.21    2.02
  -9  -4   7   20.04    2.31
  -9  -4   7   19.38    2.00
   9   4  -7   19.45    1.87
  -9   4   7   19.57    1.63
  -9   4   7   16.05    1.67
  -9   4   7   19.00    1.93
   9   4  -7   18.28    2.39
   9   4  -7   17.13    1.92
  -8  -4   7    6.52    2.79
   8  -4  -7    4.11    1.79
  -8  -4   7    8.96    1.64
   8  -4  -7    8.40    1.09
  -8  -4   7    7.30    1.58
   8  -4  -7    6.44    1.29
  -8   4   7    8.31    1.18
  -8   4   7    5.15    1.52
  -8   4   7    7.45    1.27
   8   4  -7    6.56    2.06
   8   4  -7    6.51    1.30
   8   4  -7    6.77    1.56
  -7  -4   7    4.96    1.32
   7  -4  -7    5.18    0.88
  -7  -4   7    4.75    2.43
  -7  -4   7    5.71    1.41
   7  -4  -7    5.38    1.14
   7  -4  -7    4.29    1.63
  -7   4   7    5.80    1.48
   7   4  -7    6.31    1.19
  -7   4   7    6.57    1.21
  -7   4   7    7.07    1.05
   7   4  -7    6.68    2.00
   7   4  -7    5.05    1.50
   6  -4  -7    7.65    1.23
  -6  -4   7   11.26    2.38
  -6  -4   7    8.68    1.43
  -6  -4   7    8.75    1.37
   6  -4  -7    8.20    0.87
  -6   4   7    8.80    1.15
   6   4  -7    6.60    1.95
   6   4  -7    8.36    1.45
   6   4  -7    8.42    1.25
  -6   4   7    9.36    0.99
  -6   4   7    8.84    1.39
   5  -4  -7    7.92    0.85
  -5  -4   7    9.77    1.29
  -5  -4   7    6.58    1.32
   5  -4  -7    7.51    1.54
  -5  -4   7   11.18    2.18
   5   4  -7    8.35    1.82
  -5   4   7   11.01    1.06
  -5   4   7    7.91    1.35
   5   4  -7    6.96    1.18
   5   4  -7    6.28    1.41
   4  -4  -7   20.38    1.71
   4  -4  -7   21.80    1.46
  -4  -4   7   26.69    1.81
  -4  -4   7   22.00    2.00
  -4  -4   7   27.68    2.71
   4  -4  -7   18.55    1.53
  -4   4   7   25.44    2.17
  -4   4   7   21.39    1.70
   4   4  -7   21.49    2.22
   4   4  -7   21.17    2.22
  -3  -4   7    9.57    1.26
   3  -4  -7    9.75    0.89
  -3  -4   7   11.10    1.20
  -3   4   7    8.36    1.29
  -3   4   7    9.82    1.09
   3   4  -7    7.63    1.86
   3   4  -7   11.18    1.48
   3   4  -7   10.01    1.01
  -3   4   7   10.53    0.99
   3   4  -7    8.75    1.43
  -2  -4   7   10.76    1.18
  -2  -4   7   11.33    1.39
   2  -4  -7   10.92    0.91
   2   4  -7   10.49    2.14
  -2   4   7    8.24    1.49
  -2   4   7    8.82    0.89
   2   4  -7    9.65    1.36
   2   4  -7    8.43    1.44
  -2   4   7    9.43    1.15
   2   4  -7   10.36    1.00
  -1  -4   7   10.50    1.40
   1  -4  -7   10.96    1.04
  -1  -4   7    8.11    1.20
   1   4  -7    8.76    1.49
   1   4  -7    8.98    1.42
   1   4  -7    8.90    2.21
  -1   4   7    9.55    0.92
   1   4  -7    8.11    0.99
   0  -4   7    6.97    1.39
   0  -4   7    4.76    1.16
   0   4  -7    6.05    1.42
   0   4  -7    7.47    1.38
   0   4   7    7.04    0.92
   0   4  -7    6.95    2.25
   0   4  -7    5.92    0.88
   1  -4   7    5.30    1.33
   1  -4   7    5.60    1.22
  -1   4  -7    4.38    1.43
  -1   4  -7    4.96    0.90
  -1   4  -7    5.53    2.45
   1   4   7    6.08    0.92
  -1   4  -7    4.73    1.35
   2  -4   7    2.98    1.26
   2  -4   7    2.03    1.33
  -2   4  -7    1.97    0.90
  -2   4  -7    2.56    1.39
   2   4   7    2.34    0.90
  -2   4  -7   -0.76    1.45
  -2   4  -7    0.75    2.55
   3  -4   7   23.80    2.62
   3  -4   7   22.05    1.79
  -3   4  -7   16.95    1.91
  -3   4  -7   23.58    3.13
   3   4   7   17.48    1.84
  -3   4  -7   18.76    1.45
  -3   4  -7   19.92    1.99
   4  -4   7    6.52    1.73
   4  -4   7    5.28    1.53
  -4   4  -7    2.57    1.56
  -4   4  -7    5.12    1.15
  -4   4  -7    4.13    2.91
  -4   4  -7    6.06    1.76
   4   4   7    4.51    1.26
   5  -4   7    5.68    1.63
   5  -4   7    5.09    1.96
  -5   4  -7    6.71    3.24
  -5   4  -7    7.03    1.80
   5   4   7    5.41    1.40
  -5   4  -7    5.69    2.05
  -5   4  -7    6.55    1.31
   6  -4   7    6.01    1.84
  -6   4  -7    8.52    3.98
  -6   4  -7    6.35    1.63
  -6   4  -7    5.35    2.04
  -6   4  -7    8.55    2.31
   6   4   7    7.56    1.67
   7  -4   7    9.27    2.01
  -7   4  -7    8.78    6.14
   7   4   7   10.92    2.33
  -7   4  -7   13.56    2.80
  -8   4  -7    7.93    6.75
  -9   4  -7    1.49    9.83
  13  -5  -7    8.79    3.91
 -12  -5   7    0.39    2.62
  12  -5  -7    3.42    3.43
 -12   5   7    2.45    2.72
 -12   5   7    0.91    4.10
  11  -5  -7    0.68    2.29
 -11  -5   7    1.26    2.10
  11  -5  -7    1.56    3.25
  11  -5  -7    2.77    3.13
  11   5  -7    0.20    2.68
 -11   5   7    2.91    2.10
 -11   5   7    0.88    2.96
 -10  -5   7    3.36    1.77
  10  -5  -7    0.57    2.25
  10  -5  -7    2.84    1.93
 -10  -5   7   -0.22    1.92
  10  -5  -7    1.01    2.64
 -10  -5   7   -1.86    2.94
  10   5  -7    3.43    2.83
 -10   5   7    3.27    2.59
 -10   5   7    2.40    2.07
 -10   5   7    4.33    1.76
  10   5  -7    1.58    2.49
  10   5  -7    1.61    2.16
   9  -5  -7   11.26    2.19
   9  -5  -7   10.84    1.85
  -9  -5   7   13.75    2.76
  -9  -5   7   14.78    4.80
  -9  -5   7    7.40    2.11
  -9  -5   7   12.36    1.85
   9  -5  -7    8.49    2.62
  -9   5   7    8.74    1.97
  -9   5   7   15.88    1.85
  -9   5   7   12.69    2.44
   9   5  -7   13.03    2.98
   9   5  -7   11.31    2.12
   9   5  -7   10.06    2.36
  -8  -5   7    2.56    2.32
  -8  -5   7    8.58    4.14
   8  -5  -7    1.98    2.37
   8  -5  -7   -0.81    1.46
   8  -5  -7    0.47    1.70
  -8  -5   7    0.76    1.84
   8   5  -7    0.70    1.83
  -8   5   7    0.97    1.42
  -8   5   7    0.39    1.76
   8   5  -7    1.31    2.86
   8   5  -7    7.01    2.11
  -8   5   7    3.34    1.38
   7  -5  -7    1.18    1.30
  -7  -5   7   -1.33    3.46
  -7  -5   7   -1.27    1.57
   7  -5  -7   -0.69    2.12
   7  -5  -7   -1.72    1.45
  -7  -5   7    0.55    2.05
   7   5  -7    0.31    1.49
   7   5  -7    3.55    1.99
  -7   5   7    1.40    1.80
  -7   5   7   -0.68    1.23
   7   5  -7    0.84    2.72
   6  -5  -7   18.37    2.24
   6  -5  -7   20.69    2.22
  -6  -5   7   20.15    2.09
  -6  -5   7   28.96    4.15
  -6  -5   7   26.52    2.43
   6   5  -7   21.28    2.22
   6   5  -7   22.31    3.07
   6   5  -7   22.47    2.09
  -6   5   7   22.38    2.25
  -6   5   7   22.78    2.20
   5  -5  -7    2.64    1.18
  -5  -5   7    5.28    1.50
  -5  -5   7    4.79    1.41
   5  -5  -7    3.04    1.83
   5  -5  -7    2.23    1.17
   5   5  -7    3.58    2.50
   5   5  -7    2.09    1.86
   5   5  -7    3.94    1.69
  -5   5   7    2.70    1.17
  -5   5   7    5.91    1.90
   5   5  -7    6.04    1.19
   5   5  -7    4.57    1.37
  -4  -5   7    4.04    1.36
  -4  -5   7    3.02    1.38
   4  -5  -7    2.32    1.06
  -4   5   7    2.39    1.69
   4   5  -7    4.34    1.19
  -4   5   7    2.55    1.11
   4   5  -7    1.17    1.80
   4   5  -7    0.91    1.65
   4   5  -7    5.66    2.54
   3  -5  -7    7.15    1.13
  -3  -5   7    6.47    1.70
  -3  -5   7    5.36    1.39
  -3   5   7    6.03    1.19
   3   5  -7    5.05    1.84
   3   5  -7    9.87    1.89
   3   5  -7    6.46    2.62
   3   5  -7    6.05    1.23
  -3   5   7    6.11    1.50
  -3   5   7    6.30    2.12
  -2  -5   7   18.86    1.97
   2  -5  -7   16.21    1.89
  -2  -5   7   16.47    1.53
   2   5  -7   18.04    2.92
  -2   5   7   17.56    2.23
  -2   5   7   14.47    1.74
  -2   5   7   15.34    1.56
  -2   5   7   18.01    1.52
  -2   5   7   16.92    1.32
   2   5  -7   17.36    2.08
   2   5  -7   15.35    1.48
   2   5  -7   15.31    2.12
  -1  -5   7    4.82    1.35
  -1  -5   7    5.68    1.57
   1  -5  -7    6.37    1.22
   1   5  -7    4.49    1.82
  -1   5   7    3.14    1.81
   1   5  -7    6.68    1.94
  -1   5   7    4.16    1.42
   1   5  -7    3.53    1.11
  -1   5   7    5.69    1.16
   1   5  -7    1.96    2.74
   0  -5   7    3.93    1.36
   0  -5   7    6.66    1.83
   0  -5  -7    7.04    1.32
   0   5  -7    4.42    2.85
   0   5  -7    5.07    1.15
   0   5  -7    6.13    1.77
   0   5   7    5.04    1.23
   0   5  -7    8.04    1.96
   1  -5   7    8.25    1.87
   1  -5   7    9.66    1.65
  -1   5  -7    8.58    1.33
   1   5   7    8.61    1.42
  -1   5  -7    9.19    3.32
  -1   5  -7    7.90    2.02
  -1   5  -7    8.68    1.90
   2  -5   7   11.34    2.09
   2  -5   7    7.54    1.66
  -2   5  -7    8.50    2.09
  -2   5  -7    5.87    2.14
   2   5   7    8.85    1.59
  -2   5  -7    9.19    3.44
  -2   5  -7    7.66    1.30
   3  -5   7    5.18    1.75
   3  -5   7    4.35    2.09
   3   5   7    1.57    1.48
  -3   5  -7    7.37    1.50
  -3   5  -7    8.21    3.69
  -3   5  -7    4.15    2.38
  -3   5  -7    1.43    2.09
   4  -5   7   11.34    2.29
   4  -5   7    9.48    1.98
  -4   5  -7    9.20    4.14
  -4   5  -7    9.37    2.69
  -4   5  -7    6.97    1.71
   4   5   7    7.83    1.82
  -4   5  -7    5.40    2.16
   5  -5   7    6.76    2.16
  -5   5  -7    4.37    1.85
   5   5   7   10.69    2.19
  -5   5  -7    8.74    2.93
  -5   5  -7   11.48    4.56
   6  -5   7    4.04    2.39
   6   5   7    2.71    2.31
  -6   5  -7    7.04    5.13
  -7   5  -7    5.29    6.37
   9  -6  -7    5.24    3.47
   8  -6  -7   20.60    3.39
  -8   6   7   13.53    2.99
   8   6  -7   11.26    3.14
   7  -6  -7    7.92    3.29
   7  -6  -7   10.20    2.14
   7   6  -7    9.54    2.12
   7   6  -7    9.40    2.89
  -7   6   7    4.41    2.98
   7   6  -7    9.25    2.90
   7   6  -7   12.18    4.63
   6  -6  -7    2.27    1.90
   6   6  -7   -0.81    2.66
  -6   6   7    7.21    2.81
   6   6  -7   -0.06    1.89
   6   6  -7   -2.40    2.61
   6   6  -7   -2.02    3.70
   5  -6  -7    4.68    1.75
  -5  -6   7    5.76    2.16
  -5   6   7    3.96    2.79
   5   6  -7    7.08    2.60
   5   6  -7    6.79    1.72
  -5   6   7   -1.64    2.51
   5   6  -7   10.66    2.63
  -5   6   7    4.91    3.03
   5   6  -7    6.61    3.71
  -4  -6   7    3.15    2.11
   4  -6  -7    3.05    1.63
  -4   6   7    2.35    1.74
  -4   6   7    3.67    2.52
  -4   6   7    1.36    3.17
   4   6  -7    5.25    2.71
   4   6  -7    4.07    3.62
  -4   6   7    1.68    2.28
   4   6  -7    5.91    2.48
   4   6  -7    5.47    1.72
   3  -6  -7    4.00    1.55
  -3  -6   7    2.67    1.96
   3   6  -7    9.34    2.69
  -3   6   7    0.04    1.66
   3   6  -7    3.74    3.97
   3   6  -7    4.62    1.52
  -3   6   7    3.73    2.05
  -3   6   7    5.79    3.15
   3   6  -7    6.94    2.60
  -3   6   7    5.33    2.01
  -2  -6   7    0.71    2.01
   2  -6  -7    0.86    1.64
   2   6  -7   -1.49    2.48
  -2   6   7    3.73    1.61
   2   6  -7    1.18    2.49
  -2   6   7    0.69    1.80
   2   6  -7    1.48    1.41
  -2   6   7    2.98    2.57
   2   6  -7    4.42    3.81
  -2   6   7    0.46    2.75
  -1  -6   7    6.51    1.89
  -1  -6   7   -2.92    2.15
   1  -6  -7    2.36    1.70
   1   6  -7    0.26    1.45
  -1   6   7    1.32    1.79
  -1   6   7    0.24    1.72
  -1   6   7    5.20    2.48
   1   6  -7   -4.27    3.74
   1   6  -7    0.46    2.62
   1   6  -7    1.60    2.61
   0  -6   7    7.14    1.93
   0  -6   7    2.04    2.28
   0  -6  -7    4.47    1.94
   0   6  -7    4.26    2.73
   0   6  -7    3.54    1.73
   0   6  -7    5.77    2.69
   0   6  -7   14.56    4.10
   0   6   7    3.27    1.92
   1  -6   7   10.38    2.17
  -1  -6  -7   12.99    2.18
  -1   6  -7   16.76    4.51
  -1   6  -7    8.37    2.89
   1   6   7   10.63    2.17
  -1   6  -7    8.25    1.94
   2  -6   7    1.51    2.24
   2   6   7    4.25    2.28
  -2   6  -7    3.37    3.10
  -2   6  -7    1.96    4.82
  -2   6  -7    0.01    1.94
   3  -6   7    1.82    2.42
  -3   6  -7   -1.80    3.45
  -3   6  -7   -0.68    4.66
   3   6   7   -2.01    2.49
  -3   6  -7   -2.43    2.01
   4  -6   7    0.30    2.80
  -4   6  -7    1.76    4.12
   4   6   7    2.70    3.02
   2   7  -7    7.80    4.33
  17   0  -8    2.00    2.79
  17   0  -8    0.14    3.01
 -16   0   8   21.45    3.23
  16   0  -8   27.62    3.53
  16   0  -8   35.84    2.80
  16   0  -8   35.15    2.98
  15   0  -8    2.80    2.58
 -15   0   8    2.17    3.20
 -15   0   8    2.22    2.25
  15   0  -8   -1.18    1.72
  15   0  -8   -0.69    1.75
 -15   0   8   -1.57    2.24
  14   0  -8   -1.61    1.72
 -14   0   8   -0.52    1.65
 -14   0   8   -0.13    2.60
 -14   0   8    0.63    1.88
  14   0  -8   -0.69    1.40
  14   0  -8    2.81    2.58
 -13   0   8   19.08    2.33
  13   0  -8   20.52    2.21
  13   0  -8   16.82    2.26
  13   0  -8   16.96    1.89
 -13   0   8   16.95    1.79
 -13   0   8   21.83    2.03
  12   0  -8   37.80    2.38
  12   0  -8   38.42    3.40
 -12   0   8   38.24    2.92
  12   0  -8   38.22    2.75
 -12   0   8   42.72    3.39
 -12   0   8   41.10    2.62
  11   0  -8   -0.38    1.16
  11   0  -8   -0.75    1.47
 -11   0   8    1.49    1.03
  11   0  -8   -0.42    0.77
 -11   0   8   -0.50    1.02
 -11   0   8    1.14    1.37
 -10   0   8    6.07    0.99
  10   0  -8    7.56    0.85
  10   0  -8    6.05    1.46
 -10   0   8    9.36    1.47
  10   0  -8    6.03    1.11
 -10   0   8    4.84    1.09
  -9   0   8  138.48    5.74
  -9   0   8  140.54    5.55
   9   0  -8  140.58    5.53
   9   0  -8  141.55    5.82
   9   0  -8  131.99    5.39
  -9   0   8  141.58    5.50
  -8   0   8   -0.19    0.71
  -8   0   8    0.16    0.87
   8   0  -8   -0.23    0.77
   8   0  -8   -0.54    0.44
   8   0  -8   -0.86    1.00
  -7   0   8   12.75    1.22
   7   0  -8   13.04    1.18
  -7   0   8   11.74    1.13
   7   0  -8   12.45    1.20
  -7   0   8   13.12    0.87
   7   0  -8   12.24    0.85
   6   0  -8   52.45    2.24
  -6   0   8   51.06    2.22
  -6   0   8   49.84    2.09
  -6   0   8   52.01    2.51
   6   0  -8   53.26    2.48
   5   0  -8    2.89    0.55
   5   0  -8    2.53    0.77
  -5   0   8    3.00    0.55
  -5   0   8    2.82    0.43
  -5   0   8    3.16    0.70
   4   0  -8    3.09    0.74
  -4   0   8    3.48    0.56
  -4   0   8    3.17    0.41
  -4   0   8    2.72    0.75
  -3   0   8   88.25    3.61
  -3   0   8   86.70    3.45
  -3   0   8   87.47    3.43
   3   0  -8   89.05    3.56
   2   0  -8   13.49    1.20
   2   0  -8   14.15    0.88
  -2   0   8   15.08    0.99
  -2   0   8   15.30    1.32
   1   0  -8    3.53    0.46
   1   0  -8    3.14    0.65
   1   0  -8    3.47    0.60
   1   0  -8    3.65    0.38
  -1   0   8    4.12    0.59
   0   0   8    3.15    0.68
   0   0  -8    3.51    0.97
   0   0  -8    2.22    0.54
   1   0   8    1.47    0.72
  -1   0  -8    1.38    0.55
   2   0   8   19.97    1.54
   3   0   8   14.33    1.23
  -4   0  -8    0.78    1.44
   4   0   8    0.29    0.90
  -4   0  -8    0.29    0.77
  -5   0  -8   47.27    3.57
   5   0   8   41.29    2.60
   5   0   8   41.51    1.97
  -5   0  -8   45.24    2.35
  -6   0  -8    8.35    1.22
   6   0   8    9.12    1.40
   6   0   8    4.87    1.15
   6   0   8    7.43    0.84
  -7   0  -8    1.85    1.54
   7   0   8    1.27    1.72
   7   0   8    1.76    1.34
   7   0   8    0.98    0.75
   8   0   8    1.50    0.93
   8   0   8    2.28    1.57
  -8   0  -8   -0.17    1.85
   8   0   8    0.59    2.02
   9   0   8    7.08    1.83
   9   0   8    9.95    2.27
   9   0   8    3.26    1.10
   9   0   8    2.80    1.85
  -9   0  -8    0.45    2.09
 -10   0  -8   -2.85    2.58
  10   0   8   -2.05    2.54
  17  -1  -8    5.96    3.15
  17   1  -8    4.77    3.13
  16  -1  -8    1.78    2.23
  16  -1  -8    2.65    2.48
  16  -1  -8    2.09    2.94
 -16  -1   8    3.61    3.13
 -16   1   8    3.27    2.80
  16   1  -8    6.30    2.57
  16   1  -8   -2.60    2.48
  15  -1  -8   -2.81    2.57
 -15  -1   8   -0.05    2.12
  15  -1  -8   -0.51    1.74
  15  -1  -8   -1.93    2.06
 -15  -1   8    1.87    3.21
 -15  -1   8    0.28    2.41
  15   1  -8   -2.87    2.03
 -15   1   8   -0.73    2.06
  15   1  -8   -0.58    2.78
 -15   1   8    0.31    3.20
 -15   1   8    0.38    2.28
  15   1  -8   -0.81    1.91
  14  -1  -8   17.09    2.42
  14  -1  -8   17.83    1.73
 -14  -1   8   14.67    2.19
 -14  -1   8   22.05    3.06
  14  -1  -8   14.90    1.99
 -14  -1   8   14.10    2.12
  14   1  -8   17.11    2.00
  14   1  -8   16.66    1.96
 -14   1   8    8.99    2.64
 -14   1   8   15.54    2.24
 -14   1   8   14.28    2.01
  14   1  -8   16.32    2.52
  13  -1  -8    1.60    1.99
 -13  -1   8    3.61    2.26
 -13  -1   8    2.40    1.68
 -13  -1   8    1.48    1.63
  13  -1  -8    1.18    1.48
  13  -1  -8    1.35    1.14
  13   1  -8    0.69    2.03
 -13   1   8    1.45    1.57
  13   1  -8    2.18    1.56
  13   1  -8    0.98    1.36
 -13   1   8    0.76    1.46
 -13   1   8    1.77    2.09
 -12  -1   8    5.01    1.33
 -12  -1   8    6.30    1.86
  12  -1  -8    4.54    0.99
  12  -1  -8    6.11    1.90
  12  -1  -8    2.79    1.32
 -12  -1   8    6.14    1.38
 -12   1   8    5.72    1.40
  12   1  -8    3.81    1.47
 -12   1   8    2.42    1.79
  12   1  -8    3.83    1.89
  12   1  -8    4.40    1.17
 -12   1   8    3.05    1.27
  11  -1  -8    8.46    0.95
 -11  -1   8    6.90    1.27
  11  -1  -8    7.15    1.23
  11  -1  -8    8.19    1.83
 -11  -1   8    7.77    1.71
 -11  -1   8    7.78    1.22
 -11   1   8    6.00    1.19
  11   1  -8    7.39    1.05
 -11   1   8    7.49    1.31
  11   1  -8    7.54    1.64
  11   1  -8    7.68    1.33
 -11   1   8    7.83    1.61
 -10  -1   8   12.15    1.47
 -10  -1   8    9.10    1.22
  10  -1  -8   10.09    1.15
 -10  -1   8   11.29    1.56
  10  -1  -8   11.59    1.25
  10  -1  -8   12.84    1.76
 -10  -1   8   12.87    1.20
 -10   1   8   11.03    1.25
  10   1  -8    9.43    1.56
 -10   1   8   11.98    1.48
  10   1  -8   11.65    1.35
  10   1  -8   11.95    1.25
 -10   1   8   12.46    1.18
  -9  -1   8   19.35    1.40
   9  -1  -8   15.05    1.05
   9  -1  -8   16.28    1.73
  -9  -1   8   14.55    1.57
   9  -1  -8   17.42    1.59
  -9   1   8   16.55    1.97
   9   1  -8   18.99    2.12
   9   1  -8   18.51    1.32
  -9   1   8   14.80    1.66
  -9   1   8   17.26    1.48
   9   1  -8   18.63    1.71
  -8  -1   8   19.01    1.99
  -8  -1   8   15.88    1.39
   8  -1  -8   15.88    1.48
   8  -1  -8   16.90    1.49
  -8   1   8   15.62    1.45
   8   1  -8   15.61    1.20
  -8   1   8   15.20    1.80
  -8   1   8   13.48    1.31
   8   1  -8   18.05    1.50
   8   1  -8   17.22    1.93
  -7  -1   8   47.64    2.23
  -7  -1   8   47.10    2.71
   7  -1  -8   46.12    2.54
  -7  -1   8   53.89    2.22
   7  -1  -8   47.29    2.24
   7   1  -8   51.01    2.30
   7   1  -8   51.49    2.61
  -7   1   8   48.44    2.19
   7   1  -8   46.68    2.14
  -7   1   8   47.43    2.49
  -6  -1   8   13.71    1.12
   6  -1  -8   10.83    1.17
   6  -1  -8   12.13    1.07
  -6  -1   8   11.89    1.05
  -6  -1   8   11.24    1.29
   6   1  -8   13.98    1.60
  -6   1   8   11.73    1.01
  -6   1   8   11.89    1.02
   6   1  -8   10.79    0.95
   6   1  -8   11.72    1.16
  -5  -1   8   20.26    1.26
   5  -1  -8   22.42    1.53
   5  -1  -8   19.64    1.59
  -5  -1   8   21.44    1.24
  -5  -1   8   18.97    1.78
  -5   1   8   18.28    1.19
  -5   1   8   18.84    1.43
   5   1  -8   21.33    1.26
   5   1  -8   20.12    1.64
  -4  -1   8   45.03    2.01
  -4  -1   8   46.50    2.00
   4  -1  -8   45.97    1.95
   4  -1  -8   43.48    2.07
  -4  -1   8   46.78    2.44
  -4   1   8   40.86    2.11
  -4   1   8   45.71    1.92
   4   1  -8   46.92    2.02
   4   1  -8   46.84    2.34
  -3  -1   8   65.60    3.06
   3  -1  -8   66.13    2.75
  -3  -1   8   71.71    2.76
  -3  -1   8   63.10    2.71
  -3   1   8   64.32    2.62
  -3   1   8   59.50    2.74
   3   1  -8   69.24    2.71
   3   1  -8   67.60    2.98
  -2  -1   8    2.36    0.60
  -2  -1   8    2.81    0.89
  -2  -1   8    2.48    0.63
   2   1  -8    2.91    0.93
   2   1  -8    3.18    0.63
   1   1  -8    0.75    0.90
   1   1  -8    1.40    0.43
   1   1  -8    0.74    0.73
   0  -1   8  100.78    4.00
   0   1  -8   96.59    3.82
   0   1  -8  100.60    3.98
   0   1   8   97.39    3.94
   0   1  -8   95.61    4.16
   1  -1   8   26.16    1.73
   1   1   8   26.42    1.64
  -1   1  -8   25.46    1.44
  -1   1  -8   24.97    1.65
  -1   1  -8   28.17    2.05
  -1   1  -8   26.66    1.27
   2  -1   8   30.48    1.87
  -2   1  -8   28.86    1.43
  -2   1  -8   30.60    1.62
  -2   1  -8   28.96    1.81
  -2   1  -8   31.92    2.45
   2   1   8   31.62    1.80
   3  -1   8    3.98    0.93
  -3   1  -8    4.34    0.60
  -3   1  -8    5.08    1.38
   3   1   8    4.88    0.92
  -3   1  -8    5.30    0.93
  -3   1  -8    4.38    0.75
   4  -1   8   20.10    1.86
   4   1   8   20.47    1.56
  -4   1  -8   18.75    1.32
  -4   1  -8   16.13    1.87
  -4   1  -8   19.77    1.51
   4   1   8   22.68    1.79
   5  -1   8    2.78    1.18
  -5   1  -8    2.53    0.70
  -5   1  -8    2.11    1.09
  -5   1  -8    3.61    1.01
  -5   1  -8    0.47    2.19
   5   1   8    2.96    1.08
   5   1   8    2.64    0.82
   6  -1   8   20.51    1.78
   6  -1   8   18.17    1.49
   6   1   8   15.55    1.77
   6   1   8   18.12    2.05
  -6   1  -8   23.92    1.58
  -6   1  -8   16.92    1.54
  -6   1  -8   21.75    1.78
   7  -1   8   11.41    1.63
   7  -1   8   12.28    1.15
  -7   1  -8   12.53    1.71
  -7   1  -8   12.58    1.21
   7   1   8   10.92    1.52
   7   1   8   16.33    1.44
   8  -1   8    1.09    1.02
   8  -1   8    0.15    1.56
   8  -1   8   -0.17    1.80
  -8   1  -8    0.30    1.14
   8   1   8    1.33    1.55
  -8   1  -8    0.79    1.91
   8   1   8    0.56    1.28
   9  -1   8    0.95    1.24
   9  -1   8    0.65    2.67
   9   1   8    0.45    1.55
  -9   1  -8    1.62    2.39
   9   1   8   -0.45    1.92
  16  -2  -8   12.85    2.81
  16   2  -8    9.22    2.93
  16   2  -8   14.87    3.08
 -16   2   8    8.59    3.14
 -15  -2   8    2.68    2.35
  15  -2  -8    0.68    1.96
  15  -2  -8    1.99    2.16
  15  -2  -8    0.38    2.83
 -15  -2   8    5.16    2.97
  15   2  -8    0.50    2.38
  15   2  -8    2.71    2.86
 -15   2   8    8.74    3.61
  15   2  -8    4.40    2.51
 -15   2   8    8.15    2.38
 -14  -2   8   10.38    3.56
  14  -2  -8    2.30    1.94
 -14  -2   8   -1.11    1.89
  14  -2  -8    2.17    1.60
  14  -2  -8    4.78    2.43
 -14  -2   8    0.22    2.31
  14   2  -8    7.74    2.70
  14   2  -8    1.55    1.78
 -14   2   8    1.94    1.90
 -14   2   8    3.93    2.10
  14   2  -8   -1.29    1.93
 -14   2   8    3.11    2.67
 -13  -2   8    7.88    2.00
 -13  -2   8   12.46    1.89
 -13  -2   8   14.39    3.05
  13  -2  -8   11.11    1.79
  13  -2  -8    9.39    2.24
  13  -2  -8   10.59    1.44
 -13   2   8    8.59    2.22
  13   2  -8    9.10    1.94
  13   2  -8   11.53    1.76
 -13   2   8   11.99    2.01
  13   2  -8   10.68    2.36
 -13   2   8   10.85    1.63
 -12  -2   8   22.55    2.39
  12  -2  -8   14.74    1.33
  12  -2  -8   15.80    2.15
 -12  -2   8   19.07    2.63
  12  -2  -8   17.90    1.65
 -12  -2   8   18.96    1.82
 -12  -2   8   18.87    1.81
  12   2  -8   15.62    1.62
 -12   2   8   15.92    1.60
 -12   2   8   16.29    1.87
 -12   2   8   14.88    2.07
  12   2  -8   16.04    1.91
  12   2  -8   15.74    2.30
 -11  -2   8    0.73    1.24
  11  -2  -8    1.23    1.59
 -11  -2   8   -1.89    1.30
 -11  -2   8    1.40    2.00
  11  -2  -8    0.03    0.78
 -11  -2   8   -0.83    1.04
  11  -2  -8    0.16    1.29
 -11   2   8    1.26    1.53
  11   2  -8    0.97    1.68
  11   2  -8   -1.91    1.36
  11   2  -8    0.18    1.10
 -11   2   8    0.28    1.24
 -11   2   8   -0.05    1.07
  10  -2  -8   10.69    1.13
 -10  -2   8   14.41    1.42
  10  -2  -8   13.33    1.40
 -10  -2   8   14.37    1.75
  10  -2  -8    9.91    1.74
 -10  -2   8   15.07    2.07
 -10  -2   8   11.75    1.32
  10   2  -8   12.62    1.22
 -10   2   8   12.63    1.69
 -10   2   8   11.48    1.18
  10   2  -8    9.62    1.71
 -10   2   8   15.45    1.44
  10   2  -8   13.39    1.44
   9  -2  -8   72.98    3.87
  -9  -2   8   72.55    4.42
   9  -2  -8   77.15    3.53
  -9  -2   8   80.96    3.54
  -9   2   8   76.85    3.38
   9   2  -8   78.57    3.46
   9   2  -8   82.65    4.03
   9   2  -8   85.95    3.62
  -9   2   8   78.61    3.53
  -8  -2   8   40.67    3.07
  -8  -2   8   42.32    2.25
   8  -2  -8   41.57    2.25
   8  -2  -8   38.78    2.72
   8   2  -8   44.55    2.38
  -8   2   8   38.96    2.60
  -8   2   8   41.76    2.20
   8   2  -8   42.86    2.14
   8   2  -8   43.78    2.72
  -8   2   8   38.68    2.06
  -7  -2   8   24.11    2.51
   7  -2  -8   25.82    2.13
  -7  -2   8   24.17    1.75
   7  -2  -8   25.03    1.68
  -7  -2   8   28.73    1.68
   7   2  -8   28.01    1.58
  -7   2   8   27.20    1.53
   7   2  -8   25.66    1.78
   7   2  -8   27.00    2.22
  -7   2   8   21.78    1.66
  -6  -2   8    4.89    1.33
  -6  -2   8    3.65    0.85
  -6  -2   8    2.51    0.82
   6  -2  -8    3.39    0.92
  -6   2   8    3.38    0.69
   6   2  -8    2.54    1.22
   6   2  -8    2.60    0.67
  -6   2   8    2.49    0.98
   6   2  -8    3.40    0.87
   5  -2  -8   18.56    1.28
  -5  -2   8   16.75    1.41
  -5  -2   8   19.43    2.18
  -5  -2   8   20.60    1.45
   5  -2  -8   22.91    1.61
   5   2  -8   21.25    1.32
  -5   2   8   18.11    1.63
  -5   2   8   19.28    1.22
   5   2  -8   20.92    1.53
   5   2  -8   24.48    2.01
  -4  -2   8    9.25    1.34
   4  -2  -8    9.40    0.92
  -4  -2   8   10.47    0.92
  -4  -2   8    9.78    1.13
   4  -2  -8   10.24    0.93
  -4   2   8    9.87    0.89
   4   2  -8    9.19    0.93
   4   2  -8    9.09    1.25
  -4   2   8   10.34    1.00
  -3  -2   8   39.55    1.95
  -3  -2   8   38.09    1.89
  -3  -2   8   38.56    2.45
   3   2  -8   38.69    1.93
   3   2  -8   36.68    2.35
  -2  -2   8   14.08    1.38
  -2  -2   8   12.36    1.36
  -2  -2   8   18.73    1.64
   2   2  -8   15.74    1.45
   2   2  -8   18.01    1.31
  -2   2   8   13.32    0.83
  -1  -2   8    4.59    0.93
  -1  -2   8    2.44    0.76
   1   2  -8    3.74    0.57
   1   2  -8    3.69    1.24
   1   2  -8    2.72    0.78
  -1   2   8    3.21    0.50
   1   2  -8    4.40    0.84
   0  -2   8   19.12    1.63
   0  -2   8   19.77    1.55
   0   2  -8   17.88    1.15
   0   2   8   17.56    1.16
   0   2  -8   20.20    1.65
   0   2  -8   19.21    1.47
   0   2  -8   21.02    1.73
   0   2   8   17.35    1.27
   1  -2   8   14.33    1.53
  -1   2  -8   18.27    1.86
   1   2   8   13.20    1.32
  -1   2  -8   14.09    1.64
  -1   2  -8   14.69    1.14
  -1   2  -8   14.48    1.50
   1   2   8   12.90    1.13
   2  -2   8    5.36    1.10
   2   2   8    5.76    0.91
   2   2   8    5.93    0.77
  -2   2  -8    4.10    1.04
  -2   2  -8    6.44    1.73
  -2   2  -8    6.19    1.01
  -2   2  -8    5.25    0.67
   3  -2   8   12.23    1.28
  -3   2  -8   10.92    1.21
   3   2   8   11.30    1.31
  -3   2  -8   11.66    1.24
  -3   2  -8   15.98    1.97
  -3   2  -8   15.47    1.23
   3   2   8   13.30    1.13
   4  -2   8   10.12    1.38
  -4   2  -8   10.00    0.94
   4   2   8    8.99    1.06
   4   2   8   11.37    1.14
  -4   2  -8   11.76    1.18
  -4   2  -8   10.18    1.33
  -4   2  -8   12.56    2.11
   5  -2   8   20.82    1.79
   5   2   8   17.34    1.45
  -5   2  -8   21.49    1.62
  -5   2  -8   20.36    1.69
   5   2   8   16.77    1.81
  -5   2  -8   19.60    2.64
  -5   2  -8   15.73    1.60
   6  -2   8   23.05    2.03
   6   2   8   25.34    2.19
  -6   2  -8   21.71    1.91
   6   2   8   19.73    1.99
  -6   2  -8   26.28    1.99
  -6   2  -8   19.19    1.79
  -6   2  -8   35.28    3.89
   7  -2   8   11.90    1.36
   7  -2   8    9.45    1.73
  -7   2  -8   10.33    1.32
  -7   2  -8   15.25    2.28
  -7   2  -8    9.73    1.94
   7   2   8   10.81    1.49
   7   2   8   13.44    1.66
   8  -2   8    2.54    2.17
   8  -2   8   -0.41    1.32
   8  -2   8   -0.36    1.72
  -8   2  -8    0.20    2.13
   8   2   8    2.62    1.62
   8   2   8    3.83    1.82
   9   2   8   16.45    2.23
  10   2   8   -1.66    2.80
  15  -3  -8    1.91    2.62
  15  -3  -8   10.00    3.24
 -15  -3   8    4.16    2.84
  15   3  -8    6.33    2.81
 -15   3   8   -0.70    2.49
  14  -3  -8    8.98    2.91
 -14  -3   8    3.25    3.04
  14  -3  -8    9.84    2.31
 -14  -3   8   10.02    2.27
  14  -3  -8    5.93    1.78
  14   3  -8    7.18    2.46
 -14   3   8    5.91    2.58
 -14   3   8    6.25    3.30
  14   3  -8    6.87    2.81
 -14   3   8    3.38    2.26
  14   3  -8   11.70    2.58
  13  -3  -8    2.76    1.93
 -13  -3   8   -1.49    1.81
 -13  -3   8   -1.19    3.56
 -13  -3   8   -2.63    1.87
  13  -3  -8    0.87    1.30
 -13  -3   8    3.39    2.40
  13  -3  -8   -1.08    2.34
  13   3  -8   -0.46    2.09
  13   3  -8   -0.11    1.80
 -13   3   8    2.09    1.77
 -13   3   8   -1.33    2.20
  13   3  -8    1.60    2.60
 -13   3   8    1.93    2.64
  12  -3  -8    2.59    2.07
 -12  -3   8    4.57    1.67
 -12  -3   8    6.72    1.71
  12  -3  -8    3.93    1.78
 -12  -3   8    2.22    3.14
  12  -3  -8    4.20    1.06
 -12  -3   8    6.90    1.93
 -12   3   8    5.05    1.50
  12   3  -8    7.88    2.39
 -12   3   8    4.39    1.89
  12   3  -8    5.65    1.71
  12   3  -8    5.12    1.87
 -12   3   8    2.06    2.10
 -11  -3   8    2.59    1.67
 -11  -3   8    0.99    2.82
 -11  -3   8    5.49    1.45
  11  -3  -8    2.28    0.83
 -11  -3   8    3.73    1.43
  11  -3  -8    1.22    1.59
  11  -3  -8    3.32    1.90
  11  -3  -8    2.94    1.06
  11   3  -8    2.64    1.36
 -11   3   8   -0.68    1.90
  11   3  -8    3.19    2.07
 -11   3   8    2.07    1.59
  11   3  -8    1.53    1.61
 -11   3   8    2.19    1.29
 -10  -3   8    9.43    1.38
  10  -3  -8    8.77    1.91
 -10  -3   8   11.17    2.69
  10  -3  -8    7.73    1.47
 -10  -3   8    8.54    1.42
 -10  -3   8    9.62    1.62
 -10   3   8    9.48    1.51
 -10   3   8    7.93    1.82
  10   3  -8    9.50    1.47
  10   3  -8   18.16    2.17
 -10   3   8    8.54    1.33
  10   3  -8    9.25    1.63
  -9  -3   8    7.76    1.43
   9  -3  -8    8.60    1.28
  -9  -3   8   10.28    2.34
   9  -3  -8    9.19    1.69
  -9  -3   8    4.80    1.28
   9   3  -8    8.91    1.50
   9   3  -8   10.14    1.29
  -9   3   8    8.64    1.16
   9   3  -8    8.76    1.87
  -9   3   8    9.84    1.27
  -9   3   8   11.66    1.66
  -8  -3   8   -0.80    1.88
   8  -3  -8    0.08    1.00
  -8  -3   8   -1.41    1.15
  -8  -3   8    0.61    1.04
   8  -3  -8    0.09    1.41
  -8   3   8    1.10    0.88
   8   3  -8    2.00    1.52
   8   3  -8    0.46    1.21
  -8   3   8    1.17    1.15
   8   3  -8    0.56    0.93
  -8   3   8    2.52    1.27
  -7  -3   8   29.02    2.05
   7  -3  -8   23.61    2.48
  -7  -3   8   30.88    3.55
  -7  -3   8   30.44    2.16
   7  -3  -8   25.53    1.93
  -7   3   8   30.80    2.54
  -7   3   8   28.11    1.95
   7   3  -8   30.57    2.26
   7   3  -8   32.44    2.92
   7   3  -8   30.56    2.00
  -7   3   8   29.15    1.81
  -6  -3   8   15.78    1.30
  -6  -3   8   16.19    1.73
   6  -3  -8   17.37    1.59
  -6  -3   8   17.28    1.99
   6   3  -8   14.03    1.36
   6   3  -8   16.29    1.51
  -6   3   8   14.02    1.36
  -6   3   8   18.79    2.00
   6   3  -8   14.64    1.69
  -6   3   8   13.90    1.48
   5  -3  -8    4.43    0.76
   5  -3  -8    4.22    1.15
  -5  -3   8    3.88    0.97
  -5  -3   8    4.69    0.94
  -5   3   8    3.74    0.80
  -5   3   8    3.82    1.02
   5   3  -8    2.63    1.50
   5   3  -8    2.53    0.87
   5   3  -8    2.21    1.05
   4  -3  -8   15.09    1.23
   4  -3  -8   16.86    1.33
  -4  -3   8   15.95    1.64
  -4  -3   8   16.17    1.57
  -4  -3   8   19.05    1.96
  -4   3   8   17.35    1.33
   4   3  -8   17.32    1.69
   4   3  -8   16.02    1.77
  -4   3   8   18.50    1.76
  -3  -3   8   50.39    2.60
  -3  -3   8   48.37    3.44
  -3  -3   8   53.99    2.62
   3   3  -8   50.70    2.60
  -3   3   8   47.91    2.07
   3   3  -8   50.01    3.12
  -2  -3   8    9.28    1.22
  -2  -3   8   10.94    1.11
  -2   3   8    7.86    0.91
   2   3  -8   15.02    1.75
   2   3  -8   12.14    1.26
   2   3  -8    8.90    1.13
   2   3  -8    9.17    0.86
  -1  -3   8   -0.14    0.97
  -1  -3   8    0.51    0.85
   1   3  -8    0.63    0.68
   1   3  -8    0.82    1.19
   1   3  -8    0.31    1.04
  -1   3   8   -0.21    0.56
   1   3  -8   -0.95    1.56
   0  -3   8   64.18    3.12
   0  -3   8   64.02    3.08
   0   3  -8   62.13    3.18
   0   3  -8   65.88    3.05
   0   3   8   60.20    2.68
   0   3  -8   62.80    4.01
   0   3  -8   60.52    2.74
   1  -3   8    7.89    1.18
   1  -3   8    9.52    1.40
   1   3   8    8.55    0.89
  -1   3  -8   15.55    2.18
  -1   3  -8    7.37    1.17
  -1   3  -8    7.82    1.28
  -1   3  -8    7.61    0.89
   2  -3   8   13.51    1.39
   2  -3   8   15.61    1.61
  -2   3  -8   14.06    1.49
   2   3   8   13.52    1.41
  -2   3  -8   15.55    1.41
  -2   3  -8   13.82    1.54
  -2   3  -8   14.42    2.37
   2   3   8   14.21    1.50
   3  -3   8    0.72    1.15
  -3   3  -8    2.09    2.19
  -3   3  -8   -0.78    1.24
  -3   3  -8    0.49    1.28
   3   3   8    0.06    0.86
  -3   3  -8    0.38    0.83
   3   3   8   -0.41    0.87
   4  -3   8   19.52    1.71
  -4   3  -8   21.11    2.68
   4   3   8   15.99    1.65
   4   3   8   17.55    1.93
  -4   3  -8   16.94    1.33
  -4   3  -8   19.09    1.76
  -4   3  -8   17.98    1.76
  -5   3  -8   11.57    1.68
   5   3   8    9.59    1.43
  -5   3  -8   13.98    1.75
  -5   3  -8   14.63    2.89
  -5   3  -8   10.11    1.27
   6  -3   8   10.33    1.84
  -6   3  -8   14.11    3.88
   6   3   8    9.11    1.57
   6   3   8    8.48    1.29
  -6   3  -8   11.41    2.05
  -6   3  -8    8.04    1.34
  -6   3  -8    9.71    2.02
   7  -3   8   10.06    1.93
  -7   3  -8   10.99    2.00
   7   3   8    8.74    1.45
  -7   3  -8    7.21    2.17
   7   3   8    9.85    1.99
  -7   3  -8    0.21    2.24
  -7   3  -8   21.69    5.71
   8   3   8   14.80    2.41
  -8   3  -8   34.64    6.05
   8   3   8   21.03    2.03
   9   3   8    2.06    2.02
  14  -4  -8    0.62    3.51
 -14  -4   8   -2.09    2.71
 -14   4   8    4.43    4.35
  13  -4  -8    0.75    2.56
 -13  -4   8    4.61    2.25
 -13  -4   8    1.14    2.21
  13  -4  -8    7.32    3.02
 -13   4   8    1.06    2.29
  13   4  -8    0.53    2.56
  13   4  -8   -1.62    2.91
 -13   4   8    4.92    2.70
 -13   4   8   -0.07    3.20
  12  -4  -8    6.96    1.81
 -12  -4   8   12.07    2.94
 -12  -4   8    7.57    2.00
  12  -4  -8    3.23    2.71
  12  -4  -8    6.81    1.54
  12  -4  -8    4.59    2.23
 -12  -4   8    5.21    2.04
  12   4  -8    5.13    2.23
 -12   4   8    7.63    2.69
  12   4  -8    6.87    2.82
 -12   4   8    8.26    2.26
 -12   4   8    6.79    2.11
  12   4  -8    8.94    2.40
  11  -4  -8    2.84    1.41
  11  -4  -8    2.77    1.91
 -11  -4   8    4.91    2.25
 -11  -4   8    4.32    1.69
 -11  -4   8    3.82    4.25
  11  -4  -8    2.69    2.49
 -11  -4   8    2.10    1.86
  11   4  -8    8.47    1.90
  11   4  -8    4.36    2.71
 -11   4   8    4.47    1.68
 -11   4   8    2.28    2.32
  11   4  -8    0.29    2.13
 -11   4   8    2.47    1.84
  10  -4  -8   11.14    2.40
 -10  -4   8   13.71    1.82
 -10  -4   8   10.90    2.00
 -10  -4   8   17.37    3.96
  10  -4  -8   11.41    1.87
 -10   4   8   12.06    1.71
 -10   4   8   18.65    1.96
  10   4  -8   14.36    2.10
 -10   4   8   15.39    2.32
  10   4  -8   16.32    2.67
  10   4  -8   12.01    2.04
  -9  -4   8   12.36    1.88
   9  -4  -8   13.60    2.19
  -9  -4   8   13.63    3.58
   9  -4  -8   15.12    1.66
  -9  -4   8   11.11    1.81
   9   4  -8   15.01    1.74
   9   4  -8   14.31    1.93
  -9   4   8   15.52    2.05
  -9   4   8   14.85    1.58
  -9   4   8   15.25    1.72
   9   4  -8   14.83    2.44
  -8  -4   8    2.07    2.84
  -8  -4   8    1.09    1.61
   8  -4  -8    1.63    1.25
   8  -4  -8    1.30    1.68
  -8  -4   8    5.26    1.67
  -8   4   8    2.82    1.65
   8   4  -8    2.80    1.25
  -8   4   8    2.66    1.43
   8   4  -8    1.17    2.13
   8   4  -8    0.06    1.62
  -8   4   8    1.41    1.15
  -7  -4   8    1.04    2.76
  -7  -4   8    3.95    1.45
   7  -4  -8    2.99    1.65
   7  -4  -8    3.69    1.29
  -7  -4   8    5.12    1.41
  -7   4   8    5.23    1.09
   7   4  -8    4.93    1.36
   7   4  -8    4.56    2.00
   7   4  -8    4.86    1.54
  -7   4   8    4.33    1.22
  -7   4   8    2.46    1.47
  -6  -4   8    4.75    1.27
  -6  -4   8    3.91    1.30
   6  -4  -8    3.26    1.00
  -6  -4   8    4.63    2.42
   6  -4  -8    1.28    1.54
  -6   4   8    5.63    1.11
  -6   4   8    3.99    1.08
  -6   4   8    2.83    1.53
   6   4  -8    4.02    1.85
   6   4  -8    4.10    1.51
   6   4  -8    3.55    1.11
  -5  -4   8    8.28    1.33
   5  -4  -8    6.48    0.69
  -5  -4   8    6.99    2.32
   5  -4  -8    4.81    1.54
  -5  -4   8    8.12    1.45
   5  -4  -8    5.16    0.93
   5   4  -8    4.68    1.53
   5   4  -8    8.67    2.05
  -5   4   8    6.86    1.04
  -5   4   8    6.58    1.32
   4  -4  -8    1.06    0.68
   4  -4  -8   -0.70    0.72
  -4  -4   8    0.24    2.18
   4  -4  -8    2.59    1.26
  -4  -4   8    0.79    1.07
  -4   4   8    0.56    1.18
   4   4  -8   -0.54    1.75
   4   4  -8    0.82    0.81
   4   4  -8    0.44    1.34
  -4   4   8    1.24    0.96
  -3  -4   8   21.93    2.07
  -3  -4   8   23.64    2.12
   3   4  -8   15.08    1.72
  -3   4   8   19.60    1.98
   3   4  -8   23.52    2.46
  -3   4   8   22.23    1.41
   3   4  -8   24.87    2.50
   3   4  -8   23.96    2.57
  -2  -4   8    9.61    1.42
  -2  -4   8    9.75    1.32
   2   4  -8    8.51    2.13
   2   4  -8    8.71    1.49
   2   4  -8    8.88    1.04
   2   4  -8    8.92    1.59
  -2   4   8    7.94    0.93
  -1  -4   8   15.68    1.49
  -1  -4   8   17.29    1.69
   1   4  -8   15.61    2.50
   1   4  -8   13.62    1.64
   1   4  -8   16.41    1.62
  -1   4   8   13.51    1.48
   1   4  -8   17.43    1.81
   0  -4   8   20.79    1.95
   0  -4   8   16.47    1.60
   0   4  -8   17.00    2.67
   0   4  -8   18.11    1.76
   0   4  -8   14.63    1.61
   0   4   8   15.64    1.55
   0   4  -8   16.71    1.74
   1  -4   8    7.13    1.42
   1  -4   8    6.15    1.60
  -1   4  -8    5.54    1.50
  -1   4  -8    6.74    2.74
  -1   4  -8    4.36    0.99
  -1   4  -8    7.38    1.59
   1   4   8    5.88    0.99
   2  -4   8    4.81    1.47
   2  -4   8    4.22    1.56
   2   4   8    3.19    1.06
  -2   4  -8    3.45    1.73
  -2   4  -8    3.72    1.08
  -2   4  -8    3.48    2.70
  -2   4  -8    3.15    1.57
   3  -4   8   10.80    1.72
   3  -4   8   13.04    1.95
  -3   4  -8   10.15    1.87
  -3   4  -8    9.47    1.95
  -3   4  -8   12.59    3.22
  -3   4  -8   10.98    1.32
   3   4   8   10.58    1.40
   4  -4   8   10.18    2.17
   4  -4   8    7.08    1.74
  -4   4  -8    3.70    1.87
   4   4   8    9.35    1.46
  -4   4  -8   10.43    1.96
  -4   4  -8    3.67    3.14
  -4   4  -8    7.04    1.38
   5  -4   8    7.81    2.10
   5  -4   8    5.05    1.91
  -5   4  -8    6.65    2.25
  -5   4  -8    5.87    3.64
  -5   4  -8    5.12    1.55
   5   4   8    5.97    1.70
  -5   4  -8    6.44    2.05
   6  -4   8   -0.24    2.01
   6   4   8    4.10    1.99
  -6   4  -8    9.26    4.19
  -6   4  -8    0.16    2.43
   7   4   8    0.17    2.29
  -7   4  -8    3.43    5.29
 -12  -5   8    7.06    2.63
  12  -5  -8    5.78    3.69
 -12   5   8    5.88    2.94
 -12   5   8    4.27    3.87
  11  -5  -8   15.20    3.41
 -11  -5   8   15.88    2.47
 -11   5   8   14.04    2.43
  11   5  -8   16.51    3.07
 -11   5   8   15.14    3.61
  10  -5  -8   -0.80    1.73
 -10  -5   8    4.37    2.39
  10  -5  -8    4.76    2.77
  10  -5  -8   -1.72    2.32
 -10  -5   8    6.86    2.03
 -10  -5   8    4.83    3.15
 -10   5   8    1.94    2.94
  10   5  -8    4.39    3.12
  10   5  -8    5.07    2.63
  10   5  -8    5.31    2.38
 -10   5   8    9.08    1.99
   9  -5  -8    0.56    1.48
   9  -5  -8   -0.32    2.01
   9  -5  -8   -1.54    2.67
  -9  -5   8   -0.22    1.80
  -9  -5   8   -2.71    2.07
  -9  -5   8    3.43    2.66
  -9  -5   8    3.06    4.60
  -9   5   8    5.90    2.50
   9   5  -8   -1.41    2.28
   9   5  -8   -0.16    3.31
  -9   5   8   -0.15    1.74
   9   5  -8    1.92    2.06
  -9   5   8    0.13    1.62
  -8  -5   8    1.06    2.14
  -8  -5   8    3.73    4.10
   8  -5  -8    1.75    1.34
   8  -5  -8   -0.60    2.44
   8  -5  -8    3.51    1.74
  -8  -5   8    2.40    2.39
  -8   5   8    1.74    2.15
  -8   5   8    7.77    1.56
  -8   5   8    1.80    1.54
   8   5  -8    2.47    3.01
   8   5  -8    3.52    1.92
   8   5  -8    2.50    2.15
  -7  -5   8    6.10    2.32
  -7  -5   8   11.25    4.13
   7  -5  -8    8.39    1.27
  -7  -5   8   10.80    1.99
   7  -5  -8    9.30    2.32
  -7   5   8    9.47    1.51
   7   5  -8   11.79    1.89
  -7   5   8   12.98    2.25
   7   5  -8    9.62    2.21
   7   5  -8   12.76    3.00
  -6  -5   8   11.10    3.80
   6  -5  -8    6.16    1.35
   6  -5  -8    5.41    1.11
  -6  -5   8   13.00    2.47
   6  -5  -8    7.40    1.99
  -6  -5   8    8.32    1.77
   6   5  -8    6.29    2.82
  -6   5   8    6.20    1.32
   6   5  -8    5.93    2.02
  -6   5   8    7.78    2.00
   6   5  -8    8.60    1.62
  -5  -5   8   -0.76    1.54
  -5  -5   8    0.41    1.52
   5  -5  -8    2.99    0.98
   5  -5  -8   -0.38    1.86
  -5   5   8    1.36    1.22
   5   5  -8   -0.08    1.96
   5   5  -8    0.68    1.87
   5   5  -8   -0.77    2.68
  -5   5   8    3.08    1.72
   5   5  -8    0.37    1.25
  -4  -5   8    8.81    1.67
   4  -5  -8    8.86    1.18
  -4  -5   8    8.42    1.60
   4   5  -8    7.68    1.38
  -4   5   8    8.08    1.34
   4   5  -8    9.51    2.04
   4   5  -8   10.11    2.07
  -4   5   8    8.33    1.71
   4   5  -8    7.51    2.72
  -3  -5   8    2.71    1.51
   3  -5  -8    0.74    1.19
  -3  -5   8    0.64    1.49
   3   5  -8    1.67    2.02
   3   5  -8    0.03    1.13
   3   5  -8    3.68    1.95
  -3   5   8    1.63    1.17
  -3   5   8    2.31    2.91
  -3   5   8    2.59    1.68
   3   5  -8   -0.29    2.63
  -3   5   8    2.46    1.45
   2  -5  -8    3.81    1.29
  -2  -5   8    1.53    1.53
  -2  -5   8    5.20    1.46
   2   5  -8    4.81    1.97
   2   5  -8    2.36    1.20
  -2   5   8    2.82    1.04
   2   5  -8    2.53    1.95
   2   5  -8    5.47    2.89
  -1  -5   8    0.49    1.52
  -1  -5   8    1.70    1.72
   1   5  -8    0.27    1.09
  -1   5   8    1.75    1.13
   1   5  -8    0.00    1.85
   1   5  -8    1.45    1.90
   1   5  -8    1.25    2.84
   0  -5   8    5.49    1.58
   0  -5   8    1.55    1.83
   0   5  -8    6.02    2.19
   0   5  -8    2.57    3.12
   0   5   8    6.98    1.37
   0   5  -8    5.16    1.32
   0   5  -8    3.58    2.06
   1  -5   8    3.14    1.78
   1  -5   8    3.08    1.86
  -1   5  -8    5.68    2.14
  -1   5  -8    0.63    1.97
   1   5   8    4.29    1.53
  -1   5  -8    0.39    3.34
  -1   5  -8    3.54    1.37
   2  -5   8    3.88    2.13
   2  -5   8    4.92    1.91
  -2   5  -8    8.15    3.74
  -2   5  -8    6.30    1.51
  -2   5  -8    6.66    2.32
  -2   5  -8    7.95    2.13
   2   5   8    4.62    1.49
   3  -5   8    4.88    1.97
   3  -5   8    4.88    2.02
  -3   5  -8   16.41    2.69
  -3   5  -8    5.20    1.66
   3   5   8    5.88    1.70
  -3   5  -8   -1.07    3.99
   4  -5   8   12.24    2.40
  -4   5  -8    7.67    2.01
   4   5   8   15.15    2.16
  -4   5  -8   10.82    3.10
  -4   5  -8   18.65    4.35
   5  -5   8    1.64    2.58
   5   5   8    3.47    2.27
  -5   5  -8    3.19    4.92
  -6   5  -8   18.24    6.09
   8   6  -8    1.38    2.23
   8   6  -8    1.75    3.18
   8   6  -8    4.47    2.85
   7   6  -8   -0.10    2.95
   7   6  -8   -0.65    1.91
   7   6  -8    1.09    3.00
   6  -6  -8   11.60    1.92
   6   6  -8    2.10    2.95
   6   6  -8    4.65    2.86
   6   6  -8   14.58    4.05
   6   6  -8    9.49    2.17
   5  -6  -8   10.38    1.71
   5   6  -8   11.22    3.74
  -5   6   8   11.34    2.94
  -5   6   8    7.70    3.34
   5   6  -8    9.85    1.98
   5   6  -8   11.56    2.73
   5   6  -8   11.05    3.09
   4  -6  -8   -0.09    1.62
   4   6  -8    0.52    2.78
  -4   6   8    1.38    1.97
  -4   6   8    7.47    3.46
   4   6  -8    4.83    3.74
   4   6  -8   -1.76    2.57
  -4   6   8    2.82    2.14
   4   6  -8   -3.64    1.78
   3  -6  -8    9.60    1.82
  -3  -6   8    9.97    2.08
   3   6  -8    4.26    4.00
   3   6  -8    7.01    1.82
  -3   6   8    4.35    1.90
  -3   6   8   20.00    3.01
   3   6  -8   14.00    2.89
   3   6  -8    5.74    2.88
  -3   6   8    6.27    2.19
  -2  -6   8    4.34    1.98
   2  -6  -8    3.46    1.86
   2   6  -8    1.08    2.96
   2   6  -8    3.63    2.91
   2   6  -8   11.47    3.85
   2   6  -8    2.18    1.71
  -1  -6   8    5.51    2.16
   1   6  -8   13.67    3.06
   1   6  -8    3.50    3.87
   1   6  -8    7.65    1.98
  -1   6   8    6.63    2.01
   0  -6   8    8.23    2.40
   0   6  -8    8.87    2.06
   0   6   8    7.97    2.20
   0   6  -8    5.24    3.25
   0   6  -8   12.21    4.40
   1  -6   8   -2.65    2.40
   1   6   8    3.47    2.38
  -1   6  -8   -0.60    3.32
  -1   6  -8    8.10    4.55
  -1   6  -8   -0.61    2.05
   2  -6   8    2.91    2.65
  -2   6  -8    3.55    3.57
   2   6   8    2.74    2.59
  -2   6  -8   -0.92    4.72
   3  -6   8    0.48    2.78
   3   6   8    1.80    2.82
  17   0  -9    7.74    2.91
  17   0  -9    6.67    3.06
 -16   0   9    3.36    2.89
  16   0  -9    2.97    2.49
  16   0  -9   -2.70    3.01
  16   0  -9    2.99    2.31
 -15   0   9    4.34    3.49
  15   0  -9   12.52    3.01
 -15   0   9    6.97    2.36
 -15   0   9    9.78    2.34
  15   0  -9    8.81    2.14
  15   0  -9   11.22    2.05
 -14   0   9    4.19    2.03
  14   0  -9    7.56    1.64
  14   0  -9    3.20    1.67
 -14   0   9    4.85    2.04
  14   0  -9    4.80    2.31
 -14   0   9    1.90    2.67
  13   0  -9    3.99    1.58
 -13   0   9    5.13    1.81
 -13   0   9    2.68    1.49
  13   0  -9    2.78    1.28
 -13   0   9    2.85    2.19
  13   0  -9    2.68    2.05
  12   0  -9    0.05    1.37
 -12   0   9    0.79    1.36
 -12   0   9   -0.80    1.78
  12   0  -9    0.67    0.98
 -12   0   9    0.26    1.21
  12   0  -9   -0.15    1.73
 -11   0   9    8.93    1.67
  11   0  -9   11.22    1.78
  11   0  -9   12.45    1.47
  11   0  -9   10.17    1.39
 -11   0   9    9.61    1.25
 -11   0   9   11.16    1.40
  10   0  -9   25.15    2.08
  10   0  -9   26.74    2.65
  10   0  -9   23.59    1.50
 -10   0   9   24.58    2.56
 -10   0   9   24.18    2.09
 -10   0   9   25.37    1.92
  -9   0   9    0.81    0.83
   9   0  -9    0.56    0.56
   9   0  -9   -0.55    1.34
  -9   0   9    0.05    1.21
   9   0  -9   -0.12    1.01
   8   0  -9   29.90    2.19
   8   0  -9   27.72    1.77
  -8   0   9   27.84    1.64
   8   0  -9   26.14    1.39
  -8   0   9   26.09    2.17
  -8   0   9   28.70    1.38
   7   0  -9   74.18    3.35
  -7   0   9   72.92    2.90
  -7   0   9   73.99    3.40
   7   0  -9   75.28    3.12
  -7   0   9   71.39    3.07
   6   0  -9   10.12    0.84
  -6   0   9    9.43    1.03
   6   0  -9    9.79    1.07
  -6   0   9   11.61    1.14
  -6   0   9   10.35    0.87
   5   0  -9   19.07    1.56
   5   0  -9   14.60    1.23
  -5   0   9   18.60    1.03
  -5   0   9   19.10    1.58
  -5   0   9   17.49    1.18
   4   0  -9   50.42    2.39
  -4   0   9   48.39    2.07
  -4   0   9   49.23    2.43
  -4   0   9   52.10    2.19
  -3   0   9   90.32    3.52
   3   0  -9   90.80    3.51
  -3   0   9   89.81    3.54
   3   0  -9   88.60    3.67
  -3   0   9   87.54    3.76
  -2   0   9   53.40    2.55
  -2   0   9   53.22    2.22
   2   0  -9   52.62    2.15
   2   0  -9   50.51    2.39
   1   0  -9  115.53    4.56
   1   0  -9  116.89    4.63
   0   0   9    0.15    0.68
   0   0  -9    0.11    0.66
   1   0   9    1.05    0.82
   2   0   9    3.07    0.98
   3   0   9   28.15    2.13
   4   0   9   14.46    1.53
   5   0   9    6.62    1.48
   6   0   9   16.73    1.84
   7   0   9   -1.36    1.54
   8   0   9    7.04    2.00
  17  -1  -9    3.66    3.13
  17   1  -9    3.96    2.96
 -17   1   9    7.06    3.65
  17   1  -9    4.88    3.08
 -16  -1   9    2.70    3.12
  16  -1  -9   10.86    2.27
  16  -1  -9    4.32    3.02
  16  -1  -9    3.32    2.50
 -16   1   9    6.64    2.93
  16   1  -9    5.40    2.67
  16   1  -9    6.12    2.56
 -15  -1   9   11.93    3.52
 -15  -1   9   15.25    2.67
  15  -1  -9   17.14    3.00
 -15  -1   9   16.08    2.55
  15  -1  -9   19.17    2.12
  15  -1  -9   17.72    2.28
 -15   1   9   13.91    2.57
  15   1  -9   17.65    2.91
  15   1  -9   16.51    2.34
 -15   1   9   13.65    2.34
 -15   1   9   20.40    3.60
  15   1  -9   17.87    2.40
 -14  -1   9    2.11    2.07
  14  -1  -9    3.06    1.74
 -14  -1   9   -1.56    1.93
  14  -1  -9    1.00    1.47
 -14  -1   9    4.43    3.02
  14  -1  -9    4.22    2.44
 -14   1   9    2.57    2.62
  14   1  -9   -0.38    2.54
 -14   1   9    1.95    1.92
 -14   1   9    1.84    1.82
  14   1  -9    1.02    1.62
  14   1  -9    2.88    1.87
  13  -1  -9    6.76    2.27
 -13  -1   9   -0.57    2.42
 -13  -1   9    3.34    1.67
  13  -1  -9    3.68    1.57
  13  -1  -9    5.94    1.25
 -13  -1   9    4.72    1.61
 -13   1   9    1.71    2.03
  13   1  -9    3.06    2.24
  13   1  -9    3.03    1.32
 -13   1   9    3.38    1.57
  13   1  -9    3.49    1.67
 -13   1   9    5.61    1.68
  12  -1  -9   21.36    2.27
 -12  -1   9   19.93    2.41
  12  -1  -9   24.69    1.83
  12  -1  -9   22.14    2.41
 -12  -1   9   22.83    1.91
 -12  -1   9   21.96    2.52
  12   1  -9   23.30    1.94
  12   1  -9   20.14    2.07
 -12   1   9   25.43    1.98
 -12   1   9   25.80    2.36
  12   1  -9   24.00    2.52
 -12   1   9   23.63    2.34
 -11  -1   9    1.07    1.18
 -11  -1   9    0.44    1.55
  11  -1  -9    0.06    1.82
  11  -1  -9    1.51    0.73
 -11  -1   9    2.06    1.17
  11  -1  -9    2.14    1.20
 -11   1   9    1.00    1.20
  11   1  -9    1.19    1.63
 -11   1   9    0.14    1.56
  11   1  -9    0.14    0.86
 -11   1   9    1.58    1.11
  11   1  -9    1.51    1.29
 -10  -1   9   13.88    1.54
 -10  -1   9   11.82    1.23
 -10  -1   9   12.49    1.72
  10  -1  -9   13.71    1.38
  10  -1  -9   13.54    1.70
  10  -1  -9    9.96    1.05
 -10   1   9   12.11    1.36
  10   1  -9   12.03    1.68
  10   1  -9   12.16    1.40
  10   1  -9   11.54    1.08
 -10   1   9   12.10    1.55
 -10   1   9   16.59    1.66
   9  -1  -9   15.22    1.59
  -9  -1   9   15.01    1.53
   9  -1  -9   14.78    1.26
  -9  -1   9   13.89    1.67
  -9  -1   9   15.06    1.33
  -9   1   9   15.28    1.71
   9   1  -9   13.47    1.31
  -9   1   9   12.89    1.09
  -9   1   9   12.12    1.42
   9   1  -9   15.90    1.65
   9   1  -9   13.67    1.27
   8  -1  -9   31.19    1.87
  -8  -1   9   30.31    2.61
  -8  -1   9   33.44    1.83
   8  -1  -9   32.94    2.43
   8   1  -9   30.89    2.40
  -8   1   9   33.12    2.29
   8   1  -9   26.83    1.62
   8   1  -9   31.25    1.96
  -8   1   9   30.27    1.75
   7  -1  -9    4.19    0.83
  -7  -1   9    4.18    0.76
  -7  -1   9    5.20    0.80
  -7  -1   9    5.13    1.27
   7  -1  -9    4.40    1.06
  -7   1   9    3.85    1.03
   7   1  -9    3.26    0.89
   7   1  -9    4.32    0.65
   7   1  -9    4.63    1.14
  -7   1   9    3.13    0.72
   6  -1  -9   10.19    1.08
  -6  -1   9   10.97    1.14
  -6  -1   9    9.64    1.29
  -6  -1   9    9.69    0.92
  -6   1   9    8.71    0.81
   6   1  -9    8.77    1.19
   6   1  -9    8.66    0.90
  -6   1   9    9.06    1.06
  -5  -1   9    4.73    0.76
  -5  -1   9    4.35    0.67
  -5  -1   9    3.09    1.11
   5  -1  -9    4.03    0.66
  -5   1   9    2.68    0.62
   5   1  -9    3.28    1.01
  -5   1   9    4.38    0.82
   5   1  -9    3.90    0.67
   4  -1  -9    8.65    0.87
  -4  -1   9    7.93    0.96
  -4  -1   9    7.38    0.76
  -4  -1   9    6.99    1.13
   4  -1  -9    7.51    0.68
   4   1  -9    7.36    1.08
  -4   1   9    7.62    0.70
  -4   1   9    7.48    0.85
   4   1  -9    6.50    0.76
  -3  -1   9    0.88    0.65
   3  -1  -9    2.45    1.15
  -3  -1   9    2.14    0.67
  -3  -1   9    0.91    1.01
  -3   1   9    1.79    0.76
   3   1  -9    1.89    0.86
   3   1  -9    1.63    0.61
  -2  -1   9   17.28    1.33
  -2  -1   9   15.06    1.31
  -2  -1   9   14.95    1.80
   2   1  -9   17.09    1.36
  -1  -1   9   56.81    2.64
   1   1  -9   58.31    2.68
   1   1  -9   61.29    2.43
   1   1  -9   57.30    2.89
   0  -1   9   -0.50    0.67
   0   1  -9    1.15    0.78
   0   1   9    0.47    0.64
   0   1  -9    0.03    0.45
   0   1  -9    1.12    1.18
   0   1  -9    1.00    0.58
   1  -1   9    0.41    0.94
  -1   1  -9    1.18    0.82
  -1   1  -9    1.04    1.32
   1   1   9    1.30    0.82
  -1   1  -9    0.01    0.47
  -1   1  -9    1.96    0.66
   2  -1   9   34.68    2.18
   2   1   9   36.28    2.12
  -2   1  -9   32.31    1.75
  -2   1  -9   29.74    2.00
  -2   1  -9   35.34    1.64
  -2   1  -9   37.08    2.62
   3  -1   9   14.26    1.44
   3   1   9   15.29    1.34
  -3   1  -9   16.86    1.76
  -3   1  -9   13.57    1.23
  -3   1  -9   11.62    1.16
  -3   1  -9   15.17    1.06
   4  -1   9    1.46    1.15
  -4   1  -9    2.34    0.95
  -4   1  -9    3.04    1.17
  -4   1  -9    3.96    0.71
  -4   1  -9    3.63    1.67
   4   1   9    2.97    1.25
   4   1   9    3.44    0.95
   5  -1   9    0.01    1.33
  -5  -1  -9    0.13    0.19
  -5   1  -9    0.04    1.79
   5   1   9    0.54    0.88
   5   1   9    1.21    1.27
  -5   1  -9    0.09    0.73
  -5   1  -9    0.90    1.24
  -5   1  -9   -0.40    0.98
   6  -1   9   18.38    1.92
  -6   1  -9   20.63    1.52
  -6   1  -9   16.46    1.74
   6   1   9   20.08    1.58
  -6   1  -9   25.83    2.84
   6   1   9   20.04    1.88
  -6   1  -9   16.87    1.82
   7  -1   9   13.53    2.05
  -7   1  -9   17.20    1.95
  -7   1  -9   14.31    1.60
   7   1   9   12.96    1.67
  -7   1  -9   11.02    1.34
   7   1   9   14.46    1.78
  -7   1  -9   18.59    3.35
  -8   1  -9    4.44    5.42
   8   1   9   28.92    2.42
   8   1   9   25.23    2.83
  -8   1  -9   27.02    2.55
  16  -2  -9   -0.78    3.20
  16  -2  -9    3.62    2.79
  16   2  -9    3.15    2.88
  16   2  -9   -0.77    2.71
 -16   2   9   -3.10    3.05
  15  -2  -9    6.22    2.38
  15  -2  -9    7.00    2.96
 -15  -2   9    6.78    2.42
 -15  -2   9    6.35    2.85
  15  -2  -9   10.04    1.85
  15   2  -9   13.16    3.20
  15   2  -9    6.32    2.36
 -15   2   9   10.64    3.74
  15   2  -9   11.07    2.37
 -15   2   9    7.46    2.59
 -14  -2   9   11.28    3.68
  14  -2  -9   10.41    1.60
  14  -2  -9    9.47    2.56
  14  -2  -9   14.70    2.25
 -14  -2   9   10.14    2.25
 -14  -2   9    9.17    2.39
  14   2  -9    6.97    2.94
 -14   2   9    7.18    2.88
  14   2  -9   11.48    2.00
 -14   2   9   16.15    2.20
 -14   2   9    7.12    2.17
  14   2  -9   11.71    2.23
  13  -2  -9    5.31    1.77
 -13  -2   9    2.50    1.64
 -13  -2   9    3.27    2.97
  13  -2  -9    2.85    1.16
  13  -2  -9    5.64    2.22
 -13  -2   9    1.46    1.96
 -13   2   9    3.52    1.82
  13   2  -9    2.23    1.51
 -13   2   9    3.43    1.65
  13   2  -9    4.41    2.41
 -13   2   9    5.30    2.46
  13   2  -9    3.16    1.84
  12  -2  -9   -1.14    1.88
 -12  -2   9    4.53    2.68
  12  -2  -9    3.65    0.93
 -12  -2   9    0.37    1.59
  12  -2  -9    2.16    1.53
 -12  -2   9    0.19    1.38
 -12  -2   9    4.54    1.53
 -12   2   9    2.11    1.89
 -12   2   9    1.46    1.67
  12   2  -9    2.05    2.07
  12   2  -9    2.47    1.31
  12   2  -9    0.36    1.64
 -12   2   9    1.27    1.43
  11  -2  -9    4.21    1.85
 -11  -2   9    4.93    1.18
 -11  -2   9    2.12    2.24
  11  -2  -9    3.98    1.39
 -11  -2   9    2.79    1.27
 -11  -2   9    5.24    1.39
 -11   2   9    5.10    1.27
 -11   2   9    4.53    1.72
 -11   2   9    3.91    1.45
  11   2  -9    3.77    1.14
  11   2  -9    4.56    1.49
  11   2  -9    2.23    1.91
 -10  -2   9   34.86    2.43
  10  -2  -9   39.02    2.54
 -10  -2   9   42.02    2.41
 -10  -2   9   38.30    3.00
  10  -2  -9   30.78    3.14
  10   2  -9   37.07    2.58
 -10   2   9   34.51    2.42
 -10   2   9   33.23    2.27
  10   2  -9   35.77    2.26
  10   2  -9   32.64    3.13
 -10   2   9   36.74    2.92
   9  -2  -9   14.37    1.35
  -9  -2   9   15.14    2.05
   9  -2  -9   14.77    1.74
  -9  -2   9   15.77    1.33
  -9   2   9   12.88    1.23
   9   2  -9   18.22    1.82
  -9   2   9   13.88    1.32
  -9   2   9   14.96    1.62
   9   2  -9   14.14    1.25
   9   2  -9   13.36    1.44
  -8  -2   9   12.03    1.77
   8  -2  -9   10.12    1.53
  -8  -2   9    9.98    1.12
  -8  -2   9   10.88    1.15
   8  -2  -9   11.45    1.10
  -8   2   9   11.06    1.37
  -8   2   9    6.34    1.09
   8   2  -9   10.22    1.03
   8   2  -9   10.64    1.58
   8   2  -9   10.80    1.26
  -8   2   9   10.16    1.05
  -7  -2   9   74.86    3.09
   7  -2  -9   62.42    3.36
   7  -2  -9   58.90    3.02
  -7  -2   9   64.33    3.10
  -7  -2   9   68.41    3.80
  -7   2   9   64.67    2.94
  -7   2   9   68.46    3.25
   7   2  -9   70.89    3.11
   7   2  -9   72.40    3.52
   7   2  -9   73.08    3.01
  -6  -2   9   27.17    2.76
  -6  -2   9   30.04    1.80
   6  -2  -9   26.49    2.10
  -6  -2   9   31.92    1.85
  -6   2   9   27.43    1.72
   6   2  -9   30.91    1.96
  -6   2   9   29.16    1.97
   6   2  -9   30.80    2.52
   6   2  -9   30.95    1.74
  -5  -2   9   11.15    1.01
  -5  -2   9   11.47    1.56
  -5  -2   9    8.27    0.95
   5  -2  -9   10.17    1.09
   5  -2  -9    9.42    1.06
  -5   2   9    9.42    0.99
  -5   2   9    9.50    0.89
   5   2  -9    8.76    1.07
   5   2  -9   10.54    1.33
   4  -2  -9   14.59    1.54
  -4  -2   9   15.62    1.72
  -4  -2   9   12.86    1.27
  -4  -2   9   13.16    1.36
  -4   2   9   13.31    1.37
  -4   2   9   14.41    1.13
   4   2  -9   14.66    1.50
   4   2  -9   15.75    1.54
  -3  -2   9   47.64    2.35
  -3  -2   9   48.69    3.15
  -3  -2   9   53.54    2.47
   3   2  -9   49.89    2.39
   3   2  -9   52.29    2.94
  -2  -2   9    7.61    1.05
   2   2  -9    5.65    1.01
   2   2  -9    4.84    0.68
   2   2  -9    5.61    0.91
  -2   2   9    5.81    0.54
   2   2  -9    7.39    1.39
  -1  -2   9   93.01    3.89
  -1  -2   9   91.57    3.92
   1   2  -9   85.16    4.30
   1   2  -9   97.09    3.66
   1   2  -9   92.86    4.00
  -1   2   9   84.98    3.57
   1   2  -9   87.84    3.79
   0  -2   9    0.70    0.89
   0  -2   9    0.20    0.96
   0   2  -9    0.66    1.45
   0   2   9    1.46    0.74
   0   2   9    0.57    0.58
   0   2  -9    0.29    0.90
   0   2  -9    0.27    0.92
   0   2  -9    0.17    0.55
   1  -2   9    4.07    1.06
  -1   2  -9    4.91    0.95
  -1   2  -9    3.10    1.07
   1   2   9    5.27    0.92
  -1   2  -9    5.89    1.62
   1   2   9    3.10    0.67
  -1   2  -9    4.19    0.67
   2  -2   9    0.40    1.11
   2   2   9    1.20    0.71
  -2   2  -9    2.14    1.84
   2   2   9    1.30    0.95
  -2   2  -9   -0.94    1.04
  -2   2  -9    0.88    0.68
  -2   2  -9    0.06    0.92
   3  -2   9   18.95    1.60
  -3   2  -9   20.39    1.61
  -3   2  -9   18.16    2.11
   3   2   9   17.85    1.57
  -3   2  -9   21.50    2.32
  -3   2  -9   16.97    1.46
   3   2   9   18.07    1.99
   4  -2   9    1.40    1.39
   4   2   9    3.15    0.93
  -4   2  -9    2.19    0.81
  -4   2  -9    0.77    1.23
  -4   2  -9    2.93    2.08
   4   2   9    0.71    1.14
   5  -2   9   10.74    1.68
   5   2   9   12.18    1.32
  -5   2  -9    9.03    1.12
  -5   2  -9   11.37    2.47
   5   2   9    9.05    1.31
  -5   2  -9    8.68    1.66
   6  -2   9   18.27    2.07
  -6   2  -9   21.46    2.01
  -6   2  -9   23.30    3.25
  -6   2  -9   15.50    1.42
   6   2   9   17.26    1.73
  -6   2  -9   20.13    1.83
   6   2   9   15.58    1.63
   7  -2   9    1.42    1.77
  -7   2  -9    2.43    3.67
   7   2   9    4.08    1.74
  -7   2  -9    0.98    1.64
   7   2   9    1.62    1.57
  -7   2  -9    2.11    2.15
   8   2   9    1.60    2.48
   8   2   9    0.66    1.98
   9   2   9    0.26    2.45
  15  -3  -9   10.21    3.54
 -15  -3   9   12.66    3.02
 -15   3   9   23.19    7.80
  15   3  -9   14.41    4.04
  15   3  -9   11.40    3.10
  14  -3  -9    0.16    2.66
 -14  -3   9    0.19    2.93
  14  -3  -9    0.64    2.43
 -14  -3   9   -1.33    2.13
  14   3  -9    4.11    2.47
  14   3  -9    0.78    2.51
  14   3  -9    5.12    3.11
 -14   3   9    1.01    2.46
 -14   3   9    2.08    2.26
 -14   3   9    1.24    3.27
  13  -3  -9    0.72    2.27
  13  -3  -9   -0.58    2.07
 -13  -3   9   -0.37    1.82
 -13  -3   9    5.48    4.07
 -13  -3   9   -1.74    2.35
 -13  -3   9    0.35    2.06
  13  -3  -9    0.45    1.37
 -13   3   9   -0.37    2.67
  13   3  -9    3.77    2.02
  13   3  -9    6.69    2.79
 -13   3   9   -2.49    1.92
  13   3  -9    0.43    2.18
 -13   3   9    1.81    2.15
  12  -3  -9   12.30    2.02
 -12  -3   9   13.75    2.00
 -12  -3   9   16.55    3.54
 -12  -3   9   12.64    2.28
  12  -3  -9   12.85    2.46
 -12  -3   9   17.82    1.91
  12   3  -9   15.47    1.93
  12   3  -9   12.59    2.13
 -12   3   9   11.65    2.07
 -12   3   9   14.80    2.51
  12   3  -9   11.89    2.63
 -12   3   9   11.65    1.73
  11  -3  -9    4.02    2.00
  11  -3  -9    2.20    1.64
 -11  -3   9    5.36    1.49
 -11  -3   9    3.70    1.73
 -11  -3   9    1.70    1.52
 -11  -3   9   -0.37    3.10
 -11   3   9    4.13    2.06
  11   3  -9    4.15    2.26
  11   3  -9    4.25    1.77
 -11   3   9    1.45    1.35
 -11   3   9    2.20    1.70
  11   3  -9    2.83    1.45
 -10  -3   9   13.06    2.73
 -10  -3   9    8.66    1.39
  10  -3  -9    9.83    1.86
 -10  -3   9   10.80    1.74
  10  -3  -9   10.77    1.56
  10   3  -9   12.22    1.52
 -10   3   9    9.38    1.33
  10   3  -9   11.06    2.18
  10   3  -9   10.21    1.79
 -10   3   9   11.15    1.58
 -10   3   9   10.98    1.94
  -9  -3   9    8.49    1.45
   9  -3  -9    7.46    1.36
  -9  -3   9    7.42    2.42
   9  -3  -9    8.87    1.78
  -9  -3   9    7.42    1.38
  -9   3   9    9.62    1.36
  -9   3   9    6.61    1.22
  -9   3   9   10.54    1.71
   9   3  -9    9.69    1.56
   9   3  -9    8.96    1.35
   9   3  -9   10.91    1.97
  -8  -3   9   19.49    2.10
   8  -3  -9   21.85    1.99
  -8  -3   9   21.54    2.12
   8  -3  -9   21.39    1.97
  -8  -3   9   27.86    2.68
  -8   3   9   23.95    2.06
   8   3  -9   22.06    2.34
  -8   3   9   25.84    1.97
   8   3  -9   24.92    2.10
   8   3  -9   25.80    2.21
  -8   3   9   21.11    1.85
  -7  -3   9   10.43    1.34
  -7  -3   9    7.50    1.21
   7  -3  -9    8.11    1.50
  -7  -3   9   12.25    2.23
   7   3  -9    8.16    1.43
   7   3  -9    7.64    1.72
   7   3  -9    7.67    1.21
  -7   3   9    7.65    1.45
  -7   3   9    7.89    1.16
  -6  -3   9   14.81    1.48
   6  -3  -9   11.73    1.53
   6  -3  -9   13.31    1.09
  -6  -3   9   13.58    1.30
  -6  -3   9   14.46    2.01
   6   3  -9   13.20    1.24
  -6   3   9   13.21    1.16
  -6   3   9   12.75    1.43
   6   3  -9   11.86    1.38
   6   3  -9   13.42    1.88
  -6   3   9   10.92    1.09
   5  -3  -9   11.66    0.97
   5  -3  -9   12.99    1.39
  -5  -3   9   14.19    1.36
  -5  -3   9   11.83    1.22
  -5  -3   9   14.37    2.07
  -5   3   9   13.18    1.36
   5   3  -9   12.11    1.82
  -5   3   9   11.25    1.04
   5   3  -9   10.18    1.36
  -4  -3   9    8.80    1.82
  -4  -3   9    7.55    1.17
   4  -3  -9    5.35    1.25
  -4  -3   9    6.15    1.07
   4   3  -9    5.21    1.55
   4   3  -9    4.65    1.15
  -4   3   9    5.19    1.01
  -3  -3   9    9.17    1.20
   3   3  -9    9.14    0.87
   3   3  -9    8.77    1.25
   3   3  -9    7.66    1.19
   3   3  -9    9.60    1.76
  -2  -3   9    0.79    1.07
  -2  -3   9    1.71    1.12
  -2   3   9    0.08    0.49
   2   3  -9    0.93    1.17
   2   3  -9    0.29    1.61
   2   3  -9    1.41    0.72
   2   3  -9    0.99    1.05
  -1  -3   9   11.85    1.35
  -1  -3   9   10.77    1.28
   1   3  -9    9.72    0.97
  -1   3   9    8.94    1.11
   1   3  -9   10.10    1.27
  -1   3   9    9.54    0.94
   1   3  -9   10.64    2.13
   1   3  -9    9.45    1.42
   0  -3   9    1.37    1.26
   0  -3   9    3.47    1.13
   0   3   9    1.63    0.62
   0   3  -9    0.58    1.18
   0   3   9    1.41    0.78
   0   3  -9    1.18    1.17
   0   3  -9    1.68    1.97
   0   3  -9    1.01    0.74
   1  -3   9    4.39    1.25
   1  -3   9    6.75    1.53
  -1   3  -9    5.96    0.86
  -1   3  -9    4.87    1.29
   1   3   9    5.27    0.94
   1   3   9    5.10    0.82
  -1   3  -9    4.90    2.10
  -1   3  -9    4.69    1.23
   2  -3   9   33.64    2.66
   2  -3   9   29.31    2.60
  -2   3  -9   28.55    2.69
  -2   3  -9   38.96    3.12
   2   3   9   33.77    2.08
  -2   3  -9   32.47    2.50
  -2   3  -9   29.79    1.98
   3  -3   9    0.98    1.28
  -3   3  -9   -0.55    1.41
  -3   3  -9    0.61    0.91
  -3   3  -9    0.67    1.43
  -3   3  -9    1.15    2.26
   3   3   9   -0.48    1.02
   3   3   9    0.57    1.01
   4  -3   9    5.65    1.60
  -4   3  -9    4.96    1.67
   4   3   9    3.88    1.20
   4   3   9    4.41    1.19
  -4   3  -9    6.85    1.09
  -4   3  -9    8.74    2.72
  -4   3  -9    5.69    1.69
   5  -3   9    1.39    1.70
  -5   3  -9    2.20    1.25
   5   3   9    1.69    1.37
  -5   3  -9    2.45    3.02
  -5   3  -9    3.10    1.85
  -5   3  -9    0.37    1.75
   5   3   9    2.21    1.14
   6  -3   9   20.25    2.29
  -6   3  -9   17.12    2.38
   6   3   9   16.57    2.06
   6   3   9   15.97    1.63
   7   3   9    3.56    2.27
  -7   3  -9   11.82    4.27
   7   3   9    3.61    1.76
   8   3   9    5.23    2.06
  14  -4  -9   10.14    3.69
 -14  -4   9    3.22    2.70
 -14   4   9    5.92    4.04
 -13  -4   9    0.59    2.36
 -13  -4   9   -4.23    4.26
 -13  -4   9    3.96    2.33
  13  -4  -9   -1.84    3.18
 -13   4   9    3.06    2.46
 -13   4   9    7.61    3.49
  13   4  -9    4.31    2.92
  13   4  -9    0.12    2.73
 -12  -4   9    7.12    1.98
 -12  -4   9    6.75    2.04
 -12  -4   9    6.79    2.99
  12  -4  -9    3.04    2.33
  12  -4  -9    8.99    2.86
  12   4  -9    7.11    2.50
  12   4  -9    6.51    2.58
 -12   4   9    5.02    3.04
 -12   4   9    3.88    1.99
 -12   4   9    4.04    2.22
  12   4  -9    7.21    3.01
 -11  -4   9    0.21    2.07
  11  -4  -9   -0.50    2.46
  11  -4  -9    1.31    2.06
 -11  -4   9   -0.15    1.67
 -11  -4   9    1.19    4.69
 -11  -4   9   -2.34    2.27
  11   4  -9    0.13    2.12
  11   4  -9   -0.07    1.91
 -11   4   9    0.33    2.35
 -11   4   9   -1.17    1.92
 -11   4   9    1.26    1.63
  11   4  -9    9.19    2.87
  10  -4  -9   13.61    1.91
 -10  -4   9    5.79    1.75
 -10  -4   9   11.56    2.20
 -10  -4   9   12.71    1.74
 -10  -4   9   16.53    4.01
  10  -4  -9   13.41    2.48
 -10   4   9   12.69    1.87
  10   4  -9   12.88    2.15
 -10   4   9   13.01    1.68
  10   4  -9    9.67    2.71
 -10   4   9   16.75    2.44
  10   4  -9   12.53    1.89
  -9  -4   9    2.52    3.44
  -9  -4   9    5.86    1.69
   9  -4  -9    2.12    2.14
   9  -4  -9    3.47    1.55
  -9  -4   9    6.91    1.93
  -9   4   9    2.54    1.30
  -9   4   9    3.62    1.92
   9   4  -9    3.85    1.50
  -9   4   9    7.75    1.58
   9   4  -9    2.48    2.41
   9   4  -9    5.23    1.89
  -8  -4   9    9.88    3.20
  -8  -4   9    1.25    1.62
   8  -4  -9    4.22    1.97
   8  -4  -9    3.10    1.29
  -8  -4   9    4.68    1.62
  -8   4   9    6.05    1.36
  -8   4   9    5.52    1.81
   8   4  -9    4.58    2.26
   8   4  -9    5.44    1.78
   8   4  -9    5.18    1.44
  -8   4   9    4.92    1.20
  -7  -4   9   24.92    3.27
  -7  -4   9   22.24    2.02
  -7  -4   9   16.19    1.83
   7  -4  -9   18.18    2.13
   7   4  -9   19.61    2.01
  -7   4   9   21.21    2.08
   7   4  -9   23.17    2.58
   7   4  -9   19.83    2.42
  -7   4   9   20.15    1.58
  -7   4   9   27.29    2.27
  -6  -4   9    5.93    1.58
  -6  -4   9    0.97    1.33
  -6  -4   9    5.31    2.68
   6  -4  -9    1.81    1.05
   6  -4  -9    3.64    1.71
  -6   4   9    2.17    1.54
   6   4  -9    2.52    1.59
  -6   4   9    3.46    1.12
  -6   4   9    4.35    1.16
   6   4  -9    3.96    2.07
  -5  -4   9    0.78    1.57
  -5  -4   9    3.14    2.54
  -5  -4   9    1.66    1.33
   5  -4  -9    1.76    1.49
   5  -4  -9    2.22    0.92
  -5   4   9    2.21    1.01
  -5   4   9    1.17    1.35
   5   4  -9    2.60    1.56
   5   4  -9    2.77    2.16
   4  -4  -9    0.27    1.32
  -4  -4   9    2.47    1.24
   4   4  -9    0.99    2.13
   4   4  -9    0.72    1.46
   4   4  -9    0.30    1.48
   4   4  -9    1.34    0.97
  -4   4   9    0.79    1.25
  -3  -4   9   17.78    1.63
  -3  -4   9   15.21    1.72
   3   4  -9   15.72    1.77
   3   4  -9   18.62    1.99
  -3   4   9   13.06    1.30
   3   4  -9   16.43    1.35
   3   4  -9   12.65    2.27
  -2  -4   9    1.79    1.38
  -2  -4   9    1.47    1.36
   2   4  -9    3.07    1.00
   2   4  -9    1.77    1.45
   2   4  -9    1.75    1.63
   2   4  -9    2.35    2.30
  -2   4   9    1.96    0.82
  -1  -4   9   21.65    2.61
  -1  -4   9   21.85    2.52
   1   4  -9   23.38    1.90
   1   4  -9   23.85    2.77
   1   4  -9   23.03    1.98
   1   4  -9   25.09    2.92
  -1   4   9   25.41    1.81
   0  -4   9    3.55    1.61
   0  -4   9    0.72    1.43
   0   4   9    1.35    0.95
   0   4  -9    0.18    2.44
   0   4  -9    1.99    1.42
   0   4  -9    1.01    1.00
   0   4  -9    0.47    1.58
   1  -4   9    1.55    1.67
   1  -4   9    1.69    1.47
  -1   4  -9    3.08    2.67
   1   4   9    0.29    0.94
  -1   4  -9    0.84    1.61
  -1   4  -9    0.79    1.57
  -1   4  -9    0.70    1.00
   2  -4   9    8.36    1.68
   2  -4   9    7.15    1.95
   2   4   9    5.12    1.22
  -2   4  -9    4.87    1.82
  -2   4  -9   10.12    1.81
  -2   4  -9    8.06    3.06
  -2   4  -9    6.86    1.23
   3  -4   9   19.63    2.26
   3  -4   9   17.46    2.13
  -3   4  -9   18.28    2.29
   3   4   9   16.15    1.71
  -3   4  -9   16.34    3.50
  -3   4  -9   16.85    1.65
  -3   4  -9   16.01    2.25
   4  -4   9    2.48    2.13
   4  -4   9    2.51    1.99
  -4   4  -9   -0.74    2.31
  -4   4  -9    1.68    1.46
   4   4   9    5.10    1.51
  -4   4  -9    3.88    2.00
  -4   4  -9    0.99    3.59
   5  -4   9    9.24    2.23
   5   4   9    6.50    1.85
  -5   4  -9    0.57    2.60
  -5   4  -9   11.10    4.10
  -6   4  -9   26.70    5.34
  12  -5  -9    6.10    3.82
 -12  -5   9    5.76    2.80
 -12   5   9    1.96    2.81
 -12   5   9    6.55    7.67
  11  -5  -9    1.18    3.17
 -11  -5   9    4.91    2.55
  11   5  -9    2.20    2.92
 -11   5   9    5.09    2.35
 -11   5   9   -3.64    3.55
 -10  -5   9    8.06    3.13
  10  -5  -9    9.28    3.15
 -10  -5   9   10.75    2.27
 -10   5   9   10.47    2.18
  10   5  -9    9.40    2.80
 -10   5   9   12.23    3.31
  10   5  -9   12.47    3.35
  -9  -5   9    6.91    2.40
  -9  -5   9    8.12    2.90
  -9  -5   9   14.38    7.42
   9  -5  -9    6.07    3.09
   9   5  -9    8.19    3.47
  -9   5   9    9.90    1.82
  -9   5   9    8.92    3.17
   9   5  -9    4.81    2.34
   9   5  -9    4.71    2.33
  -8  -5   9    5.93    4.58
  -8  -5   9    8.96    2.69
  -8  -5   9    7.08    2.29
   8  -5  -9    4.83    2.69
  -8   5   9    5.62    1.60
  -8   5   9    9.94    2.82
   8   5  -9    3.40    3.32
   8   5  -9    4.88    2.03
   8   5  -9    8.30    2.33
  -7  -5   9    1.74    1.91
   7  -5  -9    4.16    2.40
  -7  -5   9    8.25    2.39
  -7  -5   9    0.50    4.56
   7  -5  -9    3.65    1.47
  -7   5   9    3.29    1.43
   7   5  -9    3.91    1.83
  -7   5   9    3.58    2.33
   7   5  -9    2.40    3.13
   7   5  -9    5.48    2.14
   6  -5  -9    0.99    1.28
   6  -5  -9   -1.11    2.02
  -6  -5   9    2.93    1.90
  -6   5   9    0.70    1.57
   6   5  -9   -0.27    2.13
   6   5  -9   -0.48    2.96
   6   5  -9    3.14    1.28
  -6   5   9    0.96    2.20
  -5  -5   9    5.28    1.75
  -5  -5   9    7.04    1.85
  -5   5   9    4.74    1.44
   5   5  -9    6.29    2.92
   5   5  -9    4.28    2.16
   5   5  -9    5.79    2.28
   5   5  -9    2.93    1.27
  -5   5   9    2.62    2.04
  -4  -5   9   19.97    2.11
  -4  -5   9   20.25    2.04
   4   5  -9   19.57    2.43
   4   5  -9   17.76    3.07
  -4   5   9   15.24    2.59
  -4   5   9   16.66    1.64
   4   5  -9   18.79    1.70
  -4   5   9   18.17    2.00
   4   5  -9   15.60    2.20
  -3  -5   9    5.14    1.80
  -3  -5   9    2.98    1.78
   3   5  -9    1.90    1.49
   3   5  -9    3.33    2.94
   3   5  -9    3.53    2.25
   3   5  -9    7.55    2.16
  -2  -5   9    2.25    1.80
  -2  -5   9    2.29    1.66
   2   5  -9    8.41    3.06
   2   5  -9   -1.09    2.10
   2   5  -9    0.38    2.12
  -2   5   9   -0.11    1.12
   2   5  -9    1.32    1.28
  -1  -5   9    5.59    2.19
  -1  -5   9    2.93    1.73
  -1   5   9    6.96    1.37
   1   5  -9    7.80    2.24
   1   5  -9    7.61    3.31
   1   5  -9    1.88    2.09
   1   5  -9    3.97    1.34
   0  -5   9    9.11    2.22
   0  -5   9    6.71    1.85
   0   5  -9    9.01    3.38
   0   5  -9    9.11    1.58
   0   5  -9   10.80    2.42
   0   5  -9    5.06    2.21
   0   5   9    7.65    1.51
   1  -5   9    4.62    2.10
   1  -5   9    3.44    2.06
  -1   5  -9    5.39    1.65
   1   5   9    5.48    1.59
  -1   5  -9    1.61    3.60
  -1   5  -9    2.23    2.29
  -1   5  -9    0.76    2.04
   2  -5   9    6.67    2.69
   2  -5   9    3.68    2.19
  -2   5  -9    5.18    2.67
  -2   5  -9    4.03    1.83
  -2   5  -9    1.12    3.65
   2   5   9    7.35    1.72
   3  -5   9    2.56    2.42
  -3   5  -9    9.26    4.55
   3   5   9    0.46    1.97
  -3   5  -9    3.87    2.98
  -4   5  -9   12.52    5.16
   5   5   9    0.28    2.52
  -5   5  -9    1.84    5.73
   8   6  -9    2.81    3.44
   8   6  -9   -1.51    2.44
   7   6  -9    1.65    3.07
   7   6  -9   -0.28    2.18
   6   6  -9    6.33    3.04
   6   6  -9    1.40    2.26
   5   6  -9    2.92    2.08
   5   6  -9    1.10    3.08
  -5   6   9    6.75    3.18
   5   6  -9    2.77    4.02
  -4  -6   9    3.89    2.22
  -4   6   9    1.47    3.00
   4   6  -9   -0.39    3.07
   4   6  -9    5.31    4.01
   4   6  -9    4.22    2.10
  -3  -6   9    2.85    2.34
   3   6  -9    8.02    3.10
   3   6  -9    2.07    2.00
   3   6  -9    5.11    4.37
  -2  -6   9    2.16    2.25
   2   6  -9    2.29    1.93
   2   6  -9    0.28    3.27
   2   6  -9   12.76    4.07
  -1  -6   9    2.06    2.61
   1   6  -9    1.26    2.03
  -1   6   9    2.74    1.91
   1   6  -9    6.53    3.48
   1   6  -9    5.26    4.21
   0  -6   9    5.84    2.69
   0   6   9    3.20    2.19
   0   6  -9    7.71    4.81
   0   6  -9    7.09    2.43
   0   6  -9    6.19    3.43
   1  -6   9    4.93    2.92
  -1   6  -9   19.32    3.88
   1   6   9    2.65    2.44
  -1   6  -9    5.46    5.60
   2  -6   9    3.38    2.92
   2   6   9    0.88    3.13
 -17   0  10    3.33    3.87
  17   0 -10    2.92    2.92
  16   0 -10    0.53    2.39
 -16   0  10    2.92    2.95
  16   0 -10    1.91    2.31
  16   0 -10   -0.31    3.09
 -15   0  10    3.32    2.43
  15   0 -10    5.45    3.12
 -15   0  10   10.04    2.37
  15   0 -10   10.52    2.24
 -15   0  10   12.43    3.72
  15   0 -10    8.46    1.97
 -14   0  10    4.60    2.77
 -14   0  10   -1.96    2.25
  14   0 -10    2.60    1.89
  14   0 -10    1.95    2.40
 -14   0  10    2.89    1.90
  14   0 -10    2.94    1.51
  13   0 -10   23.10    2.58
 -13   0  10   23.18    2.69
 -13   0  10   23.97    2.15
 -13   0  10   23.37    1.95
  13   0 -10   19.52    2.23
  13   0 -10   20.08    1.95
 -12   0  10   -0.01    1.86
  12   0 -10    1.41    2.01
  12   0 -10    2.46    1.42
 -12   0  10    1.70    1.31
 -12   0  10    1.63    1.45
  12   0 -10    2.08    0.97
 -11   0  10    1.69    1.62
 -11   0  10    0.35    1.21
  11   0 -10   -0.14    1.25
  11   0 -10    1.00    0.81
 -11   0  10   -0.60    1.29
  11   0 -10    0.80    1.72
  10   0 -10    3.93    1.20
  10   0 -10    1.80    1.66
  10   0 -10    3.30    0.76
 -10   0  10    4.61    1.11
 -10   0  10    4.81    1.56
  -9   0  10   17.81    1.65
  -9   0  10   19.96    1.77
   9   0 -10   19.96    1.84
   9   0 -10   17.93    1.26
   9   0 -10   22.15    1.87
   8   0 -10    0.19    1.26
  -8   0  10   -0.32    0.52
   8   0 -10    0.41    0.88
  -8   0  10    2.32    0.79
  -8   0  10    0.40    1.13
  -7   0  10    0.45    0.72
  -7   0  10    0.51    0.54
  -7   0  10    1.73    1.19
   7   0 -10    0.52    0.84
   7   0 -10    0.88    1.06
  -6   0  10   13.37    1.00
  -6   0  10   15.80    1.84
  -6   0  10   14.40    1.26
   6   0 -10   15.61    1.35
   6   0 -10   14.11    1.32
  -5   0  10    0.25    0.50
  -5   0  10    0.86    0.99
  -5   0  10    0.55    0.67
   5   0 -10    0.83    0.92
  -4   0  10   33.39    1.62
   4   0 -10   28.02    1.54
   4   0 -10   28.28    1.89
  -4   0  10   29.20    1.49
  -4   0  10   29.27    1.99
   3   0 -10   35.78    1.72
   3   0 -10   37.43    2.07
  -3   0  10   35.91    2.26
  -3   0  10   37.53    1.78
  -2   0  10   29.33    2.09
   2   0 -10   24.67    1.74
  -2   0  10   25.11    1.59
   2   0 -10   26.21    1.35
   1   0 -10   70.69    3.69
  -1   0  10  100.98    3.67
   0   0  10   52.42    2.60
   1   0  10   52.24    2.78
   2   0  10   -0.22    1.05
   3   0  10   25.05    1.87
   4   0  10   -0.23    1.32
   5   0  10   28.98    2.98
   6   0  10    1.13    1.78
   7   0  10   -0.34    1.94
 -17   1  10    7.66    4.66
  16  -1 -10    9.37    3.41
  16  -1 -10   15.67    2.93
 -16  -1  10    7.50    3.32
  16   1 -10    1.24    2.60
  16   1 -10    3.11    2.57
 -16   1  10    7.28    3.02
 -15  -1  10   -0.04    2.20
  15  -1 -10    0.22    2.79
  15  -1 -10    0.00    2.19
 -15  -1  10    0.81    3.60
 -15  -1  10    0.37    2.50
  15  -1 -10    1.37    1.79
  15   1 -10    0.64    2.31
  15   1 -10   -0.32    1.96
 -15   1  10    5.03    3.49
  15   1 -10    4.01    2.84
 -15   1  10   -2.24    2.96
 -15   1  10    1.55    2.39
  14  -1 -10    2.08    1.96
 -14  -1  10   -1.80    2.02
 -14  -1  10    3.17    2.02
  14  -1 -10    0.42    1.40
 -14  -1  10   -1.34    3.16
  14  -1 -10    0.59    2.42
 -14   1  10    3.77    1.95
 -14   1  10    3.85    2.05
 -14   1  10   -0.88    2.73
  14   1 -10    2.00    1.62
  14   1 -10    2.00    2.66
  14   1 -10    2.85    1.96
  13  -1 -10    7.24    1.17
 -13  -1  10    5.72    1.79
  13  -1 -10    6.05    2.29
 -13  -1  10    5.50    2.68
 -13  -1  10    2.71    1.74
  13  -1 -10    6.43    1.66
  13   1 -10    7.32    2.41
 -13   1  10    7.11    1.66
  13   1 -10    6.50    1.90
 -13   1  10    7.91    2.31
 -13   1  10    8.80    1.96
  13   1 -10    6.29    1.49
 -12  -1  10    0.32    1.54
  12  -1 -10    1.34    2.17
  12  -1 -10    0.44    0.86
  12  -1 -10    0.87    1.45
 -12  -1  10   -3.08    2.09
 -12  -1  10    0.05    1.36
  12   1 -10    0.49    1.10
 -12   1  10    0.26    1.43
 -12   1  10    0.68    1.92
  12   1 -10   -1.73    2.08
  12   1 -10    1.32    1.47
 -12   1  10    1.62    1.41
  11  -1 -10    1.01    1.25
  11  -1 -10    2.12    1.96
 -11  -1  10    1.05    1.29
 -11  -1  10    2.97    1.10
 -11  -1  10    2.01    1.91
 -11  -1  10    1.67    1.41
  11   1 -10    2.83    1.39
  11   1 -10    1.90    1.80
 -11   1  10    2.79    1.26
 -11   1  10    1.42    1.29
  11   1 -10    1.88    0.92
 -11   1  10    4.03    1.61
 -10  -1  10   42.92    2.17
 -10  -1  10   37.92    2.40
  10  -1 -10   35.51    3.23
  10  -1 -10   37.54    2.52
 -10  -1  10   39.16    3.40
  10   1 -10   36.36    2.16
 -10   1  10   40.67    2.50
  10   1 -10   38.39    3.07
  10   1 -10   37.28    2.55
 -10   1  10   36.28    2.89
  -9  -1  10    5.12    1.08
  -9  -1  10    6.85    1.02
  -9  -1  10    6.22    1.64
   9  -1 -10    6.38    1.49
   9  -1 -10    4.88    1.11
   9   1 -10    4.49    1.16
  -9   1  10    5.43    1.01
   9   1 -10    7.37    0.90
   9   1 -10    8.12    1.61
  -9   1  10    5.02    1.33
  -8  -1  10   80.83    4.03
   8  -1 -10   74.06    3.74
  -8  -1  10   78.49    3.27
  -8  -1  10   78.19    3.36
   8  -1 -10   75.55    3.40
   8   1 -10   78.66    3.45
   8   1 -10   79.88    3.78
   8   1 -10   74.61    3.26
  -8   1  10   75.07    3.69
  -7  -1  10   28.29    1.66
   7  -1 -10   25.19    2.21
  -7  -1  10   35.33    2.63
   7  -1 -10   27.09    1.87
  -7  -1  10   27.18    1.76
  -7   1  10   29.50    1.68
   7   1 -10   28.47    2.36
   7   1 -10   24.92    1.89
  -7   1  10   29.76    2.22
  -6  -1  10   23.59    2.37
  -6  -1  10   26.02    1.55
  -6  -1  10   25.34    1.60
   6   1 -10   25.58    1.70
   6   1 -10   27.89    2.14
  -6   1  10   23.00    1.57
  -6   1  10   20.41    1.91
   5  -1 -10   10.11    0.85
  -5  -1  10   10.16    0.88
   5  -1 -10   11.26    1.17
  -5  -1  10   12.05    1.45
  -5  -1  10    9.38    0.94
   5   1 -10    9.18    0.96
  -5   1  10   10.60    1.13
  -5   1  10    9.85    0.88
   5   1 -10    9.63    1.28
  -4  -1  10   49.69    2.95
  -4  -1  10   48.39    2.23
   4  -1 -10   47.58    2.39
   4   1 -10   50.04    2.25
  -4   1  10   48.36    2.14
   4   1 -10   48.72    2.72
  -4   1  10   43.38    2.36
  -3  -1  10    6.09    0.81
  -3  -1  10    7.03    0.94
  -3  -1  10    6.20    1.16
   3   1 -10    5.00    1.22
  -3   1  10    5.39    0.95
  -2  -1  10    2.51    0.91
  -2  -1  10    4.27    0.93
   2   1 -10    1.76    1.17
   2   1 -10   -0.25    0.67
   2   1 -10    2.24    0.55
   2   1 -10    2.84    0.91
  -1  -1  10   14.74    1.73
  -1   1  10   14.96    1.45
   1   1 -10   15.74    1.72
   1   1 -10   16.65    1.31
   1   1 -10   16.47    1.54
   1   1 -10   14.75    1.17
   0  -1  10   12.85    1.21
   0   1  10   13.19    1.50
   0   1 -10   11.32    1.21
   0   1 -10   10.90    1.10
   0   1 -10    9.67    1.02
   0   1 -10   14.32    1.55
   1  -1  10    5.08    1.11
  -1   1 -10    3.99    1.46
  -1   1 -10    3.84    0.62
   1   1  10    4.67    1.00
  -1   1 -10    3.71    0.79
  -1   1 -10    3.19    0.98
   2  -1  10   15.00    1.40
  -2   1 -10    8.29    1.16
  -2   1 -10   10.82    0.86
   2   1  10   10.93    1.41
  -2   1 -10   12.93    1.90
  -2   1 -10   13.01    1.04
   3  -1  10    1.36    1.20
  -3   1 -10    0.87    0.85
   3   1  10    1.58    0.94
   3   1  10    0.36    1.23
  -3   1 -10    0.22    0.65
  -3   1 -10    0.97    1.06
  -3   1 -10    0.37    1.62
   4  -1  10   15.84    1.84
  -4   1 -10   15.34    1.37
  -4   1 -10   16.87    1.52
   4   1  10   16.47    1.69
   4   1  10   19.03    1.41
  -4   1 -10   19.74    2.28
  -4   1 -10   15.46    1.72
   5  -1  10    2.20    1.64
  -5   1 -10    2.96    2.20
  -5   1 -10    1.82    1.51
  -5   1 -10    2.12    0.93
   5   1  10    4.02    1.50
  -5   1 -10    2.08    1.08
   5   1  10    3.37    1.22
   6  -1  10    1.52    1.79
  -6   1 -10    3.51    1.44
   6   1  10    3.49    1.28
  -6   1 -10    2.95    1.12
  -6   1 -10    1.64    1.77
  -6   1 -10    3.52    2.50
   6   1  10    0.48    1.65
  -7   1 -10    5.40    1.64
  -7   1 -10    2.00    3.67
   7   1  10    6.31    1.80
   7   1  10    3.65    1.94
  -7   1 -10    7.28    2.19
  -8   1 -10    3.19    2.55
  16  -2 -10    4.51    3.60
  16   2 -10    6.20    2.93
  16   2 -10    5.39    3.03
  15  -2 -10    6.91    2.53
 -15  -2  10    3.37    2.90
  15  -2 -10    4.81    2.93
 -15  -2  10    7.76    2.73
  15   2 -10   11.66    2.72
  15   2 -10    8.63    2.47
  15   2 -10    7.03    3.29
 -15   2  10   10.31    2.76
 -15   2  10    5.23    3.67
 -14  -2  10   10.46    4.04
 -14  -2  10    0.04    2.34
 -14  -2  10    0.43    2.05
  14  -2 -10   -2.17    1.30
  14  -2 -10    0.18    2.22
  14  -2 -10   -1.97    2.56
 -14   2  10    0.25    2.15
  14   2 -10    3.02    1.97
 -14   2  10    3.68    2.86
 -14   2  10    1.92    2.13
  14   2 -10    1.20    2.28
  14   2 -10   -3.94    2.94
  13  -2 -10    8.32    2.00
  13  -2 -10    4.83    2.35
 -13  -2  10    9.41    2.01
 -13  -2  10   11.09    3.46
 -13  -2  10    9.70    1.98
  13   2 -10    9.30    2.62
 -13   2  10   12.86    2.17
 -13   2  10    7.66    1.96
 -13   2  10   10.70    2.51
  13   2 -10    7.07    2.07
  13   2 -10    9.91    1.78
 -12  -2  10   -0.89    2.92
  12  -2 -10    0.38    2.04
 -12  -2  10    1.92    1.67
  12  -2 -10   -0.49    1.68
 -12  -2  10    0.11    1.72
 -12  -2  10    0.28    1.41
  12   2 -10    2.35    2.11
 -12   2  10    2.32    2.22
  12   2 -10    0.46    1.35
  12   2 -10   -0.52    1.76
 -12   2  10   -1.83    1.48
 -12   2  10    2.16    1.70
 -11  -2  10   14.06    1.45
  11  -2 -10   12.64    1.68
 -11  -2  10   10.96    1.68
  11  -2 -10   11.66    2.00
 -11  -2  10   11.94    1.60
 -11  -2  10   14.75    2.73
 -11   2  10   14.55    2.12
  11   2 -10   11.17    1.49
  11   2 -10   15.49    2.18
 -11   2  10   13.34    1.62
  11   2 -10   11.77    1.75
 -11   2  10   14.03    1.71
  10  -2 -10    6.35    1.32
 -10  -2  10    7.36    1.44
  10  -2 -10    7.55    1.75
 -10  -2  10    8.48    2.31
 -10  -2  10    6.61    1.37
  10   2 -10    7.24    1.50
  10   2 -10    6.64    1.91
 -10   2  10    7.05    1.26
 -10   2  10    5.46    1.28
 -10   2  10    6.53    1.66
  10   2 -10    5.61    1.15
   9  -2 -10   10.72    1.73
  -9  -2  10   11.11    2.14
  -9  -2  10    8.98    1.30
  -9  -2  10    5.99    1.10
   9  -2 -10   10.75    1.26
  -9   2  10    9.75    1.19
  -9   2  10   12.03    1.48
   9   2 -10    9.35    1.17
   9   2 -10    9.19    1.41
   9   2 -10   11.32    1.80
  -8  -2  10   16.82    1.75
  -8  -2  10   15.00    1.38
   8  -2 -10   13.21    1.28
  -8  -2  10   19.30    2.13
   8  -2 -10   15.99    1.70
  -8   2  10   14.56    1.53
  -8   2  10   15.54    1.25
   8   2 -10   15.15    1.46
   8   2 -10   17.91    1.63
   8   2 -10   15.14    1.77
   7  -2 -10   15.56    1.51
  -7  -2  10   17.43    1.99
  -7  -2  10   17.20    1.63
  -7  -2  10   15.65    1.37
  -7   2  10   14.03    1.21
  -7   2  10   13.60    1.34
   7   2 -10   13.84    1.68
   7   2 -10   14.12    1.32
   6  -2 -10    7.71    1.17
   6  -2 -10    6.94    0.82
  -6  -2  10    8.32    1.08
  -6  -2  10    5.04    1.02
  -6  -2  10    7.11    1.65
   6   2 -10    7.59    1.47
  -6   2  10    6.44    1.12
  -6   2  10    6.48    0.93
   6   2 -10    7.25    1.13
  -5  -2  10   44.02    3.01
  -5  -2  10   35.88    2.10
   5  -2 -10   34.27    2.20
  -5  -2  10   41.73    2.13
  -5   2  10   34.66    1.95
  -5   2  10   39.26    2.25
   5   2 -10   39.38    2.24
   5   2 -10   41.15    2.79
  -4  -2  10   41.91    3.07
  -4  -2  10   43.46    2.21
  -4  -2  10   42.84    2.16
   4   2 -10   38.03    2.84
   4   2 -10   38.69    2.30
  -4   2  10   39.98    2.18
  -3  -2  10   10.49    1.09
  -3  -2  10    9.35    1.59
  -3  -2  10    9.06    1.13
   3   2 -10    9.58    1.53
   3   2 -10    8.99    1.11
  -2  -2  10    0.51    1.07
   2   2 -10   -0.16    0.90
   2   2 -10    0.29    1.13
   2   2 -10    0.59    1.35
  -2   2  10    0.34    0.46
   2   2 -10    0.33    0.63
  -1  -2  10   27.53    2.13
  -1  -2  10   31.08    2.10
   1   2 -10   24.67    2.21
   1   2 -10   25.94    1.85
   1   2 -10   29.22    2.91
  -1   2  10   25.11    1.47
  -1   2  10   23.72    1.81
   1   2 -10   26.41    1.58
   0  -2  10    1.48    1.18
   0  -2  10    4.38    1.24
   0   2 -10    3.14    0.96
   0   2 -10    2.77    0.65
   0   2 -10    3.24    1.07
   0   2 -10    2.73    1.75
   0   2  10    2.74    0.71
   0   2  10    3.65    0.89
   1  -2  10   40.35    2.59
  -1   2 -10   32.49    2.39
   1   2  10   40.07    1.98
  -1   2 -10   35.49    1.92
  -1   2 -10   47.38    3.42
   1   2  10   36.17    2.35
  -1   2 -10   34.39    2.44
   2  -2  10    7.59    1.42
  -2   2 -10    6.94    1.29
  -2   2 -10    6.62    0.90
   2   2  10    6.73    0.96
  -2   2 -10    7.27    2.01
   2   2  10    8.44    1.17
   3  -2  10   13.30    1.67
   3   2  10   12.43    1.20
   3   2  10   12.72    1.53
  -3   2 -10   11.01    1.43
  -3   2 -10   10.94    1.53
  -3   2 -10   11.61    1.09
  -3   2 -10   13.64    2.52
   4  -2  10    2.88    1.69
  -4   2 -10    1.22    0.94
  -4   2 -10    2.58    1.45
  -4   2 -10    3.83    2.43
  -4   2 -10    0.11    1.16
   4   2  10    3.15    1.09
   4   2  10    5.63    1.37
   5  -2  10   31.12    3.25
   5   2  10   30.13    2.78
   5   2  10   27.92    2.54
  -5   2 -10   24.73    2.18
  -5   2 -10   27.14    3.20
  -5   2 -10   40.61    3.35
  -5   2 -10   32.57    2.84
   6  -2  10    1.88    1.96
  -6   2 -10    2.72    3.08
   6   2  10    3.01    1.68
  -6   2 -10   -0.74    1.69
   6   2  10    1.45    1.60
  -6   2 -10    0.79    2.08
   7   2  10    0.96    2.07
   7   2  10   -0.54    1.92
   8   2  10    6.24    2.62
  15  -3 -10   -2.21    3.35
  15   3 -10    0.02    2.93
  15   3 -10    0.44    2.94
 -15   3  10   -2.37    4.31
 -14  -3  10   25.07    3.33
 -14  -3  10   12.77    2.63
  14  -3 -10   15.18    3.36
  14  -3 -10   11.77    2.73
 -14  -3  10   21.78    2.50
  14   3 -10    7.49    2.58
  14   3 -10   12.12    2.76
 -14   3  10    6.80    3.02
 -14   3  10    5.22    3.47
  14   3 -10    5.11    3.34
 -14   3  10   16.96    2.72
 -13  -3  10   10.42    2.67
  13  -3 -10   16.46    2.89
 -13  -3  10   13.66    2.22
 -13  -3  10   19.24    2.17
 -13  -3  10   10.47    4.23
  13  -3 -10   10.71    2.37
  13   3 -10   13.95    2.34
 -13   3  10   12.76    2.19
 -13   3  10    8.35    2.72
  13   3 -10   10.73    3.00
  13   3 -10    8.53    2.33
 -13   3  10    9.93    2.30
  12  -3 -10    1.74    1.97
 -12  -3  10    1.91    1.80
 -12  -3  10    3.10    3.86
  12  -3 -10    3.51    2.28
 -12  -3  10    3.00    1.70
 -12  -3  10   -1.50    2.12
  12   3 -10    1.83    1.83
 -12   3  10    1.50    1.85
  12   3 -10    0.67    2.03
 -12   3  10    1.16    2.48
  12   3 -10    2.20    2.70
 -12   3  10    3.45    1.72
 -11  -3  10    1.27    1.75
 -11  -3  10   -1.81    3.24
  11  -3 -10    1.31    2.22
 -11  -3  10    1.66    1.41
  11  -3 -10    0.58    1.65
 -11  -3  10    1.37    1.89
  11   3 -10    2.50    1.91
 -11   3  10    1.87    1.51
 -11   3  10    4.32    1.76
 -11   3  10    0.02    2.00
  11   3 -10    5.95    1.64
  11   3 -10    0.26    2.32
  10  -3 -10   33.99    3.59
  10  -3 -10   32.79    2.87
 -10  -3  10   35.72    3.64
 -10  -3  10   31.04    3.01
 -10   3  10   31.75    3.46
 -10   3  10   35.82    2.55
  10   3 -10   37.66    2.79
  10   3 -10   37.93    3.11
 -10   3  10   37.11    2.96
  10   3 -10   38.12    3.88
  -9  -3  10    9.07    1.50
  -9  -3  10    7.11    1.50
  -9  -3  10    9.73    2.75
   9  -3 -10    9.38    1.41
   9  -3 -10    7.02    1.73
   9   3 -10    9.48    1.67
  -9   3  10    9.67    1.27
   9   3 -10    8.72    1.38
   9   3 -10    7.27    2.01
  -9   3  10    9.36    1.40
  -9   3  10   10.99    1.87
  -8  -3  10    6.96    2.53
  -8  -3  10    3.97    1.31
   8  -3 -10    1.85    1.61
  -8  -3  10    2.15    1.37
   8   3 -10    3.42    1.15
  -8   3  10    5.55    1.61
  -8   3  10    2.88    1.13
   8   3 -10    4.46    1.93
  -8   3  10    2.44    1.11
   8   3 -10    4.48    1.44
  -7  -3  10    0.71    2.18
   7  -3 -10    3.75    1.44
  -7  -3  10    5.03    1.24
  -7  -3  10    2.12    1.17
   7  -3 -10    2.28    0.99
   7   3 -10    3.54    1.86
  -7   3  10    4.40    1.44
   7   3 -10    1.85    1.42
  -7   3  10    2.89    1.10
  -7   3  10    3.19    0.99
  -6  -3  10    9.25    1.24
   6  -3 -10    9.20    1.04
  -6  -3  10    6.92    2.26
  -6  -3  10   11.18    1.38
   6  -3 -10    8.47    1.48
  -6   3  10    8.46    1.16
   6   3 -10    9.46    1.39
   6   3 -10    9.81    1.94
  -5  -3  10    0.12    1.07
  -5  -3  10    1.60    1.84
  -5  -3  10    0.50    1.07
   5  -3 -10   -0.71    1.23
   5   3 -10   -1.01    1.60
  -5   3  10    1.46    1.08
  -5   3  10    1.32    1.01
   5   3 -10    0.40    1.24
  -4  -3  10   34.88    2.32
  -4  -3  10   32.31    3.65
  -4  -3  10   33.54    2.45
   4   3 -10   42.06    2.51
   4   3 -10   40.67    3.26
  -3  -3  10   17.25    1.93
   3   3 -10   18.51    1.50
   3   3 -10   17.10    2.11
   3   3 -10   19.79    1.79
   3   3 -10   18.98    2.07
  -2  -3  10    4.88    1.36
  -2  -3  10    4.19    1.19
  -2   3  10    5.20    0.71
   2   3 -10    6.68    2.08
   2   3 -10    4.94    0.86
   2   3 -10    5.51    1.27
   2   3 -10    6.52    1.41
  -1  -3  10    2.49    1.26
  -1  -3  10    1.09    1.19
  -1   3  10    2.67    0.88
   1   3 -10    4.24    1.27
   1   3 -10    0.97    1.32
   1   3 -10    2.01    2.04
   1   3 -10    2.79    0.84
  -1   3  10    3.71    0.76
   0  -3  10   12.81    1.55
   0  -3  10   10.11    1.66
   0   3 -10    8.61    1.08
   0   3  10   10.14    1.21
   0   3 -10   10.31    2.37
   0   3 -10    8.71    1.40
   0   3 -10    6.85    1.45
   0   3  10    9.42    1.01
   1  -3  10    6.10    1.60
   1  -3  10    5.77    1.51
  -1   3 -10    2.61    1.43
   1   3  10    3.38    1.11
  -1   3 -10    2.96    0.87
  -1   3 -10    5.23    1.39
  -1   3 -10    3.00    2.33
   1   3  10    5.68    0.91
   2  -3  10    7.29    1.62
   2  -3  10    8.77    1.86
  -2   3 -10    5.17    1.50
  -2   3 -10    7.35    2.56
   2   3  10    7.05    1.35
  -2   3 -10    7.67    1.13
  -2   3 -10    6.15    1.45
   2   3  10    8.03    1.25
   3  -3  10    4.09    1.68
  -3   3 -10    1.90    1.58
  -3   3 -10    5.51    2.92
  -3   3 -10    4.40    1.10
  -3   3 -10    3.34    1.72
   3   3  10    3.79    1.23
   3   3  10    6.53    1.33
   4  -3  10    3.87    1.89
   4   3  10    4.16    1.40
  -4   3 -10    1.17    1.86
  -4   3 -10    5.29    1.92
   4   3  10    2.12    1.33
  -4   3 -10    3.94    1.26
  -4   3 -10    1.78    3.19
   5  -3  10    8.12    2.02
   5   3  10    0.98    1.45
  -5   3 -10   -1.18    2.05
   5   3  10    0.02    1.64
  -5   3 -10   -1.39    3.54
  -5   3 -10   -0.64    2.11
   6   3  10    6.43    1.96
  -6   3 -10    7.06    4.16
   6   3  10    3.96    2.08
   7   3  10    2.48    2.20
  14  -4 -10   10.54    4.20
 -14  -4  10    2.35    2.82
  14   4 -10    5.50    3.65
 -14   4  10   -1.25    4.28
  13  -4 -10    5.39    3.54
 -13  -4  10    5.54    2.39
 -13  -4  10    7.93    3.93
 -13  -4  10    0.06    2.37
 -13   4  10    2.82    2.49
  13   4 -10    3.29    2.70
 -13   4  10    0.70    3.74
  12  -4 -10    6.89    3.14
 -12  -4  10    2.76    2.20
 -12  -4  10    5.42    2.24
 -12  -4  10    1.79    2.92
 -12   4  10    4.63    2.23
  12   4 -10    1.31    2.28
  12   4 -10    3.87    2.56
 -12   4  10    0.64    3.22
  12   4 -10    0.49    3.16
  11  -4 -10   10.06    2.93
 -11  -4  10    9.97    4.91
  11  -4 -10    0.99    2.15
 -11  -4  10    9.29    2.54
 -11  -4  10    6.13    1.94
 -11  -4  10   13.21    1.98
 -11   4  10   10.50    2.90
  11   4 -10   12.93    2.28
 -11   4  10    8.54    1.85
 -11   4  10   12.64    2.20
  11   4 -10   11.16    2.29
  11   4 -10    9.37    3.05
 -10  -4  10   10.75    1.98
 -10  -4  10    7.61    4.78
  10  -4 -10    7.67    1.93
 -10  -4  10    7.98    2.25
  10  -4 -10    5.57    2.47
 -10   4  10    6.65    1.82
 -10   4  10    5.48    1.67
  10   4 -10    3.71    2.84
  10   4 -10    7.15    2.12
 -10   4  10    5.93    2.46
  10   4 -10    5.23    1.90
  -9  -4  10    2.97    3.82
  -9  -4  10   -0.91    1.70
   9  -4 -10    1.20    1.56
   9  -4 -10   -1.85    2.20
  -9  -4  10   -1.84    1.91
   9   4 -10   -0.93    1.85
  -9   4  10    1.96    1.42
   9   4 -10   -2.90    2.54
  -9   4  10    0.69    1.50
  -9   4  10    1.60    2.13
   9   4 -10    0.27    1.65
  -8  -4  10   13.70    1.93
  -8  -4  10   10.27    1.91
   8  -4 -10   12.21    2.21
  -8  -4  10   15.08    3.75
   8   4 -10   13.81    1.75
   8   4 -10   13.28    2.50
  -8   4  10   12.09    1.57
  -8   4  10   18.87    2.21
   8   4 -10   14.70    2.03
  -8   4  10   18.71    1.68
  -7  -4  10   23.48    2.00
   7  -4 -10   18.15    2.17
  -7  -4  10   16.83    1.95
   7  -4 -10   17.02    1.49
  -7  -4  10   16.78    3.36
  -7   4  10   17.88    2.03
  -7   4  10   20.11    1.66
   7   4 -10   17.06    2.61
  -7   4  10   15.11    1.56
   7   4 -10   19.43    2.00
  -6  -4  10    4.51    1.63
   6  -4 -10    3.90    1.10
   6  -4 -10    2.92    1.76
  -6  -4  10    0.19    2.93
  -6  -4  10    6.84    1.55
   6   4 -10    3.44    2.27
  -6   4  10    5.12    1.22
   6   4 -10    4.86    1.70
  -6   4  10    1.86    1.61
  -6   4  10    3.09    1.09
  -5  -4  10   16.04    3.00
   5  -4 -10   11.96    1.66
  -5  -4  10   17.26    1.98
  -5  -4  10   16.14    1.84
   5   4 -10   15.07    2.53
   5   4 -10   14.14    1.78
  -5   4  10   12.87    1.31
  -5   4  10   10.34    1.59
  -4  -4  10    4.29    1.47
  -4  -4  10    4.64    1.48
   4   4 -10    3.60    1.75
   4   4 -10    2.14    1.05
   4   4 -10    2.47    2.30
   4   4 -10    1.23    1.66
  -3  -4  10   19.48    1.84
  -3  -4  10   22.59    1.87
  -3   4  10   15.13    1.38
   3   4 -10   18.25    1.50
   3   4 -10   17.18    2.08
   3   4 -10   19.11    2.70
   3   4 -10   16.41    1.89
  -2  -4  10    7.69    1.71
  -2  -4  10    5.61    1.62
   2   4 -10    8.77    2.56
  -2   4  10    5.53    0.97
   2   4 -10    7.17    1.83
   2   4 -10    4.85    1.27
   2   4 -10    5.12    1.82
  -1  -4  10    8.58    1.73
  -1  -4  10   10.77    1.91
   1   4 -10    8.85    1.81
   1   4 -10    8.70    1.81
   1   4 -10   11.91    2.84
  -1   4  10   10.75    1.16
   1   4 -10    9.34    1.28
   0  -4  10    2.31    1.69
   0  -4  10    6.05    1.81
   0   4 -10    3.73    2.84
   0   4 -10    3.08    1.84
   0   4 -10    3.51    1.74
   0   4  10    2.78    1.07
   0   4 -10    4.30    1.28
   1  -4  10   14.78    2.01
   1  -4  10   15.04    2.20
  -1   4 -10   12.76    2.02
  -1   4 -10   10.14    3.08
  -1   4 -10   11.12    1.45
  -1   4 -10    7.82    1.93
   1   4  10   12.60    1.38
   2  -4  10    0.60    1.83
   2  -4  10   -1.15    1.93
  -2   4 -10   -0.54    3.38
   2   4  10    0.52    1.22
  -2   4 -10   -0.75    2.01
  -2   4 -10    0.03    1.37
  -2   4 -10   -1.63    1.93
   3  -4  10    5.51    2.28
   3  -4  10    8.70    2.24
   3   4  10    6.61    1.56
  -3   4 -10    6.43    2.35
  -3   4 -10    6.60    3.82
  -3   4 -10    8.17    1.58
   4  -4  10    1.12    2.39
   4   4  10    2.17    1.67
  -4   4 -10    1.07    4.16
  -5   4 -10   11.53    5.02
   5   4  10   17.01    2.37
 -12  -5  10   -0.07    2.97
 -12   5  10   -1.97    2.75
 -11  -5  10    2.33    2.62
 -11   5  10    2.40    2.56
  11   5 -10    0.09    3.11
 -10  -5  10   21.37    3.48
  10  -5 -10    8.47    3.37
 -10  -5  10    5.86    2.30
 -10   5  10   12.89    2.27
  10   5 -10   12.44    2.86
  -9  -5  10    0.14    2.49
   9  -5 -10    6.72    3.17
  -9  -5  10   -0.71    2.98
  -9   5  10    5.35    3.23
  -9   5  10    1.81    1.88
   9   5 -10   -0.16    2.25
   9   5 -10    5.95    3.42
   9   5 -10    5.55    2.52
   8  -5 -10    2.02    2.68
  -8  -5  10    3.44    2.75
  -8  -5  10    1.63    2.19
  -8  -5  10    4.01    4.67
   8  -5 -10   -0.64    1.72
   8   5 -10   -0.48    3.14
  -8   5  10    0.85    2.71
   8   5 -10    2.25    2.63
  -7  -5  10    3.65    2.07
   7  -5 -10    5.42    2.57
   7  -5 -10    1.36    1.39
  -7  -5  10   -5.19    5.02
  -7  -5  10    1.16    2.78
  -7   5  10   -0.13    2.36
   7   5 -10    0.91    2.39
  -7   5  10    1.40    1.85
   7   5 -10    1.86    3.22
   6  -5 -10   17.40    1.66
  -6  -5  10   20.79    2.27
   6  -5 -10    8.11    2.39
  -6  -5  10   19.02    2.25
  -6   5  10   13.43    2.21
   6   5 -10   14.57    3.37
   6   5 -10   16.19    1.83
  -6   5  10   15.86    1.88
   6   5 -10   15.14    2.58
   6   5 -10   18.41    2.82
  -5  -5  10   -0.76    1.94
  -5  -5  10    0.80    1.82
   5   5 -10    2.17    2.45
   5   5 -10    2.25    2.96
   5   5 -10    1.73    2.58
   5   5 -10    0.48    1.36
  -5   5  10    3.36    1.86
  -5   5  10   -0.44    1.46
  -4  -5  10    4.30    2.00
  -4  -5  10    2.49    1.82
   4   5 -10    0.57    1.57
   4   5 -10    1.38    2.38
   4   5 -10    7.17    3.10
   4   5 -10    0.99    2.36
  -3  -5  10    6.51    2.02
  -3  -5  10    5.83    2.02
   3   5 -10    5.91    3.24
   3   5 -10    2.78    2.28
   3   5 -10    2.06    1.51
   3   5 -10    7.48    2.41
  -2  -5  10   28.05    2.38
  -2  -5  10   30.22    2.57
   2   5 -10   25.91    3.68
   2   5 -10   22.92    2.14
   2   5 -10   26.41    2.83
   2   5 -10   29.54    2.88
  -1  -5  10   10.90    2.52
  -1  -5  10    9.17    2.16
   1   5 -10   10.81    1.76
  -1   5  10    9.23    1.66
   1   5 -10    8.11    2.27
   1   5 -10   10.76    3.57
   1   5 -10   11.10    2.65
   0  -5  10    7.56    2.29
   0  -5  10    6.99    2.24
   0   5 -10    7.87    2.65
   0   5 -10    4.09    1.87
   0   5 -10   11.16    3.79
   0   5  10    8.57    1.69
   1  -5  10    7.68    2.45
  -1   5 -10   -0.03    1.84
  -1   5 -10    2.43    2.68
   1   5  10   -2.06    1.86
  -1   5 -10    4.03    4.05
   2  -5  10    4.55    2.57
  -2   5 -10    5.00    4.35
   2   5  10    5.68    2.15
  -2   5 -10    1.39    4.64
   3   5  10    7.48    2.41
  -3   5 -10    5.10    5.15
  -4   5 -10    9.98    5.95
   8   6 -10    4.44    3.69
   8   6 -10    7.52    3.86
   7   6 -10   10.66    2.58
   7   6 -10   11.43    3.84
  -6  -6  10   12.58    2.89
  -6   6  10    1.12    4.05
   6   6 -10    2.85    2.49
   6   6 -10   10.92    3.62
  -5  -6  10    3.64    2.60
   5   6 -10   -5.77    3.46
  -5   6  10    8.14    3.94
   5   6 -10   -2.07    2.29
  -4  -6  10    5.54    2.63
   4   6 -10    4.01    3.54
   4   6 -10   10.21    2.43
  -3  -6  10    3.16    2.65
   3   6 -10    7.44    2.27
   3   6 -10    2.32    3.58
   3   6 -10    8.34    4.86
  -2  -6  10    1.89    2.63
   2   6 -10   -2.05    5.04
   2   6 -10    0.14    3.69
  -1  -6  10    3.73    3.02
   1   6 -10    1.62    3.90
   0  -6  10   -0.32    3.01
  16   0 -11   18.33    3.77
 -16   0  11   18.30    3.42
  16   0 -11   33.74    3.99
  16   0 -11   19.01    2.95
 -15   0  11    1.76    2.54
 -15   0  11   -1.15    3.74
  15   0 -11    6.19    2.35
  15   0 -11   -0.32    1.80
  15   0 -11   -1.71    3.18
  14   0 -11    1.31    1.54
  14   0 -11    2.16    1.98
 -14   0  11    2.35    2.10
  14   0 -11    2.91    2.85
 -14   0  11   -0.79    2.06
 -14   0  11    2.01    2.91
 -13   0  11   14.16    1.95
  13   0 -11   16.46    1.48
 -13   0  11   16.01    2.10
  13   0 -11   17.20    2.51
  13   0 -11   15.25    2.00
 -13   0  11   14.42    2.66
 -12   0  11    2.14    2.11
 -12   0  11    5.50    1.45
  12   0 -11    4.41    2.22
 -12   0  11    2.33    1.60
  12   0 -11    4.18    1.08
  12   0 -11    4.21    1.59
  11   0 -11   17.21    2.16
 -11   0  11   15.13    1.56
  11   0 -11   12.40    1.56
  11   0 -11   15.20    1.62
 -11   0  11   18.84    1.81
 -11   0  11   16.60    2.05
 -10   0  11    4.15    1.64
 -10   0  11    3.75    1.23
  10   0 -11    4.08    1.31
  10   0 -11    3.06    1.76
  10   0 -11    2.42    0.79
   9   0 -11   15.22    1.90
  -9   0  11   14.52    1.34
  -9   0  11   19.77    1.82
   9   0 -11   14.96    1.39
  -8   0  11    2.02    1.30
   8   0 -11    3.94    1.41
   8   0 -11    2.39    0.97
  -8   0  11    2.02    0.97
  -8   0  11    2.19    0.60
   7   0 -11   42.24    2.71
  -7   0  11   42.31    1.93
  -7   0  11   43.81    2.83
   7   0 -11   41.15    2.22
  -7   0  11   40.24    2.14
   6   0 -11   14.07    1.44
  -6   0  11   15.84    1.53
  -6   0  11   11.63    1.10
  -6   0  11   12.77    1.40
  -5   0  11    4.44    1.19
   5   0 -11    4.26    1.10
  -5   0  11    3.97    0.61
  -5   0  11    4.62    0.92
   4   0 -11   13.26    1.30
   4   0 -11   12.71    1.21
  -4   0  11   12.91    1.23
  -4   0  11   14.84    1.09
  -4   0  11   13.25    1.35
   3   0 -11    1.12    1.03
   3   0 -11    1.21    0.64
  -3   0  11    0.51    0.80
  -3   0  11   -0.19    1.11
  -3   0  11    1.80    0.80
   2   0 -11   20.74    1.82
   2   0 -11   19.99    1.74
  -1   0  11    2.27    1.04
   0   0  11   18.82    1.57
   1   0  11   15.94    1.57
   2   0  11   20.52    1.81
   3   0  11    3.58    1.48
   4   0  11   -0.50    1.69
   5   0  11   13.73    2.28
   6   0  11   10.39    2.39
  16  -1 -11    5.37    2.73
 -16  -1  11    6.75    3.34
  16  -1 -11    6.52    3.48
 -16   1  11   -2.61    3.06
  16   1 -11    9.85    2.94
  16   1 -11    7.52    2.58
  15  -1 -11    3.38    1.66
 -15  -1  11   -0.09    2.68
  15  -1 -11    1.90    2.32
 -15  -1  11    5.73    4.13
  15  -1 -11    5.05    3.09
 -15   1  11    3.15    3.61
  15   1 -11    6.90    2.18
 -15   1  11    2.98    2.63
  15   1 -11    8.90    2.56
  15   1 -11   -0.95    3.35
 -14  -1  11    6.57    2.12
 -14  -1  11    8.76    2.14
  14  -1 -11    5.95    2.06
 -14  -1  11   10.59    3.59
  14  -1 -11    5.50    1.40
  14  -1 -11    6.33    2.63
  14   1 -11   10.41    2.25
  14   1 -11   10.60    2.95
 -14   1  11    7.87    2.42
 -14   1  11    9.09    2.17
  14   1 -11    8.53    1.85
 -14   1  11   11.23    3.05
 -13  -1  11    0.86    1.78
 -13  -1  11   -0.25    2.82
  13  -1 -11    1.56    1.74
  13  -1 -11    2.18    2.47
 -13  -1  11    0.95    1.89
  13   1 -11   -1.43    1.75
 -13   1  11    0.35    1.71
 -13   1  11   -1.31    2.30
  13   1 -11   -1.05    2.56
 -13   1  11    2.39    1.67
  13   1 -11    0.47    1.41
 -12  -1  11   -0.66    2.35
  12  -1 -11    1.17    1.51
 -12  -1  11   -0.45    1.58
  12  -1 -11    2.63    2.15
 -12  -1  11   -0.23    1.63
  12   1 -11    1.18    1.23
 -12   1  11    3.84    2.08
 -12   1  11    2.90    1.50
  12   1 -11    0.10    2.17
 -12   1  11    0.76    1.47
  12   1 -11    0.97    1.61
  11  -1 -11    2.59    1.42
 -11  -1  11    4.31    2.11
 -11  -1  11    6.29    1.14
 -11  -1  11    3.91    1.44
  11  -1 -11    3.40    2.00
  11   1 -11    5.18    1.10
 -11   1  11    4.39    1.73
 -11   1  11    5.71    1.49
  11   1 -11    5.20    1.93
 -11   1  11    4.88    1.38
  11   1 -11    3.71    1.46
  10  -1 -11   11.99    1.39
 -10  -1  11   10.01    1.13
  10  -1 -11   10.45    1.85
 -10  -1  11   10.31    2.05
 -10  -1  11    9.29    1.33
 -10   1  11    8.80    1.75
  10   1 -11    9.30    1.93
  10   1 -11   10.47    1.14
  10   1 -11    9.41    1.45
 -10   1  11    9.61    1.36
   9  -1 -11   11.89    1.68
  -9  -1  11   12.57    1.93
  -9  -1  11   12.09    1.28
   9  -1 -11   11.02    1.28
   9   1 -11   11.23    1.08
  -9   1  11   12.31    1.71
   9   1 -11   11.84    1.40
   9   1 -11   10.87    1.79
  -8  -1  11   13.23    1.80
   8  -1 -11   11.99    1.18
  -8  -1  11   10.38    1.26
  -8  -1  11   12.82    1.48
   8  -1 -11   11.96    1.55
  -8   1  11   11.36    1.55
  -8   1  11   12.40    1.17
   8   1 -11   13.71    1.67
   8   1 -11   11.63    1.26
  -7  -1  11    3.49    1.42
   7  -1 -11    2.25    1.31
  -7  -1  11    2.50    1.01
  -7  -1  11    3.65    0.87
   7   1 -11    2.11    1.02
   7   1 -11    2.07    1.39
  -7   1  11    3.56    1.13
  -7   1  11    2.32    0.91
  -6  -1  11   19.75    1.63
   6  -1 -11   17.49    1.53
  -6  -1  11   23.01    2.53
  -6  -1  11   19.24    1.47
  -6   1  11   18.43    2.02
  -6   1  11   17.81    1.50
   6   1 -11   20.47    1.73
   6   1 -11   22.02    2.33
  -5  -1  11   21.22    1.55
   5  -1 -11   20.35    1.96
   5  -1 -11   19.27    1.44
  -5  -1  11   19.07    1.45
  -5  -1  11   22.04    2.48
  -5   1  11   19.00    1.86
   5   1 -11   19.88    2.25
   5   1 -11   20.60    1.59
  -5   1  11   21.04    1.52
  -4  -1  11   49.11    3.16
  -4  -1  11   48.72    2.37
   4  -1 -11   50.44    2.59
  -4   1  11   47.16    2.57
   4   1 -11   53.84    2.62
   4   1 -11   49.57    2.98
  -4   1  11   51.36    2.31
  -3  -1  11   27.31    1.98
  -3  -1  11   23.52    1.77
  -3  -1  11   21.77    1.82
   3   1 -11   29.57    2.38
  -2  -1  11   72.89    3.22
   2   1 -11   67.23    3.35
   2   1 -11   67.56    3.60
   2   1 -11   73.50    3.04
   2   1 -11   69.30    2.91
  -1  -1  11    2.80    1.11
  -1   1  11    3.45    1.07
   1   1 -11    2.10    1.45
   1   1 -11    3.21    0.63
   1   1 -11    3.20    1.03
   1   1 -11    5.14    0.86
   0  -1  11    2.13    1.16
   0   1 -11    0.86    0.57
   0   1 -11    0.36    0.80
   0   1  11    2.48    1.08
   0   1 -11    2.07    1.54
   0   1 -11    0.99    1.03
   1  -1  11    6.72    1.34
  -1   1 -11    5.12    1.20
  -1   1 -11    6.37    0.74
   1   1  11    8.34    1.38
  -1   1 -11    6.58    0.94
  -1   1 -11    6.36    1.64
   2  -1  11   32.15    2.85
   2   1  11   36.00    2.68
  -2   1 -11   24.69    2.28
  -2   1 -11   32.69    3.29
  -2   1 -11   31.35    1.92
  -2   1 -11   25.55    1.64
   3  -1  11    3.47    1.60
   3   1  11    3.50    1.49
   3   1  11    2.55    1.01
  -3   1 -11    2.52    1.19
  -3   1 -11    4.39    2.06
   4  -1  11   12.03    1.86
  -4   1 -11   10.05    1.61
  -4   1 -11   12.33    2.31
   4   1  11   11.11    1.79
   4   1  11   11.17    1.29
   5  -1  11    9.39    2.12
   5   1  11   14.24    1.51
  -5   1 -11    4.50    2.50
   5   1  11   13.84    2.07
  -5   1 -11   10.07    1.87
   6   1  11    0.52    1.72
   6   1  11    2.65    2.15
  -6   1 -11    3.01    1.97
  -7   1 -11    1.54    2.35
  16  -2 -11    4.50    3.83
  16   2 -11    6.57    3.28
  16   2 -11   10.00    3.06
 -15  -2  11    2.67    3.19
  15  -2 -11    1.48    2.65
  15  -2 -11    3.57    3.02
  15   2 -11    3.97    2.78
 -15   2  11    9.16    3.92
  15   2 -11   -0.17    3.55
  15   2 -11    0.62    2.54
 -15   2  11    0.51    3.37
 -14  -2  11    3.05    4.33
  14  -2 -11    6.57    2.88
 -14  -2  11    3.72    2.24
  14  -2 -11    3.77    2.32
 -14  -2  11    3.87    2.46
 -14   2  11    5.76    2.34
  14   2 -11    5.37    2.88
  14   2 -11    6.36    2.14
 -14   2  11    3.66    2.42
 -14   2  11    0.87    3.25
  14   2 -11    7.68    2.47
  13  -2 -11   18.24    2.28
 -13  -2  11   17.17    2.50
 -13  -2  11   16.78    4.13
 -13  -2  11   15.33    2.20
  13  -2 -11   17.05    2.73
 -13  -2  11   18.14    1.97
 -13   2  11   13.65    2.19
  13   2 -11   16.19    2.88
  13   2 -11   13.46    2.27
 -13   2  11   15.25    2.80
  13   2 -11   17.45    2.04
 -13   2  11   19.65    2.53
 -12  -2  11    4.47    3.17
  12  -2 -11    5.32    1.86
  12  -2 -11    5.23    2.18
 -12  -2  11    2.03    1.88
 -12  -2  11    4.41    1.39
 -12  -2  11    8.03    1.81
  12   2 -11    3.18    1.88
 -12   2  11    1.70    1.74
  12   2 -11    4.96    2.30
 -12   2  11    6.77    1.88
 -12   2  11    4.96    2.17
  12   2 -11    5.27    1.58
  11  -2 -11    6.90    1.97
  11  -2 -11    8.08    1.66
 -11  -2  11    7.54    1.67
 -11  -2  11   12.29    2.61
 -11  -2  11    7.24    1.35
 -11   2  11    6.95    1.47
 -11   2  11    6.91    1.63
  11   2 -11    7.27    1.33
  11   2 -11    8.59    2.22
  11   2 -11    7.71    1.74
 -11   2  11    5.59    1.97
 -10  -2  11    7.10    2.45
  10  -2 -11    2.82    1.32
 -10  -2  11    3.69    1.19
 -10  -2  11    6.27    1.45
  10  -2 -11    3.57    1.80
  10   2 -11    5.75    1.57
 -10   2  11    2.20    1.79
  10   2 -11    5.21    1.21
 -10   2  11    3.06    1.30
  10   2 -11    2.39    1.93
 -10   2  11    3.39    1.43
   9  -2 -11   11.99    1.78
   9  -2 -11   11.21    1.39
  -9  -2  11    9.72    1.23
  -9  -2  11   10.85    2.37
  -9  -2  11   12.00    1.49
   9   2 -11   12.42    2.11
  -9   2  11   13.04    1.70
  -9   2  11    9.04    1.37
  -9   2  11   13.16    1.30
   9   2 -11   13.70    1.54
   9   2 -11   13.18    1.34
   8  -2 -11    0.37    1.52
  -8  -2  11    0.90    1.97
  -8  -2  11    2.21    1.17
  -8  -2  11    0.32    1.18
   8   2 -11    2.71    1.66
  -8   2  11    0.72    1.36
  -8   2  11    2.58    1.02
   8   2 -11    2.07    1.33
  -7  -2  11   55.50    2.77
  -7  -2  11   56.33    3.95
   7  -2 -11   53.57    2.67
  -7  -2  11   59.29    2.79
   7  -2 -11   48.23    3.11
   7   2 -11   52.80    2.89
  -7   2  11   51.64    2.61
  -7   2  11   53.29    3.06
   7   2 -11   57.46    3.45
  -6  -2  11    2.23    1.01
   6  -2 -11    2.91    1.23
   6  -2 -11    1.75    0.77
  -6  -2  11    1.15    1.07
  -6  -2  11    3.68    1.72
   6   2 -11    3.84    1.57
   6   2 -11    2.45    1.13
  -6   2  11    3.38    1.15
  -6   2  11    2.82    1.03
  -5  -2  11   14.18    1.95
  -5  -2  11   15.50    1.61
   5  -2 -11   14.54    1.29
  -5  -2  11   13.76    1.21
  -5   2  11   12.61    1.23
   5   2 -11   12.11    1.29
  -5   2  11   12.66    1.11
   5   2 -11   12.78    1.81
  -4  -2  11    4.50    0.96
  -4  -2  11    4.92    1.05
  -4  -2  11    1.63    1.56
   4   2 -11    2.17    1.07
   4   2 -11    1.79    1.51
  -3  -2  11    1.10    1.06
  -3  -2  11    0.65    1.12
   3   2 -11   -1.40    1.50
   3   2 -11    0.99    0.70
   3   2 -11   -0.05    1.02
   3   2 -11    0.24    1.11
  -2  -2  11   12.27    1.37
  -2  -2  11   15.37    1.45
   2   2 -11   13.31    1.89
   2   2 -11   13.22    1.22
   2   2 -11   14.89    1.47
  -2   2  11   13.15    1.10
   2   2 -11   12.50    1.04
  -1  -2  11    6.71    1.33
  -1  -2  11    8.52    1.47
  -1   2  11    8.55    0.88
   1   2 -11    6.51    1.30
  -1   2  11    8.37    1.09
   1   2 -11    8.73    1.92
   1   2 -11    7.29    0.88
   1   2 -11    7.38    1.08
   0  -2  11    4.69    1.47
   0  -2  11    7.02    1.45
   0   2 -11    5.72    1.96
   0   2 -11    6.59    0.94
   0   2 -11    4.43    1.26
   0   2  11    5.29    0.87
   0   2  11    7.89    1.31
   1  -2  11    4.30    1.42
  -1   2 -11    5.17    2.08
  -1   2 -11    4.82    0.85
   1   2  11    5.03    0.88
  -1   2 -11    4.60    1.62
  -1   2 -11    4.48    1.40
   1   2  11    4.70    1.27
   2  -2  11    1.37    1.53
   2   2  11    1.67    0.97
  -2   2 -11    0.18    1.10
   2   2  11    0.03    1.35
  -2   2 -11   -0.59    0.84
  -2   2 -11    1.11    2.32
  -2   2 -11   -0.55    1.38
   3  -2  11    8.02    1.74
  -3   2 -11    9.24    2.46
  -3   2 -11    7.29    1.38
  -3   2 -11    7.60    1.09
  -3   2 -11    5.49    1.58
   3   2  11    7.87    1.22
   4  -2  11    3.69    2.03
   4   2  11    4.61    1.34
  -4   2 -11    4.06    3.00
   4   2  11    2.64    1.66
  -4   2 -11    5.74    1.76
  -4   2 -11    2.45    1.41
  -4   2 -11    3.80    1.17
   5  -2  11   11.74    2.38
   5   2  11   10.08    1.98
  -5   2 -11    7.46    2.07
   5   2  11   12.38    1.77
  -5   2 -11   11.86    3.60
   6   2  11    5.36    2.04
   6   2  11    0.08    2.09
   7   2  11   12.81    2.65
  15  -3 -11   -0.44    3.61
 -15   3  11   -2.17    4.83
  15   3 -11    2.95    3.18
  15   3 -11   -2.46    3.05
 -14  -3  11    6.32    2.28
  14  -3 -11    6.58    3.26
 -14  -3  11    5.76    3.27
 -14  -3  11    3.37    2.43
  14   3 -11    5.82    2.82
 -14   3  11    8.48    4.14
  14   3 -11    4.21    2.82
  13  -3 -11    4.99    2.76
 -13  -3  11    7.01    1.95
 -13  -3  11    5.76    2.23
 -13  -3  11    9.82    4.79
  13  -3 -11   -2.23    2.34
 -13  -3  11   16.19    2.89
  13   3 -11    3.13    3.11
 -13   3  11    8.92    2.88
 -13   3  11    4.29    2.41
  13   3 -11    4.80    2.38
 -13   3  11   11.33    3.28
  13   3 -11    3.50    2.23
 -12  -3  11   -2.07    4.18
 -12  -3  11   -0.24    2.30
 -12  -3  11    0.82    1.95
  12  -3 -11   -1.08    2.01
  12  -3 -11   -2.65    2.38
  12   3 -11   -1.06    2.64
  12   3 -11    1.56    2.07
  12   3 -11    1.94    1.77
 -12   3  11    0.44    2.57
 -12   3  11    2.37    2.05
 -12   3  11    0.22    1.94
  11  -3 -11    8.18    2.38
  11  -3 -11    6.98    1.95
 -11  -3  11    3.87    3.69
 -11  -3  11    8.50    2.04
 -11  -3  11    8.48    1.63
  11   3 -11   16.94    2.09
 -11   3  11    7.70    1.76
 -11   3  11    9.57    2.26
  11   3 -11   11.98    1.87
 -11   3  11    7.79    1.98
  11   3 -11    9.36    2.54
  10  -3 -11    4.91    1.56
 -10  -3  11    6.45    3.24
  10  -3 -11    8.03    2.10
 -10  -3  11    9.15    1.78
 -10  -3  11    3.38    1.55
  10   3 -11    7.52    1.80
  10   3 -11    8.72    1.61
 -10   3  11    6.10    1.51
  10   3 -11   14.76    2.39
 -10   3  11    8.27    1.93
 -10   3  11    8.04    1.60
  -9  -3  11   11.80    1.66
   9  -3 -11    8.56    1.92
  -9  -3  11    9.46    1.56
  -9  -3  11   16.22    2.94
  -9   3  11    9.49    1.49
  -9   3  11   10.39    1.53
   9   3 -11   10.61    2.17
  -9   3  11   11.64    1.91
   9   3 -11   10.88    1.60
   9   3 -11    9.28    1.78
  -8  -3  11   24.59    2.43
  -8  -3  11   20.40    1.82
   8  -3 -11   23.21    2.13
  -8  -3  11   20.19    3.03
   8  -3 -11   18.31    2.01
  -8   3  11   18.90    1.95
  -8   3  11   22.35    1.66
  -8   3  11   21.77    2.06
   8   3 -11   20.16    1.84
   8   3 -11   23.54    2.40
   7  -3 -11   -0.20    1.04
  -7  -3  11    4.12    2.47
  -7  -3  11    2.19    1.33
  -7  -3  11   -1.02    1.34
   7  -3 -11    0.70    1.43
  -7   3  11    0.96    1.43
  -7   3  11    1.06    1.22
   7   3 -11   -0.13    1.46
   7   3 -11    1.81    1.93
  -6  -3  11    3.38    1.23
   6  -3 -11    3.85    1.41
  -6  -3  11    5.50    1.35
  -6  -3  11    3.42    2.35
  -6   3  11    2.62    1.14
   6   3 -11    1.68    1.46
  -6   3  11    1.75    1.30
   6   3 -11    3.88    2.01
  -5  -3  11    0.84    1.11
  -5  -3  11   -0.55    2.23
  -5  -3  11   -2.03    1.28
   5   3 -11    0.71    1.85
  -5   3  11   -0.22    1.15
   5   3 -11   -0.01    1.35
  -4  -3  11   11.77    2.33
  -4  -3  11   10.88    1.42
  -4  -3  11    9.83    1.61
   4   3 -11    8.80    1.07
   4   3 -11    9.36    1.41
   4   3 -11    9.58    2.17
  -3  -3  11    1.09    1.28
  -3  -3  11    0.40    1.32
   3   3 -11   -1.09    1.53
   3   3 -11   -0.47    0.87
   3   3 -11    0.94    1.37
   3   3 -11   -1.53    2.00
  -2  -3  11   53.68    3.22
   2   3 -11   53.45    3.09
  -2   3  11   50.53    2.43
   2   3 -11   53.22    4.21
   2   3 -11   55.26    2.76
  -2   3  11   50.27    2.84
   2   3 -11   56.71    3.49
  -1  -3  11    2.04    1.49
  -1  -3  11    2.49    1.42
   1   3 -11    3.62    1.47
   1   3 -11    1.29    1.46
  -1   3  11   -0.86    1.10
  -1   3  11    2.05    0.79
   1   3 -11    2.02    2.11
   1   3 -11    1.37    0.97
   0  -3  11   -1.55    1.46
   0  -3  11    1.36    1.66
   0   3 -11    0.84    2.32
   0   3  11   -0.71    0.84
   0   3 -11    0.75    0.98
   0   3  11    0.85    1.21
   0   3 -11    1.71    1.41
   0   3 -11    1.83    1.55
   1  -3  11    1.94    1.76
   1  -3  11    3.48    1.87
   1   3  11    1.78    1.38
  -1   3 -11    3.72    1.05
   1   3  11    2.06    1.03
  -1   3 -11    2.53    2.77
  -1   3 -11    0.93    1.60
  -1   3 -11    1.60    1.51
   2  -3  11   34.91    3.37
   2  -3  11   28.15    3.23
  -2   3 -11   29.28    3.07
  -2   3 -11   38.72    3.48
  -2   3 -11   28.03    2.43
   2   3  11   34.34    2.98
  -2   3 -11   25.50    2.31
   2   3  11   28.81    2.36
   3  -3  11    4.10    2.19
   3  -3  11    1.67    1.97
  -3   3 -11    0.38    1.78
  -3   3 -11    2.38    1.97
   3   3  11    4.51    1.42
  -3   3 -11    1.96    3.27
  -3   3 -11    4.82    1.32
   3   3  11    2.95    1.57
   4  -3  11    2.73    2.44
  -4   3 -11    1.25    2.86
   4   3  11   -0.58    1.58
   4   3  11   -0.78    1.76
  -4   3 -11    3.94    4.04
   5   3  11    5.16    2.05
   5   3  11    7.42    1.85
  -5   3 -11    7.61    5.08
   6   3  11    1.57    2.29
 -13  -4  11    8.02    2.90
  13  -4 -11   14.16    4.15
 -13  -4  11    5.58    3.81
  13   4 -11    8.03    3.01
 -13   4  11    7.57    2.67
 -13   4  11    7.03    3.84
 -12  -4  11    3.90    2.33
  12  -4 -11   14.09    3.53
 -12  -4  11    6.67    3.13
 -12  -4  11    4.69    2.37
 -12   4  11    6.06    2.30
  12   4 -11   10.47    3.23
  12   4 -11    8.72    2.84
  12   4 -11    7.18    2.64
 -12   4  11    8.51    3.35
 -11  -4  11    7.85    2.08
 -11  -4  11   17.22    2.81
  11  -4 -11   12.01    3.13
 -11  -4  11   22.46    5.42
  11   4 -11   18.30    2.48
 -11   4  11   13.54    3.21
 -11   4  11   17.28    2.19
  11   4 -11   23.58    3.42
  11   4 -11   10.94    2.62
 -10  -4  11    0.79    2.33
  10  -4 -11   -0.60    1.77
  10  -4 -11    0.26    2.72
 -10  -4  11    8.52    4.71
 -10  -4  11   -0.57    1.80
  10   4 -11    0.19    1.92
 -10   4  11    2.81    1.72
 -10   4  11    3.44    2.76
  10   4 -11   -1.14    2.67
 -10   4  11    1.57    1.63
  10   4 -11   -3.64    2.17
   9  -4 -11   23.31    2.83
  -9  -4  11   18.76    4.47
  -9  -4  11   17.38    2.17
  -9  -4  11   23.84    2.41
   9   4 -11   25.37    2.34
   9   4 -11   21.02    3.05
  -9   4  11   27.32    2.13
   9   4 -11   22.75    2.44
  -9   4  11   25.89    2.85
  -9   4  11   21.65    1.97
  -8  -4  11   12.91    2.08
   8  -4 -11   10.48    2.35
   8  -4 -11   10.93    1.49
  -8  -4  11   12.64    2.10
  -8  -4  11    3.61    3.84
   8   4 -11    9.13    2.16
  -8   4  11   11.10    2.18
   8   4 -11   10.64    2.80
  -8   4  11   11.21    1.68
   7  -4 -11    9.55    2.06
  -7  -4  11    7.14    1.91
  -7  -4  11    3.87    3.22
   7  -4 -11    6.17    1.30
  -7  -4  11    6.79    1.77
  -7   4  11    3.91    1.46
   7   4 -11    4.03    2.54
   7   4 -11    5.76    2.07
  -7   4  11    7.03    1.88
  -7   4  11    5.18    1.30
   6  -4 -11    4.75    1.75
  -6  -4  11   10.51    1.74
  -6  -4  11    5.63    1.93
  -6  -4  11    6.26    3.25
  -6   4  11    6.95    1.23
  -6   4  11    4.02    1.70
  -6   4  11    7.08    1.39
   6   4 -11    8.65    2.02
   6   4 -11    7.59    2.56
  -5  -4  11   10.15    1.81
   5   4 -11    8.56    1.79
  -5   4  11    5.74    1.14
   5   4 -11   12.32    2.56
   5   4 -11    8.98    1.96
   5   4 -11    7.34    1.38
  -4  -4  11    3.29    1.55
  -4  -4  11    1.48    1.68
   4   4 -11    4.20    1.24
   4   4 -11    3.35    1.90
   4   4 -11    4.04    1.96
   4   4 -11    5.45    2.48
  -3  -4  11    9.70    1.73
  -3  -4  11    8.00    1.76
   3   4 -11    6.41    1.32
   3   4 -11    6.56    2.23
   3   4 -11    5.65    1.86
   3   4 -11    9.05    2.59
  -2  -4  11    5.41    1.85
  -2  -4  11    6.59    1.83
   2   4 -11    6.28    1.28
   2   4 -11    5.69    2.02
   2   4 -11    6.62    1.88
  -2   4  11    6.33    1.07
   2   4 -11    3.77    2.95
  -1  -4  11   26.63    2.33
  -1  -4  11   25.41    2.36
   1   4 -11   24.35    1.85
   1   4 -11   24.20    2.34
  -1   4  11   24.93    2.06
   1   4 -11   24.22    3.27
   1   4 -11   21.64    2.43
   0  -4  11   11.75    2.16
   0  -4  11   10.12    2.19
   0   4 -11    9.69    2.14
   0   4 -11    8.84    1.60
   0   4 -11   12.04    3.33
   0   4 -11    8.55    2.16
   0   4  11   10.06    1.39
   1  -4  11    4.23    2.23
   1  -4  11    5.29    2.27
  -1   4 -11    2.71    3.43
  -1   4 -11    3.47    2.22
  -1   4 -11    3.39    2.11
  -1   4 -11    1.93    1.53
   1   4  11    0.74    1.43
   2  -4  11    5.73    2.30
   2  -4  11    6.42    2.41
  -2   4 -11    3.07    2.38
  -2   4 -11    5.05    3.74
   2   4  11    5.11    1.57
  -3   4 -11    3.55    4.40
   3   4  11    6.45    1.80
  -4   4 -11    6.71    4.99
   4   4  11    5.10    2.13
   5   4  11    9.29    2.58
 -11  -5  11    2.76    2.69
 -11   5  11    7.15    2.83
  11   5 -11    3.20    3.56
 -10  -5  11    8.19    3.71
  10   5 -11   16.75    3.18
 -10   5  11    3.49    2.48
  -9  -5  11   16.07    3.42
   9   5 -11   13.34    3.74
   9   5 -11   14.58    2.91
  -9   5  11   11.87    2.31
  -8  -5  11   14.93    2.94
  -8  -5  11   11.48    3.20
   8   5 -11   10.94    3.61
   8   5 -11   10.24    2.83
   7  -5 -11    1.13    2.21
  -7  -5  11    6.97    2.35
   7   5 -11    4.30    2.77
   7   5 -11    1.76    1.70
  -7   5  11    0.76    2.02
   7   5 -11    3.26    3.41
  -6  -5  11    4.95    2.36
  -6  -5  11   -0.11    2.00
  -6   5  11   -1.70    1.87
   6   5 -11    1.63    4.96
   6   5 -11   -0.66    1.66
   6   5 -11    1.70    2.72
   6   5 -11   -2.78    3.37
  -5  -5  11    0.13    2.07
  -5  -5  11    1.71    2.24
   5   5 -11   -0.11    1.84
   5   5 -11    0.41    2.74
   5   5 -11   -3.00    3.18
   5   5 -11    1.09    4.56
  -4  -5  11   15.95    2.36
  -4  -5  11   18.41    2.55
   4   5 -11   14.24    2.64
   4   5 -11   18.47    2.11
   4   5 -11   15.61    3.70
  -3  -5  11    0.30    2.36
  -3  -5  11    2.38    2.11
   3   5 -11   -0.69    2.61
   3   5 -11    0.96    3.47
   3   5 -11    0.04    1.78
  -2  -5  11    1.57    2.28
  -2  -5  11    2.87    2.46
   2   5 -11    2.12    2.81
   2   5 -11    0.49    3.54
   2   5 -11    2.73    1.73
  -2   5  11    1.96    1.21
  -1  -5  11    3.10    2.47
   1   5 -11    1.21    1.94
  -1   5  11    2.25    1.53
   1   5 -11    0.75    2.83
   1   5 -11    1.34    3.51
   0  -5  11    1.18    2.57
   0   5 -11    3.12    4.13
   0   5 -11   -3.45    3.01
   0   5  11   -0.17    1.74
   1  -5  11    9.32    3.90
  -1   5 -11    2.17    4.94
   1   5  11    4.87    2.16
   2   5  11    0.17    2.85
  -2   5 -11    7.78    5.58
  -6  -6  11    4.07    3.87
  -6   6  11    3.71    4.13
   6   6 -11    2.40    4.01
  -5  -6  11   20.86    3.23
   5   6 -11   14.32    4.06
  -4  -6  11    7.76    3.14
   4   6 -11    0.18    4.04
  -3  -6  11   -3.83    3.03
  16   0 -12    0.21    3.99
  16   0 -12    4.69    2.78
 -16   0  12   -0.26    3.41
 -15   0  12   10.13    3.99
  15   0 -12    2.41    2.62
 -15   0  12    5.99    3.02
  15   0 -12    6.33    1.81
  15   0 -12    7.32    3.28
 -14   0  12   13.61    2.47
  14   0 -12   17.19    2.38
  14   0 -12   15.62    1.75
 -14   0  12   19.14    2.68
 -14   0  12   15.33    3.35
  14   0 -12    9.86    2.91
  13   0 -12    4.70    2.49
  13   0 -12    4.71    1.29
 -13   0  12    1.37    1.99
 -13   0  12    5.21    2.67
  13   0 -12    6.32    1.91
 -13   0  12    6.41    1.91
  12   0 -12   10.04    2.39
 -12   0  12    8.27    2.40
  12   0 -12    6.95    1.12
  12   0 -12    7.71    1.75
 -12   0  12    9.54    1.87
 -11   0  12   23.21    2.57
  11   0 -12   31.10    2.63
 -11   0  12   29.77    2.71
  11   0 -12   26.07    2.70
  10   0 -12    2.88    1.91
  10   0 -12    0.74    1.36
 -10   0  12    1.93    1.27
 -10   0  12   -0.35    1.81
  -9   0  12   30.60    3.15
  -9   0  12   24.95    2.09
   9   0 -12   24.69    2.18
   9   0 -12   25.39    2.19
   8   0 -12    1.96    1.04
  -8   0  12    0.39    1.55
  -8   0  12    0.86    1.02
   8   0 -12   -0.25    1.51
   7   0 -12    9.01    1.14
  -7   0  12   10.42    1.19
  -7   0  12    7.19    1.14
  -7   0  12    8.46    1.66
   7   0 -12   11.06    1.47
  -6   0  12    3.16    0.68
   6   0 -12    2.46    0.90
  -6   0  12    1.73    1.33
   6   0 -12    1.14    1.30
  -6   0  12    4.39    1.03
  -5   0  12   40.01    1.92
   5   0 -12   39.71    2.58
  -5   0  12   40.00    2.12
  -5   0  12   39.29    2.78
   5   0 -12   38.58    2.05
  -4   0  12    0.70    0.95
  -4   0  12    1.81    0.85
  -4   0  12    1.54    1.32
   4   0 -12    1.19    1.19
   4   0 -12    1.48    0.75
  -3   0  12   -1.03    1.02
   3   0 -12    0.87    1.11
  -3   0  12   -0.50    0.92
  -3   0  12    0.63    1.26
   2   0 -12   16.58    1.44
   2   0 -12   18.30    2.01
  -1   0  12   20.37    2.19
   0   0  12   -0.71    1.33
   1   0  12   10.16    1.65
   2   0  12    2.05    1.63
   3   0  12    3.86    1.78
   4   0  12    1.02    2.11
   5   0  12   -2.82    2.17
  16  -1 -12   18.59    3.93
 -16  -1  12   12.54    3.55
  16   1 -12    9.63    3.25
 -15  -1  12    5.58    2.98
  15  -1 -12    8.21    3.25
  15  -1 -12    8.83    2.63
 -15  -1  12    5.01    4.62
 -15   1  12    7.88    3.87
  15   1 -12    6.06    2.74
  15   1 -12    5.53    2.22
  15   1 -12    2.75    3.47
 -15   1  12    8.93    2.96
  14  -1 -12   14.31    2.40
 -14  -1  12   16.52    4.05
  14  -1 -12   16.70    3.11
 -14  -1  12   12.05    2.58
 -14  -1  12   12.38    2.53
  14   1 -12   14.54    2.38
  14   1 -12   12.71    3.14
 -14   1  12   15.34    3.43
  14   1 -12   15.35    2.08
 -14   1  12    9.89    2.58
 -14   1  12   14.53    2.37
 -13  -1  12   -2.08    1.99
  13  -1 -12   -0.05    1.74
 -13  -1  12    4.76    3.18
  13  -1 -12    5.86    2.58
 -13  -1  12    1.84    2.07
  13   1 -12   -0.44    2.68
 -13   1  12   -1.54    2.52
  13   1 -12    1.79    1.45
 -13   1  12   -1.75    1.97
  13   1 -12    1.91    2.06
 -13   1  12    1.65    1.91
 -12  -1  12    0.78    1.63
  12  -1 -12    1.63    1.60
 -12  -1  12    4.49    1.75
  12  -1 -12    0.45    2.46
 -12  -1  12    3.27    2.75
 -12   1  12    1.14    2.15
  12   1 -12    2.01    1.79
  12   1 -12   -0.37    2.27
 -12   1  12    0.59    1.82
 -12   1  12    0.60    1.76
  12   1 -12    0.71    1.35
  11  -1 -12    1.78    1.47
 -11  -1  12    0.96    2.26
 -11  -1  12    0.99    1.10
  11  -1 -12    0.82    2.00
 -11  -1  12    0.67    1.41
 -11   1  12    0.00    1.45
 -11   1  12    2.77    1.95
  11   1 -12   -0.13    1.15
  11   1 -12    2.47    1.54
  11   1 -12    1.88    1.98
 -11   1  12    3.33    1.48
 -10  -1  12   26.17    1.89
 -10  -1  12   22.87    2.36
  10  -1 -12   27.24    2.36
  10  -1 -12   23.58    2.38
 -10  -1  12   29.72    2.72
 -10   1  12   24.58    2.30
 -10   1  12   28.24    2.39
  10   1 -12   24.90    2.55
  10   1 -12   22.11    2.30
  -9  -1  12    0.12    0.92
   9  -1 -12   -0.22    1.60
  -9  -1  12    0.80    1.29
   9  -1 -12   -0.10    1.21
  -9  -1  12   -0.78    2.00
   9   1 -12    0.44    1.71
  -9   1  12   -1.32    1.58
  -9   1  12    1.42    1.13
   9   1 -12    0.04    1.22
  -8  -1  12    7.54    1.12
   8  -1 -12    9.75    1.52
  -8  -1  12    8.17    1.83
  -8  -1  12    7.23    1.24
  -8   1  12    6.71    1.10
   8   1 -12    7.25    1.29
   8   1 -12    7.08    1.74
  -8   1  12   10.01    1.61
   7  -1 -12    2.92    0.95
  -7  -1  12    3.31    1.69
   7  -1 -12    2.43    1.38
  -7  -1  12    3.15    0.96
   7   1 -12    3.18    1.52
   7   1 -12    2.52    1.17
  -7   1  12    2.71    1.01
  -7   1  12    3.88    1.33
  -6  -1  12    1.74    0.97
  -6  -1  12    1.59    0.87
   6  -1 -12    0.72    1.26
   6  -1 -12    0.56    0.87
  -6  -1  12    0.40    1.60
  -6   1  12    1.29    1.25
  -6   1  12    0.99    0.97
   6   1 -12    0.42    1.48
   6   1 -12    1.27    1.04
   5  -1 -12    3.43    0.82
   5  -1 -12    3.25    1.22
  -5  -1  12    2.80    0.88
  -5  -1  12    3.93    0.98
  -5  -1  12    3.32    1.60
  -5   1  12    3.56    0.98
   5   1 -12    2.02    1.01
  -5   1  12    3.71    1.16
   5   1 -12    4.85    1.41
  -4  -1  12    3.50    0.98
  -4  -1  12   -0.28    0.91
  -4  -1  12    2.80    1.50
  -4   1  12    1.30    1.20
  -4   1  12    0.93    0.43
  -4   1  12    0.79    0.63
   4   1 -12    0.41    1.46
   4   1 -12   -0.86    1.31
  -3  -1  12   22.65    1.85
  -3  -1  12   23.46    1.95
   3   1 -12   25.19    2.00
   3   1 -12   21.21    1.48
   3   1 -12   22.63    1.74
  -2  -1  12   29.48    2.32
  -2  -1  12   26.28    2.14
   2   1 -12   25.15    2.80
   2   1 -12   26.64    1.67
   2   1 -12   27.38    1.84
   2   1 -12   27.85    2.51
  -1  -1  12    1.79    1.21
   1   1 -12    2.37    0.73
   1   1 -12    2.33    1.14
  -1   1  12    2.65    1.15
   1   1 -12    2.38    1.60
   1   1 -12    2.21    0.94
   0  -1  12   25.21    2.80
   0   1 -12   23.09    1.87
   0   1 -12   19.63    2.25
   0   1  12   31.19    2.58
   0   1 -12   20.51    1.54
   0   1 -12   25.45    3.02
   1  -1  12    4.69    1.61
  -1   1 -12    5.30    1.93
  -1   1 -12    5.88    1.29
   1   1  12    6.26    1.58
  -1   1 -12    6.10    0.81
   2  -1  12    3.26    1.74
   2   1  12    3.81    1.79
   2   1  12    1.95    1.00
  -2   1 -12    1.54    0.79
  -2   1 -12    4.41    2.07
   3  -1  12    6.84    1.78
  -3   1 -12    1.86    1.49
   3   1  12    1.10    1.82
   3   1  12    2.46    1.07
  -3   1 -12    1.50    2.21
   4  -1  12   35.20    3.94
  -4   1 -12   34.65    3.34
   4   1  12   36.04    3.92
   4   1  12   40.00    2.78
   5   1  12   -0.37    2.33
   5   1  12    3.58    1.62
  -5   1 -12    1.26    2.09
  15  -2 -12    5.12    3.43
 -15  -2  12    3.50    3.53
  15   2 -12    3.51    3.08
  15   2 -12    5.77    2.68
 -15   2  12   -3.38    4.14
  14  -2 -12    0.74    2.45
 -14  -2  12    0.10    4.63
  14  -2 -12    4.57    3.00
 -14  -2  12   -0.91    2.73
 -14  -2  12    4.48    2.75
 -14   2  12   -4.66    3.48
  14   2 -12    1.27    2.45
  14   2 -12    3.94    2.32
  14   2 -12   -1.68    3.26
  13  -2 -12    8.27    2.27
 -13  -2  12    6.12    4.11
  13  -2 -12    2.03    2.54
 -13  -2  12    4.76    1.67
 -13  -2  12    4.88    2.41
 -13  -2  12    3.18    2.21
 -13   2  12    4.78    2.31
 -13   2  12    0.12    2.76
  13   2 -12    5.70    2.95
 -13   2  12    2.77    2.15
  13   2 -12    5.40    2.27
  13   2 -12    4.06    1.87
 -12  -2  12    5.73    1.54
 -12  -2  12    0.50    3.27
 -12  -2  12    6.00    2.05
  12  -2 -12    2.07    2.32
  12  -2 -12    5.85    2.07
  12   2 -12    2.67    2.52
 -12   2  12    5.55    2.42
 -12   2  12    4.14    1.88
  12   2 -12    5.69    1.71
  12   2 -12    6.85    2.10
 -12   2  12    6.15    1.84
  11  -2 -12   19.72    2.49
  11  -2 -12   18.97    1.98
 -11  -2  12   22.39    3.26
 -11  -2  12   20.38    2.04
 -11  -2  12   27.25    2.23
 -11   2  12   17.84    1.79
 -11   2  12   23.84    2.50
  11   2 -12   21.88    1.89
  11   2 -12   17.75    2.16
 -11   2  12   22.57    2.61
  11   2 -12   22.96    2.72
  10  -2 -12    8.72    1.51
 -10  -2  12   11.01    2.71
 -10  -2  12    9.09    1.76
  10  -2 -12    8.86    2.09
 -10  -2  12    5.42    1.29
  10   2 -12    9.42    2.30
 -10   2  12    8.38    1.92
  10   2 -12    8.73    1.48
  10   2 -12    8.83    1.77
 -10   2  12    6.20    1.53
 -10   2  12    9.92    1.42
  -9  -2  12   17.15    2.66
   9  -2 -12   13.03    2.03
  -9  -2  12   12.18    1.62
  -9  -2  12   16.26    1.90
  -9   2  12   13.37    1.43
   9   2 -12   13.79    1.69
   9   2 -12   16.87    2.34
  -9   2  12   16.24    1.93
  -8  -2  12    4.30    1.32
   8  -2 -12    3.23    1.60
  -8  -2  12    5.11    1.38
   8  -2 -12    2.98    1.12
  -8  -2  12    0.94    2.25
   8   2 -12   10.19    2.02
   8   2 -12    1.70    1.48
  -8   2  12    3.19    1.16
  -8   2  12    2.99    1.75
   7  -2 -12    8.31    1.55
   7  -2 -12    6.97    1.10
  -7  -2  12    6.52    1.34
  -7  -2  12    9.48    1.30
  -7  -2  12    9.95    2.36
   7   2 -12    8.86    1.87
   7   2 -12    7.70    1.32
  -7   2  12    8.70    1.55
  -7   2  12    8.43    1.26
   6  -2 -12    3.69    1.22
  -6  -2  12    2.67    1.20
  -6  -2  12    4.07    1.99
  -6  -2  12    3.86    1.15
  -6   2  12    2.80    1.15
  -6   2  12    2.69    1.05
   6   2 -12    4.73    1.27
   6   2 -12    1.21    1.79
  -5  -2  12   34.52    3.50
  -5  -2  12   37.45    2.32
  -5  -2  12   31.11    2.23
   5   2 -12   37.17    3.35
  -5   2  12   32.19    2.39
   5   2 -12   36.19    2.44
  -4  -2  12   -0.64    1.94
  -4  -2  12    0.70    1.08
  -4  -2  12    1.84    1.15
   4   2 -12    0.32    1.70
   4   2 -12    0.72    1.14
  -3  -2  12    2.81    1.13
   3   2 -12    1.66    1.42
   3   2 -12    2.17    0.82
   3   2 -12    1.78    1.74
   3   2 -12    3.72    1.22
  -2  -2  12   16.58    2.01
  -2  -2  12   21.98    1.88
   2   2 -12   20.29    1.74
   2   2 -12   20.47    2.28
  -2   2  12   21.42    1.68
  -2   2  12   17.71    1.39
   2   2 -12   20.97    2.29
   2   2 -12   23.16    1.95
  -1  -2  12   14.42    1.75
  -1  -2  12   17.69    1.78
  -1   2  12   15.29    1.55
   1   2 -12   16.49    1.69
   1   2 -12   12.22    1.62
  -1   2  12   16.22    1.50
   1   2 -12   17.67    2.26
   0  -2  12    0.48    1.60
   0  -2  12    0.05    1.47
   0   2 -12   -1.16    1.37
   0   2 -12    0.36    1.10
   0   2 -12    0.78    0.86
   0   2  12   -1.33    0.89
   0   2  12    2.53    1.37
   0   2 -12    0.19    2.22
   1  -2  12   16.76    2.07
  -1   2 -12   13.95    1.24
   1   2  12   14.65    1.79
  -1   2 -12   13.74    1.68
  -1   2 -12   21.64    2.64
  -1   2 -12   13.47    1.49
   1   2  12   18.06    1.79
   2  -2  12   14.89    2.23
   2   2  12   15.67    1.92
  -2   2 -12   12.89    1.80
  -2   2 -12   12.54    1.32
   2   2  12   16.84    1.46
  -2   2 -12   13.61    1.53
  -2   2 -12   16.37    3.07
   3  -2  12   -0.29    2.02
  -3   2 -12    0.97    1.45
  -3   2 -12    0.87    1.06
  -3   2 -12    0.95    3.18
   3   2  12    0.83    1.92
  -3   2 -12   -1.24    1.73
   3   2  12    2.41    1.43
  -4   2 -12    7.25    2.17
   4   2  12    7.65    2.23
   4   2  12    6.60    1.77
  -4   2 -12   -1.62    3.14
   5   2  12    6.36    2.36
   5   2  12    6.31    2.02
   6   2  12    6.62    2.68
  15  -3 -12    8.91    4.12
 -15   3  12    5.12    5.27
 -14  -3  12   11.50    2.63
  14  -3 -12    6.43    3.58
 -14  -3  12    6.58    3.84
  14   3 -12   11.46    3.18
 -14   3  12    8.31    4.18
  14   3 -12    8.42    2.84
 -13  -3  12    0.87    2.16
  13  -3 -12    4.63    3.20
 -13  -3  12    2.49    1.76
 -13  -3  12    5.60    3.10
 -13   3  12   -2.64    3.56
  13   3 -12    4.89    3.37
 -13   3  12    2.62    2.64
  13   3 -12    3.72    2.44
  13   3 -12    0.58    2.75
 -12  -3  12    7.22    2.55
 -12  -3  12    9.86    1.75
 -12  -3  12   14.23    4.76
  12  -3 -12   11.74    2.87
 -12  -3  12   11.75    2.13
 -12   3  12   13.86    2.46
 -12   3  12   10.09    3.18
  12   3 -12    9.17    3.12
  12   3 -12   12.05    2.30
  12   3 -12   11.89    2.37
  11  -3 -12    6.34    1.95
 -11  -3  12   16.31    4.10
  11  -3 -12   11.01    2.58
 -11  -3  12    6.24    1.65
 -11  -3  12   12.67    2.24
 -11   3  12   13.62    2.16
 -11   3  12   11.93    2.70
 -11   3  12    7.51    1.91
  11   3 -12   13.50    2.28
  11   3 -12   15.28    2.09
  11   3 -12   11.77    2.89
  10  -3 -12    6.81    1.81
 -10  -3  12    7.14    3.73
 -10  -3  12    7.89    1.61
  10  -3 -12    9.01    2.28
 -10  -3  12    8.47    1.95
 -10   3  12    5.60    1.72
  10   3 -12    9.22    2.08
  10   3 -12    9.18    2.65
  10   3 -12    9.38    1.83
 -10   3  12    8.33    1.80
 -10   3  12    6.35    2.19
  -9  -3  12    3.28    3.24
  -9  -3  12    2.57    1.50
   9  -3 -12    3.41    1.92
   9  -3 -12    1.89    1.35
  -9  -3  12    1.29    1.65
   9   3 -12    3.00    2.37
  -9   3  12    3.46    1.58
  -9   3  12    3.13    1.56
   9   3 -12   -1.58    1.83
  -9   3  12    3.64    2.07
  -8  -3  12   21.06    2.95
  -8  -3  12   14.78    1.84
   8  -3 -12   15.92    1.45
  -8  -3  12   17.40    1.82
   8  -3 -12   14.08    2.00
  -8   3  12   12.21    1.60
   8   3 -12   15.80    1.93
   8   3 -12   18.94    2.50
  -8   3  12   14.86    1.55
  -8   3  12   17.34    2.02
   7  -3 -12   14.06    1.30
  -7  -3  12   18.86    1.76
  -7  -3  12   15.31    1.66
  -7  -3  12   17.66    2.94
   7  -3 -12   12.42    1.78
  -7   3  12   13.17    1.49
   7   3 -12   15.54    2.37
  -7   3  12   15.28    1.72
   7   3 -12   13.11    1.78
  -6  -3  12    4.55    1.42
  -6  -3  12    5.44    2.73
  -6  -3  12    5.24    1.44
   6  -3 -12    3.18    1.48
  -6   3  12    5.13    1.39
   6   3 -12    3.19    1.66
   6   3 -12    5.01    2.12
  -5  -3  12    0.93    2.48
  -5  -3  12    0.56    1.34
  -5  -3  12    0.43    1.49
   5   3 -12   -1.23    2.10
   5   3 -12   -2.03    1.61
  -4  -3  12    4.14    1.40
   4   3 -12    4.27    1.09
   4   3 -12    4.37    2.29
   4   3 -12    3.19    1.60
   4   3 -12    3.84    1.79
  -3  -3  12   17.65    1.81
  -3  -3  12   21.45    1.92
   3   3 -12   20.22    1.98
   3   3 -12   18.30    2.01
   3   3 -12   16.09    1.80
   3   3 -12   19.28    2.52
  -2  -3  12    4.90    1.63
  -2  -3  12    3.80    1.52
  -2   3  12    3.94    1.23
   2   3 -12    3.84    1.16
   2   3 -12    2.35    2.41
  -2   3  12    5.65    0.89
   2   3 -12    3.71    1.74
   2   3 -12    3.48    1.55
  -1  -3  12    2.38    1.78
  -1  -3  12    0.91    1.58
  -1   3  12   -0.47    1.41
  -1   3  12    3.77    0.91
   1   3 -12    2.14    1.57
   1   3 -12    1.47    1.04
   1   3 -12    3.83    2.55
   1   3 -12    2.42    1.67
   0  -3  12   24.30    2.34
   0  -3  12   22.21    2.19
   0   3 -12   20.58    2.02
   0   3  12   18.79    1.91
   0   3 -12   15.93    2.19
   0   3 -12   19.98    1.55
   0   3  12   21.18    1.86
   0   3 -12   22.57    3.08
   1  -3  12    8.77    2.11
   1  -3  12    4.51    2.25
   1   3  12    3.60    1.63
   1   3  12    4.61    1.21
  -1   3 -12    4.39    1.74
  -1   3 -12    3.59    1.97
  -1   3 -12    1.10    1.15
  -1   3 -12    8.58    3.12
   2  -3  12    1.69    2.11
   2  -3  12    1.57    2.35
   2   3  12    0.67    1.39
  -2   3 -12    6.80    3.75
  -2   3 -12    2.90    2.07
  -2   3 -12    1.47    1.90
   2   3  12    3.81    1.84
   3  -3  12    2.17    2.56
   3   3  12    2.98    1.98
  -3   3 -12    1.73    4.11
   3   3  12    0.87    1.62
   4   3  12   18.01    2.31
   4   3  12   22.17    2.42
   5   3  12   -1.21    2.30
   5   3  12   -0.29    2.18
 -13  -4  12    5.47    4.18
  13   4 -12    0.05    3.17
 -12  -4  12    5.80    2.66
 -12  -4  12    5.03    2.39
 -12  -4  12    6.29    3.44
 -12   4  12    5.10    2.44
  12   4 -12    4.53    2.77
  12   4 -12    2.13    2.94
  11  -4 -12    1.74    3.30
 -11  -4  12    6.97    3.16
 -11  -4  12    5.43    1.98
 -11   4  12    4.17    4.19
  11   4 -12    4.77    2.88
  11   4 -12    5.12    3.40
 -11   4  12   12.14    2.24
  11   4 -12    5.09    2.57
  10  -4 -12    3.53    2.96
 -10  -4  12    3.74    4.96
 -10  -4  12   -0.02    2.75
 -10   4  12    2.42    2.60
  10   4 -12    1.30    2.36
  10   4 -12    6.78    2.90
 -10   4  12    2.60    2.00
   9  -4 -12   -1.66    1.59
   9  -4 -12    3.22    2.86
  -9  -4  12   -0.11    2.33
  -9  -4  12    2.00    4.63
  -9  -4  12    2.04    1.92
  -9   4  12   -0.14    1.85
   9   4 -12    3.22    2.30
  -9   4  12    9.57    2.38
  -9   4  12    6.46    1.74
   9   4 -12    6.44    3.09
   8  -4 -12   -0.53    2.29
  -8  -4  12    1.99    2.00
  -8  -4  12    1.68    4.02
  -8  -4  12    1.07    2.14
   8  -4 -12    1.00    1.50
  -8   4  12    3.32    1.90
  -8   4  12    0.13    1.52
   8   4 -12    0.79    2.79
   8   4 -12    3.77    2.17
  -8   4  12    1.37    1.85
  -7  -4  12    8.37    2.25
  -7  -4  12    9.04    4.10
   7  -4 -12    7.61    2.22
  -7  -4  12   10.24    1.88
  -7   4  12    8.50    1.45
   7   4 -12    8.09    2.89
  -7   4  12   12.19    1.92
   7   4 -12    9.46    2.30
  -7   4  12    4.48    1.69
  -6  -4  12    2.42    2.28
  -6  -4  12    2.86    3.63
  -6  -4  12    5.84    1.78
  -6   4  12    0.75    1.26
   6   4 -12    1.50    2.14
  -6   4  12    2.89    1.67
   6   4 -12   -0.06    2.67
  -5  -4  12   17.41    2.06
  -5  -4  12   17.91    2.19
   5   4 -12   18.19    2.54
   5   4 -12   14.95    1.68
   5   4 -12   16.72    2.95
   5   4 -12   11.65    2.26
  -4  -4  12    1.65    1.98
  -4  -4  12    3.29    1.80
   4   4 -12    1.41    1.50
   4   4 -12    3.41    2.68
   4   4 -12    3.35    2.25
   4   4 -12    3.92    2.23
  -3  -4  12    6.66    2.06
  -3  -4  12    5.24    1.72
   3   4 -12    3.97    2.37
   3   4 -12    9.40    1.68
   3   4 -12    7.75    2.10
   3   4 -12    2.61    2.76
  -2  -4  12    9.37    2.28
  -2  -4  12    9.74    2.11
   2   4 -12    9.91    1.68
   2   4 -12   13.72    2.36
   2   4 -12   11.78    2.28
   2   4 -12   11.53    3.43
  -2   4  12   11.77    1.20
  -1  -4  12   13.31    2.45
  -1  -4  12   14.72    2.35
   1   4 -12   15.76    3.44
   1   4 -12   13.32    2.41
   1   4 -12    7.88    2.29
   1   4 -12   11.15    1.76
  -1   4  12   13.95    1.47
   0  -4  12   -0.29    2.21
   0  -4  12    1.53    2.40
   0   4 -12    3.35    3.63
   0   4  12    3.47    1.42
   0   4 -12    0.01    2.36
   1  -4  12   12.09    2.68
  -1   4 -12   15.05    4.32
   1   4  12   12.71    1.93
  -2   4 -12   -1.40    4.56
   2   4  12    2.73    1.80
   3   4  12   -0.96    2.05
 -10  -5  12    6.95    4.04
  10   5 -12    5.15    3.56
 -10   5  12    6.46    2.86
  -9  -5  12    4.67    3.75
  -9   5  12    1.91    2.58
   9   5 -12    1.28    3.32
  -8  -5  12    9.56    4.03
   8   5 -12    2.98    3.31
   8   5 -12    6.37    3.86
   7   5 -12    8.05    2.29
   7   5 -12   15.28    4.03
   7   5 -12    9.72    3.18
  -6  -5  12    2.16    2.86
   6   5 -12    8.81    2.14
   6   5 -12    2.37    3.60
   6   5 -12   11.68    3.21
  -5  -5  12    3.37    2.89
  -5  -5  12    0.89    2.63
   5   5 -12   -0.83    1.93
   5   5 -12    1.74    3.62
   5   5 -12    0.66    3.05
  -4  -5  12    8.20    2.85
   4   5 -12    5.50    3.71
   4   5 -12    3.48    2.39
   4   5 -12    7.75    3.11
  -3  -5  12    3.10    2.75
   3   5 -12    4.25    3.98
   3   5 -12    5.76    3.12
  -2  -5  12   13.69    2.88
   2   5 -12    8.33    4.17
  -1  -5  12   -0.80    3.15
   1   5 -12   12.54    4.58
   0   5 -12    3.43    4.81
  -1   5 -12    7.49    5.61
  16   0 -13   -1.05    4.36
 -15   0  13   15.21    3.30
  15   0 -13    2.43    3.43
  15   0 -13    6.06    2.74
 -15   0  13    2.43    4.32
  14   0 -13    3.21    3.13
  14   0 -13    6.12    2.47
 -14   0  13    7.47    3.64
 -14   0  13    1.90    2.58
  14   0 -13    5.16    1.47
 -13   0  13   -0.85    2.20
  13   0 -13    0.27    2.52
 -13   0  13   -0.02    2.11
  13   0 -13    3.88    2.16
 -13   0  13    6.19    3.02
 -12   0  13    4.60    2.05
 -12   0  13    4.96    2.71
 -12   0  13    3.42    1.70
  12   0 -13    1.95    1.79
  12   0 -13    1.92    2.31
  11   0 -13    6.73    1.63
 -11   0  13    4.40    1.71
 -11   0  13    6.93    2.41
  11   0 -13    6.22    2.24
 -10   0  13    0.32    1.44
 -10   0  13    3.32    2.14
  10   0 -13    1.96    1.49
  10   0 -13   -0.59    2.01
   9   0 -13   16.52    2.13
  -9   0  13   21.60    2.32
  -9   0  13   14.41    1.51
   9   0 -13   16.51    1.56
  -8   0  13    0.89    1.78
   8   0 -13   -0.24    1.16
  -8   0  13    0.45    1.14
   8   0 -13   -0.83    1.63
  -7   0  13    0.14    0.77
   7   0 -13    0.64    1.58
  -7   0  13   -1.44    1.11
  -7   0  13   -1.31    1.58
   6   0 -13    4.56    1.08
  -6   0  13    2.20    1.62
  -6   0  13    3.23    0.91
   6   0 -13    5.86    1.41
  -5   0  13   29.29    3.02
  -5   0  13   29.43    1.71
   5   0 -13   27.42    1.94
   5   0 -13   30.14    2.59
  -5   0  13   29.15    2.04
   4   0 -13    5.84    1.39
   4   0 -13    5.96    0.97
  -4   0  13    3.87    1.02
  -4   0  13    9.67    1.63
  -4   0  13    4.63    1.07
   3   0 -13   15.54    1.57
   3   0 -13   14.90    1.48
  -3   0  13   15.57    1.79
  -2   0  13    6.92    1.49
  -1   0  13   11.08    1.66
   0   0  13    6.55    1.84
   1   0  13   30.53    2.51
   2   0  13   -2.98    1.99
   3   0  13   14.73    2.49
  16  -1 -13    4.39    3.89
  15  -1 -13    2.81    3.46
 -15  -1  13   -1.62    3.15
 -15  -1  13    8.81    9.09
  15   1 -13    9.06    3.93
  15   1 -13    6.11    2.79
 -15   1  13    0.91    4.30
  14  -1 -13   26.11    3.41
 -14  -1  13   15.59    3.00
  14  -1 -13   13.85    2.56
 -14  -1  13   24.09    4.39
  14   1 -13   19.64    3.59
  14   1 -13   19.69    2.26
  14   1 -13   19.54    2.73
 -14   1  13   15.51    3.55
 -14   1  13   12.65    2.55
 -13  -1  13   11.07    2.31
 -13  -1  13    8.18    3.51
  13  -1 -13    6.92    2.14
 -13  -1  13    7.90    2.13
  13  -1 -13   10.75    2.95
  13   1 -13    8.69    2.99
 -13   1  13    4.80    2.17
  13   1 -13    6.49    1.70
 -13   1  13    9.17    2.28
  13   1 -13    7.36    2.33
 -13   1  13    7.73    2.89
  12  -1 -13   11.49    2.63
 -12  -1  13    9.71    2.03
  12  -1 -13   10.03    1.98
 -12  -1  13   13.99    3.27
  12   1 -13    9.73    2.09
 -12   1  13   11.86    2.00
 -12   1  13   12.11    2.64
 -12   1  13   11.82    2.21
  12   1 -13   13.45    2.61
  11  -1 -13    7.92    1.66
 -11  -1  13    5.38    2.86
 -11  -1  13    4.69    1.73
  11  -1 -13    2.08    2.19
 -11  -1  13    4.83    1.19
 -11   1  13    3.89    1.56
  11   1 -13    3.69    2.28
 -11   1  13    3.41    2.11
 -10  -1  13    9.49    1.21
 -10  -1  13    9.42    1.73
  10  -1 -13    8.43    1.58
  10  -1 -13   10.77    2.06
 -10  -1  13   10.60    2.54
  10   1 -13   12.30    2.11
 -10   1  13    9.55    1.56
  10   1 -13    8.98    1.69
 -10   1  13   12.78    2.11
  -9  -1  13    5.90    1.05
  -9  -1  13    9.19    1.59
  -9  -1  13    9.35    2.18
   9  -1 -13    9.61    1.46
   9  -1 -13    9.18    1.88
  -9   1  13    7.57    1.30
  -9   1  13    8.65    1.96
   9   1 -13   10.00    1.57
   9   1 -13   10.58    1.93
   8  -1 -13   46.64    3.48
  -8  -1  13   55.62    2.67
  -8  -1  13   47.67    4.12
  -8  -1  13   50.03    3.00
   8   1 -13   51.58    3.56
  -8   1  13   49.47    2.78
   8   1 -13   51.83    2.89
  -8   1  13   50.08    3.64
   7  -1 -13    1.47    1.48
   7  -1 -13    1.62    1.03
  -7  -1  13    2.54    1.05
  -7  -1  13   -0.37    1.14
  -7  -1  13    2.04    1.87
  -7   1  13    0.87    1.09
   7   1 -13    0.97    1.31
  -7   1  13    1.02    1.51
   7   1 -13   -1.25    1.63
   6  -1 -13    2.79    1.38
   6  -1 -13    3.35    0.99
  -6  -1  13    3.06    2.07
  -6  -1  13    4.14    1.02
  -6  -1  13    2.50    1.04
  -6   1  13    4.35    1.39
  -6   1  13    1.72    1.06
   6   1 -13    2.94    1.25
   6   1 -13    3.15    1.67
   5  -1 -13    3.31    1.27
  -5  -1  13    2.28    0.98
  -5  -1  13    3.04    1.05
  -5  -1  13    3.35    1.91
   5   1 -13   -0.14    1.64
  -5   1  13    2.27    1.31
  -5   1  13    1.98    0.96
  -4  -1  13    3.54    1.01
  -4  -1  13    5.02    1.87
  -4  -1  13    3.94    1.22
  -4   1  13    4.82    0.61
  -4   1  13    3.87    0.76
   4   1 -13    4.52    1.67
   4   1 -13    3.47    1.02
  -3  -1  13    3.19    1.16
   3   1 -13    3.10    1.04
   3   1 -13    4.22    1.72
   3   1 -13    3.84    1.46
   3   1 -13    4.61    0.79
  -3   1  13    4.82    0.66
  -2  -1  13   15.21    1.66
  -2  -1  13   11.93    1.55
   2   1 -13   12.34    1.27
   2   1 -13   13.39    1.04
  -2   1  13   13.62    1.65
   2   1 -13   14.56    1.99
  -1  -1  13   25.14    2.44
  -1  -1  13   24.27    2.08
   1   1 -13   21.29    2.53
   1   1 -13   23.23    1.68
   1   1 -13   23.59    2.20
   1   1 -13   21.80    2.00
  -1   1  13   24.74    1.98
   0  -1  13    1.65    1.82
   0   1 -13    2.63    1.28
   0   1  13    3.60    1.78
   0   1  13    4.35    0.95
   0   1 -13    2.09    1.94
   1  -1  13    3.00    1.89
   1   1  13    5.74    1.00
   1   1  13    6.21    1.82
  -1   1 -13    7.45    2.11
  -1   1 -13    4.22    1.43
   2  -1  13    5.88    2.06
  -2   1 -13    2.65    1.51
   2   1  13    3.90    1.14
  -2   1 -13    3.60    2.37
   2   1  13    7.95    2.13
   3  -1  13    6.50    2.07
   3   1  13    6.89    2.34
  -3   1 -13    0.04    2.61
   3   1  13    6.88    1.51
   4   1  13    5.76    2.71
   4   1  13    5.99    1.84
   5   1  13    5.16    2.28
  15  -2 -13    4.04    3.79
 -15  -2  13    0.46    3.57
  15   2 -13    4.07    3.39
  15   2 -13    7.43    2.79
 -15   2  13    4.95    4.58
 -14  -2  13   -0.50    5.70
 -14  -2  13   -0.38    3.07
  14  -2 -13    0.27    3.32
  14   2 -13    1.99    2.67
  14   2 -13    4.89    3.69
 -14   2  13    7.26    3.92
  14   2 -13    2.69    2.49
 -13  -2  13    7.38    2.27
  13  -2 -13    0.14    2.30
 -13  -2  13    7.49    1.86
  13  -2 -13   10.96    2.87
 -13  -2  13    4.72    2.74
 -13  -2  13    9.66    4.20
 -13   2  13    3.04    2.29
  13   2 -13    7.11    3.17
 -13   2  13    9.31    3.28
  13   2 -13    4.09    2.38
  13   2 -13    9.91    2.16
 -12  -2  13    1.24    3.64
  12  -2 -13   -0.53    2.15
 -12  -2  13    0.75    1.53
  12  -2 -13   -0.15    2.58
 -12  -2  13    2.68    2.31
 -12   2  13    3.39    1.69
  12   2 -13   -0.45    1.86
 -12   2  13   -0.27    2.80
 -12   2  13    0.32    1.95
  12   2 -13    0.37    2.73
  12   2 -13    3.43    2.23
 -11  -2  13   15.20    1.65
  11  -2 -13   14.95    2.05
 -11  -2  13   17.01    3.39
  11  -2 -13   14.76    2.57
 -11  -2  13   14.62    2.28
  11   2 -13   15.09    2.22
 -11   2  13   13.78    2.61
  11   2 -13   19.14    2.72
 -11   2  13   14.89    2.09
  10  -2 -13   11.25    2.21
  10  -2 -13   11.43    1.82
 -10  -2  13    9.99    2.87
 -10  -2  13   13.51    1.85
 -10  -2  13    7.95    1.37
 -10   2  13    9.22    1.78
 -10   2  13   11.55    1.71
  10   2 -13    9.90    1.92
 -10   2  13   16.64    2.33
  10   2 -13   10.59    2.49
   9  -2 -13    1.83    1.37
  -9  -2  13    7.44    2.89
  -9  -2  13    4.94    1.38
   9  -2 -13    8.07    1.99
  -9  -2  13    6.31    1.57
   9   2 -13    4.83    1.75
  -9   2  13    4.59    1.86
  -9   2  13    5.69    1.47
   9   2 -13    7.27    2.25
   8  -2 -13    2.28    1.70
  -8  -2  13    3.18    2.42
   8  -2 -13    2.06    1.15
  -8  -2  13    2.82    1.33
  -8  -2  13    1.14    1.49
  -8   2  13    1.85    1.67
  -8   2  13    2.29    1.28
   8   2 -13    1.43    1.64
   8   2 -13    4.62    2.00
  -7  -2  13    7.45    1.50
   7  -2 -13    5.96    1.09
  -7  -2  13   10.69    2.23
   7  -2 -13    5.21    1.59
  -7  -2  13    8.67    1.40
   7   2 -13    9.31    1.95
  -7   2  13    7.40    1.26
   7   2 -13    7.87    1.49
  -7   2  13    7.86    1.54
  -6  -2  13    4.08    1.31
  -6  -2  13    3.87    1.26
  -6  -2  13   -1.85    2.31
   6  -2 -13    2.32    1.37
   6   2 -13    1.68    1.89
  -6   2  13    2.10    1.27
   6   2 -13    2.86    1.36
  -5  -2  13   18.82    2.18
  -5  -2  13   16.37    1.59
  -5  -2  13   25.33    2.55
   5   2 -13   17.98    1.69
   5   2 -13   16.80    2.24
  -4  -2  13    0.55    1.19
  -4  -2  13    2.24    1.38
   4   2 -13    1.55    1.50
   4   2 -13   -0.86    1.35
   4   2 -13    2.76    1.98
   4   2 -13    1.12    0.92
  -3  -2  13   35.35    3.10
  -3  -2  13   38.70    2.60
   3   2 -13   35.40    3.75
   3   2 -13   34.93    2.22
   3   2 -13   37.16    2.70
   3   2 -13   41.00    3.16
  -2  -2  13    0.17    1.37
  -2  -2  13    0.96    1.56
  -2   2  13    0.81    0.81
  -2   2  13    1.47    1.32
   2   2 -13    2.13    1.54
   2   2 -13    2.17    2.16
   2   2 -13    1.73    0.95
  -1  -2  13   -2.03    1.62
  -1  -2  13    0.64    1.82
   1   2 -13   -0.34    1.01
  -1   2  13    2.44    1.51
   1   2 -13   -0.02    1.48
   1   2 -13    2.30    2.28
   1   2 -13   -2.35    1.39
   0  -2  13    3.14    1.92
   0  -2  13   -0.20    1.80
   0   2 -13   -1.06    1.31
   0   2  13    0.20    1.06
   0   2 -13    0.62    1.02
   0   2 -13    1.11    1.61
   0   2  13    3.53    1.77
   0   2 -13   -1.63    2.56
   1  -2  13   19.46    2.38
   1  -2  13   11.37    2.23
  -1   2 -13   14.63    3.13
   1   2  13   15.60    1.55
   1   2  13   17.21    2.07
  -1   2 -13   12.65    1.97
  -1   2 -13   12.97    1.61
  -1   2 -13   11.80    1.31
   2  -2  13    0.57    2.20
   2   2  13   -1.97    1.34
  -2   2 -13   -0.79    1.95
  -2   2 -13    0.18    1.51
   2   2  13    1.24    2.12
  -2   2 -13   -0.69    3.21
   3   2  13   15.40    2.56
  -3   2 -13   11.91    2.22
   3   2  13   12.50    1.93
   4   2  13   10.64    2.39
   4   2  13   10.53    2.77
 -14  -3  13   11.42    2.68
 -14  -3  13    1.79    3.74
  14   3 -13   11.05    3.50
  14   3 -13    9.21    3.30
 -13  -3  13   10.01    2.08
 -13  -3  13    3.16    3.28
  13  -3 -13    6.22    3.52
  13   3 -13    6.49    3.77
  13   3 -13   13.31    3.12
 -13   3  13    0.06    3.56
  13   3 -13    1.56    2.71
 -12  -3  13    8.46    2.95
  12  -3 -13   13.28    3.03
 -12  -3  13    8.11    2.05
 -12  -3  13    8.85    4.95
 -12   3  13   10.55    2.48
  12   3 -13   12.85    2.76
 -12   3  13    3.86    3.45
  12   3 -13    9.57    2.49
  12   3 -13   12.86    3.21
  11  -3 -13    0.37    1.92
  11  -3 -13    3.61    2.75
 -11  -3  13   -0.25    2.46
 -11  -3  13    1.65    1.59
 -11  -3  13   -6.26    4.63
  11   3 -13    1.78    2.40
 -11   3  13   -0.34    2.84
  11   3 -13    5.42    2.94
 -11   3  13    2.85    2.15
 -10  -3  13    8.60    2.29
 -10  -3  13    8.08    1.64
  10  -3 -13    7.15    2.55
 -10  -3  13   14.32    4.07
 -10   3  13   10.46    2.51
 -10   3  13   10.12    1.98
  10   3 -13   10.76    2.27
 -10   3  13    4.53    1.71
  10   3 -13   12.53    2.93
  -9  -3  13    6.26    1.60
  -9  -3  13    8.28    2.05
   9  -3 -13    4.41    1.50
   9  -3 -13    4.96    2.22
  -9  -3  13   10.76    3.39
  -9   3  13    7.71    1.59
   9   3 -13    3.95    2.08
  -9   3  13    9.12    2.12
   9   3 -13    7.20    2.52
  -9   3  13    4.29    1.74
  -8  -3  13   29.82    2.34
  -8  -3  13   27.92    2.89
  -8  -3  13   36.77    3.91
   8  -3 -13   29.12    3.49
   8  -3 -13   26.66    2.54
  -8   3  13   29.67    3.40
   8   3 -13   36.01    3.01
   8   3 -13   32.48    3.30
  -8   3  13   25.36    2.75
  -7  -3  13    0.62    3.03
  -7  -3  13    0.22    1.63
   7  -3 -13    1.32    1.78
  -7  -3  13   -0.07    1.59
   7   3 -13    2.47    1.71
  -7   3  13    1.11    1.40
  -7   3  13   -1.75    1.53
   7   3 -13   -0.92    2.37
  -6  -3  13    6.56    1.64
  -6  -3  13    8.37    1.82
  -6  -3  13    8.43    3.20
   6   3 -13    5.73    1.87
   6   3 -13    8.39    2.46
  -5  -3  13    6.01    2.04
  -5  -3  13    7.90    1.64
  -5  -3  13    6.72    3.07
   5   3 -13    6.62    1.22
   5   3 -13    5.44    2.48
   5   3 -13    7.28    1.91
  -4  -3  13   18.49    1.86
  -4  -3  13   17.62    2.04
   4   3 -13   19.11    2.35
   4   3 -13   16.54    2.85
   4   3 -13   16.37    2.01
   4   3 -13   16.68    1.53
  -3  -3  13    5.59    1.65
  -3  -3  13    6.36    1.88
   3   3 -13    6.88    2.58
   3   3 -13    8.65    2.26
  -3   3  13    7.43    1.62
   3   3 -13    6.72    1.79
   3   3 -13    6.96    1.39
  -2  -3  13   14.64    2.22
  -2  -3  13   10.74    1.80
  -2   3  13   13.18    1.14
  -2   3  13    9.21    1.62
   2   3 -13    9.13    2.21
   2   3 -13   15.05    2.99
   2   3 -13   12.29    1.98
   2   3 -13   10.27    1.47
  -1  -3  13   23.07    2.51
  -1  -3  13   13.32    1.98
   1   3 -13   20.73    1.76
  -1   3  13   22.66    2.06
  -1   3  13   24.56    2.13
   1   3 -13   23.09    3.26
   1   3 -13   18.37    2.11
   1   3 -13   17.31    2.21
   0  -3  13    4.56    2.08
   0  -3  13    7.69    2.33
   0   3  13    6.25    1.42
   0   3 -13   -0.10    1.89
   0   3 -13    7.65    3.34
   0   3 -13    6.05    2.06
   0   3  13    7.17    1.81
   0   3 -13    4.37    1.79
   1  -3  13   -2.33    2.40
   1   3  13    0.54    1.49
   1   3  13   -0.71    1.99
  -1   3 -13   -0.19    3.54
  -2   3 -13   14.88    4.57
   2   3  13    7.78    2.35
   2   3  13    7.64    2.01
   3   3  13    3.10    2.09
   3   3  13    4.91    2.62
   4   3  13    4.83    2.35
 -12  -4  13   -1.03    2.37
 -12  -4  13    5.23    3.86
 -12   4  13    2.29    2.65
  12   4 -13    1.36    4.76
  12   4 -13    9.27    3.47
 -11  -4  13    7.08    3.52
 -11  -4  13    2.63    2.07
 -11   4  13    7.32    2.37
  11   4 -13   12.81    3.79
  11   4 -13   14.80    3.29
 -10  -4  13   12.17    3.06
 -10  -4  13   11.18    2.11
 -10  -4  13    6.58    5.35
  10   4 -13    6.03    3.30
  10   4 -13    8.27    2.97
 -10   4  13   12.44    2.28
  -9  -4  13    3.56    2.74
  -9  -4  13    2.96    1.97
  -9  -4  13    1.33    4.77
  -9   4  13    1.36    1.84
   9   4 -13   -1.19    3.20
   9   4 -13    0.08    2.55
  -8  -4  13   -1.35    4.98
  -8  -4  13    3.57    2.76
   8  -4 -13    0.33    2.99
  -8   4  13   -0.07    2.05
   8   4 -13    0.00    3.06
   8   4 -13   -1.81    2.47
  -8   4  13    0.53    1.75
  -7  -4  13    2.35    2.01
  -7  -4  13   -0.33    4.17
  -7  -4  13    0.15    2.61
  -7   4  13    3.93    1.55
   7   4 -13    1.07    2.96
   7   4 -13    1.43    2.52
  -6  -4  13   -1.55    1.98
   6   4 -13    4.00    2.46
   6   4 -13   -1.01    2.90
   6   4 -13    2.65    1.69
  -5  -4  13    8.45    2.14
  -5  -4  13    8.55    2.39
   5   4 -13    9.06    1.81
   5   4 -13   10.79    2.60
   5   4 -13    5.16    3.17
  -4  -4  13    3.04    2.19
  -4  -4  13    2.00    1.97
   4   4 -13    5.04    2.51
   4   4 -13   -0.33    1.57
   4   4 -13   -1.14    3.20
  -3  -4  13   18.67    2.81
  -3  -4  13   21.34    2.45
   3   4 -13   15.63    2.75
   3   4 -13   14.57    3.61
   3   4 -13   13.85    1.99
  -2  -4  13    2.18    2.45
  -2  -4  13    2.60    2.18
   2   4 -13    0.18    2.53
   2   4 -13    0.34    3.46
  -1  -4  13    2.18    2.46
  -1  -4  13    6.06    2.81
   1   4 -13    1.35    4.09
   0   4 -13   12.11    4.28
  -1   4 -13   20.85    4.94
   8   5 -13   13.12    4.46
  -7  -5  13    4.69    3.11
   7   5 -13    6.26    4.36
  -6  -5  13    2.05    3.10
   6   5 -13    9.66    4.27
  -5  -5  13    9.75    3.23
   5   5 -13    8.26    4.24
  -4  -5  13    4.73    4.30
   4   5 -13   -0.93    4.31
   3   5 -13    6.91    4.50
   2   5 -13    0.95    4.67
   1   5 -13    5.01    5.41
 -15   0  14   13.73    5.15
  15   0 -14   23.13    4.37
 -14   0  14    8.88    4.29
  14   0 -14   11.45    3.37
  14   0 -14   -0.92    2.98
 -13   0  14    0.87    2.17
  13   0 -14    1.84    2.47
 -13   0  14   -1.50    3.37
 -13   0  14   -0.09    2.87
  13   0 -14    1.17    2.94
 -12   0  14    3.84    2.08
 -12   0  14    1.18    3.05
  12   0 -14    3.36    2.16
  12   0 -14    3.18    2.66
 -11   0  14   22.36    2.17
  11   0 -14   27.69    2.96
  11   0 -14   23.78    2.24
 -11   0  14   26.67    3.13
 -10   0  14    1.57    2.58
  10   0 -14   -0.19    1.68
 -10   0  14    1.59    1.48
  10   0 -14    0.98    2.35
   9   0 -14   10.72    2.20
  -9   0  14   13.04    2.41
   9   0 -14    8.92    1.57
  -9   0  14   10.03    1.60
  -8   0  14    6.38    2.06
  -8   0  14    5.96    1.44
   8   0 -14    4.08    1.90
   7   0 -14    0.99    1.18
  -7   0  14    2.28    1.21
  -7   0  14    2.01    1.97
   7   0 -14    0.96    1.81
   6   0 -14    1.27    1.10
   6   0 -14    2.25    1.63
  -6   0  14    1.42    0.78
  -6   0  14    3.16    1.19
  -6   0  14    1.47    1.83
   5   0 -14    1.96    1.57
  -5   0  14   -1.13    1.11
  -5   0  14    2.85    1.82
   5   0 -14    0.33    1.11
  -5   0  14    1.94    0.83
   4   0 -14    0.55    1.50
  -4   0  14    0.62    1.00
  -4   0  14    0.72    1.91
  -4   0  14    2.09    1.26
   3   0 -14   18.86    1.81
  -3   0  14   15.99    1.95
   3   0 -14   13.64    1.78
  -2   0  14   22.07    2.38
  -2   0  14   31.02    2.39
  -1   0  14    3.26    1.88
   0   0  14    6.29    2.22
   1   0  14   -0.75    2.25
   2   0  14    4.03    2.56
  15  -1 -14   -4.74    3.97
 -15   1  14    4.42    4.73
  15   1 -14    2.07    4.16
 -14  -1  14    7.54    3.33
  14  -1 -14    9.11    3.57
 -14  -1  14    9.30    4.90
  14   1 -14    3.20    2.83
 -14   1  14    0.72    4.16
  14   1 -14   -1.30    3.41
  13  -1 -14    3.26    3.20
 -13  -1  14    9.38    4.23
 -13  -1  14    4.45    2.69
  13  -1 -14    1.13    2.23
  13   1 -14    9.96    3.46
 -13   1  14    0.98    3.43
 -13   1  14    5.12    3.52
  13   1 -14    7.29    2.67
  12  -1 -14   11.06    3.05
  12  -1 -14    1.50    1.97
 -12  -1  14   10.12    3.43
 -12  -1  14    9.55    2.32
 -12   1  14   10.04    2.01
  12   1 -14    9.12    2.33
 -12   1  14    5.99    2.37
  12   1 -14    9.14    2.81
 -12   1  14    9.99    3.27
 -11  -1  14    5.17    3.14
 -11  -1  14    4.90    2.00
  11  -1 -14    5.71    2.52
  11  -1 -14    4.56    1.85
 -11  -1  14    5.64    1.23
  11   1 -14    5.16    2.05
 -11   1  14    1.68    1.69
  11   1 -14    6.00    2.49
 -11   1  14    3.83    2.74
 -10  -1  14   17.10    1.93
 -10  -1  14   17.88    3.07
 -10  -1  14   19.25    2.03
  10  -1 -14   17.63    1.88
  10  -1 -14   15.92    2.42
 -10   1  14   16.05    1.81
  10   1 -14   14.70    2.02
 -10   1  14   19.07    2.50
  10   1 -14   14.49    2.38
  -9  -1  14    1.91    1.70
  -9  -1  14    5.59    2.57
  -9  -1  14    2.21    1.06
   9  -1 -14    4.32    2.11
   9  -1 -14    2.51    1.48
  -9   1  14    3.48    1.42
   9   1 -14    3.12    2.17
  -9   1  14    3.56    2.17
   9   1 -14    3.29    1.68
  -8  -1  14    9.40    1.20
  -8  -1  14    8.89    2.47
   8  -1 -14    7.70    2.00
  -8  -1  14    6.28    1.48
   8  -1 -14    7.88    1.33
   8   1 -14    9.02    2.13
  -8   1  14    7.21    2.08
  -8   1  14    5.44    1.31
   8   1 -14    8.69    1.56
   7  -1 -14    2.04    1.69
   7  -1 -14    3.05    1.18
  -7  -1  14    2.44    1.27
  -7  -1  14    1.88    2.14
  -7  -1  14    2.93    1.12
   7   1 -14    3.57    1.41
  -7   1  14    4.58    1.67
   7   1 -14    3.40    1.97
  -7   1  14    3.95    1.27
  -6  -1  14   36.38    2.25
   6  -1 -14   31.40    2.91
  -6  -1  14   40.41    3.03
  -6  -1  14   32.46    2.45
  -6   1  14   29.87    3.21
   6   1 -14   35.12    3.49
  -6   1  14   34.66    2.35
  -5  -1  14   -0.06    1.14
  -5  -1  14    1.09    1.07
  -5  -1  14   -1.52    2.07
   5   1 -14    2.28    1.83
   5   1 -14    0.56    1.21
  -5   1  14    1.29    1.70
  -4  -1  14    3.32    1.26
   4   1 -14    2.60    0.88
  -4   1  14    2.70    0.92
   4   1 -14    3.10    1.60
   4   1 -14    3.14    1.84
  -4   1  14    4.04    0.72
   4   1 -14    3.26    1.23
  -3  -1  14    2.37    1.14
  -3  -1  14    4.19    1.67
   3   1 -14    4.06    0.99
   3   1 -14    4.33    1.92
  -3   1  14    3.59    0.82
   3   1 -14    3.65    1.19
   3   1 -14    5.04    1.87
  -3   1  14    4.17    1.17
  -2  -1  14   15.99    1.99
  -2  -1  14    7.42    1.56
   2   1 -14   11.41    1.13
  -2   1  14   15.11    1.94
   2   1 -14   14.12    1.36
   2   1 -14   13.69    2.12
  -1  -1  14   11.91    2.14
  -1  -1  14    7.37    1.70
  -1   1  14    8.20    1.02
   1   1 -14   11.71    2.32
   1   1 -14    3.59    1.60
  -1   1  14    9.54    2.10
   0  -1  14   15.21    2.45
   0   1  14   16.27    2.36
   0   1 -14   14.65    2.47
   0   1  14   15.47    1.34
   0   1 -14    8.80    1.70
   1  -1  14   14.52    2.46
  -1   1 -14    2.10    2.31
   1   1  14    6.63    1.37
  -1   1 -14    5.92    1.77
   1   1  14    4.68    2.43
   2   1  14    0.89    2.59
   2   1  14   -0.63    1.40
   3   1  14    7.96    1.96
   4   1  14   -0.06    2.14
  14  -2 -14    7.15    3.83
 -14   2  14    8.12    4.14
  14   2 -14    9.39    3.96
  14   2 -14    7.43    3.01
  13  -2 -14    0.17    3.29
 -13  -2  14    5.59    4.86
 -13  -2  14    4.17    2.99
 -13  -2  14    1.35    1.96
  13   2 -14    1.01    3.29
 -13   2  14    4.38    3.62
  13   2 -14    4.27    2.73
 -12  -2  14    5.76    4.38
 -12  -2  14   10.31    2.85
 -12  -2  14   13.42    1.72
  12  -2 -14    7.47    2.98
  12   2 -14   10.82    3.06
  12   2 -14   11.48    2.69
 -12   2  14    9.55    2.28
 -12   2  14    8.97    3.35
 -11  -2  14   24.11    2.73
 -11  -2  14   28.17    4.10
 -11  -2  14   20.43    2.48
  11  -2 -14   19.83    2.84
  11   2 -14   21.73    3.09
 -11   2  14   13.16    1.92
 -11   2  14   18.99    2.27
  11   2 -14   19.70    2.53
 -11   2  14   20.54    3.10
  10  -2 -14   -1.37    1.60
 -10  -2  14   -1.08    3.43
 -10  -2  14    2.33    1.31
  10  -2 -14    0.45    2.30
 -10  -2  14    4.33    2.02
 -10   2  14    3.23    2.48
 -10   2  14    1.77    1.60
  10   2 -14    1.46    2.51
  10   2 -14    0.72    2.10
   9  -2 -14    9.11    1.53
   9  -2 -14    9.86    2.17
  -9  -2  14    5.08    1.38
  -9  -2  14    5.18    3.28
  -9  -2  14    4.08    1.86
  -9   2  14    8.86    2.05
  -9   2  14    7.74    1.62
   9   2 -14    7.86    1.98
  -8  -2  14   14.43    3.10
   8  -2 -14   14.24    1.51
  -8  -2  14   17.63    1.69
   8  -2 -14   16.89    2.09
  -8  -2  14   15.43    1.79
   8   2 -14   13.72    2.01
  -8   2  14   13.67    1.68
  -8   2  14   15.09    2.06
   8   2 -14   11.98    2.44
   7  -2 -14    5.22    1.69
  -7  -2  14    0.67    1.42
  -7  -2  14   -0.12    2.70
  -7  -2  14    4.92    1.35
  -7   2  14    5.33    1.27
   7   2 -14    4.22    1.74
  -7   2  14    4.03    1.69
   7   2 -14    3.65    2.33
  -6  -2  14    1.42    2.46
  -6  -2  14    0.64    1.34
  -6  -2  14   -0.66    1.20
   6   2 -14    1.27    1.60
   6   2 -14    3.60    2.24
  -5  -2  14    2.61    1.25
  -5  -2  14    4.21    1.46
  -5  -2  14    4.93    2.64
   5   2 -14    4.45    1.52
   5   2 -14    1.00    2.24
  -4  -2  14   13.10    1.63
   4   2 -14   13.48    1.31
   4   2 -14   11.63    1.72
   4   2 -14   12.91    2.10
   4   2 -14   13.64    2.48
  -3  -2  14   11.51    2.02
  -3  -2  14    7.45    1.59
   3   2 -14    8.55    1.25
  -3   2  14   10.60    1.79
   3   2 -14    9.18    2.51
   3   2 -14    9.55    2.16
  -2  -2  14    3.24    1.75
  -2  -2  14    0.87    2.00
   2   2 -14    3.47    1.84
   2   2 -14    2.49    2.36
  -2   2  14    1.88    0.97
   2   2 -14    1.19    1.13
   2   2 -14   -0.46    1.54
  -2   2  14    0.84    1.63
  -1  -2  14    5.32    2.38
  -1   2  14    7.34    1.22
   1   2 -14    8.05    2.89
   1   2 -14    4.41    1.67
  -1   2  14    9.48    2.14
   1   2 -14    3.58    1.12
   1   2 -14    4.11    1.97
   0  -2  14    1.83    2.10
   0  -2  14    1.85    2.28
   0   2 -14    0.81    1.64
   0   2  14    1.27    1.39
   0   2 -14    5.65    3.06
   0   2 -14    1.23    1.95
   0   2 -14   -1.17    1.95
   0   2  14    0.07    1.99
   1  -2  14   -0.20    2.31
  -1   2 -14    2.43    2.11
  -1   2 -14    2.47    4.99
   1   2  14    0.25    2.35
   1   2  14    1.54    1.68
   2   2  14    2.22    1.86
   2   2  14   -5.30    2.56
  -2   2 -14   -0.29    2.34
   3   2  14   10.76    2.47
   3   2  14   20.39    3.23
 -13  -3  14    6.04    2.34
  13   3 -14    5.81    3.76
 -12  -3  14   12.01    5.83
 -12  -3  14   17.92    2.31
 -12  -3  14   11.84    3.08
 -12   3  14   10.95    2.71
  12   3 -14   19.88    3.59
  12   3 -14   16.29    3.05
  11  -3 -14    3.14    3.13
 -11  -3  14    1.90    1.71
 -11  -3  14   -7.67    2.78
 -11  -3  14    8.87    5.11
  11   3 -14   -0.57    3.24
 -11   3  14   -2.16    2.21
  11   3 -14    0.52    2.77
 -10  -3  14    6.05    4.27
 -10  -3  14    3.20    1.63
  10  -3 -14   -1.52    2.62
 -10  -3  14    4.83    2.53
  10   3 -14    6.41    2.67
  10   3 -14    3.43    3.07
 -10   3  14    6.57    2.12
  -9  -3  14   15.01    4.19
  -9  -3  14    5.42    1.68
   9  -3 -14   -1.63    2.38
   9  -3 -14    3.78    1.65
  -9  -3  14    6.94    2.33
  -9   3  14    5.97    2.02
  -9   3  14    9.62    1.83
   9   3 -14    6.98    2.51
  -9   3  14    3.54    3.00
   9   3 -14    8.40    2.99
  -8  -3  14    1.09    2.06
   8  -3 -14    0.42    2.11
  -8  -3  14    9.80    3.96
  -8  -3  14    5.57    1.73
  -8   3  14    3.91    1.85
   8   3 -14    4.47    2.75
   8   3 -14    3.39    2.23
  -8   3  14    3.34    1.73
  -7  -3  14    3.59    3.86
  -7  -3  14    6.09    1.68
  -7  -3  14    8.20    2.03
  -7   3  14    5.19    1.72
   7   3 -14    6.76    2.20
   7   3 -14    8.45    2.82
  -6  -3  14   13.81    2.26
  -6  -3  14   19.16    3.58
  -6  -3  14   19.38    2.07
   6   3 -14   16.18    2.41
   6   3 -14   17.30    2.95
  -5  -3  14    0.64    1.64
   5   3 -14   -2.66    2.15
   5   3 -14    0.02    1.30
   5   3 -14    0.48    2.71
   5   3 -14   -0.16    2.18
  -4  -3  14    3.26    2.15
   4   3 -14   -1.79    2.06
   4   3 -14    0.98    2.76
   4   3 -14    2.64    1.38
   4   3 -14   -0.73    2.21
  -3  -3  14   12.04    2.08
  -3  -3  14   15.05    2.41
   3   3 -14    9.30    1.55
   3   3 -14   11.31    2.30
  -3   3  14   13.69    1.95
   3   3 -14   13.87    3.14
  -2  -3  14   11.85    2.28
  -2  -3  14   14.30    2.60
  -2   3  14   16.93    2.15
   2   3 -14   20.44    3.55
  -2   3  14   12.89    1.27
   2   3 -14   12.67    2.41
  -1  -3  14    0.27    2.15
   1   3 -14    0.72    3.54
  -1   3  14    2.74    2.23
  -1   3  14    1.22    1.25
   0  -3  14    5.46    2.34
   0   3 -14    3.74    4.13
   0   3  14    5.25    1.58
   0   3  14    8.31    2.38
   1   3  14   10.40    2.82
   1   3  14    8.91    2.16
   2   3  14    3.70    2.81
 -11  -4  14   -3.31    2.39
 -11   4  14    0.86    2.72
 -10  -4  14    2.88    2.31
 -10   4  14    2.92    2.38
  10   4 -14   -0.27    3.66
  -9  -4  14    7.59    3.99
  -9  -4  14    7.45    2.25
  -9  -4  14    1.31    5.35
  -9   4  14    8.63    2.18
   9   4 -14    8.67    3.19
   9   4 -14   10.26    3.46
  -8  -4  14   10.42    2.40
  -8  -4  14    7.45    3.20
  -8  -4  14    5.52    5.43
   8   4 -14   14.10    2.97
  -8   4  14    6.03    1.96
   8   4 -14    9.45    3.61
  -7  -4  14    1.55    4.98
  -7  -4  14    4.51    2.25
  -7  -4  14    6.79    3.50
  -7   4  14    4.44    1.81
   7   4 -14    3.81    3.69
   7   4 -14    5.84    3.09
  -6  -4  14    3.89    2.18
  -6  -4  14    3.40    2.53
   6   4 -14    1.46    2.99
   6   4 -14   11.49    3.46
  -5  -4  14   -0.31    2.56
  -5  -4  14   -3.56    2.29
   5   4 -14    3.90    3.55
  -4  -4  14    8.80    4.19
  -4  -4  14    9.27    2.43
  -4   4  14    5.59    2.03
   4   4 -14    7.77    3.81
  -3  -4  14    6.35    2.60
   3   4 -14   13.31    3.99
   2   4 -14    3.59    4.17
   1   4 -14    3.07    5.07
  15   0 -15    1.09    4.25
 -15   0  15   -2.72    5.35
  14   0 -15   -4.72    3.68
 -14   0  15   -0.93    4.92
 -13   0  15   11.84    4.26
  13   0 -15   14.15    3.60
 -12   0  15    1.82    4.04
  12   0 -15    7.70    3.09
  12   0 -15    3.39    2.51
  11   0 -15    1.18    2.13
 -11   0  15    9.37    3.60
 -11   0  15    4.35    1.96
  11   0 -15    4.42    2.88
  10   0 -15   10.08    1.98
 -10   0  15   10.08    1.84
 -10   0  15   10.47    3.07
  10   0 -15   10.58    2.74
   9   0 -15   39.33    3.38
   9   0 -15   38.69    3.22
  -9   0  15   41.53    4.74
  -9   0  15   37.92    3.14
   8   0 -15    6.16    2.24
  -8   0  15    4.39    1.46
  -8   0  15    6.30    2.50
   8   0 -15   -0.12    1.51
   7   0 -15    6.49    2.23
   7   0 -15    8.71    1.43
  -7   0  15   11.79    2.43
  -7   0  15    9.66    1.40
  -6   0  15    5.93    0.96
  -6   0  15    4.25    1.46
  -6   0  15    4.20    2.26
   6   0 -15    3.76    1.37
   6   0 -15    3.77    2.04
  -5   0  15   21.30    2.34
  -5   0  15   15.01    1.76
   5   0 -15   17.39    2.10
  -5   0  15   15.81    1.52
   5   0 -15   17.53    1.53
  -4   0  15    0.81    1.14
   4   0 -15    6.28    1.77
   4   0 -15    1.69    1.58
  -3   0  15    5.76    1.99
  -3   0  15    7.40    1.35
  -2   0  15    5.14    1.67
  -2   0  15    7.08    2.21
  -1   0  15    1.93    2.50
   0   0  15   10.41    2.74
  14  -1 -15    0.06    3.85
 -14  -1  15    6.34    5.78
  14   1 -15    1.01    4.28
 -14   1  15    4.33    4.56
 -13  -1  15   -0.35    4.51
  13  -1 -15   10.49    3.69
  13   1 -15    6.82    3.89
 -13   1  15   10.76    4.04
 -12  -1  15   13.39    4.10
  12  -1 -15    7.76    3.44
 -12   1  15    7.17    3.70
 -12   1  15    7.63    2.67
  12   1 -15    6.18    3.15
  12   1 -15   -3.39    2.49
  11  -1 -15   -0.29    1.94
 -11  -1  15   19.01    3.91
  11  -1 -15   12.35    3.04
 -11  -1  15    7.83    2.20
 -11   1  15    9.15    3.27
  11   1 -15   14.45    2.97
  11   1 -15    4.90    2.31
 -10  -1  15    3.16    3.36
 -10  -1  15    0.10    1.82
  10  -1 -15    0.73    2.54
 -10  -1  15    0.35    1.34
 -10   1  15    2.50    1.64
 -10   1  15   -3.23    2.68
  10   1 -15    3.00    2.49
  10   1 -15    1.15    2.01
  -9  -1  15    3.39    1.67
   9  -1 -15    1.22    1.56
  -9  -1  15    3.95    3.12
   9  -1 -15    3.43    2.39
  -9  -1  15    3.06    1.24
   9   1 -15    3.84    1.89
   9   1 -15    2.54    2.41
  -9   1  15    5.87    1.38
  -9   1  15    4.21    2.50
  -8  -1  15   -1.12    1.55
  -8  -1  15    1.70    1.24
   8  -1 -15    2.93    2.17
  -8  -1  15    0.56    2.87
   8  -1 -15    0.56    1.44
  -8   1  15   -1.99    1.65
   8   1 -15    1.45    2.19
   8   1 -15   -2.05    1.71
  -8   1  15    1.36    2.14
   7  -1 -15    0.82    1.31
  -7  -1  15    1.51    1.20
  -7  -1  15    3.20    1.51
   7  -1 -15   -0.25    2.10
  -7  -1  15    1.98    2.56
  -7   1  15    0.48    1.38
   7   1 -15   -0.56    2.17
   7   1 -15    0.05    2.13
  -7   1  15    4.84    2.04
   6  -1 -15   14.25    1.86
  -6  -1  15    6.69    1.50
  -6  -1  15   15.14    2.68
  -6   1  15    8.00    1.31
  -6   1  15   10.90    2.05
   6   1 -15    8.16    2.31
   6   1 -15    2.11    1.50
  -5  -1  15    2.66    2.62
  -5  -1  15    4.55    1.26
  -5  -1  15    1.54    1.44
   5   1 -15    3.26    2.26
   5   1 -15    3.26    1.40
   5   1 -15    2.68    1.03
  -4  -1  15   20.66    2.03
   4   1 -15   22.29    2.15
   4   1 -15   24.80    2.49
  -4   1  15   17.78    1.64
   4   1 -15   22.67    2.50
   4   1 -15   19.03    1.48
  -3  -1  15    0.86    1.34
  -3  -1  15    1.17    2.07
  -3   1  15   -1.11    1.97
  -3   1  15    1.96    0.95
   3   1 -15    2.11    1.06
   3   1 -15    2.75    1.77
   3   1 -15    0.81    2.25
   3   1 -15    0.64    1.40
  -2  -1  15   -1.18    1.46
  -2  -1  15    3.11    2.16
  -2   1  15    1.29    1.12
  -2   1  15    1.18    2.06
   2   1 -15    4.24    1.79
   2   1 -15   -0.59    2.32
  -1  -1  15    2.89    1.89
  -1  -1  15    0.07    2.19
   1   1 -15   -0.33    2.49
   1   1 -15   -1.20    1.75
  -1   1  15    2.60    2.44
  -1   1  15    2.63    1.27
   0  -1  15    2.31    2.02
   0   1 -15    4.05    1.92
   0   1  15    7.93    1.57
   0   1  15    4.97    2.77
   1   1  15    3.16    1.73
   1   1  15   -1.82    2.98
   2   1  15   10.13    2.15
  14   2 -15   -1.25    4.49
 -13  -2  15    5.20    5.73
 -13  -2  15    0.21    2.31
  13   2 -15    7.96    3.75
 -12  -2  15    2.76    1.84
  12  -2 -15    6.89    3.56
 -12  -2  15    9.13    5.23
  12   2 -15    2.83    3.16
  11  -2 -15    2.57    2.87
 -11  -2  15   -1.54    4.69
 -11  -2  15    2.39    1.68
 -11  -2  15    2.12    3.94
 -11   2  15    2.84    2.20
  11   2 -15    2.86    2.63
  11   2 -15    3.46    3.14
 -10  -2  15   -0.65    2.08
  10  -2 -15    4.15    2.67
 -10  -2  15    4.83    1.53
 -10  -2  15    8.01    4.23
  10  -2 -15    1.39    1.91
 -10   2  15    2.68    2.43
  10   2 -15    5.15    2.38
  10   2 -15    8.87    3.06
  -9  -2  15   51.68    4.45
   9  -2 -15   35.73    2.99
  -9  -2  15   40.14    3.44
  -9   2  15   28.77    2.53
   9   2 -15   46.07    4.86
  -9   2  15   35.34    4.11
   9   2 -15   39.36    4.10
  -8  -2  15    2.49    1.80
   8  -2 -15    0.03    2.06
  -8  -2  15    3.99    1.57
  -8  -2  15    9.06    3.76
   8   2 -15    3.25    2.69
   8   2 -15    3.76    2.04
  -8   2  15    1.95    1.65
  -8   2  15    5.76    2.15
  -7  -2  15   17.38    3.25
  -7  -2  15    4.03    1.63
  -7  -2  15    3.54    1.59
   7  -2 -15   -1.04    2.04
  -7   2  15    4.07    1.80
   7   2 -15    1.85    1.98
   7   2 -15    1.14    2.47
  -6  -2  15    5.87    1.62
  -6  -2  15    5.01    3.44
  -6  -2  15    4.30    1.83
   6   2 -15    4.97    1.84
   6   2 -15    3.72    2.62
  -5  -2  15   17.76    1.86
   5   2 -15   17.91    2.54
   5   2 -15   16.98    2.93
   5   2 -15   10.92    1.49
  -4  -2  15   -1.31    2.12
  -4  -2  15    1.90    1.48
   4   2 -15    0.97    2.80
   4   2 -15    3.72    2.26
   4   2 -15    0.00    1.29
  -3  -2  15    6.02    2.21
  -3  -2  15    3.83    1.66
  -3   2  15    6.44    2.12
   3   2 -15    4.56    2.22
   3   2 -15    8.79    3.07
   3   2 -15    6.04    2.13
   3   2 -15    3.74    1.81
  -2  -2  15    7.03    1.86
   2   2 -15    2.89    2.14
   2   2 -15    4.32    3.15
  -2   2  15    6.37    2.40
   2   2 -15    0.85    2.25
  -2   2  15    4.75    1.19
  -1  -2  15   -0.62    1.92
  -1   2  15    3.30    1.41
   1   2 -15    1.99    2.22
  -1   2  15    2.37    2.58
   0  -2  15    4.32    2.32
   0   2  15    9.02    2.73
   0   2  15    2.21    1.67
   0   2 -15    5.25    2.56
   1  -2  15   -0.99    3.34
   1   2  15    0.92    2.96
   1   2  15   -0.19    2.04
 -12  -3  15   -3.34    2.51
  12   3 -15    3.47    3.97
 -11  -3  15   -0.26    1.96
 -11  -3  15   12.61    5.74
 -11   3  15   -1.42    2.30
  11   3 -15    3.74    3.63
 -10  -3  15    9.44    5.29
 -10  -3  15    9.34    1.94
  10   3 -15   11.40    3.43
 -10   3  15    3.50    2.11
  -9  -3  15    6.75    5.39
  -9  -3  15    5.62    1.89
   9   3 -15   -0.25    3.34
   9   3 -15    5.24    3.20
  -8  -3  15    1.56    1.94
  -8  -3  15    9.45    4.32
   8   3 -15    5.43    3.27
   8   3 -15   -1.70    2.49
  -7  -3  15    7.94    4.53
  -7  -3  15    3.68    1.89
   7   3 -15   -2.13    2.41
   7   3 -15    2.89    3.16
  -6  -3  15    5.25    1.84
   6   3 -15    3.27    3.17
  -5  -3  15   13.50    3.80
  -5  -3  15    1.02    1.95
   5   3 -15   -1.70    3.15
  -4  -3  15   11.12    2.11
  -4   3  15   13.92    2.52
   4   3 -15   10.22    3.54
  -3  -3  15   -0.61    1.80
  -3   3  15    0.04    2.13
   3   3 -15    6.52    3.60
  -2  -3  15   -1.96    2.07
  -2   3  15    2.32    2.73
   2   3 -15   -0.36    5.19
  -1  -3  15   -0.61    2.41
  -1   3  15    1.09    2.78
   0   3  15    7.49    3.11
  10   4 -15   -4.54    4.27
  -9  -4  15    2.74    3.35
  -9   4  15    0.19    2.55
   9   4 -15    5.27    4.15
  -8  -4  15    2.53    2.93
  -8  -4  15    6.91    6.51
   8   4 -15    8.76    4.36
  -8   4  15    8.94    2.42
  -7  -4  15    6.66    2.76
  -7   4  15    5.22    2.18
   7   4 -15    6.68    4.14
  -6  -4  15    8.24    2.55
   6   4 -15    2.06    4.25
  -5  -4  15   10.35    3.77
   5   4 -15   12.18    4.55
   4   4 -15    9.66    4.49
  13   0 -16    1.20    3.62
 -13   0  16  -13.14    5.71
  12   0 -16    0.49    3.32
 -12   0  16    5.47    4.35
  11   0 -16   17.65    3.30
 -11   0  16   12.80    4.05
  10   0 -16    7.39    3.11
 -10   0  16    2.36    3.43
   9   0 -16   -0.11    2.82
   9   0 -16   -2.49    1.86
  -9   0  16    0.23    3.02
   8   0 -16   -0.93    2.65
  -8   0  16    0.27    2.76
  -8   0  16   -1.14    1.49
   8   0 -16    2.11    1.71
   7   0 -16   25.80    2.88
  -7   0  16   27.98    3.08
  -7   0  16   20.98    2.11
   7   0 -16   26.51    2.84
  -6   0  16    0.30    2.45
  -6   0  16    0.37    1.08
   6   0 -16    2.27    2.29
   6   0 -16   -2.73    1.59
  -6   0  16    0.03    1.60
   5   0 -16    1.09    2.26
   5   0 -16    0.50    2.03
  -5   0  16    0.15    1.21
  -4   0  16    4.36    1.46
  -4   0  16    5.46    2.24
  -3   0  16   23.32    2.65
  -3   0  16   29.84    2.87
  -2   0  16    8.12    1.93
  -1   0  16    1.14    2.23
 -13  -1  16   -5.66    5.13
  13   1 -16   10.80    4.29
 -12  -1  16   19.54    5.04
  12   1 -16   30.45    4.18
 -11  -1  16    7.31    4.59
  11  -1 -16    7.85    3.35
 -11  -1  16    6.20    1.90
  11   1 -16   11.23    3.52
  10  -1 -16    4.54    2.98
 -10  -1  16    6.82    1.67
 -10  -1  16    9.74    4.21
  10   1 -16    9.86    3.02
   9  -1 -16    1.14    2.69
  -9  -1  16   15.83    3.81
  -9  -1  16    8.31    1.56
   9   1 -16   -0.80    2.26
   9   1 -16    6.53    2.91
  -9   1  16    1.98    2.16
  -9   1  16    9.15    2.86
  -8  -1  16    9.65    3.39
   8  -1 -16    4.58    1.57
  -8  -1  16    3.93    1.57
   8  -1 -16    0.36    2.45
   8   1 -16   -4.99    1.98
   8   1 -16    1.86    2.86
  -8   1  16    0.58    1.82
  -7  -1  16   10.18    1.51
   7  -1 -16    0.11    2.24
  -7  -1  16   10.79    3.30
  -7   1  16   11.21    2.98
  -7   1  16    5.64    1.67
   7   1 -16   10.16    2.72
   7   1 -16   -2.09    1.76
  -6  -1  16    2.51    2.45
  -6  -1  16    7.30    3.25
  -6  -1  16    4.89    1.36
   6   1 -16    4.96    2.68
   6   1 -16    1.94    1.65
  -5  -1  16    2.66    1.52
   5   1 -16    0.24    1.65
   5   1 -16    1.07    2.75
   5   1 -16    2.25    2.30
  -4  -1  16    0.25    2.40
  -4  -1  16    0.95    1.66
   4   1 -16   -0.49    2.78
  -4   1  16    4.64    2.32
   4   1 -16    0.65    1.71
   4   1 -16    6.06    2.50
  -3  -1  16    5.92    1.81
  -3   1  16   10.09    2.51
  -3   1  16    6.83    1.25
   3   1 -16    0.97    2.16
  -3   1  16    3.86    1.69
  -2  -1  16    5.96    1.98
   2   1 -16    6.97    2.17
  -2   1  16    7.60    1.44
  -2   1  16    5.92    2.18
  -2   1  16   10.15    2.91
  -1  -1  16    0.88    2.11
  -1   1  16    4.50    1.66
   0  -1  16    2.33    2.60
   0   1  16    7.23    2.74
 -13  -2  16    1.13    6.90
  13   2 -16    5.04    4.44
 -12  -2  16    2.23    5.84
  12   2 -16    3.37    4.11
 -11  -2  16    3.05    1.91
 -11  -2  16    4.14    5.50
  11   2 -16   -3.12    3.70
 -10  -2  16    3.34    1.88
 -10  -2  16    5.29    4.82
  10   2 -16    4.04    3.52
  -9  -2  16   13.61    4.78
  -9  -2  16    8.59    1.79
   9   2 -16    7.73    3.45
  -8  -2  16    4.68    4.25
  -8  -2  16    4.31    1.89
   8   2 -16    6.33    3.27
  -8   2  16    4.96    1.97
  -7  -2  16    2.86    4.05
  -7  -2  16   10.74    1.82
   7   2 -16   12.52    3.24
  -6  -2  16    2.79    1.74
   6   2 -16    3.99    3.11
  -5  -2  16    0.12    1.69
   5   2 -16    6.31    3.14
  -4  -2  16    4.63    1.76
   4   2 -16    1.02    3.60
  -4   2  16    8.32    2.82
  -3  -2  16   18.12    2.14
  -3   2  16   23.74    2.82
  -2  -2  16   -1.00    2.10
  -2   2  16    7.64    3.18
  -1  -2  16    7.04    2.34
  -1   2  16    1.21    3.24
 -11  -3  16    1.21    2.60
 -11  -3  16    6.74    6.86
  11   3 -16    0.94    4.31
 -10  -3  16  -11.74    6.47
 -10  -3  16    1.13    2.24
  10   3 -16    2.27    4.21
  -9  -3  16    2.32    5.61
  -9  -3  16    5.95    2.32
   9   3 -16    6.87    3.99
  -8  -3  16    2.35    2.42
  -8  -3  16    3.02    5.67
   8   3 -16    0.01    3.82
  -7  -3  16    9.60    2.28
   7   3 -16    9.92    3.80
  -6  -3  16   10.11    2.29
   6   3 -16   13.06    3.98
  -5  -3  16    6.51    2.39
  -4  -3  16    7.61    2.42
  -4   3  16    2.97    2.82
  -3  -3  16    2.55    2.42
  -3   3  16    6.19    3.17
  -2   3  16    4.12    3.45
  -5   0  17    1.77    1.92
  -4   0  17    0.47    2.01
  -3   0  17    2.65    3.16
  -8  -1  17    5.67    2.51
  -7  -1  17    8.54    1.78
  -6  -1  17    2.11    1.91
   6   1 -17    5.44    3.00
  -5  -1  17    3.51    2.00
   5   1 -17    2.88    3.00
  -4  -1  17    6.75    2.14
   4   1 -17    2.88    2.55
  -3  -1  17    1.17    2.36
   3   1 -17    0.57    2.51
  -2  -1  17    3.04    2.60
  -8  -2  17   -0.92    2.41
  -7  -2  17    0.12    2.35
  -6  -2  17   -0.17    2.33
  -5  -2  17    3.39    2.43
  -4  -2  17    0.75    2.09
  -3  -2  17    0.15    2.35
   6   0 -18    1.80    3.08
   0   0   0    0.00    0.00
;
_shelx_hkl_checksum              58429
_shelx_res_file
;
TITL LR_06252018_10b_0m in P2(1)
    LR_06252018_10b_0m.res
    created by SHELXL-2018/3 at 09:01:59 on 30-Jun-2018
CELL 0.71073  12.10440   5.31620  12.89330  90.0000 115.4089  90.0000
ZERR    2.00   0.00170   0.00080   0.00170   0.0000   0.0044   0.0000
LATT -1
SYMM -X, 0.5+Y, -Z
SFAC C H N O P CL
UNIT 20 42 4 4 2 4
LIST 6 ! automatically inserted. Change 6 to 4 for CHECKCIF!!
TEMP -173.160
SIZE 0.021 0.022 0.222
L.S. 4
BOND $H
ACTA
CONF
FMAP 2
PLAN 20
DFIX 0.88 N1 H1
WGHT    0.047400    0.017500
FVAR       0.25337
CL1   6    0.422135    0.547527    0.091349    11.00000    0.01329    0.03290 =
         0.01920    0.00065    0.00368    0.00359
CL2   6    0.913878    0.020567    0.047165    11.00000    0.03194    0.03412 =
         0.02603   -0.01161    0.01846   -0.00296
P1    5    0.867125    0.587247    0.355719    11.00000    0.00991    0.00979 =
         0.01166   -0.00009    0.00346    0.00048
O1    4    0.796736    0.843846    0.353812    11.00000    0.01753    0.01403 =
         0.01375    0.00225    0.00889    0.00199
O2    4    0.993835    0.624272    0.370471    11.00000    0.01158    0.02048 =
         0.01395   -0.00396    0.00501   -0.00269
N1    3    0.840632    0.452847    0.456791    11.00000    0.01340    0.01318 =
         0.01214    0.00129    0.00377    0.00376
H1    2    0.885644    0.328758    0.492407    11.00000   -1.20000
N2    3    0.788811    0.441450    0.233792    11.00000    0.00997    0.01711 =
         0.01353   -0.00463    0.00549   -0.00265
C1    1    0.737943    0.834240    0.431362    11.00000    0.01578    0.01753 =
         0.01897   -0.00286    0.01044    0.00009
AFIX  23
H1A   2    0.650845    0.786491    0.389001    11.00000   -1.20000
H1B   2    0.742459    1.000426    0.467617    11.00000   -1.20000
AFIX   0
C2    1    0.806172    0.638771    0.521526    11.00000    0.01429    0.01460 =
         0.01079   -0.00206    0.00519   -0.00160
AFIX  13
H2    2    0.881348    0.715273    0.582736    11.00000   -1.20000
AFIX   0
C3    1    0.728079    0.520618    0.575495    11.00000    0.01856    0.01895 =
         0.02076   -0.00438    0.01112   -0.00648
AFIX  23
H3A   2    0.777041    0.389806    0.630753    11.00000   -1.20000
H3B   2    0.656971    0.436364    0.514403    11.00000   -1.20000
AFIX   0
C4    1    0.681193    0.707887    0.637961    11.00000    0.01756    0.02888 =
         0.02116   -0.00377    0.01250   -0.00009
AFIX  13
H4    2    0.633747    0.841894    0.582193    11.00000   -1.20000
AFIX   0
C5    1    0.594746    0.571673    0.677213    11.00000    0.03881    0.06248 =
         0.04886   -0.02427    0.03582   -0.02093
AFIX 137
H5A   2    0.525838    0.501848    0.610291    11.00000   -1.50000
H5B   2    0.564077    0.690589    0.716789    11.00000   -1.50000
H5C   2    0.638821    0.435127    0.729761    11.00000   -1.50000
AFIX   0
C6    1    0.785345    0.832963    0.738709    11.00000    0.02488    0.04097 =
         0.02246   -0.01250    0.01345   -0.00635
AFIX 137
H6A   2    0.838643    0.921393    0.711137    11.00000   -1.50000
H6B   2    0.832701    0.704614    0.794716    11.00000   -1.50000
H6C   2    0.751796    0.953468    0.775185    11.00000   -1.50000
AFIX   0
C7    1    0.659217    0.387621    0.198405    11.00000    0.01081    0.01833 =
         0.01321   -0.00022    0.00380   -0.00111
AFIX  23
H7A   2    0.643680    0.364928    0.267210    11.00000   -1.20000
H7B   2    0.636966    0.229454    0.153571    11.00000   -1.20000
AFIX   0
C8    1    0.580929    0.601783    0.125812    11.00000    0.01418    0.02511 =
         0.02330    0.00658    0.00359   -0.00018
AFIX  23
H8A   2    0.591595    0.615752    0.054077    11.00000   -1.20000
H8B   2    0.607631    0.762141    0.168369    11.00000   -1.20000
AFIX   0
C9    1    0.839712    0.380585    0.151725    11.00000    0.01539    0.02247 =
         0.00968   -0.00438    0.00567   -0.00260
AFIX  23
H9A   2    0.913708    0.483375    0.168799    11.00000   -1.20000
H9B   2    0.778956    0.420611    0.072762    11.00000   -1.20000
AFIX   0
C10   1    0.872255    0.104226    0.159934    11.00000    0.02037    0.02047 =
         0.01533   -0.00276    0.00839   -0.00209
AFIX  23
H10A  2    0.801388    0.001990    0.153912    11.00000   -1.20000
H10B  2    0.941323    0.069086    0.235248    11.00000   -1.20000
AFIX   0
HKLF 4
REM  LR_06252018_10b_0m in P2(1)
REM wR2 = 0.0953, GooF = S = 1.020, Restrained GooF = 1.020 for all data
REM R1 = 0.0480 for 3325 Fo > 4sig(Fo) and 0.0810 for all 4294 data
REM 159 parameters refined using 2 restraints
END
WGHT      0.0474      0.0175
REM Highest difference peak  0.378,  deepest hole -0.487,  1-sigma level  0.087
Q1    1   0.8207  0.5328  0.2755  11.00000  0.05    0.38
Q2    1   0.6990  0.5935  0.3540  11.00000  0.05    0.34
Q3    1   0.7785  0.6652  0.2881  11.00000  0.05    0.33
Q4    1   0.8337  0.5609  0.5026  11.00000  0.05    0.33
Q5    1   1.0185 -0.0390  0.1115  11.00000  0.05    0.32
Q6    1   0.5622  0.4290  0.6922  11.00000  0.05    0.31
Q7    1   0.7844  0.7030  0.4770  11.00000  0.05    0.31
Q8    1   0.4240  0.6736  0.1371  11.00000  0.05    0.31
Q9    1   0.6672  1.0423  0.4918  11.00000  0.05    0.31
Q10   1   0.9815  0.5475  0.4040  11.00000  0.05    0.31
Q11   1   0.7032  0.7771  0.3774  11.00000  0.05    0.31
Q12   1   0.9022 -0.1779  0.0348  11.00000  0.05    0.30
Q13   1   0.6834  0.9107  0.3756  11.00000  0.05    0.30
Q14   1   0.8571  0.7007  0.3911  11.00000  0.05    0.30
Q15   1   0.9064  0.9374  0.6080  11.00000  0.05    0.30
Q16   1   0.8145  0.0728  0.2799  11.00000  0.05    0.30
Q17   1   0.4562  0.5448 -0.0480  11.00000  0.05    0.29
Q18   1   0.8628  0.6042  0.7915  11.00000  0.05    0.29
Q19   1   0.4767  0.2097  0.1035  11.00000  0.05    0.28
Q20   1   0.8520  0.2348 -0.0135  11.00000  0.05    0.28
;
_shelx_res_checksum              67971
loop_
_space_group_symop_operation_xyz
'x, y, z'
'-x, y+1/2, -z'
loop_
_atom_site_type_symbol
_atom_site_label
_atom_site_fract_x
_atom_site_fract_y
_atom_site_fract_z
_atom_site_U_iso_or_equiv
_atom_site_adp_type
_atom_site_calc_flag
_atom_site_occupancy
Cl Cl1 0.42213(6) 0.54753(18) 0.09135(7) 0.0229(2) Uani d 1
Cl Cl2 0.91388(8) 0.02057(18) 0.04717(8) 0.0286(2) Uani d 1
P P1 0.86712(6) 0.58725(13) 0.35572(7) 0.01086(18) Uani d 1
O O1 0.79674(19) 0.8438(4) 0.3538(2) 0.0143(5) Uani d 1
O O2 0.99383(17) 0.6243(4) 0.37047(19) 0.0155(5) Uani d 1
N N1 0.8406(2) 0.4528(5) 0.4568(2) 0.0135(6) Uani d 1
H H1 0.886(3) 0.329(5) 0.492(3) 0.016 Uiso d 1
N N2 0.7888(2) 0.4415(5) 0.2338(2) 0.0134(6) Uani d 1
C C1 0.7379(3) 0.8342(6) 0.4314(3) 0.0164(7) Uani d 1
H H1A 0.650845 0.786491 0.389001 0.020 Uiso calc 1
H H1B 0.742459 1.000426 0.467617 0.020 Uiso calc 1
C C2 0.8062(3) 0.6388(6) 0.5215(3) 0.0133(7) Uani d 1
H H2 0.881348 0.715273 0.582736 0.016 Uiso calc 1
C C3 0.7281(3) 0.5206(7) 0.5755(3) 0.0185(7) Uani d 1
H H3A 0.777041 0.389806 0.630753 0.022 Uiso calc 1
H H3B 0.656971 0.436364 0.514403 0.022 Uiso calc 1
C C4 0.6812(3) 0.7079(7) 0.6380(3) 0.0211(8) Uani d 1
H H4 0.633747 0.841894 0.582193 0.025 Uiso calc 1
C C5 0.5947(4) 0.5717(11) 0.6772(4) 0.0441(12) Uani d 1
H H5A 0.525838 0.501848 0.610291 0.066 Uiso calc 1
H H5B 0.564077 0.690589 0.716789 0.066 Uiso calc 1
H H5C 0.638821 0.435127 0.729761 0.066 Uiso calc 1
C C6 0.7853(3) 0.8330(8) 0.7387(3) 0.0283(9) Uani d 1
H H6A 0.838643 0.921393 0.711137 0.042 Uiso calc 1
H H6B 0.832701 0.704614 0.794716 0.042 Uiso calc 1
H H6C 0.751796 0.953468 0.775185 0.042 Uiso calc 1
C C7 0.6592(3) 0.3876(6) 0.1984(3) 0.0146(7) Uani d 1
H H7A 0.643680 0.364928 0.267210 0.018 Uiso calc 1
H H7B 0.636966 0.229454 0.153571 0.018 Uiso calc 1
C C8 0.5809(3) 0.6018(8) 0.1258(3) 0.0224(8) Uani d 1
H H8A 0.591595 0.615752 0.054077 0.027 Uiso calc 1
H H8B 0.607631 0.762141 0.168369 0.027 Uiso calc 1
C C9 0.8397(3) 0.3806(7) 0.1517(3) 0.0157(7) Uani d 1
H H9A 0.913708 0.483375 0.168799 0.019 Uiso calc 1
H H9B 0.778956 0.420611 0.072762 0.019 Uiso calc 1
C C10 0.8723(3) 0.1042(7) 0.1599(3) 0.0185(7) Uani d 1
H H10A 0.801388 0.001990 0.153912 0.022 Uiso calc 1
H H10B 0.941323 0.069086 0.235248 0.022 Uiso calc 1
loop_
_atom_site_aniso_label
_atom_site_aniso_U_11
_atom_site_aniso_U_22
_atom_site_aniso_U_33
_atom_site_aniso_U_12
_atom_site_aniso_U_13
_atom_site_aniso_U_23
Cl1 0.0133(3) 0.0329(5) 0.0192(4) 0.0036(3) 0.0037(3) 0.0007(4)
Cl2 0.0319(4) 0.0341(5) 0.0260(5) -0.0030(4) 0.0185(4) -0.0116(4)
P1 0.0099(3) 0.0098(4) 0.0117(4) 0.0005(3) 0.0035(3) -0.0001(3)
O1 0.0175(11) 0.0140(11) 0.0137(13) 0.0020(9) 0.0089(10) 0.0022(10)
O2 0.0116(9) 0.0205(13) 0.0139(12) -0.0027(9) 0.0050(9) -0.0040(10)
N1 0.0134(12) 0.0132(14) 0.0121(15) 0.0038(10) 0.0038(11) 0.0013(11)
N2 0.0100(12) 0.0171(14) 0.0135(15) -0.0027(10) 0.0055(11) -0.0046(12)
C1 0.0158(15) 0.0175(17) 0.019(2) 0.0001(13) 0.0104(14) -0.0029(15)
C2 0.0143(14) 0.0146(17) 0.0108(17) -0.0016(12) 0.0052(12) -0.0021(13)
C3 0.0186(14) 0.0189(17) 0.0208(18) -0.0065(14) 0.0111(13) -0.0044(15)
C4 0.0176(16) 0.029(2) 0.021(2) -0.0001(14) 0.0125(15) -0.0038(16)
C5 0.039(2) 0.062(3) 0.049(3) -0.021(3) 0.036(2) -0.024(3)
C6 0.0249(19) 0.041(2) 0.022(2) -0.0064(16) 0.0135(16) -0.0125(19)
C7 0.0108(14) 0.0183(17) 0.0132(18) -0.0011(12) 0.0038(13) -0.0002(13)
C8 0.0142(14) 0.0251(19) 0.0233(19) -0.0002(15) 0.0036(13) 0.0066(17)
C9 0.0154(15) 0.0225(18) 0.0097(17) -0.0026(13) 0.0057(13) -0.0044(14)
C10 0.0204(15) 0.0205(18) 0.0153(17) -0.0021(15) 0.0084(13) -0.0028(16)
loop_
_atom_type_symbol
_atom_type_description
_atom_type_scat_dispersion_real
_atom_type_scat_dispersion_imag
_atom_type_scat_source
C C 0.0033 0.0016 'International Tables Vol C Tables 4.2.6.8 and 6.1.1.4'
H H 0.0000 0.0000 'International Tables Vol C Tables 4.2.6.8 and 6.1.1.4'
N N 0.0061 0.0033 'International Tables Vol C Tables 4.2.6.8 and 6.1.1.4'
O O 0.0106 0.0060 'International Tables Vol C Tables 4.2.6.8 and 6.1.1.4'
P P 0.1023 0.0942 'International Tables Vol C Tables 4.2.6.8 and 6.1.1.4'
Cl Cl 0.1484 0.1585 'International Tables Vol C Tables 4.2.6.8 and 6.1.1.4'
loop_
_geom_angle_atom_site_label_1
_geom_angle_atom_site_label_2
_geom_angle_atom_site_label_3
_geom_angle
O2 P1 O1 113.87(12)
O2 P1 N1 120.29(13)
O1 P1 N1 95.71(12)
O2 P1 N2 109.14(13)
O1 P1 N2 107.61(13)
N1 P1 N2 109.10(14)
C1 O1 P1 111.9(2)
C2 N1 P1 111.1(2)
C2 N1 H1 119(3)
P1 N1 H1 118(2)
C7 N2 C9 117.2(3)
C7 N2 P1 119.5(2)
C9 N2 P1 123.0(2)
O1 C1 C2 106.6(2)
O1 C1 H1A 110.4
C2 C1 H1A 110.4
O1 C1 H1B 110.4
C2 C1 H1B 110.4
H1A C1 H1B 108.6
N1 C2 C1 102.7(3)
N1 C2 C3 111.4(3)
C1 C2 C3 113.1(3)
N1 C2 H2 109.8
C1 C2 H2 109.8
C3 C2 H2 109.8
C2 C3 C4 114.4(3)
C2 C3 H3A 108.7
C4 C3 H3A 108.7
C2 C3 H3B 108.7
C4 C3 H3B 108.7
H3A C3 H3B 107.6
C6 C4 C5 111.0(3)
C6 C4 C3 112.0(3)
C5 C4 C3 109.1(3)
C6 C4 H4 108.2
C5 C4 H4 108.2
C3 C4 H4 108.2
C4 C5 H5A 109.5
C4 C5 H5B 109.5
H5A C5 H5B 109.5
C4 C5 H5C 109.5
H5A C5 H5C 109.5
H5B C5 H5C 109.5
C4 C6 H6A 109.5
C4 C6 H6B 109.5
H6A C6 H6B 109.5
C4 C6 H6C 109.5
H6A C6 H6C 109.5
H6B C6 H6C 109.5
N2 C7 C8 110.3(3)
N2 C7 H7A 109.6
C8 C7 H7A 109.6
N2 C7 H7B 109.6
C8 C7 H7B 109.6
H7A C7 H7B 108.1
C7 C8 Cl1 110.5(2)
C7 C8 H8A 109.6
Cl1 C8 H8A 109.6
C7 C8 H8B 109.6
Cl1 C8 H8B 109.6
H8A C8 H8B 108.1
N2 C9 C10 109.9(3)
N2 C9 H9A 109.7
C10 C9 H9A 109.7
N2 C9 H9B 109.7
C10 C9 H9B 109.7
H9A C9 H9B 108.2
C9 C10 Cl2 109.9(2)
C9 C10 H10A 109.7
Cl2 C10 H10A 109.7
C9 C10 H10B 109.7
Cl2 C10 H10B 109.7
H10A C10 H10B 108.2
loop_
_geom_bond_atom_site_label_1
_geom_bond_atom_site_label_2
_geom_bond_distance
Cl1 C8 1.801(3)
Cl2 C10 1.787(3)
P1 O2 1.475(2)
P1 O1 1.603(2)
P1 N1 1.634(3)
P1 N2 1.641(3)
O1 C1 1.456(4)
N1 C2 1.465(4)
N1 H1 0.85(2)
N2 C7 1.462(4)
N2 C9 1.471(4)
C1 C2 1.513(5)
C1 H1A 0.9900
C1 H1B 0.9900
C2 C3 1.529(4)
C2 H2 1.0000
C3 C4 1.534(5)
C3 H3A 0.9900
C3 H3B 0.9900
C4 C6 1.521(5)
C4 C5 1.526(5)
C4 H4 1.0000
C5 H5A 0.9800
C5 H5B 0.9800
C5 H5C 0.9800
C6 H6A 0.9800
C6 H6B 0.9800
C6 H6C 0.9800
C7 C8 1.520(5)
C7 H7A 0.9900
C7 H7B 0.9900
C8 H8A 0.9900
C8 H8B 0.9900
C9 C10 1.513(5)
C9 H9A 0.9900
C9 H9B 0.9900
C10 H10A 0.9900
C10 H10B 0.9900
loop_
_geom_hbond_atom_site_label_D
_geom_hbond_atom_site_label_H
_geom_hbond_atom_site_label_A
_geom_hbond_site_symmetry_A
_geom_hbond_distance_DH
_geom_hbond_distance_HA
_geom_hbond_distance_DA
_geom_hbond_angle_DHA
_geom_hbond_publ_flag
N1 H1 O2 2_746 0.85(2) 2.05(3) 2.863(3) 158(4) yes
C2 H2 O2 2_756 1.00 2.57 3.401(4) 140.7 yes
C1 H1B N1 1_565 0.99 2.71 3.481(4) 134.7 yes
C8 H8A Cl1 2_655 0.99 2.92 3.656(4) 131.6 yes
C8 H8B O1 . 0.99 2.54 3.245(4) 128.1 yes
C7 H7A N1 . 0.99 2.62 3.125(4) 111.5 yes
loop_
_geom_torsion_atom_site_label_1
_geom_torsion_atom_site_label_2
_geom_torsion_atom_site_label_3
_geom_torsion_atom_site_label_4
_geom_torsion
O2 P1 O1 C1 -130.6(2)
N1 P1 O1 C1 -3.9(2)
N2 P1 O1 C1 108.2(2)
O2 P1 N1 C2 103.6(2)
O1 P1 N1 C2 -18.4(2)
N2 P1 N1 C2 -129.3(2)
O2 P1 N2 C7 -178.7(2)
O1 P1 N2 C7 -54.7(3)
N1 P1 N2 C7 48.1(3)
O2 P1 N2 C9 -4.4(3)
O1 P1 N2 C9 119.6(3)
N1 P1 N2 C9 -137.6(3)
P1 O1 C1 C2 23.8(3)
P1 N1 C2 C1 33.0(3)
P1 N1 C2 C3 154.3(2)
O1 C1 C2 N1 -34.2(3)
O1 C1 C2 C3 -154.4(3)
N1 C2 C3 C4 -176.1(3)
C1 C2 C3 C4 -61.0(4)
C2 C3 C4 C6 -62.3(4)
C2 C3 C4 C5 174.4(3)
C9 N2 C7 C8 -83.5(4)
P1 N2 C7 C8 91.1(3)
N2 C7 C8 Cl1 -175.6(2)
C7 N2 C9 C10 -82.3(3)
P1 N2 C9 C10 103.2(3)
N2 C9 C10 Cl2 172.0(2)

_cod_database_fobs_code 2242618
