#------------------------------------------------------------------------------
#$Date: 2017-03-22 09:05:33 +0200 (Wed, 22 Mar 2017) $
#$Revision: 194407 $
#$URL: file:///home/coder/svn-repositories/cod/cif/2/24/20/2242086.cif $
#------------------------------------------------------------------------------
#
# This file is available in the Crystallography Open Database (COD),
# http://www.crystallography.net/. The original data for this entry
# were provided by IUCr Journals, http://journals.iucr.org/.
#
# The file may be used within the scientific community so long as
# proper attribution is given to the journal article from which the
# data were obtained.
#
data_2242086
loop_
_publ_author_name
'Tatikonda, Rajendhraprasad'
'Haukka, Matti'
_publ_section_title
;
 Ruthenium(II) carbonyl compounds with the
 4'-chloro-2,2':6',2''-terpyridine ligand
;
_journal_coeditor_code           WM5367
_journal_issue                   4
_journal_name_full               'Acta Crystallographica Section E'
_journal_page_first              556
_journal_page_last               559
_journal_paper_doi               10.1107/S2056989017003917
_journal_volume                  73
_journal_year                    2017
_chemical_formula_iupac          '[Ru Cl2 (C15 H10 Cl N3 (C O)2]'
_chemical_formula_moiety         'C17 H10 Cl3 N3 O2 Ru'
_chemical_formula_sum            'C17 H10 Cl3 N3 O2 Ru'
_chemical_formula_weight         495.70
_chemical_name_systematic
<i>cis</i>-Dicarbonyl-<i>trans</i>-dichlorido(4'-chloro-2,2':6',2''-terpyridine-\k^2^<i>N</i>^1^,<i>N</i>^1'^)ruthenium(II)
_space_group_crystal_system      triclinic
_space_group_IT_number           2
_space_group_name_Hall           '-P 1'
_space_group_name_H-M_alt        'P -1'
_symmetry_space_group_name_Hall  '-P 1'
_symmetry_space_group_name_H-M   'P -1'
_atom_sites_solution_hydrogens   geom
_audit_creation_method           SHELXL-2014/7
_cell_angle_alpha                101.287(3)
_cell_angle_beta                 91.835(3)
_cell_angle_gamma                98.144(3)
_cell_formula_units_Z            2
_cell_length_a                   7.3019(3)
_cell_length_b                   8.5080(3)
_cell_length_c                   14.7702(6)
_cell_measurement_reflns_used    5231
_cell_measurement_temperature    123(2)
_cell_measurement_theta_max      76.1540
_cell_measurement_theta_min      5.3530
_cell_volume                     889.08(6)
_computing_cell_refinement
;
CrysAlisPro (Agilent, 2013)
;
_computing_data_collection
;
CrysAlisPro (Agilent, 2013)
;
_computing_data_reduction
;
CrysAlisPro (Agilent, 2013)
;
_computing_molecular_graphics
;
<i>UCSF Chimera</i> (Pettersen et al., 2004)
;
_computing_publication_material
;
SHELXL2014 (Sheldrick, 2015)
;
_computing_structure_refinement
;
SHELXL2014 (Sheldrick, 2015)
;
_computing_structure_solution
;
SUPERFLIP (Palatinus & Chapuis, 2007)
;
_diffrn_ambient_temperature      123(2)
_diffrn_detector_area_resol_mean 10.3953
_diffrn_measured_fraction_theta_full 0.998
_diffrn_measured_fraction_theta_max 0.984
_diffrn_measurement_device       '\k-geometry diffractometer'
_diffrn_measurement_device_type  'Agilent SuperNova, Dual, Cu at zero, Atlas'
_diffrn_measurement_method       '\f scans and \w scans with \k offset'
_diffrn_radiation_monochromator  mirror
_diffrn_radiation_type           MoK\a
_diffrn_radiation_wavelength     0.71073
_diffrn_reflns_av_R_equivalents  0.0364
_diffrn_reflns_limit_h_max       9
_diffrn_reflns_limit_h_min       -8
_diffrn_reflns_limit_k_max       10
_diffrn_reflns_limit_k_min       -7
_diffrn_reflns_limit_l_max       18
_diffrn_reflns_limit_l_min       -18
_diffrn_reflns_number            7508
_diffrn_reflns_theta_full        25.242
_diffrn_reflns_theta_max         26.604
_diffrn_reflns_theta_min         1.409
_exptl_absorpt_coefficient_mu    1.350
_exptl_absorpt_correction_T_max  1.00000
_exptl_absorpt_correction_T_min  0.30010
_exptl_absorpt_correction_type   multi-scan
_exptl_absorpt_process_details
;
(<i>CrysAlisPro</i>; Agilent, 2013)
;
_exptl_crystal_colour            brown
_exptl_crystal_density_diffrn    1.852
_exptl_crystal_description       plate
_exptl_crystal_F_000             488
_exptl_crystal_size_max          0.300
_exptl_crystal_size_mid          0.080
_exptl_crystal_size_min          0.050
_refine_diff_density_max         0.740
_refine_diff_density_min         -1.430
_refine_ls_extinction_method     none
_refine_ls_goodness_of_fit_ref   1.074
_refine_ls_hydrogen_treatment    constr
_refine_ls_matrix_type           full
_refine_ls_number_parameters     235
_refine_ls_number_reflns         3662
_refine_ls_number_restraints     0
_refine_ls_restrained_S_all      1.074
_refine_ls_R_factor_all          0.0352
_refine_ls_R_factor_gt           0.0329
_refine_ls_shift/su_max          0.001
_refine_ls_shift/su_mean         0.000
_refine_ls_structure_factor_coef Fsqd
_refine_ls_weighting_details
'w=1/[\s^2^(Fo^2^)+(0.0453P)^2^+0.5543P] where P=(Fo^2^+2Fc^2^)/3'
_refine_ls_weighting_scheme      calc
_refine_ls_wR_factor_gt          0.0856
_refine_ls_wR_factor_ref         0.0880
_reflns_number_gt                3405
_reflns_number_total             3662
_reflns_threshold_expression     'I > 2\s(I)'
_cod_data_source_file            wm5367sup1.cif
_cod_data_source_block           II
_cod_original_cell_volume        889.09(6)
_cod_database_code               2242086
_shelx_space_group_comment
;
The symmetry employed for this shelxl refinement is uniquely defined
by the following loop, which should always be used as a source of
symmetry information in preference to the above space-group names.
They are only intended as comments.
;
_shelx_estimated_absorpt_t_min   0.688
_shelx_estimated_absorpt_t_max   0.936
_shelx_hkl_file
;
   0   0   1 377.937 83.8772   2
   0   0   1 798.288 95.5224   1
   0   0   2 482970. 13944.4   2
   0   0   3 118185. 4049.48   2
   0   0   3 123895. 3842.58   1
   0   0   4 96829.1 3556.54   2
   0   0   4 98221.0 3308.40   1
   0   0   5 2993.11 379.304   1
   0   0   5 2815.86 466.137   2
   0   0  -6 85001.4 3719.31   6
   0   0   6 86585.8 3206.59   1
   0   0  -7 61819.9 3291.29   6
   0   0   7 70995.6 2790.87   1
   0   0  -8 133590. 5654.49   6
   0   0  -9 89110.1 4491.83   6
   0   0 -10 380949. 13440.1   6
   0   0 -11 629.686 369.721   6
   0   0  11 172.474 213.976  24
   0   0 -11 328.360 287.164  21
   0   0 -12 5117.84 944.421  21
   0   0  12 6628.10 1086.47  24
   0   0 -12 6664.04 1190.10   6
   0   0  13 48126.8 3205.31  24
   0   0 -13 50456.9 3523.17   6
   0   0 -13 50563.0 3194.24  21
   0   0  14 1752.37 603.431  24
   0   0 -14 2234.90 691.530   6
   0   0 -14 1587.69 575.686  21
   0   0  15 36773.2 2515.20  24
   0   0 -15 38750.6 2460.79  21
   0   0  16 190.813 267.867  25
   0   0  17 35730.3 2076.69  25
   0   0  18 52186.7 2297.24   8
   0  -1  18 17773.4 1220.41  25
   0  -1  17 15826.3 1434.65  25
   0   1 -16 110303. 4842.97  21
   0   1 -15 32977.5 2483.61  21
   0   1 -14 20769.7 2156.12   6
   0   1 -14 23444.0 2144.16  21
   0  -1  14 19245.8 1755.24  24
   0   1 -13 630.640 442.366   6
   0   1 -13 202.562 234.471  21
   0  -1  13-236.147 231.818  24
   0   1 -12 5066.63 1010.32  21
   0  -1  12 5284.19 915.481  24
   0   1 -10 13016.2 1556.43   6
   0   1  -9 221530. 8536.26   6
   0   1  -8 127188. 5454.10   6
   0  -1   7 654897. 19625.2   2
   0   1  -7 662960. 20299.8   6
   0   1  -6 41900.0 2285.12   6
   0  -1   6 43503.3 1988.05   2
   0  -1   6 37959.0 1389.70   1
   0  -1   5 109832. 3344.56   1
   0  -1   5 112552. 3909.34   2
   0   1  -5 108143. 3576.07   3
   0   1  -5 117760. 4039.09   4
   0   1  -5 115185. 4295.58   6
   0  -1   4 1350.67 245.336   2
   0   1  -4 1249.71 210.743   3
   0   1  -4 1015.61 233.232   4
   0  -1   4 1261.98 112.637   1
   0   1  -3 40329.8 1566.33   3
   0  -1   3 40996.0 1480.09   2
   0   1  -3 39810.2 1692.04   4
   0  -1   2 140758. 4133.52   2
   0   1  -1 410131. 11647.7   1
   0   1   0 86196.0 2777.87   1
   0   1   1 198572. 6205.74   1
   0   1   1 204298. 5840.60   4
   0   1   2 202646. 6359.10   1
   0   1   3 104469. 3766.80   1
   0   1   3 106149. 3208.28   3
   0   1   4 8881.42 795.572   1
   0   1   5 20574.8 1349.49   1
   0  -1  -6 31583.0 1974.30   6
   0   1   6 31549.2 1847.97   1
   0   1   7 75431.6 3442.06   1
   0  -1  -7 83435.9 3824.20   6
   0   1   8 423374. 13387.6   1
   0  -1  -8 413842. 13925.4   6
   0  -1  -9 67767.9 3766.91   6
   0  -1 -10 41086.4 2930.70   6
   0   1  11 215195. 8561.82  24
   0  -1 -11 210871. 8696.33   6
   0  -1 -12 28765.8 2482.50   6
   0   1  12 26377.1 2369.52  24
   0   1  13 28157.1 2410.46  24
   0  -1 -13 26180.2 2367.98   6
   0   1  14 863.789 456.741  24
   0   1  15 269.382 293.312  25
   0   1  15-62.3452 221.063  24
   0   1  16 77750.9 3528.56  25
   0   1  17 1015.77 322.811   8
   0   1  17 1043.79 245.698  25
   0  -2  18 132959. 4958.17  25
   0   2 -17 7277.17 922.021  21
   0  -2  17 8120.96 1074.37  25
   0   2 -16 54463.2 3216.95  21
   0   2 -15 36690.9 2773.90  21
   0   2 -14 689.759 394.869  21
   0   2 -14 1112.21 495.361   6
   0   2 -13 75943.8 4415.07  21
   0   2 -13 71277.1 4399.29   6
   0   2 -12 5264.13 1022.67  21
   0   2 -12 6410.77 1183.43   6
   0   2 -11 26591.3 2415.73   6
   0   2 -11 29559.5 2397.32  21
   0   2 -10 113423. 5454.32   6
   0   2  -9 1942.72 560.097   6
   0   2  -8 988488. 29817.7   6
   0  -2   7 23993.4 1367.74   2
   0   2  -7 19517.0 1634.24   6
   0   2  -6 42635.5 2206.50   4
   0   2  -6 36188.4 1830.19   3
   0  -2   6 41288.3 1821.02   2
   0   2  -6 38941.7 2230.10   6
   0   2  -5 228663. 7564.76   4
   0   2  -5 218923. 7227.02   3
   0  -2   5 233077. 6952.49   2
   0   2  -5 218569. 7520.23   6
   0   2  -4 31644.6 1681.22   6
   0   2  -4 34083.7 1695.90   3
   0   2  -4 33588.7 1808.01   4
   0  -2   4 36482.9 1373.37   2
   0  -2   3 1577.32 194.262   2
   0   2  -3 1060.43 217.522   6
   0   2  -2 31655.5 1260.02   1
   0   2  -1 102519. 3354.33   1
   0   2  -1 93863.6 3452.21   4
   0   2   0 654626. 19079.6   1
   0   2   0 674179. 18955.9   4
   0   2   1 454288. 13136.8   4
   0   2   1 450815. 13629.8   1
   0   2   2 693407. 19313.5   4
   0   2   2 678095. 20176.3   1
   0   2   3 38957.5 2077.58   1
   0   2   3 37666.2 1623.36   3
   0   2   4 6488.85 812.589   1
   0   2   4 6528.22 506.511   3
   0  -2  -4 6828.31 691.856   6
   0  -2  -5 56236.1 2671.60   6
   0   2   5 57956.8 2907.62   1
   0  -2  -6 1902.37 458.756   6
   0   2   6 1660.68 440.510   1
   0   2   7 19840.3 1665.00   1
   0  -2  -7 18681.3 1582.31   6
   0   2   8 5236.50 849.875   1
   0  -2  -8 4202.36 770.568   6
   0   2   9 245028. 9024.50   1
   0  -2  -9 251176. 9276.69   6
   0   2  10 344640. 12695.7  24
   0   2  10 353965. 11935.2  11
   0  -2 -10 364930. 12589.7   6
   0   2  11 349522. 12899.8  24
   0  -2 -11 360045. 12693.1   6
   0   2  12 74347.5 4155.43  25
   0  -2 -12 82179.9 4355.02   6
   0   2  12 78961.2 4543.58  24
   0   2  13 8921.59 1353.66  24
   0   2  13 9497.79 1232.08  25
   0   2  14 2021.43 544.727  25
   0   2  14 2751.50 691.992  24
   0   2  15 62309.6 3524.38   8
   0   2  16 3847.99 653.269   8
   0   2  17 11630.9 867.168   8
   0   3 -18 1815.10 295.445  15
   0  -3  18 3696.58 555.860  25
   0   3 -17 22099.8 1711.17  21
   0   3 -16 27986.2 2224.12  21
   0   3 -15 41245.0 2973.39  21
   0   3 -14 25628.3 2384.55  21
   0   3 -14 24095.7 2281.57   6
   0   3 -13 7387.89 1256.77   6
   0   3 -13 9248.96 1406.06  21
   0   3 -12 9702.91 1403.66  21
   0   3 -12 9904.44 1432.34   6
   0   3 -11 31091.8 2582.48   6
   0   3 -11 32816.7 2606.17  21
   0   3 -10 137473. 6190.59   6
   0   3  -9 144242. 6186.36   6
   0   3  -8 11604.7 1305.46   6
   0   3  -7 401934. 12755.0   3
   0   3  -7 409515. 13208.2   6
   0   3  -6 58071.4 3090.59   4
   0   3  -6 62172.2 2988.06   6
   0  -3   6 66720.3 2426.20   2
   0   3  -6 56965.6 2848.82   3
   0   3  -5 121021. 4636.15   6
   0  -3   5 134403. 4120.01   2
   0   3  -5 128039. 5083.15   4
   0   3  -5 115569. 4792.31   3
   0  -3   4 72987.7 2453.52   2
   0   3  -4 66421.2 2703.80   6
   0   3  -4 69760.6 3151.96   3
   0   3  -4 67618.0 3218.29   4
   0  -3   3 14.5692 49.1647   2
   0   3  -3 194.292 60.6137   6
   0   3  -3 372.535 248.467   4
   0   3  -2 15265.1 804.152   5
   0   3  -2 15679.7 976.855   1
   0   3  -2 16403.3 1246.56   4
   0   3  -1 8634.32 636.208   5
   0   3  -1 7151.38 755.745   4
   0   3  -1 7145.31 709.712   1
   0   3   0 620894. 17505.6   5
   0   3   0 573569. 17887.4   1
   0   3   0 586628. 17692.9   4
   0   3   1 340836. 11088.6   1
   0   3   1 347111. 10495.1   4
   0   3   2 79367.5 3655.06   1
   0   3   2 83303.3 2849.61   4
   0   3   2 77593.8 3276.90   3
   0   3   3 983874. 28693.6   3
   0   3   3 999999. 29567.6   1
   0   3   4 48808.4 2850.46   1
   0   3   4 48118.1 2157.85   3
   0   3   5 31274.7 2260.79   1
   0   3   6 690.706 363.540   1
   0   3   7 610.682 384.130   1
   0   3   8 228993. 8862.73   1
   0   3   9 20051.0 1814.53  11
   0   3   9 19895.3 2039.85  24
   0   3  10 122293. 5546.53  11
   0   3  10 123918. 6085.10  24
   0   3  11 18853.5 1775.08  11
   0   3  11 20938.1 2112.60   5
   0   3  11 18707.0 2046.40  24
   0   3  12 1782.32 569.892  22
   0   3  12 2660.22 765.294  24
   0   3  12 1096.31 539.998   5
   0   3  12 2098.84 580.809  11
   0   3  13 43793.7 2825.72  22
   0   3  13 55612.4 3594.01   8
   0   3  13 50001.1 2739.66  11
   0   3  13 51285.2 3303.21  24
   0   3  14 1012.01 450.053   8
   0   3  15 978.641 356.287   8
   0   3  16 28668.0 1579.45   8
   0  -4  18 28343.4 1504.24  25
   0   4 -17 8002.54 769.613  15
   0   4 -17 15123.7 1278.26  21
   0   4 -16 111545. 5008.51  21
   0   4 -15 12402.5 1497.78  21
   0   4 -14 44319.1 3168.14  21
   0   4 -13 99143.8 5153.66   6
   0   4 -13 108669. 5481.02  21
   0   4 -12 9598.65 1376.20   6
   0   4 -12 9669.22 1455.49  21
   0   4 -11 9885.07 1382.80   6
   0   4 -11 11685.3 1517.81  21
   0   4 -10 2.67526 291.107  21
   0   4 -10 61.8391 144.175   6
   0   4  -9 12134.1 1417.94   6
   0   4  -8 202887. 7731.68   6
   0   4  -8 209470. 7655.64   3
   0   4  -7 199319. 7285.31   6
   0   4  -7 200724. 7466.76   3
   0   4  -6 212216. 7958.91   3
   0   4  -6 221264. 7419.08   6
   0   4  -6 216068. 8255.48   4
   0   4  -5 6361.87 923.344   3
   0   4  -5 7037.13 1013.39   4
   0   4  -4 626.923 347.081   3
   0  -4   4 615.284 171.831   2
   0   4  -4 637.703 308.235   4
   0   4  -3 277212. 10591.5   4
   0   4  -3 305066. 10752.2   3
   0   4  -2 37536.5 1649.61   5
   0   4  -2 34358.3 2304.51   3
   0   4  -2 36534.9 2253.85   4
   0   4  -1 57355.9 2783.22   1
   0   4  -1 57947.2 3100.41   3
   0   4  -1 57877.5 2424.41   5
   0   4  -1 56763.7 2873.22   4
   0   4   0 4995.01 776.677   3
   0   4   0 4606.80 594.509   5
   0   4   0 5548.14 707.777   4
   0   4   0 4020.08 683.695   1
   0   4   1 476471. 14990.7   3
   0   4   1 475034. 14243.3   4
   0   4   1 445999. 14448.9   5
   0   4   1 481526. 15233.7   1
   0   4   2 231500. 8630.38   1
   0   4   2 219721. 8109.90   5
   0   4   2 241243. 8185.59   3
   0   4   3 201117. 7028.00   3
   0   4   3 188052. 7736.35   1
   0   4   4 73638.2 3281.96   3
   0   4   4 78255.0 4201.83   1
   0   4   5 90905.1 4748.23   1
   0   4   6 3624.09 841.200   1
   0   4   7 53255.5 3307.75  11
   0   4   7 47772.8 4167.47   8
   0   4   8 1033.90 467.269  24
   0   4   8 476.975 382.567  22
   0   4   8 138.390 389.736  11
   0   4   9 45122.3 3419.27   5
   0   4   9 52901.7 3934.50  22
   0   4   9 56373.5 4586.77   8
   0   4   9 52058.4 3309.87  11
   0   4   9 48296.8 3449.07  24
   0   4  10 10184.9 1352.27  11
   0   4  10 8805.22 1379.42  24
   0   4  10 10017.8 1478.66   5
   0   4  10 12234.6 1666.50  22
   0   4  10 9694.67 1749.98   8
   0   4  11 210063. 9122.55   8
   0   4  11 189770. 8113.90  22
   0   4  11 209705. 8001.77  11
   0   4  11 195137. 8302.57  24
   0   4  12 8126.44 1061.48  11
   0   4  12 6258.91 1160.73   8
   0   4  12 6954.56 1023.08  22
   0   4  13 27928.7 2201.40   8
   0   4  13 30090.7 1866.09  11
   0   4  13 23538.8 1701.16  22
   0   4  14 22766.1 1687.81   8
   0   4  15 4284.26 548.660   8
   0  -5  17 24383.7 1379.54  25
   0   5 -16 2182.20 514.822  21
   0   5 -15 144905. 5782.92  21
   0   5 -15 120500. 5241.28  15
   0   5 -14 988.807 465.042  21
   0   5 -14 956.258 429.523  15
   0   5 -13 48575.1 3269.74  21
   0   5 -12 1462.26 564.646  21
   0   5 -11 2010.91 674.176  21
   0   5 -10 110656. 5477.56  21
   0   5 -10 123866. 5533.67  12
   0   5 -10 108881. 5790.85  26
   0   5 -10 104212. 5607.76  17
   0   5  -9 9747.39 1323.52  12
   0   5  -9 8710.91 1347.02  17
   0   5  -9 10078.6 1413.71  26
   0   5  -8 164902. 6882.17   3
   0   5  -7 98980.8 4888.77   3
   0   5  -6 4723.71 928.979   3
   0   5  -5 220270. 8598.61   3
   0   5  -5 214769. 8685.01   4
   0   5  -4 13696.3 1597.82   4
   0   5  -4 16371.9 1727.12   3
   0  -5   3 360.228 166.086   2
   0   5  -3 452.341 333.800   3
   0   5  -3 804.800 420.168   4
   0   5  -2 2621.28 666.916   4
   0   5  -2 1015.22 477.124   3
   0   5  -1 683.307 432.698   3
   0   5  -1 1595.42 478.113   4
   0   5  -1 1154.87 293.984   5
   0   5   0 276262. 9934.48   1
   0   5   0 260632. 8963.54   5
   0   5   0 288928. 10218.6   3
   0   5   1 14927.2 1339.24   5
   0   5   1 16115.1 1729.79   1
   0   5   1 11190.8 1418.55   3
   0   5   2 330028. 11270.9   3
   0   5   2 309615. 11098.9   5
   0   5   2 326067. 11941.4   1
   0   5   3 241957. 8766.15   3
   0   5   3 231947. 9321.52   5
   0   5   3 258141. 9924.19   1
   0   5   4 36502.5 2995.98   5
   0   5   4 42111.6 3212.35   1
   0   5   5 85582.5 5157.19   5
   0   5   5 99569.3 5339.77   1
   0   5   5 88507.1 5117.34   8
   0   5   5 90928.8 4686.39  11
   0   5   5 88322.0 5364.77  22
   0   5   6 601.014 388.693  11
   0   5   6 829.342 339.691  24
   0   5   6 1307.70 689.079  22
   0   5   6 1773.99 678.203  15
   0   5   6 1268.04 662.231   8
   0   5   6 505.765 424.867   5
   0   5   7 4734.16 1229.89  22
   0   5   7 4974.07 1113.94   5
   0   5   7 4532.26 1228.22   8
   0   5   7 5108.75 996.720  11
   0   5   8 32124.3 3156.09  22
   0   5   8 34095.9 2702.18  11
   0   5   8 28848.4 3251.46   8
   0   5   8 35628.6 3051.45   5
   0   5   9 63397.4 4126.28   5
   0   5   9 65427.0 4324.71  22
   0   5   9 66996.5 4859.51   8
   0   5   9 66158.6 3913.13  11
   0   5  10 61291.7 3593.06  11
   0   5  10 60066.7 4250.48   8
   0   5  10 60398.6 3763.94  22
   0   5  11 30564.6 2226.70  11
   0   5  11 27804.9 2143.28  22
   0   5  11 31728.0 2644.56   8
   0   5  12 92409.9 4454.50   8
   0   5  12 85143.5 3799.70  22
   0   5  12 95561.9 4033.94  11
   0   5  13 35794.8 2134.45   8
   0   5  14 49230.1 2139.29   8
   0   6 -16 28845.3 1513.73  18
   0   6 -15 20527.3 1426.41  23
   0   6 -15 20494.4 1533.10  21
   0   6 -14 45286.6 2703.81  21
   0   6 -13 21606.6 1929.23  21
   0   6 -12 2405.64 645.570  21
   0   6 -11 115013. 5719.82  13
   0   6 -10 5875.52 1218.99  26
   0   6 -10 5987.51 1259.59  17
   0   6 -10 6795.25 1274.04  13
   0   6  -9 16755.2 2019.16  13
   0   6  -9 19490.7 2107.82  12
   0   6  -9 19932.6 2087.86  17
   0   6  -9 19877.5 2152.52  26
   0   6  -8 33547.7 2699.51  17
   0   6  -8 30833.7 2777.12  12
   0   6  -8 34972.3 2859.42  13
   0   6  -8 33467.1 2676.72  26
   0   6  -7 273671. 10387.6  17
   0   6  -7 281883. 10704.2  13
   0   6  -7 303435. 10484.7  19
   0   6  -7 274896. 11055.8  12
   0   6  -7 292904. 10450.0  26
   0   6  -7 262695. 10731.6   3
   0   6  -6 92728.7 5102.15   3
   0   6  -6 98472.0 4814.66  13
   0   6  -6 95589.9 4536.18  22
   0   6  -6 83721.2 4961.08  12
   0   6  -6 86316.2 4410.73  17
   0   6  -6 93786.3 4473.54  19
   0   6  -5 95596.7 5268.98   3
   0   6  -4 115610. 5977.67   3
   0   6  -3 23889.1 2437.11   3
   0   6  -2 54908.8 3844.14   3
   0   6  -1 1658.57 625.519   3
   0   6   0 4436.99 1015.02   3
   0   6   1 50850.3 2975.48   5
   0   6   1 53835.3 3286.47  22
   0   6   1 56768.3 3636.57   3
   0   6   1 54789.9 3236.22  18
   0   6   2 179.531 213.098   5
   0   6   2 1092.74 505.861   3
   0   6   2 310.764 316.105   8
   0   6   2-103.133 274.077  22
   0   6   2 708.860 308.511  11
   0   6   2 873.510 412.467  18
   0   6   3 185915. 7869.88  11
   0   6   3 203046. 8195.28   8
   0   6   3 189909. 7701.34  15
   0   6   3 190336. 8254.59   5
   0   6   3 183773. 8298.67  22
   0   6   4 4935.24 1009.46  11
   0   6   4 4896.51 1087.77   8
   0   6   4 5581.95 1051.46  15
   0   6   4 5776.20 1235.21   5
   0   6   4 4075.14 1046.92  22
   0   6   5 7164.75 1235.49  15
   0   6   5 5346.00 1344.81  22
   0   6   5 8535.30 1539.99   8
   0   6   5 5832.25 1229.59   5
   0   6   5 4611.63 983.038  11
   0   6   6 20297.4 2544.44   8
   0   6   6 19343.5 2048.80  11
   0   6   6 18436.5 2457.56  22
   0   6   6 22928.5 2599.52   5
   0   6   7 47498.2 3669.09   5
   0   6   7 38573.8 3651.72   8
   0   6   7 42864.9 3121.24  11
   0   6   7 39774.8 3596.15  22
   0   6   8 58524.7 4493.23   8
   0   6   8 64132.5 3799.23  11
   0   6   8 60463.6 4195.95  22
   0   6   9 17393.4 2128.28   8
   0   6   9 20048.3 1994.15  22
   0   6   9 19924.5 1868.59  11
   0   6  10 13771.6 1415.60  22
   0   6  10 17653.1 1591.66  11
   0   6  10 17327.7 1832.85   8
   0   6  11 84221.6 3935.06   8
   0   6  11 72296.6 3277.67  22
   0   6  11 80393.0 3555.63  11
   0   6  12 9894.35 947.681   8
   0   7 -15 18930.4 1183.15  18
   0   7 -15 22937.9 1290.78  23
   0   7 -14 16655.5 1414.57  18
   0   7 -14 18440.2 1446.53  23
   0   7 -13 59101.3 3329.65  23
   0   7 -13 54212.8 3339.92  18
   0   7 -12 97.5784 388.698  18
   0   7 -12-21.7016 346.966  23
   0   7 -11 5915.46 1258.42  18
   0   7 -11 10128.9 1385.28  13
   0   7 -11 10923.5 1626.27  23
   0   7 -10 19162.3 2134.64  13
   0   7 -10 18104.1 2166.77  26
   0   7 -10 18669.0 2296.68  23
   0   7 -10 13190.9 1900.18  18
   0   7  -9 6974.18 1349.84  13
   0   7  -9 7455.72 1307.83  17
   0   7  -9 6736.66 1388.23  23
   0   7  -9 6290.30 1326.76  18
   0   7  -9 6952.84 1296.02  26
   0   7  -8 77667.9 4837.58  18
   0   7  -8 82121.1 4632.51  17
   0   7  -8 90788.3 5198.33  13
   0   7  -8 77289.5 4959.83  23
   0   7  -8 84173.9 4734.64  26
   0   7  -7 5221.37 1008.12  26
   0   7  -7 4743.27 1037.67  18
   0   7  -7 4582.40 975.566  13
   0   7  -7 6090.30 1116.93  19
   0   7  -7 4683.85 963.742  17
   0   7  -7 5528.62 1143.34  23
   0   7  -6 137835. 6089.10  22
   0   7  -6 124546. 6139.91  18
   0   7  -6 135063. 6385.43  13
   0   7  -6 135679. 6040.98  19
   0   7  -6 122550. 6012.78  23
   0   7  -6 118581. 5724.45  17
   0   7  -5 107674. 5348.85  13
   0   7  -5 93417.6 4741.48  17
   0   7  -5 92705.1 4861.56  23
   0   7  -5 101503. 5211.18  18
   0   7  -5 104667. 5029.86  19
   0   7  -5 113251. 5203.02  22
   0   7  -5 103476. 5890.51   3
   0   7  -4 61248.1 3712.18  18
   0   7  -4 62827.8 4453.39   3
   0   7  -4 55119.7 3334.49  23
   0   7  -4 61241.4 3539.06  19
   0   7  -4 55982.4 3320.13  17
   0   7  -4 61445.0 3732.29  13
   0   7  -3 16054.5 1698.12  22
   0   7  -3 19140.7 1771.99  19
   0   7  -3 15798.9 1566.86  17
   0   7  -3 16383.1 1569.35  23
   0   7  -3 17842.5 1811.06  18
   0   7  -3 17788.2 1840.99  13
   0   7  -3 17545.1 2278.44   3
   0   7  -2 3145.58 904.200   3
   0   7  -2 4000.65 819.087  22
   0   7  -2 3758.92 736.603  17
   0   7  -2 3687.86 716.574  23
   0   7  -2 5402.06 957.886  18
   0   7  -1 8330.14 1240.93  18
   0   7  -1 7485.28 979.777  23
   0   7  -1 7072.99 1382.41   3
   0   7  -1 8610.57 1254.42  22
   0   7   0 131757. 6297.37  22
   0   7   0 150601. 7217.02   3
   0   7   0 138819. 6337.91  18
   0   7   1 192616. 8401.92  22
   0   7   1 201476. 8313.58  18
   0   7   2 120652. 6249.83  22
   0   7   2 111769. 5485.89  11
   0   7   3 19072.1 2357.37  22
   0   7   3 17993.6 1927.98  15
   0   7   3 18114.2 1934.97  11
   0   7   4 164443. 7171.74  15
   0   7   4 144622. 8031.22  22
   0   7   4 161764. 7139.87  11
   0   7   5 60736.4 3779.72  11
   0   7   5 55881.5 4497.12  22
   0   7   6 28431.3 2349.00  11
   0   7   6 21874.3 2657.27   8
   0   7   6 22428.3 2635.33  22
   0   7   7 17852.9 2096.50  22
   0   7   7 15731.3 2111.46   8
   0   7   7 19689.1 1853.60  11
   0   7   8 7980.34 1187.95  22
   0   7   8 7781.76 1057.89  11
   0   7   9 9282.10 1042.69  11
   0   7   9 9150.19 1038.80  22
   0   7  10 19548.4 1347.45  11
   0   7  10 17447.3 1156.56  22
   0   8 -14 20278.6 1235.61  23
   0   8 -13 28603.6 1893.36  23
   0   8 -13 26178.5 1670.58  18
   0   8 -12 36735.3 2560.54  23
   0   8 -12 26941.3 2090.08  18
   0   8 -11 3175.92 862.133  23
   0   8 -11 3781.74 853.139  18
   0   8 -11 3664.31 754.856  13
   0   8 -10 16091.4 1819.54  13
   0   8 -10 14621.8 1825.03  18
   0   8 -10 17857.1 2197.50  23
   0   8  -9 1452.79 547.418  13
   0   8  -9 2183.98 673.320  17
   0   8  -9 2545.70 862.243  23
   0   8  -9 2090.42 772.502  26
   0   8  -9 1600.02 627.395  18
   0   8  -8 324.218 340.048  26
   0   8  -8 837.729 448.386  18
   0   8  -8 1071.99 565.950  23
   0   8  -8 979.200 566.842  13
   0   8  -8 1071.15 614.203  17
   0   8  -7 85157.4 4907.57  13
   0   8  -7 70368.9 4036.41  17
   0   8  -7 73893.5 4486.75  23
   0   8  -7 70505.7 4120.03  26
   0   8  -7 68974.5 4310.57  18
   0   8  -6 556.550 467.123  23
   0   8  -6 787.980 495.632  19
   0   8  -6 1219.59 551.055  26
   0   8  -6 376.707 263.079  17
   0   8  -6 960.612 515.284  13
   0   8  -6 1194.83 575.086  18
   0   8  -5 108327. 5326.87  19
   0   8  -5 117845. 5508.12  22
   0   8  -5 104760. 5205.12  23
   0   8  -5 112473. 5572.80  18
   0   8  -5 108738. 5202.99  17
   0   8  -4 20332.5 2039.91  18
   0   8  -4 18976.8 1794.80  23
   0   8  -4 21543.5 1933.19  17
   0   8  -4 19692.9 1906.34  19
   0   8  -4 21683.9 2019.83  22
   0   8  -3 451.735 366.210  19
   0   8  -3 758.275 414.128  23
   0   8  -3 686.676 398.153  22
   0   8  -3 236.118 438.136  18
   0   8  -3 450.008 289.968  17
   0   8  -2 37282.6 2759.44  19
   0   8  -2 42846.3 3035.71  18
   0   8  -2 41498.7 2559.17  23
   0   8  -2 40465.3 2946.98  22
   0   8  -1 28755.9 2493.89  22
   0   8  -1 26834.0 1962.15  23
   0   8  -1 27068.9 2427.38  18
   0   8   0 40701.3 3169.76  22
   0   8   1 8728.63 1487.29  22
   0   8   2 18701.6 2290.21  22
   0   8   3 135318. 7272.56  22
   0   8   3 132074. 5810.84  11
   0   8   4 13860.9 2032.31  22
   0   8   4 12028.2 1392.37  11
   0   8   5 79045.8 3934.83  11
   0   8   5 73313.3 4734.15  22
   0   8   6 15378.7 1418.56  11
   0   8   6 17539.0 1869.98  22
   0   8   7 392.707 268.812  22
   0   8   7 286.277 124.372  11
   0   8   8 36129.3 1894.29  22
   0   9 -12 32327.3 1897.79  23
   0   9 -11 36083.9 2391.85  23
   0   9 -11 28563.0 1787.24  18
   0   9 -10 4220.32 931.821  23
   0   9 -10 5754.11 873.837  18
   0   9  -9 1888.44 578.248  18
   0   9  -9 2143.38 690.992  23
   0   9  -8 46131.3 3109.55  18
   0   9  -8 53525.4 3182.02  26
   0   9  -8 52319.4 3451.99  23
   0   9  -7 31587.1 2291.85  17
   0   9  -7 33634.9 2584.43  23
   0   9  -7 27925.1 2357.08  18
   0   9  -7 32585.0 2400.27  26
   0   9  -6 45961.5 3115.72  18
   0   9  -6 48711.6 3003.06  17
   0   9  -6 48581.3 3042.84  23
   0   9  -6 46801.9 2972.22  26
   0   9  -5 930.256 406.765  23
   0   9  -5 521.980 400.690  19
   0   9  -5 561.012 338.798  26
   0   9  -5 666.488 499.590  18
   0   9  -4 131973. 5448.24  23
   0   9  -4 134032. 6013.26  18
   0   9  -4 126805. 5713.98  26
   0   9  -4 137424. 5833.90  19
   0   9  -3 18732.9 1537.83  23
   0   9  -3 20221.0 1905.16  22
   0   9  -3 14482.8 1551.69  19
   0   9  -3 17693.3 1837.07  18
   0   9  -2 26570.4 2253.39  22
   0   9  -2 21386.8 1913.55  19
   0   9  -1 8294.36 1312.26  22
   0   9  -1 9396.87 1271.75  19
   0   9   0 12649.5 1656.78  22
   0   9   0 11210.1 1389.29  19
   0   9   1 44078.5 3380.40  22
   0   9   1 41520.9 2876.23  19
   0   9   2 10973.9 1658.53  22
   0   9   2 9852.06 1339.46  19
   0   9   3 30072.1 2676.42  22
   0   9   4 25153.7 2188.05  22
   0   9   5 746.177 305.447  22
   0   9   5 738.702 323.588  19
   0   9   6 23486.1 1365.51  22
   0  10  -9 872.173 359.506  23
   0  10  -8 2329.75 555.040  23
   0  10  -6 10540.2 1210.13  26
   0  10  -5 90977.0 4338.72  26
   0  10  -4 9234.70 1195.30  26
   0  10  -3 53802.2 2987.97  19
   0  10  -3 54218.6 3192.82  26
   0  10  -2 8651.72 1176.46  26
   0  10  -2 10094.5 1145.34  19
   0  10  -1 923.289 490.158  26
   0  10  -1-95.5831 235.600  19
   0  10   0 7663.04 946.506  19
   0  10   0 5656.28 783.359  26
   0  10   1 547.253 343.128  22
   0  10   1 496.879 235.727  19
   0  10   2 6739.99 889.604  22
  -1  10   3 7106.82 787.171  19
  -1  10   2 19646.2 1634.08  19
  -1  10   1 6111.13 939.432  19
  -1  10   0 13839.9 1494.21  19
  -1  10  -1 62450.7 3484.23  19
  -1  10  -2 11948.9 1362.97  19
  -1  10  -3 110710. 5001.75  19
  -1  10  -4 836.341 425.468  19
  -1  10  -5 20669.2 1908.63  18
  -1  10  -6 4915.22 939.512  18
  -1  10  -7 3479.56 804.738  18
  -1  10  -8 16597.0 1620.24  18
  -1  10  -9 121.355 228.936  18
  -1   9   5 7675.32 778.864  11
  -1   9   5 9795.66 986.786  22
  -1   9   4 32568.7 1936.01  11
  -1   9   4 37585.9 2485.68  22
  -1   9   3 333.146 342.884  22
  -1   9   2 22490.6 1841.22  15
  -1   9   2 23609.3 2306.38  22
  -1   9   1 12747.6 1696.19  22
  -1   9   1 10504.4 1273.36  15
  -1   9   0 20420.3 2120.99  22
  -1   9   0 14275.8 1685.89  19
  -1   9   0 18119.3 1698.67  15
  -1   9  -1 125487. 6004.70  22
  -1   9  -1 121095. 5704.00  19
  -1   9  -2 61152.1 3673.88  19
  -1   9  -2 68982.3 3897.44  18
  -1   9  -2 66447.6 3934.80  22
  -1   9  -3 864.346 431.157  22
  -1   9  -3 548.303 296.293  19
  -1   9  -3 858.809 523.271  18
  -1   9  -3 978.116 443.018  26
  -1   9  -3 1322.13 496.661  23
  -1   9  -4 78860.6 4037.04  23
  -1   9  -4 79634.4 4037.00  26
  -1   9  -4 82931.9 4258.46  19
  -1   9  -4 74736.6 4221.95  18
  -1   9  -5 2723.80 719.375  26
  -1   9  -5 3714.35 799.474  19
  -1   9  -5 3273.34 798.102  18
  -1   9  -5 3066.97 768.122  23
  -1   9  -6 22591.0 2135.97  18
  -1   9  -6 24669.2 2025.19  26
  -1   9  -6 24305.5 2125.74  23
  -1   9  -6 19956.4 1928.29  19
  -1   9  -7 4168.07 922.852  23
  -1   9  -7 4212.43 981.214  18
  -1   9  -7 3706.78 792.470  26
  -1   9  -8 609.825 355.066  23
  -1   9  -8 335.999 394.691  18
  -1   9  -9 40668.9 3118.02  18
  -1   9  -9 44526.6 3090.73  23
  -1   9 -10 1231.78 546.300  18
  -1   9 -10 1354.42 553.849  23
  -1   9 -11 64732.8 3682.33  18
  -1   9 -11 86452.0 3833.29  23
  -1   9 -12 7917.61 880.750  18
  -1   9 -12 10650.4 940.030  23
  -1   8   9 2613.14 386.857  11
  -1   8   8 4682.82 633.211  11
  -1   8   7 61016.2 2985.97  22
  -1   8   7 62293.4 3081.78  11
  -1   8   6 3193.34 721.977  22
  -1   8   6 3316.53 684.591  11
  -1   8   5 84876.6 4252.25  11
  -1   8   5 83480.7 4651.62  22
  -1   8   4 195.440 298.807  15
  -1   8   4-96.5490 382.933  22
  -1   8   4 272.429 289.093  11
  -1   8   3 61566.5 3722.01  11
  -1   8   3 64858.1 4350.52  22
  -1   8   3 68164.6 3985.05  15
  -1   8   2 18919.9 1947.56  15
  -1   8   2 15509.3 1712.35  11
  -1   8   2 18006.2 2117.75  22
  -1   8   1 13618.1 1798.19  22
  -1   8   1 16641.5 1758.14  15
  -1   8   0 105728. 5124.62  15
  -1   8   0 109526. 5655.53  22
  -1   8   0 112213. 5562.58  18
  -1   8  -1 20636.1 1817.89  23
  -1   8  -1 16424.0 1870.28  22
  -1   8  -1 20101.2 1850.42  15
  -1   8  -1 21261.3 2059.50  18
  -1   8  -2 131991. 6204.83  18
  -1   8  -2 134967. 6127.98  19
  -1   8  -2 129414. 5730.29  15
  -1   8  -2 132767. 5794.84  23
  -1   8  -2 139322. 6301.48  22
  -1   8  -3 40482.4 2752.59  23
  -1   8  -3 41052.3 2905.51  19
  -1   8  -3 37944.7 2846.73  22
  -1   8  -3 39490.0 2933.00  18
  -1   8  -3 39467.3 2628.22  15
  -1   8  -4 56930.0 3712.05  18
  -1   8  -4 56396.8 3300.34  15
  -1   8  -4 61510.0 3743.80  22
  -1   8  -4 59126.6 3632.69  19
  -1   8  -4 61300.9 3588.01  23
  -1   8  -5 6415.01 1087.36  23
  -1   8  -5 4931.20 940.947  19
  -1   8  -5 4417.19 867.733  26
  -1   8  -5 5134.94 1032.52  18
  -1   8  -5 4076.92 786.115  15
  -1   8  -6 6570.16 1139.29  23
  -1   8  -6 6476.36 1197.48  18
  -1   8  -6 6052.06 1038.59  26
  -1   8  -6 5718.73 951.982  15
  -1   8  -6 8107.27 1269.90  19
  -1   8  -7 7565.60 1274.72  19
  -1   8  -7 7889.59 1179.93  15
  -1   8  -7 7646.68 1233.72  26
  -1   8  -7 9507.54 1509.55  18
  -1   8  -7 7737.17 1325.38  23
  -1   8  -8 4997.35 1049.43  26
  -1   8  -8 5908.73 1049.84  15
  -1   8  -8 8372.87 1487.51  18
  -1   8  -8 6383.72 1229.91  23
  -1   8  -9 30951.1 2771.69  23
  -1   8  -9 27595.3 2868.04  18
  -1   8  -9 27016.7 2330.30  15
  -1   8 -10 20050.6 2462.97  18
  -1   8 -10 24943.3 2376.83  23
  -1   8 -11 10873.3 1405.23  23
  -1   8 -11 8778.46 1570.63  18
  -1   8 -12 141531. 6722.64  18
  -1   8 -12 153331. 6075.24  23
  -1   8 -13 22132.1 1816.78  18
  -1   8 -13 21129.2 1464.89  23
  -1   8 -14 29154.6 1657.44  18
  -1   8 -14 26099.3 1304.64  23
  -1   7  11 329.367 142.994  11
  -1   7  10 19746.4 1413.12  11
  -1   7   9 12043.2 1532.18   8
  -1   7   9 9898.14 1107.93  11
  -1   7   9 9977.25 965.850  22
  -1   7   8 4860.66 861.090  11
  -1   7   8 5289.36 833.834  22
  -1   7   8 3870.08 1079.93   8
  -1   7   7 124883. 5631.51  11
  -1   7   7 122464. 5731.43  22
  -1   7   7 109829. 6867.49   8
  -1   7   6 62233.5 4109.61  22
  -1   7   6 73957.2 4093.11  11
  -1   7   6 71365.9 4231.30  15
  -1   7   5 2435.91 738.214  15
  -1   7   5 2874.76 902.788  22
  -1   7   5 2803.67 839.638   5
  -1   7   5 4011.39 1260.14   8
  -1   7   5 2651.48 735.912  11
  -1   7   4 73336.1 4381.90  11
  -1   7   4 69014.3 4651.29  22
  -1   7   4 72462.5 4626.32   5
  -1   7   4 82206.9 4646.27  15
  -1   7   3 558.146 418.329   5
  -1   7   3 405.727 316.274  11
  -1   7   3-6.69722 285.233  22
  -1   7   3 406.543 422.252  15
  -1   7   2 7037.45 1269.45  22
  -1   7   2 7056.01 1151.09  15
  -1   7   2 6935.70 1214.77  11
  -1   7   2 5730.07 1029.55   5
  -1   7   1 19917.1 2175.35   3
  -1   7   1 17346.8 1902.91  22
  -1   7   1 19283.0 1947.38  18
  -1   7   1 17207.7 1754.69  15
  -1   7   1 15169.4 1763.35  11
  -1   7   0 42.2077 323.326   3
  -1   7   0 350.113 262.801  15
  -1   7   0 117.105 158.343  22
  -1   7   0-211.729 273.228  23
  -1   7  -1 77148.6 4934.33   3
  -1   7  -1 69370.3 3621.88  23
  -1   7  -1 69350.8 3676.33  15
  -1   7  -1 69141.6 3921.42  18
  -1   7  -1 65190.7 3840.56  22
  -1   7  -2 3613.29 1036.57   3
  -1   7  -2 2624.87 617.998  23
  -1   7  -2 2837.02 666.481  15
  -1   7  -2 3156.73 739.690  18
  -1   7  -2 2251.73 633.468  22
  -1   7  -3 72652.1 3835.35  23
  -1   7  -3 73153.1 4009.39  22
  -1   7  -3 67648.5 3682.66  15
  -1   7  -3 70495.5 4813.02   3
  -1   7  -3 77650.2 4198.55  18
  -1   7  -4 133800. 5909.48  19
  -1   7  -4 138733. 6173.94  18
  -1   7  -4 127453. 6792.15   3
  -1   7  -4 122618. 5518.43  15
  -1   7  -4 139755. 6055.18  22
  -1   7  -4 119396. 5653.61  23
  -1   7  -5 25373.1 2217.89  22
  -1   7  -5 21724.8 2025.91  23
  -1   7  -5 22058.6 2156.32  18
  -1   7  -5 22779.3 2438.36   3
  -1   7  -5 18976.8 1823.57  15
  -1   7  -5 22112.4 2071.59  13
  -1   7  -5 21596.6 2022.65  19
  -1   7  -6 133488. 5958.14  15
  -1   7  -6 139026. 6199.95  19
  -1   7  -6 134976. 5960.50  26
  -1   7  -6 129340. 6150.09  23
  -1   7  -6 123772. 6479.28   3
  -1   7  -6 131737. 6143.79  13
  -1   7  -6 133117. 6432.74  18
  -1   7  -7 8773.53 1312.63  13
  -1   7  -7 8244.04 1299.60  19
  -1   7  -7 8414.34 1287.06  26
  -1   7  -7 8815.86 1277.72  15
  -1   7  -7 7054.09 1299.01  18
  -1   7  -7 6634.11 1123.08  17
  -1   7  -7 6894.74 1233.54  23
  -1   7  -8 8827.41 1328.95  13
  -1   7  -8 9014.49 1480.60  23
  -1   7  -8 7796.60 1257.11  17
  -1   7  -8 10212.8 1481.50  15
  -1   7  -8 8713.42 1404.65  26
  -1   7  -9 2791.06 826.872  23
  -1   7  -9 3759.38 961.707  26
  -1   7  -9 3840.17 1008.14  15
  -1   7 -10 9130.93 1546.29  15
  -1   7 -10 10166.8 1521.96  23
  -1   7 -11 171049. 6979.04  23
  -1   7 -11 112247. 6574.25  15
  -1   7 -12 25990.6 2545.43  15
  -1   7 -12 35774.9 2546.40  23
  -1   7 -13 89007.6 4048.75  23
  -1   7 -13 86905.8 4467.50  15
  -1   7 -14 12701.0 1432.40  18
  -1   7 -14 14756.7 1134.24  23
  -1   7 -14 14146.0 1235.41  15
  -1   7 -15 4550.05 649.720  18
  -1   6  12 3828.38 640.399   8
  -1   6  12 4355.55 560.913  11
  -1   6  11 32093.6 2350.72   8
  -1   6  11 31478.0 2020.96  11
  -1   6  10 22470.0 2271.54   8
  -1   6  10 18579.2 1685.23  11
  -1   6   9 26563.8 2101.67  22
  -1   6   9 32965.6 2446.03  11
  -1   6   9 27536.9 2947.18   8
  -1   6   8 38398.0 2835.70  11
  -1   6   8 33386.3 3524.04   8
  -1   6   8 35622.4 2736.54  22
  -1   6   7 13691.7 1673.17  11
  -1   6   7 14852.6 1941.16   5
  -1   6   7 13723.0 1816.16  15
  -1   6   7 7851.29 1713.00   8
  -1   6   7 12319.0 1682.10  22
  -1   6   6 52612.3 4539.17   8
  -1   6   6 61784.0 4104.86  15
  -1   6   6 63317.3 3955.66  11
  -1   6   6 60009.4 4238.65   5
  -1   6   6 52924.4 3851.45  22
  -1   6   5 100901. 5430.59  15
  -1   6   5 106653. 6275.67   8
  -1   6   5 96731.6 5452.96  22
  -1   6   5 101291. 5333.37  11
  -1   6   5 102274. 5789.87   5
  -1   6   4 57412.6 4063.10   8
  -1   6   4 55182.5 3734.44  22
  -1   6   4 56857.6 3604.34  15
  -1   6   4 57572.1 3960.59   5
  -1   6   4 56288.5 3705.22  11
  -1   6   3 54509.0 3611.42  11
  -1   6   3 53820.0 3608.99   5
  -1   6   3 61095.2 3845.45   8
  -1   6   3 54067.2 3524.12  22
  -1   6   3 60656.6 3492.25  15
  -1   6   2 19447.0 1999.47   3
  -1   6   2 19071.7 1845.65   5
  -1   6   2 20998.5 2009.47   8
  -1   6   2 21173.5 1943.85  22
  -1   6   2 20903.9 1870.60  18
  -1   6   2 20556.4 1795.26  15
  -1   6   2 20726.9 2025.74  11
  -1   6   1 130153. 6152.12   3
  -1   6   1 112480. 5118.81   5
  -1   6   0 15015.7 1379.20   5
  -1   6   0 17120.0 1987.45   3
  -1   6  -1 69845.7 3299.86   5
  -1   6  -1 75021.2 4590.07   3
  -1   6  -2 127103. 6544.34   3
   1  -6   2 136548. 5413.62   2
  -1   6  -3 53608.1 3822.57   3
   1  -6   3 62333.2 3080.66   2
  -1   6  -4 292135. 11379.6   3
  -1   6  -5 31818.2 2730.75   3
  -1   6  -6 48902.8 3388.06   3
  -1   6  -6 48340.5 2980.30  19
  -1   6  -6 47073.6 2900.63  26
  -1   6  -6 45037.1 2986.68  23
  -1   6  -7 24217.2 2094.86  26
  -1   6  -7 20520.3 1945.94  17
  -1   6  -7 22141.7 2040.21  15
  -1   6  -7 24987.9 2140.60  19
  -1   6  -7 22981.2 2200.53   3
  -1   6  -8 1868.85 669.116  15
  -1   6  -8 1154.11 589.008  17
  -1   6  -8 1848.48 625.709  26
  -1   6  -8 1034.10 514.677   3
  -1   6  -9 54421.2 3929.07  15
  -1   6  -9 55714.2 3861.80  26
  -1   6 -10 17385.7 2282.56  15
  -1   6 -11 6133.13 1375.07  15
  -1   6 -12 180345. 7140.22  21
  -1   6 -12 178946. 7141.17  23
  -1   6 -13 6624.68 1277.21  15
  -1   6 -13 4497.98 840.045  21
  -1   6 -13 5480.14 881.949  23
  -1   6 -14 73889.8 3398.56  23
  -1   6 -14 81971.7 4313.34  15
  -1   6 -14 76586.6 3771.18  21
  -1   6 -15 952.918 369.008  15
  -1   6 -16 264.214 150.010  15
  -1   5  14 36447.6 1876.12   8
  -1   5  13 1130.89 297.364  11
  -1   5  13 454.069 216.846   8
  -1   5  12 129203. 5208.04  11
  -1   5  12 135889. 5952.36   8
  -1   5  11 15.5819 212.857  11
  -1   5  11 134.281 268.107   8
  -1   5  10 34276.3 3230.26   8
  -1   5  10 26562.3 2320.27  24
  -1   5  10 33198.5 2485.40  11
  -1   5   9-165.328 488.340   8
  -1   5   9 1214.18 543.561  11
  -1   5   9 1064.22 494.658   5
  -1   5   9 402.296 239.128  22
  -1   5   9 1789.54 589.745  24
  -1   5   8 10195.5 1472.36  22
  -1   5   8 8077.16 1276.75  24
  -1   5   8 9362.96 1937.75   8
  -1   5   8 9287.85 1511.20   5
  -1   5   8 10876.0 1475.86  11
  -1   5   7 83396.4 4818.59  22
  -1   5   7 95236.8 4883.78  11
  -1   5   7 82766.0 4599.80  24
  -1   5   7 95724.2 5315.24  15
  -1   5   6 3137.20 825.067  22
  -1   5   6 3673.27 1135.37   8
  -1   5   6 3939.24 983.533  15
  -1   5   6 5542.90 1017.19  11
  -1   5   5 103693. 5199.63  11
  -1   5   5 106198. 5650.39   5
  -1   5   5 111637. 5359.51  15
  -1   5   5 108020. 5881.82   8
  -1   5   4 108107. 5451.56   5
  -1   5   3 32450.1 2318.67   3
  -1   5   3 32209.6 2466.75   5
  -1   5   2 184916. 7192.81   5
  -1   5   1 43661.0 2553.01   5
  -1   5   0 14832.1 1266.79   5
  -1   5  -1 33599.1 1945.44   5
   1  -5   2 32858.0 2024.42   2
  -1   5  -2 33493.7 1847.23   5
   1  -5   3 470571. 14635.0   2
   1  -5   4 21634.0 1470.93   2
   1  -5   5 313334. 10005.7   2
  -1   5  -6 26777.9 2210.54   3
  -1   5  -7 41566.4 2799.28   3
  -1   5  -8 1415.71 498.618   3
  -1   5  -9 707.095 544.157  26
  -1   5 -10 6396.07 1097.49  21
  -1   5 -11 10881.1 1492.03  21
  -1   5 -12 79406.9 4462.37  21
  -1   5 -13 29327.7 2445.37  21
  -1   5 -14 141.725 258.651  15
  -1   5 -14 232.066 262.866  21
  -1   5 -15 108548. 5152.83  15
  -1   5 -15 113791. 5017.11  21
  -1   5 -16 29754.7 1941.44  15
   1  -5  16 30002.5 1819.78  25
  -1   5 -17 13488.9 937.160  15
  -1   4  15 1055.97 298.924   8
  -1   4  14 46014.6 2654.82   8
  -1   4  13 124636. 5626.12   8
  -1   4  13 123017. 5377.17  24
  -1   4  13 119517. 4758.62  11
  -1   4  12 19777.3 1926.07  24
  -1   4  12 20088.9 2164.13   8
  -1   4  12 20672.6 1738.24  11
  -1   4  11 43694.0 3182.10  24
  -1   4  11 48643.3 3032.88  11
  -1   4  11 48731.4 3824.36   8
  -1   4  10 802.980 462.530   5
  -1   4  10 623.730 358.103  11
  -1   4  10 980.075 652.084   8
  -1   4  10 312.130 385.398  24
  -1   4   9 78415.7 4468.13  24
  -1   4   9 71584.9 4107.87  11
  -1   4   9 76043.9 4568.09   5
  -1   4   9 75224.1 5631.54   8
  -1   4   8 2320.68 635.884  11
  -1   4   8 2986.13 816.379   5
  -1   4   8 1804.55 617.307  24
  -1   4   8 1931.40 924.088   8
  -1   4   7 41831.0 3185.11  15
  -1   4   7 43685.3 3226.99   5
  -1   4   7 33958.0 3564.26   8
  -1   4   6 150519. 6851.06   5
  -1   4   5 41381.4 2944.44   5
  -1   4   4 201801. 7895.66   5
  -1   4   3 135244. 5644.54   5
  -1   4   2 13832.7 1288.11   5
  -1   4   1 152851. 5652.41   5
  -1   4   0 1885.72 403.236   5
  -1   4  -1 179049. 6091.84   5
  -1   4  -2 18733.0 1192.09   5
   1  -4   3 3757.87 519.871   2
   1  -4   4 342814. 10624.1   2
   1  -4   5 5104.99 587.278   2
  -1   4  -6 168199. 6330.64   6
   1  -4   6 181911. 5982.69   2
  -1   4  -7 19571.1 1621.34   3
  -1   4  -7 18430.7 1569.61   6
   1  -4   7 21069.2 1357.26   2
  -1   4  -8 9033.19 1038.69   3
  -1   4  -8 8251.32 1106.50   6
  -1   4  -9 67994.8 3759.93   6
  -1   4 -10 9688.83 1281.99   6
  -1   4 -10 12231.4 1501.14  21
  -1   4 -11 76684.5 4395.70  21
  -1   4 -11 76688.9 4251.29   6
  -1   4 -12 11085.2 1480.73   6
  -1   4 -12 12982.5 1639.56  21
  -1   4 -13 83239.5 4529.65   6
  -1   4 -13 90279.9 4846.21  21
  -1   4 -14 192591. 8027.35  21
  -1   4 -15 58643.8 3506.55  21
  -1   4 -16 31816.3 2236.28  21
   1  -4  16 32476.8 2259.15  25
   1  -4  17 2615.88 517.341  25
  -1   4 -17 1887.97 402.655  15
  -1   3  16 10721.6 935.537   8
  -1   3  15 37950.8 2369.47   8
  -1   3  14 3749.38 812.356   8
  -1   3  14 2792.45 685.283  24
  -1   3  13 80788.4 4599.25   8
  -1   3  13 76725.0 4306.93  24
  -1   3  12 35348.8 2684.28   5
  -1   3  12 34656.7 2388.70  11
  -1   3  12 39409.4 2992.56  24
  -1   3  11 3621.42 871.295   5
  -1   3  11 2708.07 827.207  24
  -1   3  11 2488.25 648.688  11
  -1   3  10 146630. 6278.62  11
  -1   3  10 154041. 6889.44   5
  -1   3  10 141502. 6746.55  24
  -1   3   9 7042.33 1078.21  11
  -1   3   9 8325.67 1307.70   5
  -1   3   9 6651.11 1158.83  24
  -1   3   8 28477.7 2445.21   5
  -1   3   7 32539.1 2545.02   5
  -1   3   6 50632.8 3139.74   5
  -1   3   5 104338. 4763.91   5
  -1   3   4 474.641 291.963   5
  -1   3   3 171204. 6299.95   5
  -1   3   2 185875. 6469.15   5
  -1   3   1 517814. 15572.1   5
  -1   3   0 10386.4 834.543   5
  -1   3  -1 27014.2 1393.11   5
   1  -3   2 58725.7 2381.18   2
  -1   3  -2 58313.6 2286.85   5
   1  -3   3 117091. 4064.18   2
   1  -3   4 235418. 7404.40   2
   1  -3   5 181393. 5942.16   2
   1  -3   6 35349.4 1799.53   2
  -1   3  -7 218517. 7996.90   6
   1  -3   7 228157. 7466.59   2
  -1   3  -7 215544. 7466.59   3
  -1   3  -8 27329.7 2104.23   6
   1  -3   8 28387.2 1791.55   2
  -1   3  -9 117596. 5433.56   6
  -1   3 -10 7208.01 1150.29   6
  -1   3 -11 2785.22 735.969  21
  -1   3 -11 3121.74 805.465   6
  -1   3 -12 96363.3 5122.94   6
  -1   3 -12 92172.7 5013.49  21
  -1   3 -13 19491.1 2046.80   6
  -1   3 -13 21428.7 2166.24  21
  -1   3 -14 130282. 6186.86  21
  -1   3 -14 127521. 6064.58   6
  -1   3 -15 74058.9 4140.30  21
   1  -3  16 2567.70 674.254  25
  -1   3 -16 1819.57 563.219  21
   1  -3  17 45068.4 2632.54  25
   1  -3  18 5041.36 603.510  25
  -1   3 -18 2687.16 406.541  15
  -1   2  17 29049.7 1555.49   8
  -1   2  16 1092.39 381.285   8
  -1   2  15 18098.4 1741.59   8
  -1   2  15 14092.0 1449.00  24
  -1   2  14 57836.6 3532.56  24
  -1   2  13 29501.4 2543.38  24
  -1   2  12 90966.9 4750.66   5
  -1   2  12 96703.6 5161.77  24
   1  -2 -12 99000.5 4852.50  10
   1  -2 -12 88960.9 4736.96   6
   1  -2 -11 183470. 7562.27  10
  -1   2  11 185047. 7741.41   5
   1  -2 -11 191074. 7765.02   6
  -1   2  11 180597. 7917.27  24
   1  -2 -10 6908.44 1041.55  10
  -1   2  10 5508.15 1027.61   5
   1  -2 -10 6307.55 1025.89   6
  -1   2  10 4564.90 955.660  24
   1  -2  -9 149034. 6330.06   6
   1  -2  -8 40034.3 2575.61   6
   1  -2  -7 168883. 6422.62   6
   1  -2  -6 434.173 250.100   6
   1  -2  -5 119278. 4510.50   6
   1  -2  -4 528291. 15706.0   6
   1  -2  -3 169.820 96.5191   6
  -1   2   2 389163. 11831.6   5
  -1   2   1 2466.09 363.013   5
  -1   2   0 1946.06 294.607   5
  -1   2  -1 144955. 4613.36   5
   1  -2   2 165896. 5234.62   2
   1  -2   3 12818.1 800.183   2
   1  -2   4 115700. 3947.26   2
   1  -2   5 145094. 4941.81   2
   1  -2   6 637567. 18973.7   2
   1  -2   7 16458.9 1299.70   2
   1  -2   8 129058. 5103.17   2
   1  -2   9 166884. 6292.09   2
  -1   2  -9 160025. 6879.22   6
  -1   2 -10 11518.1 1487.35   6
   1  -2  10 11599.9 1235.06   2
  -1   2 -11 40918.9 3075.68   6
  -1   2 -11 37134.6 2797.78  21
  -1   2 -12 9058.76 1418.02   6
  -1   2 -12 9122.77 1345.58  21
  -1   2 -13 19973.7 2084.72  21
  -1   2 -13 21739.6 2236.02   6
  -1   2 -14 16561.8 1818.82  21
  -1   2 -14 11944.1 1611.01   6
  -1   2 -15 89438.1 4644.00  21
   1  -2  16 59630.6 3561.04  25
   1  -2  17 3826.77 711.895  25
   1  -2  18 10154.2 914.560  25
  -1   1  17 17721.7 1371.23   8
  -1   1  16 11038.4 1149.08  24
  -1   1  16 9311.90 978.271  25
  -1   1  15 734.072 298.205  24
  -1   1  14 103348. 5204.32  24
   1  -1 -13 65022.8 4019.29   6
  -1   1  13 64683.9 3987.05  24
   1  -1 -12 2738.00 785.932   6
  -1   1  12 2101.51 688.570  24
   1  -1 -12 2371.24 655.418  10
   1  -1 -11 98980.6 5012.41  10
  -1   1  11 98515.5 4757.58   5
  -1   1  11 105476. 5163.32  24
   1  -1 -11 93177.5 5062.41   6
   1  -1 -10 190610. 7850.21   6
   1  -1  -9 189501. 7566.84   6
   1  -1  -8 11024.7 1258.14   6
   1  -1  -7 1830.73 495.517   6
   1  -1  -6 48903.3 2548.44   6
   1  -1  -5 67852.6 2972.06   6
   1  -1  -4 86736.1 2626.43   4
   1  -1  -4 89651.5 3347.95   6
   1  -1  -3 284075. 8644.13   6
   1  -1  -2 42311.1 1638.97   6
  -1   1   2 41722.7 1718.69   5
  -1   1   1 309220. 9123.43   5
  -1   1   0 386880. 11193.2   5
   1  -1   1 400459. 11598.1   2
   1  -1   3 16539.5 915.343   2
   1  -1   4 463078. 13750.0   2
   1  -1   5 31323.6 1696.14   2
   1  -1   6 177540. 6495.11   2
   1  -1   6 195106. 6070.02   1
   1  -1   7 107814. 3807.68   1
   1  -1   7 105172. 4372.76   2
   1  -1   8 9787.06 1097.59   2
  -1   1  -9 202647. 8073.06   6
   1  -1   9 201172. 7538.70   2
  -1   1 -10 20924.8 2062.52   6
  -1   1 -11 1685.20 563.252  21
  -1   1 -12 36913.0 2794.80  21
  -1   1 -13 4546.43 1022.75   6
  -1   1 -13 5894.21 1047.57  21
  -1   1 -14 122059. 5970.79   6
  -1   1 -14 120413. 5722.99  21
   1  -1  15 402.607 397.913  25
  -1   1 -15-108.039 283.917  21
   1  -1  16 82859.7 4236.65  25
   1  -1  17 52767.0 2858.64  25
   1  -1  18 4857.56 582.037  25
  -1   0  18 241.307 139.755   8
  -1   0  17 39327.2 2150.60  25
   1   0 -16 2601.29 511.868  21
  -1   0  16 3999.03 707.879  24
   1   0 -15 36899.8 2403.01  21
  -1   0  15 36264.4 2554.29  24
  -1   0  14 5924.43 1049.37  24
   1   0 -14 5627.97 1084.03   6
   1   0 -14 6992.94 1077.48  21
   1   0 -13 24328.0 2135.56  21
  -1   0  13 25697.5 2290.55  24
   1   0 -13 25328.2 2434.20   6
   1   0 -12 288668. 11050.9  10
   1   0 -12 286317. 10624.8  21
  -1   0  12 295658. 10896.5  24
   1   0 -12 292796. 11248.3   6
  -1   0  11 42.8068 405.008  24
   1   0 -11 189.312 244.206  10
   1   0 -11 444.445 216.889  21
   1   0 -10 201967. 8205.97   6
   1   0  -9 12522.2 1441.75   6
   1   0  -8 780.280 371.686   6
   1   0  -7 103439. 4498.93   6
   1   0  -7 104875. 3879.50   7
   1   0  -6 66327.0 3150.91   6
   1   0  -6 70170.7 2573.57   4
   1   0  -5 33770.7 1446.14   4
   1   0  -5 32225.0 1808.94   6
   1   0  -4 92503.0 3571.95   6
   1   0  -4 98912.0 3220.51   4
  -1   0   3 47794.2 1771.79   5
   1   0  -3 48171.2 1973.64   6
   1   0  -1 3974.29 254.520   2
   1   0   0 296865. 8544.40   2
   1   0   1 187629. 5660.12   2
   1   0   2 368771. 10952.5   2
   1   0   3 704.220 239.548   2
   1   0   4 4353.60 581.685   2
   1   0   5 106607. 4234.34   2
   1   0   5 111075. 3995.01   1
   1   0   6 66248.5 2830.22   1
   1   0   6 65269.3 3112.83   2
   1   0   7 309254. 10049.5   1
   1   0   7 323425. 10631.0   2
   1   0   8 100256. 4027.76   1
   1   0   8 99820.6 4491.14   2
  -1   0  -9 29148.3 2368.37   6
  -1   0 -10 24883.0 2284.94   6
  -1   0 -11 73949.7 4396.31   6
  -1   0 -11 73227.7 3952.14  21
   1   0  11 73094.7 3885.94  24
  -1   0 -12 66145.9 3829.48  21
  -1   0 -12 72971.9 4364.34   6
   1   0  12 69539.1 3871.63  24
  -1   0 -13 3988.90 951.638   6
  -1   0 -13 3134.74 756.268  21
   1   0  13 2411.15 663.531  24
   1   0  14 17699.5 1946.37  25
  -1   0 -14 16857.1 1644.14  21
   1   0  15 70943.2 3996.32  25
   1   0  16 5823.44 896.650  25
   1   0  17 84912.2 3630.50  25
  -1  -1  18 59603.2 2553.09  25
   1   1 -17 31631.3 1853.73  21
   1   1 -16 3566.69 708.009  21
   1   1 -15 5011.92 929.878  21
  -1  -1  15 7120.61 1023.39  24
   1   1 -14 42352.2 3222.85   6
  -1  -1  14 44637.2 2934.11  24
   1   1 -14 45422.3 3139.49  21
   1   1 -13 11729.0 1641.16   6
  -1  -1  13 12109.8 1469.31  24
   1   1 -13 11878.7 1552.17  21
  -1  -1  12 80812.3 4140.46  24
   1   1 -12 75606.5 4278.92  21
   1   1 -12 67621.6 3798.32  20
   1   1 -12 75925.7 4389.75  10
   1   1 -11 178887. 7301.52  21
   1   1 -11 168301. 7281.20  10
   1   1 -10 46555.5 3150.12   6
   1   1  -9 249904. 9370.54   6
   1   1  -8 72040.9 3074.52   4
   1   1  -8 70552.1 3668.82   6
   1   1  -7 126744. 4668.53   4
   1   1  -7 127539. 4602.61   7
   1   1  -7 125152. 5159.38   6
   1   1  -6 28856.6 1692.99   7
   1   1  -6 25293.9 1714.69   6
   1   1  -6 27167.8 1533.91   4
   1   1  -5 30933.9 1764.23   6
   1   1  -5 33284.2 1634.81   4
   1   1  -5 29452.7 1795.74   7
   1   1  -4 466888. 13425.9   6
   1   1  -4 459585. 13262.8   4
   1   1  -3 3521.10 501.654   7
   1   1  -3 3569.95 411.688   6
   1   1  -3 3465.60 406.228   4
   1   1  -2 779784. 22592.4   7
   1   1  -1 192308. 5677.49   2
   1   1  -1 190478. 6039.43   7
   1   1   0 42525.5 1833.65   2
   1   1   0 45329.6 1764.20   7
   1   1   1 417509. 12697.2   2
   1   1   2 8080.60 819.223   2
   1   1   3 5344.46 614.614   1
   1   1   3 5263.83 701.533   2
   1   1   4 104468. 4308.96   2
   1   1   4 106008. 4063.17   1
   1   1   5 8058.84 974.067   2
   1   1   5 6305.15 765.579   1
   1   1   6 203892. 7150.18   1
   1   1   6 203442. 7482.02   2
   1   1   7 9822.39 1046.26   1
   1   1   8 175933. 6617.98   1
   1   1   9 222506. 8195.25   1
  -1  -1  -9 243197. 9067.81   6
   1   1  10 2863.31 687.131  24
  -1  -1 -10 3350.54 832.598   6
  -1  -1 -11 126966. 6062.45   6
   1   1  11 117165. 5658.49  24
  -1  -1 -12 63265.9 3947.13   6
   1   1  12 59126.6 3848.47  25
   1   1  12 59600.4 3667.17  24
   1   1  13 46613.6 3224.92  24
   1   1  13 54933.6 3586.54  25
  -1  -1 -13 56971.4 3592.68   6
   1   1  14 50616.2 3277.56  25
   1   1  15 37718.5 2532.50  25
   1   1  16 64212.9 3246.87   8
   1   1  16 62078.3 3032.13  25
   1   1  17 45.9954 110.600   8
   1   1  17 104.818 109.663  25
  -1  -2  18 31541.7 1795.14  25
   1   2 -17 17913.8 1456.59  21
   1   2 -16 5879.29 987.409  21
   1   2 -15 2996.66 813.639  21
   1   2 -14 20484.9 2101.90  21
   1   2 -14 17624.8 2005.55   6
   1   2 -13 2429.37 759.787   6
   1   2 -13 4071.65 975.613  21
   1   2 -13 3111.05 710.745  20
   1   2 -12 40906.7 2885.57  20
   1   2 -12 37299.6 2916.92  21
   1   2 -12 35342.3 2937.98   6
   1   2 -11 102614. 5139.43  21
   1   2 -11 104315. 5351.82   6
   1   2 -11 98371.9 5046.86  10
   1   2 -10 201230. 8190.89   6
   1   2  -9 35159.2 2551.18   6
   1   2  -8 78902.3 3631.49   4
   1   2  -8 79303.6 3940.76   6
   1   2  -7 84184.1 3701.33   4
   1   2  -7 85225.2 3908.54   6
   1   2  -6 102640. 4278.45   7
   1   2  -6 110358. 4324.92   4
   1   2  -6 111729. 4431.37   6
   1   2  -5 33576.0 1882.29   4
   1   2  -5 31822.5 1945.63   7
   1   2  -5 33738.6 1871.63   6
   1   2  -4 12879.6 505.062   1
   1   2  -4 16343.8 1061.76   6
   1   2  -4 14425.4 1085.77   4
   1   2  -4 15787.7 1238.33   7
   1   2  -3 79271.2 3195.97   4
   1   2  -3 81287.5 3362.81   3
   1   2  -3 81258.1 3356.25   7
   1   2  -3 80931.1 2703.89   1
   1   2  -2 310765. 9440.62   1
   1   2  -1 482291. 14316.4   4
   1   2  -1 472083. 14310.1   1
   1   2   0 91451.6 3663.01   1
   1   2   0 97660.5 3653.29   3
   1   2   1 124131. 4363.20   3
   1   2   1 113825. 4483.94   1
   1   2   2 127919. 4878.41   1
   1   2   3 164381. 6051.35   1
   1   2   4 229603. 8016.30   1
   1   2   5 114009. 4781.94   1
   1   2   6 12082.6 1265.19   1
   1   2   7 205028. 7728.26   1
   1   2   8 4042.82 775.273   1
  -1  -2  -8 6008.96 960.536   6
   1   2   9 191304. 7645.53   1
  -1  -2  -9 202604. 7962.64   6
  -1  -2 -10 14376.0 1622.71   6
   1   2  10 14329.9 1668.24  25
   1   2  10 11261.8 1308.49  11
   1   2  10 13396.1 1625.35  24
   1   2  11 369.593 300.503  11
  -1  -2 -11 674.596 376.193   6
   1   2  11 549.723 420.663  25
   1   2  11 25.0448 279.631  24
   1   2  12 33093.5 2688.12  24
   1   2  12 32973.9 2621.58  25
   1   2  13 234.947 237.724  25
   1   2  14 1466.60 482.853  25
   1   2  15 17830.5 1556.02   8
   1   2  15 15744.7 1254.95  25
   1   2  16 7285.93 789.647   8
   1   3 -18 4560.14 575.246  21
  -1  -3  18 4872.94 632.560  25
   1   3 -17 99222.5 4317.76  21
   1   3 -16 968.711 469.222  21
   1   3 -15 16482.7 1808.13  21
   1   3 -14 608.978 412.678  21
   1   3 -13 243.400 395.007  21
   1   3 -13 602.819 379.390  20
   1   3 -13 300.099 273.481   6
   1   3 -12 211224. 8505.32  20
   1   3 -12 182185. 8195.35   6
   1   3 -12 189840. 8240.67  21
   1   3 -11 39482.9 2964.98  21
   1   3 -11 38144.3 2986.73   6
   1   3 -10 123609. 5861.68   6
   1   3  -9 445411. 15514.8   6
   1   3  -9 483801. 15410.5   4
   1   3  -8 1745.94 502.831   4
   1   3  -8 2060.29 579.465   6
   1   3  -7 218880. 8054.36   6
   1   3  -7 227866. 8196.80   4
   1   3  -6 258.581 203.785   6
   1   3  -6 145.808 226.603   4
   1   3  -5 26131.1 1859.10   3
   1   3  -5 26198.3 1576.93   6
   1   3  -5 23230.4 1722.33   4
   1   3  -4 25522.1 1814.92   3
   1   3  -4 26272.6 1117.58   1
   1   3  -4 26714.3 1794.80   4
   1   3  -3 10864.2 1058.06   4
  -1  -3   3 11816.9 551.737   2
   1   3  -3 11389.3 1134.31   3
   1   3  -3 11423.5 788.789   1
   1   3  -2 235577. 7693.85   1
   1   3  -2 241234. 8269.20   3
   1   3  -2 240523. 8109.15   4
   1   3  -1 46509.4 2488.75   3
   1   3  -1 46894.4 2362.42   1
   1   3  -1 45571.4 2371.70   4
   1   3   0 267085. 8811.30   3
   1   3   0 251386. 8568.59   4
   1   3   0 266058. 8909.45   1
   1   3   1 437645. 13224.0   3
   1   3   1 407680. 12935.5   4
   1   3   1 415763. 13533.9   1
   1   3   2 28467.3 1589.03   4
   1   3   2 31186.5 2115.65   1
   1   3   2 30712.5 1817.07   3
   1   3   3 127052. 5328.63   1
   1   3   3 122360. 4215.31   4
   1   3   4 65419.2 3506.76   1
   1   3   5 14635.1 1522.83   1
   1   3   6 78697.1 4157.16   1
  -1  -3  -6 81353.8 3691.55   6
   1   3   7 60756.8 3596.53   1
   1   3   8 160256. 6538.81  11
   1   3   8 173390. 7068.30   1
   1   3   9-481.601 357.416  24
   1   3   9 257.434 258.349  11
   1   3   9-491.620 351.706   1
   1   3  10 129949. 5807.47  11
   1   3  10 128961. 6297.48  24
   1   3  11 58600.3 3428.96  11
   1   3  11 62017.4 4187.82   8
   1   3  12 570.605 487.587   8
   1   3  12 216.999 276.938  11
   1   3  13 10549.9 1384.03   8
   1   3  13 9615.13 1258.61  22
   1   3  14 23133.1 1788.25  22
   1   3  14 32029.9 2133.54   8
   1   3  15 22857.0 1432.24  22
   1   3  15 41652.6 2004.82   8
  -1  -4  18 78025.8 3010.33  25
   1   4 -17 22.0725 183.125  21
   1   4 -16 42330.9 2670.46  21
   1   4 -15 24957.0 2164.88  21
   1   4 -14 65243.7 3984.44  21
   1   4 -13 12767.8 1682.61  21
   1   4 -12 39998.8 3035.29  21
   1   4 -11 59640.0 3401.61  12
   1   4 -11 61831.4 3823.25  21
   1   4 -11 59952.4 3808.50   6
   1   4 -10 92362.3 4753.09   6
   1   4 -10 84178.8 4736.36  26
   1   4 -10 91947.8 4449.15  12
   1   4 -10 93243.1 4738.03  21
   1   4 -10 84031.8 4699.97  17
   1   4  -9 223172. 8713.54   6
   1   4  -9 230133. 8911.84   4
   1   4  -8 71616.4 3990.25   4
   1   4  -7 4470.76 854.300   4
   1   4  -6 35384.8 2515.94   4
   1   4  -5 214.280 264.477   4
   1   4  -5 562.637 349.586   3
   1   4  -4 1104.38 409.938   4
   1   4  -4 1159.78 411.363   3
   1   4  -3 20115.7 1300.28   1
   1   4  -3 23057.6 1852.80   4
   1   4  -3 22516.9 1884.04   3
   1   4  -2 30350.1 2193.88   3
   1   4  -2 28605.9 1791.78   1
   1   4  -2 30799.4 2166.01   4
   1   4  -1 403839. 13411.3   4
   1   4  -1 412139. 13306.3   1
   1   4  -1 418773. 13644.0   3
   1   4   0 226.432 209.867   3
   1   4   0 875.281 334.970   4
   1   4   0 727.206 383.002   1
   1   4   1 320674. 10459.5   3
   1   4   1 289451. 9890.80   4
   1   4   1 304093. 10837.0   1
   1   4   2 7940.11 1178.60   1
   1   4   3 6816.00 1133.39   1
   1   4   4 113682. 5499.42   1
   1   4   5 8206.88 1269.63   1
   1   4   6 22600.8 2176.68   1
   1   4   7 55169.2 3947.91   8
   1   4   7 55129.1 3359.00  11
   1   4   7 53069.0 3586.25   1
   1   4   8 5307.54 1178.42   8
   1   4   8 5010.12 1009.60   1
   1   4   8 4477.83 899.813  11
   1   4   9 199647. 9294.22  22
   1   4   9 176014. 7574.60  11
   1   4   9 187035. 8805.85   8
   1   4  10 6518.52 1083.57  11
   1   4  10 6536.18 1308.17   8
   1   4  10 5597.21 1215.20  22
   1   4  11 40240.4 3114.25  22
   1   4  11 44448.4 3260.82   8
   1   4  11 45590.9 2897.39  11
   1   4  12 17977.5 1785.10   8
   1   4  12 16789.8 1680.72  22
   1   4  13 471.415 321.409   8
   1   4  13 284.388 231.821  22
   1   4  14 39285.7 2022.97  22
   1   4  14 53284.5 2372.84   8
   1   5 -17 113487. 4212.51  21
   1   5 -16 2623.59 541.955  21
   1   5 -15 40795.3 2608.55  21
   1   5 -14 242.385 254.054  21
   1   5 -13 870.859 454.070  21
   1   5 -12 7988.14 1253.47  21
   1   5 -12 8039.66 1164.81  12
   1   5 -11 6928.54 1172.30  21
   1   5 -11 7177.78 1150.46  12
   1   5 -10 120140. 5718.66  12
   1   5 -10 119763. 5717.75  21
   1   5 -10 117808. 5903.51  26
   1   5 -10 121077. 5975.23  17
   1   5  -9 62397.5 3650.27  21
   1   5  -9 64074.4 3856.07  17
   1   5  -9 60772.2 3754.02  12
   1   5  -9 59132.8 3666.53  26
   1   5  -8 171066. 7518.13   4
   1   5  -8 157341. 6817.43  26
   1   5  -8 176937. 7486.48  12
   1   5  -8 179059. 7210.85  17
   1   5  -7 208316. 8616.23   4
   1   5  -6 60980.7 3842.82   4
   1   5  -5 60434.0 3799.73   4
   1   5  -5 61982.3 3849.53   3
   1   5  -4 11802.4 1533.83   4
   1   5  -4 10937.3 1458.58   3
   1   5  -3 7544.48 1222.23   4
   1   5  -3 6948.48 1154.13   3
   1   5  -2 123034. 5825.81   4
   1   5  -2 138317. 6149.74   3
   1   5  -2 126257. 5249.25   1
   1   5  -1 60736.8 3504.12   4
   1   5  -1 65567.8 3824.53   3
   1   5  -1 61824.3 3489.75   1
   1   5   0 169379. 6721.39   4
   1   5   0 178999. 7336.10   3
   1   5   0 170970. 7335.91   1
   1   5   1 14425.1 1333.12   5
   1   5   1 10081.8 1498.09   1
   1   5   2 330272. 11774.9   5
   1   5   2 331714. 12595.6   1
   1   5   3 58245.7 3959.23   1
   1   5   4 2895.86 947.033  22
   1   5   4 1309.78 523.597  11
   1   5   4 1379.78 620.813   1
   1   5   5 26410.3 2340.53   8
   1   5   5 22122.5 2350.90   1
   1   5   5 21858.2 2059.44  11
   1   5   5 22158.9 2771.41  22
   1   5   6 63696.6 4038.92   1
   1   5   6 52919.8 3437.91  11
   1   5   6 53542.9 3749.36   8
   1   5   7 35162.1 2771.08  11
   1   5   7 33207.9 3756.91  22
   1   5   7 38307.8 3247.28   8
   1   5   7 36803.6 3228.81   5
   1   5   8 23907.8 2463.82   5
   1   5   8 22432.1 2166.50  11
   1   5   8 26389.0 2660.37   8
   1   5   8 25404.9 3018.75  22
   1   5   9 37769.7 3406.64  22
   1   5   9 39906.7 2853.60  11
   1   5   9 35615.2 3067.45   8
   1   5  10 111207. 5731.69  22
   1   5  10 110497. 5174.62  11
   1   5  10 111009. 5589.75   8
   1   5  11 73.3514 231.552   8
   1   5  11-17.6564 209.504  11
   1   5  11 81.3577 215.321  22
   1   5  12 55927.9 2914.76   8
   1   5  12 57031.3 2887.26  22
   1   5  13 18014.4 1164.10   8
   1   5  13 15388.0 1064.48  22
   1   6 -16 17012.1 1064.32  23
   1   6 -16 17010.9 1096.74  21
   1   6 -15 92.4302 136.295  21
   1   6 -14 19581.4 1625.57  21
   1   6 -14 19071.8 1508.18  13
   1   6 -13 17700.8 1683.67  21
   1   6 -13 17000.0 1719.68  13
   1   6 -12 16085.1 1692.86  21
   1   6 -11 541.787 412.538  12
   1   6 -11 181.553 412.115  17
   1   6 -10 2123.95 703.017  12
   1   6 -10 3130.63 850.552  17
   1   6 -10 2409.19 845.825  26
   1   6  -9 324766. 12379.9  26
   1   6  -9 343992. 12838.0  12
   1   6  -9 339832. 12583.3  17
   1   6  -8 9375.58 1395.51  18
   1   6  -8 12405.0 1778.51  12
   1   6  -8 11663.5 1497.08  26
   1   6  -8 9060.34 1369.90  17
   1   6  -7 122687. 5599.19  19
   1   6  -7 127697. 5792.77  17
   1   6  -7 108583. 6211.60  12
   1   6  -7 114528. 5596.23  18
   1   6  -7 115076. 6189.87   4
   1   6  -7 125398. 5591.13  26
   1   6  -6 65256.2 4489.63   4
   1   6  -6 70948.0 3634.56  22
   1   6  -6 61827.7 4414.85  12
   1   6  -6 72311.2 3910.95  17
   1   6  -6 69839.5 3899.95  18
   1   6  -6 72356.8 4227.46  13
   1   6  -6 70889.6 3735.53  19
   1   6  -5 490.098 393.440  12
   1   6  -5 970.038 425.607  22
   1   6  -5 271.088 185.853  19
   1   6  -5 825.000 420.010  13
   1   6  -5 614.137 296.509  17
   1   6  -5 1231.96 616.363   4
   1   6  -5 53.1608 440.246  18
   1   6  -4 75966.9 3759.69  22
   1   6  -4 67829.5 4229.29  12
   1   6  -4 74345.0 3977.12  13
   1   6  -4 71726.4 4658.28   4
   1   6  -4 73844.9 3778.31  17
   1   6  -3 279.868 256.632  13
   1   6  -3-91.2854 391.069   4
   1   6  -2 59579.8 3899.03   4
   1   6  -2 64183.9 3502.33  13
   1   6  -1 33076.4 2362.07  22
   1   6  -1 36598.7 2753.23   1
   1   6  -1 36408.5 2469.75  13
   1   6   0 15504.3 1546.40  17
   1   6   0 16267.5 1610.29  18
   1   6   0 16533.4 1984.19   1
   1   6   0 16711.0 1658.68  22
   1   6   1 314812. 11528.7  22
   1   6   1 313634. 11301.0  17
   1   6   1 340811. 11610.9  18
   1   6   1 306080. 12642.6   1
   1   6   2 4906.27 1185.08   1
   1   6   2 3634.37 891.038  22
   1   6   2 4221.76 820.494  11
   1   6   2 3566.67 818.132  17
   1   6   3 91728.4 4683.82   8
   1   6   3 94252.4 5689.35   1
   1   6   3 81215.9 4950.66   5
   1   6   3 78973.0 4407.83  11
   1   6   3 83985.1 4860.71  17
   1   6   3 90783.9 5308.87  22
   1   6   4 25390.8 2355.86   8
   1   6   4 22130.8 2149.92  11
   1   6   4 26344.7 2778.11   1
   1   6   4 24380.3 2712.02   5
   1   6   4 25154.2 2641.01  17
   1   6   4 26605.6 2939.36  22
   1   6   5-13.7950 224.326  11
   1   6   5 760.257 465.892  22
   1   6   5 542.230 474.269  17
   1   6   5 180.326 260.630   8
   1   6   6 14191.0 1875.03   8
   1   6   6 15838.5 2150.05   5
   1   6   6 18023.4 1932.32  11
   1   6   6 12982.1 2263.06  22
   1   6   7 4539.02 1079.62   8
   1   6   7 5038.13 992.602  11
   1   6   7 2993.76 998.102  22
   1   6   7 3650.54 1069.22  17
   1   6   8 28463.7 2552.08   8
   1   6   8 23678.4 2607.14  22
   1   6   8 21347.6 2301.62  17
   1   6   8 25853.7 2194.98  11
   1   6   9 59692.7 3329.05  11
   1   6   9 64231.2 3681.01   8
   1   6   9 60492.2 3758.26  22
   1   6  10 106729. 4714.36   8
   1   6  10 99937.0 4688.04  22
   1   6  11 37860.9 2111.63  22
   1   6  12 116.602 83.8033  22
   1   7 -15 53478.5 2360.82  23
   1   7 -14 9950.55 1065.44  23
   1   7 -13 13132.6 1518.91  23
   1   7 -13 14538.1 1374.43  13
   1   7 -12 6357.54 1127.27  13
   1   7 -11 25310.1 2612.00  13
   1   7 -11 18202.7 1811.96  18
   1   7 -10 53117.0 4263.81  13
   1   7 -10 52982.2 3617.72  17
   1   7 -10 42428.2 3103.99  18
   1   7 -10 50337.0 3603.87  26
   1   7  -9 47015.1 3391.81  26
   1   7  -9 47125.4 4053.72  13
   1   7  -9 46315.3 3352.88  17
   1   7  -9 56064.2 3990.69  12
   1   7  -8 105077. 5404.64  26
   1   7  -8 114807. 6401.59  12
   1   7  -8 95482.8 5185.56  18
   1   7  -8 99674.8 5337.05  17
   1   7  -8 112284. 6432.71  13
   1   7  -7 16315.1 2319.86  12
   1   7  -7 15327.1 1768.58  17
   1   7  -7 14548.2 1715.72  18
   1   7  -7 16154.9 2096.69  13
   1   7  -7 17076.0 1830.98  26
   1   7  -6 204660. 8034.82  22
   1   7  -6 194165. 9457.27  12
   1   7  -6 201671. 8207.38  17
   1   7  -6 185762. 8131.83  18
   1   7  -6 215688. 8272.47  19
   1   7  -6 198209. 8306.68  23
   1   7  -6 221290. 9088.81  13
   1   7  -5 18669.4 2047.39  13
   1   7  -5 17740.6 1771.45  23
   1   7  -5 16697.8 1818.42  18
   1   7  -5 17892.2 1809.86  17
   1   7  -5 22376.6 1957.70  19
   1   7  -5 21030.4 1884.55  22
   1   7  -5 22344.2 2502.74  12
   1   7  -4 561.561 324.945  23
   1   7  -4 1101.05 509.956  12
   1   7  -4 1143.12 722.256  18
   1   7  -4 274.273 282.287  22
   1   7  -4 624.138 376.877  17
   1   7  -4 797.188 363.099  19
   1   7  -4 1047.59 550.922  13
   1   7  -3 990.472 408.508  12
   1   7  -3 909.706 450.651  13
   1   7  -3 996.528 386.306  23
   1   7  -3 251.708 275.979  22
   1   7  -3 595.712 251.180  18
   1   7  -3 1100.70 400.794  19
   1   7  -3 523.188 232.709  17
   1   7  -2 77283.2 4129.70  22
   1   7  -2 74905.5 4203.24  13
   1   7  -2 86754.7 4156.23  19
   1   7  -2 76618.5 4212.91  18
   1   7  -2 69857.5 3974.22  17
   1   7  -1 3427.83 797.653  17
   1   7  -1 2313.74 637.743  22
   1   7  -1 3207.46 821.643  18
   1   7   0 74985.1 4347.12  18
   1   7   0 74758.8 4301.76  22
   1   7   0 71906.1 4108.19  17
   1   7   1 5566.42 1131.18  22
   1   7   1 5253.42 1044.90  17
   1   7   2 197750. 8587.61  22
   1   7   2 182868. 8025.46  17
   1   7   3 7559.35 1509.12  22
   1   7   3 8880.73 1533.77  17
   1   7   3 7715.73 1197.71  11
   1   7   4 91946.7 4668.52  11
   1   7   4 76511.5 5075.49  17
   1   7   4 80738.5 5686.52  22
   1   7   5 20360.7 2751.79  22
   1   7   5 20068.0 2424.89  17
   1   7   6 12.7774 435.235  22
   1   7   6 379.347 195.321  11
   1   7   6 212.847 298.400  17
   1   7   7 61198.3 3425.92  11
   1   7   7 62454.5 4277.09  22
   1   7   8 9563.76 1314.13  22
   1   7   8 8847.63 1058.09  11
   1   7   9 51733.1 2784.19  22
   1   7  10 2274.09 393.010  22
   1   8 -14 25356.2 1401.37  23
   1   8 -13 2522.25 528.158  23
   1   8 -12 19694.2 1593.49  13
   1   8 -12 19394.4 1868.88  23
   1   8 -11 970.862 588.268  23
   1   8 -11 2181.55 679.894  13
   1   8 -10 4245.23 1124.57  23
   1   8 -10 3718.78 707.575  18
   1   8 -10 4260.68 915.994  17
   1   8 -10 3388.33 1013.81  13
   1   8 -10 3924.71 976.698  26
   1   8  -9 60074.7 3522.52  18
   1   8  -9 61868.9 4435.42  23
   1   8  -9 69755.0 4788.81  13
   1   8  -9 67535.2 3866.37  17
   1   8  -9 72157.5 4151.33  26
   1   8  -8 4629.78 1217.15  13
   1   8  -8 3901.01 985.326  23
   1   8  -8 4844.80 1008.22  26
   1   8  -8 4463.19 880.975  18
   1   8  -8 4057.15 880.434  17
   1   8  -7 207878. 8136.97  26
   1   8  -7 189498. 7939.41  18
   1   8  -7 184401. 7897.98  17
   1   8  -7 189785. 8289.14  23
   1   8  -6 2743.20 861.743  13
   1   8  -6 1508.68 484.804  26
   1   8  -6 2942.37 770.451  18
   1   8  -6 2516.65 692.119  19
   1   8  -6 2362.10 678.386  23
   1   8  -6 1621.20 485.637  17
   1   8  -5 24430.7 2384.43  13
   1   8  -5 20839.6 2039.91  18
   1   8  -5 25977.9 2126.18  22
   1   8  -5 25622.5 2134.66  19
   1   8  -5 22313.4 2044.84  17
   1   8  -5 22578.5 1929.15  23
   1   8  -4 33188.1 2307.19  23
   1   8  -4 37000.7 2597.95  19
   1   8  -4 37215.0 2781.79  18
   1   8  -4 39673.4 2692.57  22
   1   8  -4 37442.6 2701.55  17
   1   8  -3 4131.04 809.714  19
   1   8  -3 3542.76 815.930  17
   1   8  -3 5680.48 1074.29  18
   1   8  -3 3401.41 649.519  23
   1   8  -3 3788.66 805.197  22
   1   8  -2 16319.4 1731.89  22
   1   8  -2 16959.2 1868.29  18
   1   8  -2 14292.3 1653.04  17
   1   8  -2 14684.8 1524.97  19
   1   8  -1 6288.23 1093.10  22
   1   8  -1 6001.03 1074.18  17
   1   8  -1 5605.83 967.649  19
   1   8   0 42395.9 3152.70  17
   1   8   0 40864.5 2783.09  19
   1   8   1 53539.0 3827.03  22
   1   8   1 53642.4 3696.97  17
   1   8   2 129428. 6616.68  17
   1   8   2 156732. 7468.41  22
   1   8   3 64631.3 3266.08  11
   1   8   3 65013.3 4612.47  22
   1   8   3 52436.1 3732.55  17
   1   8   4-552.973 294.486  11
   1   8   4-150.556 416.195  22
   1   8   5 15211.9 1976.83  22
   1   8   6 23514.9 2160.06  22
   1   8   7 95.9668 159.841  22
   1   8   8 11068.3 901.575  22
   1   9 -12 692.075 243.236  23
   1   9 -11 9132.45 1054.50  23
   1   9 -10 3538.87 758.498  23
   1   9  -9 25536.7 1968.99  26
   1   9  -9 17068.1 1783.53  23
   1   9  -8 9040.41 1179.26  26
   1   9  -8 8376.65 1168.38  23
   1   9  -8 8821.43 1046.05  18
   1   9  -8 8935.55 1109.42  17
   1   9  -7 5931.28 939.510  23
   1   9  -7 7314.01 1018.13  18
   1   9  -7 7540.02 1073.34  17
   1   9  -7 6508.33 1016.20  26
   1   9  -6 91468.7 4411.28  26
   1   9  -6 87745.0 4432.74  18
   1   9  -6 95523.4 4574.09  17
   1   9  -6 91447.1 4176.38  23
   1   9  -5 1777.05 458.705  23
   1   9  -5 1216.47 456.778  26
   1   9  -5 1574.05 532.119  17
   1   9  -5 1424.19 631.137  18
   1   9  -4 46172.9 2920.59  26
   1   9  -4 49983.3 2921.15  19
   1   9  -4 51384.3 3211.30  17
   1   9  -3 6394.90 925.291  19
   1   9  -3 7956.35 1098.93  22
   1   9  -2 4536.18 841.865  22
   1   9  -2 3477.20 674.848  19
   1   9  -2 3012.32 764.641  17
   1   9  -1 54943.0 3544.16  17
   1   9  -1 58453.0 3462.49  22
   1   9  -1 56254.6 3047.41  19
   1   9   0 3377.33 831.811  22
   1   9   0 4303.53 741.398  19
   1   9   1 57831.3 2976.83  19
   1   9   1 50906.0 3498.13  22
   1   9   2 5245.17 766.044  19
   1   9   2 4654.26 998.148  22
   1   9   3 23889.7 1538.87  19
   1   9   3 20045.3 2025.58  22
   1   9   4 56663.8 3278.43  22
   1   9   5 5147.47 709.986  22
   1  10  -7 45262.1 2491.48  26
   1  10  -6 55412.4 2934.60  26
   1  10  -5 91448.5 4189.30  26
   1  10  -4 711.429 348.680  26
   1  10  -3 26656.7 2037.87  26
   1  10  -2 23852.7 1918.00  26
   1  10  -1-134.240 245.732  26
   1  10   0 5800.77 821.619  26
  -2  10   3 9858.07 970.936  19
  -2  10   2 9817.25 1159.97  19
  -2  10   1 15751.5 1603.25  19
  -2  10   0 18512.2 1413.60  15
  -2  10   0 21118.8 1898.03  19
  -2  10  -1 90883.2 4102.89  15
  -2  10  -1 101631. 4732.73  19
  -2  10  -2 3004.18 586.517  15
  -2  10  -2 2690.31 648.575  19
  -2  10  -3 33228.8 2399.33  19
  -2  10  -3 36070.1 2300.16  15
  -2  10  -4 464.580 273.452  19
  -2  10  -5 16235.1 1642.53  18
  -2  10  -6 6411.05 1049.77  18
  -2  10  -7 4704.91 911.907  18
  -2  10  -8 27819.4 2198.18  18
  -2  10  -9 20753.9 1731.76  18
  -2   9   6 36014.5 1715.08  11
  -2   9   5 3185.72 499.791  11
  -2   9   4 11944.1 1091.49  22
  -2   9   4 9420.65 1008.33  11
  -2   9   3 906.389 429.197  15
  -2   9   3 843.273 342.158  22
  -2   9   3 466.356 208.823  11
  -2   9   2 7524.64 1120.82  22
  -2   9   2 7754.61 1101.98  15
  -2   9   1 91917.7 4841.22  22
  -2   9   1 101158. 5217.58  19
  -2   9   1 97004.0 4701.20  15
  -2   9   0 5018.36 956.870  22
  -2   9   0 4289.77 948.899  19
  -2   9   0 5177.10 925.946  15
  -2   9  -1 27148.4 2375.48  22
  -2   9  -1 26009.4 2258.98  19
  -2   9  -1 27480.6 2154.81  15
  -2   9  -2 176013. 7215.61  15
  -2   9  -2 183450. 7495.03  19
  -2   9  -2 191677. 7560.25  18
  -2   9  -3 18976.7 1823.39  19
  -2   9  -3 20553.6 1903.47  18
  -2   9  -3 17208.2 1663.66  15
  -2   9  -4 37890.6 2663.48  23
  -2   9  -4 34550.2 2560.07  19
  -2   9  -4 39394.7 2763.13  18
  -2   9  -4 35773.0 2513.66  15
  -2   9  -5 19715.2 1846.91  19
  -2   9  -5 19847.3 1891.02  23
  -2   9  -5 20762.3 1977.74  18
  -2   9  -5 18970.0 1789.29  15
  -2   9  -6 6335.94 1015.19  15
  -2   9  -6 7319.96 1214.40  18
  -2   9  -6 8142.15 1204.76  19
  -2   9  -6 5164.37 1038.74  23
  -2   9  -7 1468.72 508.393  15
  -2   9  -7 3226.23 902.075  18
  -2   9  -7 3025.94 859.214  23
  -2   9  -8 20676.2 1971.04  23
  -2   9  -8 19524.1 2158.29  18
  -2   9  -8 18232.1 1809.54  15
  -2   9  -9 62752.1 4132.15  18
  -2   9  -9 49874.6 3229.66  15
  -2   9 -10 925.835 429.912  15
  -2   9 -10 115.142 280.215  23
  -2   9 -10 46.7207 442.969  18
  -2   9 -11 46498.8 2344.00  23
  -2   9 -11 36251.0 2733.24  18
  -2   9 -12 24016.4 1710.72  18
  -2   8   9 17831.4 1087.08  11
  -2   8   8 37091.3 2001.09  11
  -2   8   7 45024.3 2495.49  11
  -2   8   6 2663.05 606.980  11
  -2   8   5 30315.8 2189.50  22
  -2   8   5 34339.0 2638.75  15
  -2   8   5 32035.4 2373.18  11
  -2   8   4 398.344 309.072  15
  -2   8   4 153.883 328.799  11
  -2   8   4 305.758 239.493  22
  -2   8   3 44220.6 3099.53  11
  -2   8   3 38605.0 2957.25  22
  -2   8   3 47662.5 3265.23  15
  -2   8   2 363.297 357.563  15
  -2   8   2 25.5285 316.837  11
  -2   8   2 320.224 325.385  22
  -2   8   1 5134.95 986.335  15
  -2   8   1 5878.16 1087.72  11
  -2   8   1 6109.32 1120.08  22
  -2   8   0 51165.2 3465.67  22
  -2   8   0 56964.4 3559.28  18
  -2   8   0 53596.9 3374.76  15
  -2   8  -1 90957.3 4876.75  22
  -2   8  -1 98213.9 4933.66  18
  -2   8  -1 93740.6 4709.95  15
  -2   8  -2 179265. 7674.69  19
  -2   8  -2 191033. 7697.62  23
  -2   8  -2 189194. 7908.66  22
  -2   8  -2 200269. 7913.92  18
  -2   8  -2 182671. 7534.20  15
  -2   8  -3 19203.3 1927.15  18
  -2   8  -3 17627.9 1806.51  23
  -2   8  -3 16259.5 1753.17  19
  -2   8  -3 16500.1 1836.51  22
  -2   8  -3 15280.4 1635.12  15
  -2   8  -4 7128.63 1157.55  19
  -2   8  -4 7704.63 1210.23  23
  -2   8  -4 7900.84 1233.72  18
  -2   8  -4 8203.12 1184.07  15
  -2   8  -5 3128.75 740.708  15
  -2   8  -5 4196.75 929.340  23
  -2   8  -5 2837.73 757.433  19
  -2   8  -5 4185.69 1002.60  18
  -2   8  -6-104.936 346.441  19
  -2   8  -6 106.887 210.658  15
  -2   8  -6-177.980 384.180  18
  -2   8  -6 95.2913 340.232  23
  -2   8  -7 31132.2 2593.76  23
  -2   8  -7 31078.3 2855.44  18
  -2   8  -7 31577.7 2694.48  19
  -2   8  -7 25087.1 2233.01  26
  -2   8  -7 27799.7 2533.66  15
  -2   8  -8 12083.7 1606.96  23
  -2   8  -8 15702.4 2132.10  18
  -2   8  -8 14798.7 1868.20  15
  -2   8  -9 1155.42 575.131  15
  -2   8  -9 1683.35 637.581  23
  -2   8  -9 1760.25 832.436  18
  -2   8 -10 129372. 7415.36  18
  -2   8 -10 117802. 6595.22  15
  -2   8 -11 4959.10 1070.55  15
  -2   8 -11 7386.69 1014.04  23
  -2   8 -11 4891.19 1212.82  18
  -2   8 -12 34318.9 2565.85  15
  -2   8 -12 36551.1 3105.37  18
  -2   8 -12 38182.8 2128.10  23
  -2   8 -13 19823.4 1165.29  23
  -2   8 -13 22689.3 1936.21  18
  -2   8 -13 18992.0 1436.15  15
  -2   8 -14 6923.12 784.048  18
  -2   7  11 7620.97 653.661  11
  -2   7  10 3455.88 553.250  11
  -2   7   9 68676.4 3375.61  11
  -2   7   8 22193.4 2455.21   8
  -2   7   8 19244.9 1734.34  11
  -2   7   7 29264.0 3158.62   8
  -2   7   7 33042.1 2490.54  11
  -2   7   6 174841. 9163.88   8
  -2   7   6 171844. 7163.23  22
  -2   7   6 189410. 8142.67  15
  -2   7   6 195233. 7830.59  11
  -2   7   5 60489.1 4768.51   8
  -2   7   5 64079.7 3957.94  11
  -2   7   5 60211.8 3662.38  22
  -2   7   5 63502.8 4113.35  15
  -2   7   4 31730.4 2744.64  11
  -2   7   4 32854.0 2649.95  22
  -2   7   4 35936.4 2916.44  15
  -2   7   4 32678.4 2859.41   5
  -2   7   3 23166.5 2320.73  11
  -2   7   3 22561.4 2162.88  22
  -2   7   3 24834.1 2300.12  15
  -2   7   3 21863.1 2207.56   5
  -2   7   2 17195.7 2001.98  11
  -2   7   2 18754.4 1937.00  18
  -2   7   2 18519.3 1902.69  22
  -2   7   2 15737.9 1782.02   5
  -2   7   2 21730.9 2057.39  15
  -2   7   1 24724.9 2180.87  22
  -2   7   1 18523.8 2082.16  11
   2  -7  -1 20573.7 1971.20   2
  -2   7   1 24381.6 2136.63  18
  -2   7   1 20726.1 1926.60   5
  -2   7   1 25239.3 2163.30  15
  -2   7   0 64550.1 3630.92  23
  -2   7   0 66360.6 4544.86   3
  -2   7   0 68359.1 3800.97  18
   2  -7   0 59410.4 3535.07   2
  -2   7   0 60929.1 3668.12  22
  -2   7   0 65655.5 3705.17  15
  -2   7  -1 126190. 5598.51  18
  -2   7  -1 120728. 6704.06   3
  -2   7  -1 109601. 5423.98  22
  -2   7  -1 120377. 5393.85  23
   2  -7   1 107946. 5203.42   2
  -2   7  -1 124628. 5489.30  15
  -2   7  -2 27797.7 2267.45  18
  -2   7  -2 18755.1 2458.11   3
  -2   7  -2 24827.6 2098.27  15
  -2   7  -2 26559.7 2211.08  22
  -2   7  -2 24867.3 2074.68  23
   2  -7   2 25985.7 2054.42   2
  -2   7  -3 69028.8 3884.06  23
  -2   7  -3 75875.6 4193.09  18
  -2   7  -3 74169.5 5009.77   3
  -2   7  -3 72352.0 3982.68  19
  -2   7  -3 71535.9 3944.52  15
  -2   7  -3 76588.0 4127.28  22
  -2   7  -4 119737. 5460.94  15
  -2   7  -4 112884. 5358.40  23
  -2   7  -4 117399. 5572.68  22
  -2   7  -4 106694. 6169.91   3
  -2   7  -4 107513. 5302.66  19
  -2   7  -4 118496. 5635.18  18
  -2   7  -5 21401.7 2060.82  15
  -2   7  -5 21789.7 2387.90   3
  -2   7  -5 24859.3 2179.62  19
  -2   7  -5 25962.6 2361.06  18
  -2   7  -5 22168.0 2077.33  23
  -2   7  -6 5945.26 1095.56  15
  -2   7  -6 5805.69 1061.18  23
  -2   7  -6 5986.90 1093.34  19
  -2   7  -6 6530.83 1244.53  18
  -2   7  -7-12.4355 274.369  15
  -2   7  -7 172.249 260.000  23
  -2   7  -7 300.448 351.680  26
  -2   7  -7-754.496 457.764  19
  -2   7  -7 381.896 353.161  18
  -2   7  -8 33357.6 2732.44  23
  -2   7  -8 32877.7 3017.19  15
  -2   7  -9 77751.2 5162.54  15
  -2   7  -9 74682.0 4346.40  23
  -2   7 -10 52739.4 4371.41  15
  -2   7 -10 55403.0 3501.77  23
  -2   7 -11 52590.1 4602.27  15
  -2   7 -11 87455.9 4152.40  23
  -2   7 -12 20515.9 2523.55  15
  -2   7 -12 27751.7 1938.67  23
  -2   7 -13 103482. 5391.49  15
  -2   7 -13 98128.9 3932.37  23
  -2   7 -14 499.388 309.955  15
  -2   7 -15 10507.7 877.303  15
  -2   7 -15 11013.4 1061.69  18
  -2   6  12 882.348 320.869   8
  -2   6  12 1178.01 294.879  11
  -2   6  11 60128.1 3365.16   8
  -2   6  11 60638.0 2964.63  11
  -2   6  10 3151.14 810.690   8
  -2   6  10 2944.44 677.427  11
  -2   6   9 2715.36 905.426   8
  -2   6   9 934.839 453.031  11
  -2   6   8 101220. 6362.69   8
  -2   6   8 110184. 5380.60  11
  -2   6   7 77533.1 4372.51  11
  -2   6   7 60915.1 4927.72   8
  -2   6   7 74832.5 4559.10   5
  -2   6   7 67040.7 4369.29  15
  -2   6   6 72415.4 5307.27   8
  -2   6   6 81958.4 4657.03  11
  -2   6   6 84113.3 4975.39   5
  -2   6   6 77723.9 4752.37  15
  -2   6   5 46386.3 3573.08   5
  -2   6   5 54823.9 3633.80  15
  -2   6   5 51411.2 4050.98   8
  -2   6   5 49628.9 3502.71  11
  -2   6   4 2906.10 815.016   5
  -2   6   4 3113.68 795.900  15
  -2   6   4 3561.22 934.965   8
  -2   6   4 2073.83 597.288  22
  -2   6   4 2537.06 772.125  11
  -2   6   3 15941.4 1830.09   8
  -2   6   3 17413.7 1914.76  11
  -2   6   3 14808.2 1743.97   5
  -2   6   3 15099.6 1627.37  15
  -2   6   3 14378.8 1575.66  22
  -2   6   2 3408.35 760.871   5
  -2   6   2 3423.19 706.950  15
  -2   6   2 3005.86 707.302  18
  -2   6   2 2790.03 645.400  22
  -2   6   2 3178.24 747.467   8
  -2   6   1 45362.5 2770.01  18
  -2   6   1 45561.9 2907.98   5
  -2   6   1 47066.8 2852.70  15
   2  -6   0 28167.4 2158.28   2
  -2   6   0 24094.6 1929.68   5
   2  -6   1 25742.0 2022.07   2
   2  -6   2 549259. 17579.1   2
   2  -6   3 3917.93 761.722   2
   2  -6   4 114663. 4995.92   2
  -2   6  -5 46243.0 3015.46  15
  -2   6  -5 47427.5 2945.80  19
  -2   6  -5 46161.9 2951.47  23
   2  -6   5 54452.3 2904.85   2
  -2   6  -6 11855.3 1482.93  15
  -2   6  -6 10715.9 1350.09  19
  -2   6  -6 13116.2 1496.10  23
  -2   6  -7 6804.91 1180.62  15
  -2   6  -7 6694.67 1142.68   3
  -2   6  -7 8424.49 1257.99  19
  -2   6  -7 8121.81 1229.66  23
  -2   6  -7 6763.11 1099.77  26
  -2   6  -8 31183.9 2845.63  15
  -2   6  -8 27236.3 2318.29   3
  -2   6  -8 32302.4 2531.46  23
  -2   6  -9 15657.8 2151.96  15
  -2   6  -9 16756.5 1790.60  23
  -2   6 -10 19870.9 2594.01  15
  -2   6 -10 21459.9 2019.00  23
  -2   6 -11 19765.6 2730.89  15
  -2   6 -11 25473.7 2090.83  23
  -2   6 -12 101555. 6611.68  15
  -2   6 -12 119435. 5007.52  23
  -2   6 -13 9461.94 1658.62  15
  -2   6 -14 3406.94 831.404  15
  -2   6 -15 4667.64 782.334  15
  -2   6 -16 154.129 107.261  15
  -2   5  14 64853.8 2695.18   8
  -2   5  13 24467.1 1730.73   8
  -2   5  13 22670.1 1296.31  11
  -2   5  12 38632.3 2600.74   8
  -2   5  12 34292.8 2221.36  24
  -2   5  12 35796.5 2113.28  11
  -2   5  11 854.554 429.599   8
  -2   5  11 695.394 386.656  24
  -2   5  10 20173.7 2352.74   8
  -2   5  10 20818.7 1923.42  11
  -2   5  10 18866.8 1868.16  24
  -2   5   9 76472.6 4565.97   5
  -2   5   9 75673.1 4308.60  24
  -2   5   9 83563.2 4497.72  11
  -2   5   9 84234.1 5577.06   8
  -2   5   8 42238.5 3921.76   8
  -2   5   8 39471.4 2950.99  24
  -2   5   8 41819.5 3061.19  11
  -2   5   8 43730.2 3343.91   5
  -2   5   8 36858.6 3143.95  15
  -2   5   7 86725.9 4772.26  11
  -2   5   7 94053.6 5255.35   5
  -2   5   7 79312.0 5630.56   8
  -2   5   7 91913.1 5152.49  15
  -2   5   7 83772.5 4632.53  24
  -2   5   6 17438.2 2289.02   8
  -2   5   6 19870.0 2012.59  11
  -2   5   6 18531.8 1997.20  15
  -2   5   5 175573. 7773.20   8
  -2   5   5 158715. 6981.78  15
  -2   5   4 27847.3 2407.27   5
  -2   5   3 95275.8 4762.39   5
  -2   5   2 8421.31 1121.75   5
  -2   5   1 7509.10 991.619   5
  -2   5   0 96168.8 4249.83   5
   2  -5   1 124557. 5163.65   2
  -2   5  -1 122409. 4983.31   5
   2  -5   2 54688.2 2940.52   2
   2  -5   3 338943. 11265.4   2
   2  -5   4 98314.5 4255.86   2
   2  -5   5 302917. 10164.1   2
   2  -5   6 1213.90 356.721   2
   2  -5   7 7606.93 941.056   2
  -2   5  -8 6561.29 1020.96   3
  -2   5  -8 7058.56 1214.87  15
  -2   5  -8 9471.20 1212.12  23
  -2   5  -9 10408.3 1303.87  23
  -2   5 -10 244534. 8865.25  23
  -2   5 -10 222549. 9047.29  21
  -2   5 -11 23264.0 2209.27  21
  -2   5 -12 29948.8 2510.89  21
  -2   5 -13 98488.4 5846.96  15
  -2   5 -13 89829.0 4741.93  21
  -2   5 -14 1936.78 659.988  15
  -2   5 -15 43778.3 2868.04  15
   2  -5  15 42849.2 2365.02  25
  -2   5 -16 960.597 364.237  15
  -2   5 -17 5219.58 570.621  15
  -2   4  15 10086.0 863.808   8
  -2   4  14 34911.0 2122.10  24
  -2   4  14 36704.9 2234.17   8
  -2   4  13 18362.5 1313.88  11
  -2   4  13 17934.1 1628.84  24
  -2   4  13 19016.3 1784.30   8
  -2   4  12 8174.82 1181.98  24
  -2   4  12 6864.40 1206.26   8
  -2   4  12 6869.30 919.812  11
  -2   4  11 27900.4 2719.82   8
  -2   4  11 25338.0 2301.35  24
  -2   4  11 27976.1 2180.98  11
  -2   4  10 52775.1 3564.18  24
  -2   4  10 60048.1 4434.47   8
  -2   4  10 54523.8 3385.67  11
  -2   4  10 58147.3 3750.16   5
  -2   4   9 5167.50 1024.31  24
  -2   4   9 4640.51 914.031  11
  -2   4   9 5584.84 1324.67   8
  -2   4   9 6859.55 1246.68   5
  -2   4   8 25368.9 2938.04   8
  -2   4   8 26791.8 2333.85  24
  -2   4   8 23405.4 2136.13  11
  -2   4   8 22903.7 2330.41   5
  -2   4   8 25367.4 2509.01  15
  -2   4   7 2598.72 747.323  15
  -2   4   7 2812.71 719.088  24
  -2   4   7 2952.62 712.294  11
  -2   4   7 2517.26 960.986   8
  -2   4   7 2833.50 796.243   5
  -2   4   6 436952. 15234.5   5
  -2   4   5 6668.75 1091.53   5
  -2   4   4 87336.6 4398.06   5
  -2   4   3 27790.7 2067.58   5
  -2   4   2 7773.22 970.385   5
  -2   4   1 43975.4 2435.36   5
  -2   4   0 76221.3 3402.33   5
   2  -4   1 222772. 7637.57   2
  -2   4  -1 216622. 7485.70   5
   2  -4   2 152613. 5647.49   2
   2  -4   3 354394. 11344.3   2
   2  -4   4 453761. 14102.1   2
   2  -4   5 8106.41 880.515   2
   2  -4   6 1099.29 351.153   2
   2  -4   7 41448.6 2353.22   2
   2  -4   8 677.142 289.619   2
  -2   4  -8 1054.71 380.936   6
  -2   4  -9 3511.04 772.195   6
  -2   4 -10 44.2138 333.735  21
  -2   4 -10 235.263 231.786   6
  -2   4 -11 161675. 7112.72  21
  -2   4 -11 155059. 6877.13   6
  -2   4 -12 66440.5 4040.49  21
  -2   4 -12 63660.8 3832.76   6
  -2   4 -13 149243. 6701.16  21
  -2   4 -13 139051. 6265.88   6
  -2   4 -14 48367.6 3261.74  21
   2  -4  14 55885.1 3382.23  25
   2  -4  15 754.253 301.451  25
   2  -4  16 18773.1 1533.74  25
  -2   4 -17 4621.24 624.412  15
   2  -4  17 5435.48 632.955  25
  -2   3  16 3203.51 458.549   8
  -2   3  15 22999.4 1691.83   8
  -2   3  15 22912.0 1664.99  24
  -2   3  14 33885.4 2446.45   8
  -2   3  14 35828.5 2457.91  24
  -2   3  13 104134. 5106.46  24
  -2   3  13 98149.3 5164.22   8
  -2   3  12 4619.07 977.639  24
  -2   3  12 7125.13 1284.89   8
   2  -3 -12 5084.66 919.290  10
  -2   3  11 35643.5 2732.14   5
  -2   3  11 34056.3 2425.04  11
   2  -3 -11 34887.3 2587.00  10
  -2   3  11 35897.8 2866.77  24
  -2   3  10 684.469 398.580  11
  -2   3  10 153.258 343.023  24
   2  -3 -10 659.446 349.008  10
  -2   3  10 348.280 282.255   5
  -2   3   9 87872.4 4774.22  24
  -2   3   9 94648.9 4590.09  11
   2  -3  -9 95434.2 4610.98  10
  -2   3   9 88812.0 4902.27   5
  -2   3   8 332930. 12185.9   5
  -2   3   7 119462. 5660.57   5
  -2   3   6 80927.5 4216.65   5
  -2   3   5 476702. 15564.7   5
  -2   3   4 23582.8 1807.63   5
  -2   3   3 336750. 11053.7   5
  -2   3   2 2625.18 503.584   5
  -2   3   1 5403.43 678.266   5
  -2   3   0 21362.7 1376.96   5
   2  -3   1 32301.7 1758.19   2
  -2   3  -1 32126.5 1725.20   5
   2  -3   2 547089. 16436.5   2
   2  -3   3 190362. 6428.92   2
   2  -3   4 101642. 3926.38   2
   2  -3   5 393813. 12280.2   2
   2  -3   6 3495.52 571.480   2
   2  -3   7 45613.7 2519.28   2
   2  -3   8 17840.1 1563.64   2
   2  -3   9 4820.98 836.883   2
  -2   3 -10 174332. 7502.91   6
  -2   3 -10 172540. 7369.54  21
   2  -3  10 177963. 6973.20   2
  -2   3 -11 11512.8 1533.88  21
  -2   3 -11 10677.4 1504.22   6
  -2   3 -12 155957. 7094.37   6
  -2   3 -12 153414. 7004.77  21
  -2   3 -13 29066.0 2561.14  21
  -2   3 -13 33036.3 2710.96   6
  -2   3 -14 13981.5 1649.83  21
   2  -3  14 12289.0 1579.45  25
   2  -3  15 56051.7 3436.88  25
   2  -3  16 1516.64 480.249  25
   2  -3  17 265.018 203.829  25
  -2   3 -18 6141.27 565.348  15
  -2   2  16 24382.7 1629.29  24
  -2   2  16 24878.7 1680.78   8
  -2   2  15 25588.0 1956.97  24
   2  -2 -15 22852.3 1587.22  20
  -2   2  15 21772.7 1865.37   8
  -2   2  14 132106. 5976.44  24
  -2   2  13 3454.16 844.068  24
   2  -2 -13 4295.67 891.395  10
  -2   2  12 95028.4 5167.94  24
   2  -2 -12 98683.8 5054.64  10
  -2   2  11 28490.3 2530.27  24
   2  -2 -11 30490.5 2500.52  10
  -2   2  11 25995.9 2224.72   5
   2  -2 -10 13148.6 1570.54  10
  -2   2  10 13893.7 1658.12  24
  -2   2  10 13278.4 1565.79   5
  -2   2   9 37834.6 2708.64   5
   2  -2  -8 188.031 219.574   6
  -2   2   8 233.343 273.273   5
  -2   2   7 28758.5 2172.30   5
   2  -2  -7 32965.1 2202.30   6
  -2   2   6 322394. 10954.6   5
  -2   2   5 223754. 7898.68   5
  -2   2   4 405260. 12781.1   5
  -2   2   3 1632.27 373.355   5
  -2   2   2 15070.2 1084.29   5
  -2   2   1 6284.02 643.854   5
   2  -2   0 38448.5 1813.89   2
  -2   2   0 39857.8 1836.25   5
   2  -2   1 151644. 5092.87   2
   2  -2   2 22841.7 1291.15   2
   2  -2   3 751647. 21965.5   2
   2  -2   4 201089. 6682.22   2
   2  -2   5 431615. 13337.7   2
   2  -2   6 171569. 6253.07   2
   2  -2   7 8489.19 1015.69   2
   2  -2   8 8147.66 1064.69   2
   2  -2   9 33576.2 2391.35   2
   2  -2  10 32640.4 2416.58   2
  -2   2 -11 46217.2 3205.91  21
  -2   2 -11 44088.2 3311.04   6
   2  -2  11 46990.4 2977.16   2
  -2   2 -12 5948.37 1176.11   6
  -2   2 -12 6781.51 1168.86  21
  -2   2 -13 258492. 10278.2   6
  -2   2 -13 256485. 10066.1  21
   2  -2  14 260.880 295.804  25
   2  -2  15 50669.9 3305.86  25
   2  -2  16 14719.3 1518.09  25
   2  -2  17 8872.03 992.010  25
  -2   2 -18 19850.4 1154.97  15
   2  -2  18 23469.5 1273.58  25
  -2   1  17 7132.00 743.500   8
  -2   1  16 98561.5 4208.67  24
  -2   1  16 94847.7 4325.95   8
  -2   1  15 41909.6 2769.88  24
   2  -1 -15 43169.6 2531.66  20
   2  -1 -14 880.258 408.755  20
   2  -1 -14 415.120 364.451  10
  -2   1  14 220.937 271.151  24
   2  -1 -13 259442. 10120.0  10
  -2   1  13 252015. 10037.6  24
   2  -1 -12 17618.9 1949.72  10
  -2   1  12 16300.5 1862.65  24
   2  -1 -11 152809. 6910.01  10
   2  -1 -11 159362. 7049.45   6
  -2   1  11 144551. 6738.58  24
   2  -1 -10 753.131 461.039   6
   2  -1 -10 167.320 297.756  10
  -2   1  10 408.336 254.416   5
   2  -1  -9 6313.89 1041.33   6
  -2   1   9 6280.39 936.603   5
   2  -1  -8 68972.6 3684.33   6
  -2   1   8 63915.4 3316.17   5
   2  -1  -7 16476.6 1515.19   6
  -2   1   7 17092.6 1426.17   5
  -2   1   6 211896. 7333.00   5
   2  -1  -6 206018. 7480.04   6
   2  -1  -5 174680. 5388.94   4
   2  -1  -5 170093. 6141.86   6
  -2   1   5 165030. 5979.29   5
  -2   1   4 4334.04 556.389   5
  -2   1   3 459124. 13752.9   5
  -2   1   2 417.650 159.018   5
   2  -1  -1 53785.1 2135.12   2
  -2   1   1 57320.5 2203.64   5
   2  -1   0 74750.4 2727.86   2
   2  -1   1 228615. 7101.58   2
   2  -1   3 244214. 7756.45   2
   2  -1   5 265065. 8800.54   2
   2  -1   6 146003. 5666.38   2
   2  -1   7 240963. 8667.03   2
   2  -1   8 3751.12 751.486   2
   2  -1   9 9172.43 1232.28   2
   2  -1  10 8306.33 1194.22   2
  -2   1 -11 21093.7 2044.04  21
  -2   1 -12 118249. 5736.16  21
  -2   1 -12 118065. 6044.99   6
   2  -1  13 15698.2 1909.69  25
  -2   1 -13 13123.9 1734.45   6
   2  -1  14 170964. 7548.84  25
   2  -1  15 15885.5 1719.47  25
   2  -1  16 25625.1 2013.87  25
   2  -1  17 14129.8 1225.78  25
  -2   0  17 3318.34 496.919  25
  -2   0  17 3740.60 504.979  24
  -2   0  16 602.646 209.380  24
   2   0 -16 1567.91 398.922  21
   2   0 -15 8636.87 1084.24  21
   2   0 -15 6995.25 991.389  20
  -2   0  15 9404.76 1229.25  24
   2   0 -14 75806.2 4078.57  20
  -2   0  14 78033.7 4336.60  24
   2   0 -14 79582.9 4152.83  21
   2   0 -14 84577.0 4659.59  10
  -2   0  13 77509.0 4411.00  24
   2   0 -13 73907.1 4099.61  20
   2   0 -13 83435.8 4710.40  10
   2   0 -13 77259.6 4224.57  21
   2   0 -12 107119. 5246.25  21
   2   0 -12 112534. 5708.68  10
   2   0 -12 106991. 5691.64   6
  -2   0  12 111037. 5489.07  24
   2   0 -11 871.880 515.166  21
  -2   0  11 1381.04 558.103  24
   2   0 -11 1257.46 488.317   6
   2   0 -11 1886.07 652.071  10
   2   0 -10 83503.6 4606.50   6
   2   0  -9 30497.9 2424.80   6
   2   0  -8 4025.50 780.193   6
   2   0  -8 4529.01 675.358   7
   2   0  -7 1333.53 284.886   4
   2   0  -7 1427.48 460.095   6
   2   0  -7 533.725 245.699   7
  -2   0   7 1115.81 313.139   5
  -2   0   6 95410.9 3616.96   5
   2   0  -6 96100.1 4171.83   6
   2   0  -6 97087.6 4190.58   7
   2   0  -6 95454.6 3556.43   4
   2   0  -5 929201. 26829.7   4
   2   0  -5 938704. 27366.4   6
  -2   0   5 922954. 26736.2   5
  -2   0   4 24032.2 1210.21   5
  -2   0   3 951659. 27096.3   5
   2   0  -2 329536. 9647.22   2
   2   0  -1 58677.6 2105.61   2
   2   0   0 349332. 10555.6   7
   2   0   0 340090. 10188.3   2
   2   0   1 26257.6 1323.86   2
   2   0   1 27825.1 1336.01   7
   2   0   2 39427.5 1866.96   2
   2   0   2 38555.5 1608.78   7
   2   0   3 44857.2 2217.25   2
   2   0   3 46146.0 1773.68   7
   2   0   4 11835.0 1089.02   2
   2   0   5 660327. 20163.5   2
   2   0   6 10143.4 1165.80   2
   2   0   7 39199.8 2564.66   2
   2   0   7 40250.2 2310.83   1
   2   0   8 33581.0 2117.61   1
   2   0   8 34147.1 2480.85   2
   2   0   9 20187.2 1920.77   2
  -2   0 -10 54637.0 3312.52  21
   2   0  11 4275.80 979.829  25
  -2   0 -11 4238.33 844.087  21
  -2   0 -11 4137.88 951.909   6
   2   0  12 3858.87 953.782  25
  -2   0 -12 4886.92 1058.28   6
   2   0  13 226376. 9288.00  25
  -2   0 -13 217139. 8992.98   6
   2   0  14 49983.6 3392.50  25
   2   0  15 124588. 5656.74  25
   2   0  16 1540.73 467.959  25
   2   0  17 3063.99 489.099  25
  -2  -1  18 257.934 98.8507  25
   2   1 -17-26.9347 130.756  21
   2   1 -16 64226.6 3309.49  21
   2   1 -16 65066.0 3092.08  20
  -2  -1  16 70545.0 3260.25  24
   2   1 -15 6899.04 1085.21  21
   2   1 -15 6462.59 970.323  20
  -2  -1  15 7184.25 1049.70  24
  -2  -1  14 70698.3 3963.75  24
   2   1 -14 70185.8 4083.07  21
   2   1 -14 69205.1 3834.75  20
   2   1 -13 29777.0 2557.44  21
   2   1 -13 28631.0 2398.35  20
   2   1 -13 31613.3 2702.44  10
  -2  -1  13 31128.6 2530.01  24
   2   1 -12 4693.90 941.686  21
   2   1 -12 3912.12 868.973  20
   2   1 -12 4300.66 1004.33   6
   2   1 -12 5585.67 1071.70  10
  -2  -1  12 3333.95 796.769  24
  -2  -1  11 216779. 8403.04  24
   2   1 -11 207814. 8522.39  21
   2   1 -11 215774. 8545.78  20
   2   1 -11 206308. 8531.13  10
   2   1 -10 18727.9 1958.98   6
   2   1  -9 11134.5 1424.04   6
   2   1  -8 2488.94 502.368   4
   2   1  -8 4105.13 694.763   7
   2   1  -8 3121.08 678.418   6
   2   1  -7 12668.5 1323.58   7
   2   1  -7 12539.1 1304.38   6
   2   1  -7 11361.5 1045.99   4
   2   1  -6 304298. 9752.43   4
   2   1  -6 301037. 10640.9   7
   2   1  -6 302010. 10158.5   6
   2   1  -5 26346.7 2171.36   7
   2   1  -5 33009.6 1766.02   4
   2   1  -4 412335. 13768.5   7
   2   1  -3 714466. 20693.3   2
   2   1  -3 814610. 22600.7   7
   2   1  -2 30955.6 1533.71   2
   2   1  -2 36902.6 2102.11   7
   2   1  -1 321429. 10178.2   7
   2   1  -1 317498. 10076.1   2
   2   1   0 41950.4 2206.25   2
   2   1   0 39227.0 1931.13   7
   2   1   1 120093. 4348.85   7
   2   1   1 135975. 4997.50   2
   2   1   2 25890.6 1793.27   2
   2   1   2 24610.7 1342.90   7
   2   1   3 255464. 8914.86   2
   2   1   4 232371. 8357.45   2
   2   1   5 42092.9 2415.60   1
   2   1   5 40101.8 2578.67   2
   2   1   6 509668. 16733.0   2
   2   1   6 526768. 16459.3   1
   2   1   7 115540. 5269.65   2
   2   1   7 113060. 4935.30   1
   2   1   8 42266.3 2640.74   1
   2   1   9 667.801 298.730   1
   2   1  10 21456.3 2189.85  25
  -2  -1 -10 23016.4 2227.63   6
   2   1  11 2096.09 690.803  25
  -2  -1 -11 868.431 421.302   6
   2   1  12 46221.9 3371.68  25
  -2  -1 -12 42368.7 3144.15   6
   2   1  13 184236. 7901.93  25
   2   1  14 33453.0 2551.30  25
   2   1  15 33226.4 2287.87  25
   2   1  15 34615.1 2206.18   8
   2   1  16 65099.6 2725.25   8
   2   1  16 64350.6 2928.67  25
   2   2 -18 44731.0 1864.97  21
   2   2 -17 1832.26 437.217  21
   2   2 -16 20587.5 1766.10  21
   2   2 -15 4241.77 871.563  21
   2   2 -15 3924.53 727.768  20
   2   2 -14 890.102 482.211  20
   2   2 -14 596.494 497.003  21
   2   2 -13 133723. 6395.51  21
   2   2 -13 122581. 6044.51  10
   2   2 -13 125060. 6039.36  20
   2   2 -12 27985.9 2531.52  21
   2   2 -12 30071.5 2611.87  20
   2   2 -12 24444.4 2318.62  10
   2   2 -11 113690. 5773.04  20
   2   2 -11 104415. 5296.39  21
   2   2 -10 168986. 7414.85   6
   2   2  -9 7780.55 1006.17   4
   2   2  -9 8237.54 1221.24   6
   2   2  -8 236380. 8729.31   7
   2   2  -8 240050. 9036.57   6
   2   2  -8 244851. 8595.51   4
   2   2  -7 9159.44 1245.79   7
   2   2  -7 9188.71 1036.40   4
   2   2  -6 1991.82 469.799   4
   2   2  -6 2279.99 680.968   7
   2   2  -5 221019. 7697.33   4
   2   2  -5 229376. 8965.88   7
   2   2  -4 127.880 172.883   4
   2   2  -4 111.871 270.255   7
   2   2  -3 774448. 23881.2   7
   2   2  -2 412.649 272.369   7
   2   2  -1 20097.4 1469.41   7
   2   2   0 93709.7 3966.78   2
   2   2   1 312.799 281.666   2
   2   2   2 11983.7 1444.71   2
   2   2   3 20003.8 1650.92   1
   2   2   3 21164.8 1981.25   2
   2   2   4 18942.2 1635.48   1
   2   2   5 747421. 23094.8   1
   2   2   6 161579. 6570.44   1
   2   2   7 343142. 11988.6   1
   2   2   8 647.806 297.710   1
   2   2   9 28285.3 2172.81  11
   2   2   9 28716.6 2506.36  25
   2   2   9 29034.0 2313.70   1
   2   2  10 82024.1 4798.91  25
  -2  -2 -10 95539.6 4916.47   6
   2   2  11 28902.5 2591.14  25
  -2  -2 -11 32660.9 2617.77   6
   2   2  12 27117.5 2410.24  25
   2   2  13 4543.79 909.889  25
   2   2  13 4915.99 897.745   8
   2   2  14 28195.0 2044.98  25
   2   2  14 31041.3 2092.06   8
   2   2  15 51928.8 2437.88  25
   2   2  15 53516.9 2410.30   8
   2   2  16 8285.30 659.623  22
   2   3 -18 68.1103 103.511  21
   2   3 -17 3540.92 618.460  21
   2   3 -16 22185.2 1879.69  21
   2   3 -15 13588.3 1609.13  21
   2   3 -14 33950.4 2795.57  21
   2   3 -14 33048.0 2538.81  20
   2   3 -13 1027.84 580.403  21
   2   3 -13 1725.17 679.281  20
   2   3 -12 123831. 6555.23  20
   2   3 -12 128565. 6311.18  21
   2   3 -11 181850. 8044.59  21
   2   3 -11 181973. 7941.87  10
   2   3 -10 160341. 6474.37   4
   2   3 -10 131721. 6217.31  17
   2   3 -10 148563. 6632.97  21
   2   3 -10 151978. 7947.30  20
   2   3 -10 144558. 6565.49  10
   2   3  -9 118730. 5442.79   4
   2   3  -8 397.064 322.313   4
   2   3  -7 1394.87 476.225   4
   2   3  -6 38721.2 2462.71   4
   2   3  -5 133611. 5441.89   4
   2   3  -4 38274.0 2357.15   4
   2   3  -3 77077.9 3674.41   4
   2   3  -3 75660.0 3382.38   1
   2   3  -2 188743. 7099.31   1
   2   3  -2 185405. 7016.58   4
   2   3  -1 247543. 8767.13   4
   2   3  -1 234038. 8897.42   1
   2   3   0 112715. 5238.76   1
   2   3   1 2851.67 702.107   1
   2   3   2 547.078 364.265   1
   2   3   3 32996.3 2432.35   1
   2   3   4 4421.39 847.728   1
   2   3   5 277709. 10264.0   1
   2   3   6 99451.8 4988.12   1
   2   3   7 7258.46 1086.19  11
   2   3   7 7718.32 1214.09   1
   2   3   8 220246. 8624.34   8
   2   3   8 216848. 8423.33   1
   2   3   8 198982. 7905.06  11
   2   3   9 35086.5 2799.77  25
   2   3   9 35493.0 2600.21  11
   2   3   9 37362.2 2801.99   1
   2   3   9 34330.2 2879.10   8
   2   3  10 2498.85 797.351   8
   2   3  10 3772.98 814.798  11
   2   3  10 1822.49 632.492  25
   2   3  11 19578.8 1981.54   8
   2   3  11 15399.8 1722.25  25
   2   3  12 27586.4 2148.67  25
   2   3  12 31499.6 2343.92   8
   2   3  13 54570.0 3267.53  22
   2   3  13 60281.8 3090.58   8
   2   3  14 464.990 228.533   8
   2   3  14 207.838 188.704  22
   2   3  15 43463.4 1978.66  22
   2   4 -17 439.517 225.495  21
   2   4 -16 59538.9 3178.85  21
   2   4 -15 1793.07 553.488  21
   2   4 -14 1858.05 631.996  21
   2   4 -13 134661. 6411.88  21
   2   4 -12 8513.52 1348.01  21
   2   4 -12 8515.65 1176.81  12
   2   4 -11 151510. 6421.00  12
   2   4 -11 144647. 6774.63  21
   2   4 -10 597.903 574.559  26
   2   4 -10 1414.39 580.445   4
   2   4 -10 27.4681 270.001  12
   2   4 -10 825.630 325.146  21
   2   4 -10 637.376 354.662  17
   2   4 -10 783.674 657.375  20
   2   4  -9 232.301 248.683   4
   2   4  -9 1374.61 505.157  21
   2   4  -9 792.093 419.492  12
   2   4  -9 1041.73 464.364  17
   2   4  -9 1099.19 769.168  20
   2   4  -9 859.050 523.886  26
   2   4  -8 179555. 7515.01   4
   2   4  -7 32644.8 2507.96   4
   2   4  -6 31022.3 2400.07   4
   2   4  -5 1499.35 494.079   4
   2   4  -4 75927.5 4082.60   4
   2   4  -3 371195. 12880.0   4
   2   4  -3 365861. 11830.7   1
   2   4  -2 43190.2 2674.39   1
   2   4  -2 39977.8 2865.14   4
   2   4  -1 280229. 10538.0   4
   2   4  -1 287868. 10598.4   1
   2   4   0 48790.8 3369.26   1
   2   4   0 46215.5 3087.43   4
   2   4   1 9385.92 1226.94   4
   2   4   1 9723.54 1443.48   1
   2   4   2 121686. 6042.40   1
   2   4   3 12490.7 1635.73   1
   2   4   4 59995.0 3881.69   1
   2   4   5 54557.9 3661.21   1
   2   4   6 208556. 8468.38   1
   2   4   6 181115. 7649.36  11
   2   4   7 177880. 7755.72   1
   2   4   7 170222. 7270.28  11
   2   4   8 48672.8 3232.41  11
   2   4   8 49442.4 3395.51   8
   2   4   9 21306.1 2025.94  11
   2   4   9 24582.1 2814.58  22
   2   4   9 24749.1 2278.61   8
   2   4  10 46984.1 3635.81  22
   2   4  10 44163.1 3033.49   8
   2   4  11 8962.29 1174.41   8
   2   4  11 12099.1 1580.44  22
   2   4  12 10981.8 1113.20   8
   2   4  12 12050.1 1359.34  22
   2   4  13 902.735 332.024  22
   2   4  14 16967.8 1084.81  22
   2   5 -17 18994.0 1117.09  21
   2   5 -16 1272.54 338.270  21
   2   5 -15 3785.28 698.363  21
   2   5 -14 1117.74 397.369  21
   2   5 -13 30942.7 2183.98  12
   2   5 -13 24618.4 2178.32  21
   2   5 -12 5550.22 952.426  12
   2   5 -12 4157.99 917.962  21
   2   5 -11 12564.3 1531.98  12
   2   5 -11 14086.1 1649.98  21
   2   5 -11 12908.1 1712.72  17
   2   5 -10 115942. 5563.69  12
   2   5 -10 103667. 5283.15  21
   2   5 -10 104164. 5449.87  17
   2   5 -10 105856. 5412.41  26
   2   5  -9 72027.3 4355.45   4
   2   5  -9 82791.2 4618.89  12
   2   5  -9 72216.2 4101.72  26
   2   5  -9 72065.8 4237.18  17
   2   5  -9 73061.0 4153.71  21
   2   5  -8 82370.0 4682.80   4
   2   5  -8 78199.7 4723.52  12
   2   5  -8 74979.8 4188.21  17
   2   5  -8 80816.1 4104.45  26
   2   5  -7 38933.5 3047.63   4
   2   5  -7 42642.7 2786.03  17
   2   5  -7 38118.9 3195.93  12
   2   5  -7 35369.3 2428.46  26
   2   5  -6 59781.9 3916.40   4
   2   5  -5 84838.7 4907.28   4
   2   5  -4 7322.68 1305.52   4
   2   5  -3 126280. 6459.99   4
   2   5  -2 148996. 6276.37   1
   2   5  -2 143309. 7073.21   4
   2   5  -1 20449.1 2210.90   4
   2   5  -1 18871.8 2051.02   1
   2   5   0 369812. 14028.6   1
   2   5   0 372024. 13233.3   4
   2   5   1 891.239 588.813   1
   2   5   2 519.370 451.312   1
   2   5   3 36482.5 3226.59   1
   2   5   3 42121.9 3144.75  22
   2   5   4 1557.86 696.743   1
   2   5   4 1030.25 640.065  22
   2   5   4 1549.38 522.121  11
   2   5   5 67737.5 4414.31   1
   2   5   5 64090.9 3826.56  11
   2   5   5 65085.9 5037.13  22
   2   5   6 3231.37 828.939  11
   2   5   6 3499.06 1242.14  22
   2   5   7 75298.7 4318.35  11
   2   5   7 83966.0 4473.04   8
   2   5   7 70687.8 5553.51  22
   2   5   8 30671.9 2450.39   8
   2   5   8 26548.7 3072.83  22
   2   5   8 27821.9 2362.66  11
   2   5   9 6809.76 1336.70  22
   2   5   9 6868.72 1059.89   8
   2   5  10 68779.4 3501.54   8
   2   5  10 70199.7 4115.64  22
   2   5  11 2273.08 562.729  22
   2   5  12 2515.89 486.477  22
   2   5  12 1125.93 304.559  17
   2   5  13 24828.1 1278.70  22
   2   6 -16 66803.8 2588.48  23
   2   6 -15 4951.03 611.986  21
   2   6 -15 4947.71 593.671  13
   2   6 -14 13357.1 1226.98  21
   2   6 -14 14487.5 1353.53  13
   2   6 -13 17855.9 1604.42  21
   2   6 -12 38934.7 2667.16  12
   2   6 -12 34554.8 2490.78  21
   2   6 -11 117539. 5629.57  12
   2   6 -11 112444. 5385.57  21
   2   6 -11 112116. 5790.27  17
   2   6 -10 22606.9 2257.28  26
   2   6 -10 25675.4 2459.30  12
   2   6 -10 23093.2 2297.63  17
   2   6  -9 127034. 6492.11  12
   2   6  -9 117289. 5938.56  17
   2   6  -9 110354. 5629.52  26
   2   6  -8 39372.5 3484.09  12
   2   6  -8 39279.3 2951.52  17
   2   6  -8 38082.1 2803.52  26
   2   6  -7 50535.0 3856.12   4
   2   6  -7 50971.8 3216.44  26
   2   6  -7 51625.4 4263.83  12
   2   6  -7 53018.6 3443.35  17
   2   6  -6 38293.6 3361.41   4
   2   6  -6 30412.7 3273.31  12
   2   6  -6 35997.6 2668.47  17
   2   6  -5 8486.29 1291.67  13
   2   6  -5 9844.06 1718.10   4
   2   6  -5 7711.29 1565.69  12
   2   6  -5 9467.28 1278.82  17
   2   6  -4 28177.6 3029.37   4
   2   6  -4 26019.2 2265.26  13
   2   6  -4 28076.2 2811.96  12
   2   6  -4 28002.0 2048.84  22
   2   6  -4 31540.2 2343.20  17
   2   6  -3 38897.7 3604.63   4
   2   6  -3 37394.2 2717.49  13
   2   6  -3 41821.6 2589.88  22
   2   6  -3 42531.7 2790.48  17
   2   6  -3 43123.4 3228.65  12
   2   6  -2 188502. 8953.89   4
   2   6  -2 199018. 7667.28  13
   2   6  -2 191079. 7774.44  12
   2   6  -2 191754. 7401.95  22
   2   6  -2 202888. 7527.78  18
   2   6  -2 184509. 7587.95  17
   2   6  -1 74382.5 3915.15  18
   2   6  -1 71261.3 3912.60  17
   2   6  -1 75981.1 3914.84  13
   2   6  -1 69446.4 3734.95  22
   2   6   0 6228.25 1359.12   1
   2   6   0 8011.03 1145.68  22
   2   6   0 8784.28 1240.39  17
   2   6   0 8934.49 1161.82  13
   2   6   1 1645.70 577.220  22
   2   6   1 1924.06 597.401  17
   2   6   1 2486.47 929.157   1
   2   6   2 173049. 8770.94   1
   2   6   2 158260. 7247.65  22
   2   6   2 164010. 7300.85  17
   2   6   2 152624. 6495.37  11
   2   6   3 27820.9 2760.04  22
   2   6   3 24488.9 2139.04  11
   2   6   3 25938.3 2596.19  17
   2   6   4 4872.32 1282.74  22
   2   6   4 6166.66 1065.58  11
   2   6   4 5358.02 1228.09  17
   2   6   5 9054.96 1799.06  22
   2   6   5 10353.9 1785.77  17
   2   6   5 9561.69 1348.55  11
   2   6   6 69238.1 5305.24  22
   2   6   6 60780.0 4794.73  17
   2   6   7 5620.33 1346.56  22
   2   6   7 6736.11 1100.67  11
   2   6   7 5275.67 1231.17  17
   2   6   8 208174. 8822.55  22
   2   6   8 182263. 8212.33  17
   2   6   9 43303.5 2926.94  22
   2   6   9 37593.2 2596.94  17
   2   6  10 4080.20 712.408  22
   2   6  10 2289.08 452.171  17
   2   6  11 25434.9 1506.90  22
   2   7 -15 3164.96 414.077  23
   2   7 -14 10734.9 1031.40  23
   2   7 -14 10796.9 916.011  13
   2   7 -13 19249.1 1653.42  13
   2   7 -12 1451.47 600.740  13
   2   7 -11 32621.2 2534.20  12
   2   7 -11 35591.7 3261.65  13
   2   7 -11 31182.3 2561.91  17
   2   7 -10 64262.1 3974.33  26
   2   7 -10 68919.4 4281.68  12
   2   7 -10 55562.3 4624.04  13
   2   7 -10 66076.2 3999.85  17
   2   7  -9 13572.5 1695.91  17
   2   7  -9 11391.0 2023.72  13
   2   7  -9 13844.6 1713.25  26
   2   7  -9 12878.8 1926.66  12
   2   7  -8 171512. 8664.47  13
   2   7  -8 181585. 9022.06  12
   2   7  -8 172814. 7490.37  17
   2   7  -8 164856. 7298.20  26
   2   7  -7 4328.22 918.915  26
   2   7  -7 2641.91 1008.52  12
   2   7  -7 2855.63 756.803  17
   2   7  -7 2224.16 896.694  13
   2   7  -6 418.098 243.767  23
   2   7  -6 305.513 383.867  12
   2   7  -6 116.178 325.273  13
   2   7  -6 236.195 265.009  17
   2   7  -5 41190.1 3160.49  13
   2   7  -5 42671.5 3884.89  12
   2   7  -5 40680.5 2690.77  23
   2   7  -5 41730.0 2675.79  22
   2   7  -5 42278.4 2938.93  17
   2   7  -4 601.677 306.086  22
   2   7  -4-3.78146 388.858  12
   2   7  -4-131.755 282.503  17
   2   7  -4 219.756 237.712  13
   2   7  -3 28512.6 2414.68  13
   2   7  -3 29347.5 2383.14  17
   2   7  -3 30985.7 2260.39  22
   2   7  -3 33490.4 2507.33  18
   2   7  -3 29784.8 2603.21  12
   2   7  -2 1277.45 486.904  13
   2   7  -2 2002.88 601.588  22
   2   7  -2 2025.59 736.871  18
   2   7  -2 1547.17 528.669  17
   2   7  -1 74729.2 4015.86  22
   2   7  -1 71117.7 4142.54  17
   2   7   0 71898.0 4069.33  22
   2   7   0 70230.8 4183.55  17
   2   7   1 33478.7 2852.64  17
   2   7   1 36464.5 2858.48  22
   2   7   2 85391.0 4952.10  22
   2   7   2 78736.6 4868.32  17
   2   7   3 2268.15 862.736  22
   2   7   3 828.404 491.695  17
   2   7   4 2041.11 801.660  22
   2   7   4 2150.89 867.431  17
   2   7   5 50164.8 3934.51  22
   2   7   5 37515.7 3294.38  17
   2   7   6 15632.5 2053.42  22
   2   7   6 15494.0 1868.32  17
   2   7   7 60658.4 3717.36  22
   2   7   7 49842.2 3098.22  17
   2   7   8 618.436 290.332  22
   2   7   8 219.598 183.512  17
   2   7   9 47556.6 2374.89  22
   2   8 -13 2059.49 402.017  23
   2   8 -12 1604.79 444.731  13
   2   8 -12 798.454 371.748  23
   2   8 -11 15523.8 1699.28  23
   2   8 -11 19541.6 1930.10  13
   2   8 -10 53617.6 3864.00  13
   2   8 -10 61725.1 3320.00  17
   2   8  -9 36252.6 2600.96  26
   2   8  -9 29655.8 2630.05  23
   2   8  -9 36672.6 2555.36  17
   2   8  -9 28641.0 2908.94  13
   2   8  -8 5793.63 1080.57  23
   2   8  -8 6794.42 1112.37  26
   2   8  -8 7646.24 1167.47  17
   2   8  -8 4464.85 1113.62  13
   2   8  -7 43239.8 2890.18  26
   2   8  -7 39422.8 2745.20  23
   2   8  -7 41716.2 2874.73  17
   2   8  -7 45993.3 3525.09  13
   2   8  -6 38193.3 2496.36  23
   2   8  -6 39171.2 2764.61  17
   2   8  -6 43838.8 3281.74  13
   2   8  -6 42163.6 2824.62  26
   2   8  -5 21181.8 2112.83  13
   2   8  -5 19134.9 1845.30  17
   2   8  -4 16505.5 1523.43  22
   2   8  -4 13733.3 1572.86  17
   2   8  -3 497.043 350.840  17
   2   8  -3 1095.26 452.921  22
   2   8  -2 116720. 5169.99  22
   2   8  -2 111022. 5443.16  17
   2   8  -1 7399.61 1095.81  22
   2   8  -1 5934.40 1083.06  17
   2   8   0 169821. 7134.95  22
   2   8   0 171123. 7543.89  17
   2   8   1 36086.6 2753.52  22
   2   8   1 31853.3 2759.66  17
   2   8   2 758.127 427.123  22
   2   8   2 867.968 518.499  17
   2   8   3 51306.2 3458.06  22
   2   8   3 34310.4 2941.87  17
   2   8   4 3608.64 882.789  22
   2   8   4 3494.93 787.620  17
   2   8   5 10497.6 1369.22  22
   2   8   5 9333.20 1094.19  17
   2   8   6 13576.7 1349.20  22
   2   8   7 5717.09 679.578  22
   2   9 -10 187.763 170.334  23
   2   9  -9 36451.8 2021.95  23
   2   9  -8 55637.5 2896.16  26
   2   9  -8 51591.4 2772.85  17
   2   9  -7 32874.1 2225.79  26
   2   9  -7 34492.3 2270.15  17
   2   9  -6 21696.3 1769.87  26
   2   9  -6 24247.8 1900.27  17
   2   9  -5 4393.82 772.128  26
   2   9  -5 4818.34 852.329  17
   2   9  -4 2299.58 625.112  17
   2   9  -4 1561.88 495.923  26
   2   9  -3 30618.5 2372.75  17
   2   9  -2 10031.3 1089.74  22
   2   9  -2 11913.6 1482.97  17
   2   9  -1 45143.1 2605.47  22
   2   9  -1 45837.7 3105.85  17
   2   9   0 2263.12 651.685  17
   2   9   0 2784.67 601.619  22
   2   9   1 72610.5 3474.10  22
   2   9   1 53782.7 3296.08  17
   2   9   2 19855.7 1647.80  22
   2   9   2 20040.7 1523.67  17
   2   9   3 1393.41 412.251  22
   2   9   4 1716.24 365.341  22
   2  10  -5 76574.9 3321.14  26
   2  10  -4 5157.72 705.507  26
   2  10  -3 5332.18 723.414  26
  -3  10   1 3332.24 552.147  15
  -3  10   1 3458.07 630.753  19
  -3  10   0 20249.7 1670.83  19
  -3  10   0 22135.9 1626.16  15
  -3  10  -1 932.886 387.140  15
  -3  10  -1 999.078 354.669  19
  -3  10  -2 1781.79 519.270  15
  -3  10  -2 1383.80 429.620  19
  -3  10  -3 53854.4 3027.49  15
  -3  10  -4 871.256 391.431  15
  -3  10  -5 14293.8 1458.47  15
  -3  10  -6 93735.4 4162.16  18
  -3  10  -6 79248.2 4022.12  15
  -3  10  -7 201.054 214.847  15
  -3  10  -7-164.379 291.835  18
  -3  10  -8 80142.7 3703.00  18
  -3   9   5 1683.41 349.213  11
  -3   9   5 1707.25 422.703  19
  -3   9   4 23926.1 1638.75  11
  -3   9   4 21922.1 1850.60  19
  -3   9   4 26263.4 1859.58  15
  -3   9   3 35241.0 2223.75  11
  -3   9   3 32068.5 2456.42  19
  -3   9   3 38452.0 2490.00  15
  -3   9   2 440.534 355.901  15
  -3   9   2-316.047 269.455  11
  -3   9   2 450.445 251.653  19
  -3   9   1 87598.4 4507.38  19
  -3   9   1 89276.9 4419.83  15
  -3   9   0 26316.4 2178.13  19
  -3   9   0 27153.7 2141.87  15
  -3   9  -1 43805.6 2872.83  19
  -3   9  -1 46129.7 2908.72  15
  -3   9  -2 13286.0 1451.29  19
  -3   9  -2 15402.9 1556.91  18
  -3   9  -2 13794.6 1493.30  15
  -3   9  -3 233.632 254.234  15
  -3   9  -3 393.410 289.470  19
  -3   9  -3-66.3489 305.729  18
  -3   9  -4 60240.7 3422.81  19
  -3   9  -4 63337.0 3501.10  18
  -3   9  -4 60402.6 3477.28  15
  -3   9  -5 3279.27 767.498  15
  -3   9  -5 2419.35 618.021  19
  -3   9  -5 3255.12 760.671  18
  -3   9  -6 59795.4 3556.84  18
  -3   9  -6 62649.8 3661.91  15
  -3   9  -7 23018.5 2109.88  18
  -3   9  -7 21971.4 2068.31  15
  -3   9  -8 417.137 395.969  15
  -3   9  -8 254.861 379.144  18
  -3   9  -9 42140.8 2985.64  18
  -3   9  -9 33509.6 2640.81  15
  -3   9 -10 4306.21 821.910  15
  -3   9 -10 5108.86 941.915  18
  -3   9 -11 17445.5 1527.64  18
  -3   9 -11 14981.1 1230.24  15
  -3   8   8 9138.25 840.441  11
  -3   8   7 10917.2 1062.71  11
  -3   8   6 4599.85 768.506  11
  -3   8   5 60892.8 3431.08  11
  -3   8   5 67901.9 3892.11  15
  -3   8   4 373.342 330.804  15
  -3   8   4 566.105 415.085  11
  -3   8   3 46725.1 3261.19  11
  -3   8   3 51888.0 3426.12  15
  -3   8   2 103670. 4979.45  22
  -3   8   2 107678. 5643.12  11
  -3   8   1 2300.18 662.390  15
  -3   8   1 1994.86 606.894  22
  -3   8   1 1823.86 708.669  11
  -3   8   0 90065.7 4786.54  22
  -3   8   0 102146. 4915.70  18
  -3   8   0 101382. 5005.40  15
  -3   8  -1 142.679 258.527  15
  -3   8  -1 329.866 281.002  19
  -3   8  -1-77.9101 302.072  18
  -3   8  -2 3828.68 834.194  15
  -3   8  -2 5052.56 928.122  19
  -3   8  -2 4303.98 871.938  18
  -3   8  -3 3655.33 809.485  15
  -3   8  -3 2425.56 637.492  19
  -3   8  -3 4032.15 854.078  18
  -3   8  -4 36936.3 2767.27  23
  -3   8  -4 37430.8 2734.90  18
  -3   8  -4 34596.8 2605.62  19
  -3   8  -4 36064.3 2717.68  15
  -3   8  -5 1174.48 486.343  15
  -3   8  -5 822.549 391.330  19
  -3   8  -5 1098.96 511.645  18
  -3   8  -5 1156.21 513.914  23
  -3   8  -6 15806.1 1764.51  23
  -3   8  -6 12767.9 1600.22  19
  -3   8  -6 15781.4 1836.54  18
  -3   8  -6 16628.9 1870.43  15
  -3   8  -7 43932.0 3316.32  18
  -3   8  -7 39577.4 2909.60  23
  -3   8  -7 40367.5 3171.07  15
  -3   8  -8 141023. 6967.35  15
  -3   8  -8 131016. 6081.46  23
  -3   8  -8 150391. 7142.18  18
  -3   8  -9 22328.9 2488.46  15
  -3   8  -9 22754.3 1947.94  23
  -3   8  -9 24811.7 2649.26  18
  -3   8 -10 31282.8 3022.39  15
  -3   8 -10 37493.6 2334.38  23
  -3   8 -10 34967.1 3239.96  18
  -3   8 -11 279.521 263.771  15
  -3   8 -11 542.576 277.205  23
  -3   8 -11-275.962 602.929  18
  -3   8 -12 2937.01 678.285  15
  -3   8 -12 3870.42 880.958  18
  -3   8 -13 11167.1 1177.32  18
  -3   8 -13 13366.1 1153.03  15
  -3   7  10 1450.87 334.133  11
  -3   7   9 62311.4 3059.04  11
  -3   7   8 47619.7 2814.16  11
  -3   7   7 59708.1 3468.35  11
  -3   7   7 60859.2 3765.88  15
  -3   7   6 16688.7 1770.45  11
  -3   7   6 16815.6 1930.80  15
  -3   7   5 439.808 412.691  15
  -3   7   5 238.631 278.230  11
  -3   7   4 24015.0 2329.42  11
  -3   7   4 27786.1 2531.00  15
  -3   7   4 25275.7 2422.29   5
  -3   7   3 22664.0 2319.37  11
  -3   7   3 27218.3 2401.39  15
  -3   7   2 16375.5 1972.84  11
  -3   7   2 16473.1 1812.02  15
  -3   7   1 56133.0 3407.36  22
  -3   7   1 65995.8 3630.34  18
  -3   7   1 60833.6 3701.89  15
  -3   7   0 1546.22 533.334  15
  -3   7   0 2465.67 637.225  22
  -3   7   0 2355.62 652.258  18
  -3   7  -1 149791. 6247.13  18
  -3   7  -1 138434. 6230.64  22
  -3   7  -1 145042. 6412.65  15
  -3   7  -2 1016.10 465.739  15
  -3   7  -2 558.502 398.805  22
  -3   7  -2 464.809 297.320  19
  -3   7  -2 23.8134 279.642  18
  -3   7  -2 142.368 373.777  23
  -3   7  -3 91413.3 4668.10  23
  -3   7  -3 84317.3 4378.17  19
  -3   7  -3 85731.4 4495.89  18
  -3   7  -3 86393.1 4579.75  15
  -3   7  -4 3101.38 744.320  15
  -3   7  -4 1609.30 577.660  23
  -3   7  -4 1922.18 610.363  19
  -3   7  -4 3058.50 764.978  18
  -3   7  -5 134.405 269.509  15
  -3   7  -5-35.3332 340.282  23
  -3   7  -5 535.669 440.976  19
  -3   7  -5 418.465 351.753  18
  -3   7  -6 149123. 6966.16  15
  -3   7  -6 140376. 6519.28  23
  -3   7  -6 150551. 6721.51  19
  -3   7  -6 154173. 7016.36  18
  -3   7  -7 3412.67 929.987  15
  -3   7  -7 3323.35 895.132  18
  -3   7  -7 4305.12 920.478  23
  -3   7  -8 89382.0 5298.30  15
  -3   7  -8 75030.6 4247.03  23
  -3   7  -9 61429.1 4445.57  15
  -3   7  -9 46260.7 3075.24  23
  -3   7 -10 8598.91 1691.37  15
  -3   7 -10 7230.89 1030.85  23
  -3   7 -11 60044.8 4561.21  15
  -3   7 -11 56912.4 2912.90  23
  -3   7 -12 3733.71 1031.45  15
  -3   7 -13-122.832 355.423  15
  -3   7 -14 25095.8 1809.20  15
  -3   7 -14 25386.3 1906.90  18
  -3   7 -15 6971.83 647.416  15
  -3   7 -15 6835.29 702.879  18
  -3   6  12 1558.08 267.926  11
  -3   6  11 15272.3 1355.66   8
  -3   6  11 16460.7 1249.03  11
  -3   6  10 147593. 6356.59   8
  -3   6  10 156049. 6034.51  11
  -3   6   9 210.567 285.387   8
  -3   6   9 370.257 302.250  11
  -3   6   8 92470.8 5387.76   8
  -3   6   8 94337.7 4813.50  11
  -3   6   7 10558.9 1688.06   8
  -3   6   7 12870.1 1627.96  11
  -3   6   7 14129.3 1782.85  15
  -3   6   6 16706.9 2148.52   8
  -3   6   6 17960.2 1976.87  11
  -3   6   6 17168.9 2016.05   5
  -3   6   6 17047.3 1998.40  15
  -3   6   5 4657.66 1038.93   5
  -3   6   5 4410.91 992.931  15
  -3   6   5 4431.08 1054.88   8
  -3   6   5 4064.73 942.552  11
  -3   6   4 96367.2 5351.63   8
  -3   6   4 104416. 5503.44   5
  -3   6   4 103993. 5200.56  15
  -3   6   3 14065.4 1707.35   8
  -3   6   3 13399.2 1676.70   5
  -3   6   3 14841.2 1637.35  15
  -3   6   2 261.294 236.245   5
  -3   6   2 414.615 345.160  15
  -3   6   2-14.6654 379.264  18
   3  -6  -2 561.883 344.985   2
   3  -6  -1 75253.6 4132.70   2
  -3   6   1 71584.7 3607.25  18
  -3   6   1 69917.8 3834.15  15
   3  -6   0 212820. 8537.78   2
  -3   6   0 223273. 8130.87  18
  -3   6   0 224476. 8437.51  15
  -3   6  -1 34201.6 2359.67  22
  -3   6  -1 36395.9 2531.62  23
  -3   6  -1 40105.7 2519.46  18
   3  -6   1 38275.1 2679.20   2
  -3   6  -1 32557.7 2443.37  15
  -3   6  -2 87834.9 4386.23  15
  -3   6  -2 85223.3 4265.81  23
  -3   6  -2 74638.6 4029.39  22
  -3   6  -2 92477.1 4305.03  18
   3  -6   2 88395.9 4432.34   2
  -3   6  -3 8374.58 1188.25  15
  -3   6  -3 8835.00 1173.18  23
  -3   6  -3 6389.08 952.468  19
  -3   6  -3 6020.53 997.432  18
   3  -6   3 7593.75 1119.34   2
  -3   6  -4 34072.9 2556.43  15
  -3   6  -4 31953.0 2381.14  23
  -3   6  -4 31680.7 2281.79  19
  -3   6  -4 32639.8 2457.23  18
   3  -6   4 33960.8 2465.46   2
  -3   6  -5 28566.9 2408.82  15
  -3   6  -5 28173.1 2252.10  23
  -3   6  -5 25170.0 2074.79  19
   3  -6   5 32380.4 2366.94   2
  -3   6  -6 24273.1 2310.02  15
  -3   6  -6 29019.7 2279.92  23
  -3   6  -6 27936.2 2296.01  19
   3  -6   6 28669.7 2200.39   2
  -3   6  -7 130579. 6497.09  15
  -3   6  -7 136555. 5995.98  23
  -3   6  -8 7455.37 1378.48  15
  -3   6  -8 7586.35 1151.68  23
  -3   6  -9 223101. 9859.97  15
  -3   6  -9 207431. 8142.24  23
  -3   6 -10 62988.1 4752.14  15
  -3   6 -11 15871.3 2265.71  15
  -3   6 -12 13087.4 1974.25  15
  -3   6 -13 2769.03 849.046  15
  -3   6 -14 6169.12 1043.06  15
  -3   6 -15 1462.27 421.264  15
  -3   6 -16 141.298 83.0430  15
  -3   5  13 4595.79 610.241   8
  -3   5  12 20418.3 1625.36   8
  -3   5  12 18171.4 1421.05  24
  -3   5  12 18144.6 1303.63  11
  -3   5  11 3246.20 659.594  24
  -3   5  11 1504.98 443.992  11
  -3   5  11 2911.66 728.987   8
  -3   5  10 41688.3 2773.10  24
  -3   5  10 45745.8 2870.54  11
  -3   5  10 40195.5 3087.03   8
  -3   5   9 51661.2 3762.28   8
  -3   5   9 52338.2 3369.31  11
  -3   5   9 50112.6 3234.39  24
  -3   5   8 2854.56 791.629   5
  -3   5   8 2877.75 811.465  15
  -3   5   8 2476.59 756.938   8
  -3   5   8 2318.26 648.563  24
  -3   5   8 2789.84 777.545  11
  -3   5   7 185152. 7795.49  11
  -3   5   7 190799. 8137.89   5
  -3   5   7 177455. 7900.80  15
  -3   5   6 908.990 489.667   5
  -3   5   6 2275.12 681.992  15
  -3   5   6 1570.77 626.074   8
  -3   5   5 49381.7 3393.51   8
  -3   5   5 54931.9 3387.05  15
  -3   5   4 12639.5 1498.96   8
  -3   5   4 13378.7 1469.31  15
  -3   5   3 13077.4 1562.77   5
  -3   5   2 116965. 5371.21   5
  -3   5   1 4125.09 792.620   5
   3  -5  -1 5129.41 901.636   2
   3  -5   0 22945.2 1924.78   2
   3  -5   1 233204. 8632.33   2
   3  -5   2 32263.0 2295.34   2
   3  -5   3 215996. 8122.88   2
   3  -5   4 34180.2 2358.78   2
   3  -5   5 9314.23 1171.79   2
  -3   5  -6 38503.9 2738.50  15
   3  -5   6 39543.8 2583.88   2
  -3   5  -7 41.8407 275.393  15
   3  -5   7 985.186 399.093   2
  -3   5  -8 70739.6 4383.26  15
   3  -5   8 68123.5 3738.92   2
  -3   5  -9 18864.1 2236.93  15
  -3   5 -10 20906.4 2537.47  15
  -3   5 -11 99124.2 6075.42  15
  -3   5 -12 27699.1 2903.09  15
  -3   5 -13 16662.9 2064.39  15
  -3   5 -14 202.447 260.537  15
  -3   5 -15 9285.42 1147.01  15
  -3   5 -16 37963.1 2067.22  15
   3  -4 -14 15607.8 1152.92  20
  -3   4  14 15094.4 1161.68   8
  -3   4  14 16209.4 1245.90  24
  -3   4  13 7708.96 992.410   8
  -3   4  13 7955.95 1005.81  24
  -3   4  12 49710.9 3024.08  24
  -3   4  12 46670.9 3014.77   8
  -3   4  12 46813.1 2533.57  11
  -3   4  11 26130.8 2247.51  24
  -3   4  11 26764.9 2021.92  11
   3  -4 -11 26240.6 2009.22  10
  -3   4  11 24135.2 2293.30   8
  -3   4  10 8130.26 1383.32   8
  -3   4  10 7768.39 1226.90  24
  -3   4  10 9557.82 1270.08  11
   3  -4 -10 10062.4 1274.38  10
  -3   4  10 8248.47 1261.50   5
  -3   4   9 33116.4 2660.95  24
   3  -4  -9 34986.4 2571.91  10
  -3   4   9 36677.9 2696.80  11
  -3   4   9 34010.5 2777.45   5
  -3   4   9 32407.3 3008.55   8
  -3   4   8 160995. 7950.46   8
  -3   4   8 171285. 7418.13  24
  -3   4   8 179047. 7441.58  11
   3  -4  -8 181919. 7287.85  10
  -3   4   8 183400. 7837.33   5
  -3   4   8 168461. 7788.49  15
  -3   4   7 530.184 424.200   5
  -3   4   7 620.172 415.284  15
  -3   4   7 378.597 261.801   8
   3  -4  -7 819.705 508.896  10
  -3   4   6 170939. 7374.49   5
  -3   4   6 163531. 7083.19  15
  -3   4   5 37819.5 2780.18   5
  -3   4   4 120501. 5507.63   5
  -3   4   3 8901.44 1172.85   5
  -3   4   2 22671.8 1836.17   5
   3  -4  -1 117230. 4948.57   2
  -3   4   1 118276. 5012.60   5
   3  -4   0 141182. 5634.87   2
   3  -4   1 460337. 14709.0   2
   3  -4   2 136080. 5445.20   2
   3  -4   3 17763.9 1515.17   2
   3  -4   4 128107. 5251.46   2
   3  -4   5 162.122 202.238   2
   3  -4   6 60850.7 3243.85   2
   3  -4   7 1282.62 439.714   2
   3  -4   8 30709.1 2319.05   2
   3  -4   9 134645. 5954.99   2
  -3   4 -10 1585.50 554.719   6
   3  -4  11 193382. 7748.65  25
  -3   4 -11 176813. 7649.68   6
   3  -4  12 18598.3 1887.83  25
  -3   4 -12 18362.7 1857.04   6
   3  -4  13 2978.51 739.663  25
   3  -4  14 19151.9 1731.62  25
   3  -4  15 704.286 317.801  25
  -3   4 -15-225.365 201.126  15
  -3   4 -16 6299.57 815.181  15
   3  -4  16 6031.88 689.994  25
  -3   4 -17 7692.75 701.702  15
  -3   3  15 56554.2 2578.72   8
  -3   3  15 62164.7 2851.40  24
   3  -3 -15 59464.3 2579.61  20
  -3   3  14 164.813 226.003  24
  -3   3  14 103.740 116.628   8
   3  -3 -14 24.3937 160.005  20
  -3   3  13 16859.1 1665.00   8
   3  -3 -13 16854.6 1563.15  10
  -3   3  13 14798.3 1599.66  24
  -3   3  12 1638.54 595.815   8
  -3   3  12 1992.81 649.811  24
   3  -3 -12 1132.18 431.163  10
  -3   3  11 27759.3 2080.80  11
  -3   3  11 30303.3 2658.37   8
   3  -3 -11 29754.8 2419.27  10
  -3   3  11 25666.8 2384.43  24
  -3   3  10 77882.9 4769.66   8
  -3   3  10 76484.9 4443.41  24
  -3   3  10 79789.9 4102.05  11
   3  -3 -10 75279.9 4333.34  10
  -3   3  10 86054.1 4450.28   5
  -3   3   9 18979.3 2191.21   8
  -3   3   9 21063.2 2082.68  24
  -3   3   9 21042.1 1913.58  11
   3  -3  -9 22877.7 2108.60  10
  -3   3   9 20500.8 2039.83   5
  -3   3   8 25151.5 2201.29  24
  -3   3   8 23078.8 2336.70   8
   3  -3  -8 23382.2 2103.39  10
  -3   3   8 22297.1 2128.74   5
  -3   3   8 25929.4 2380.77  15
  -3   3   7 422617. 14525.7   5
  -3   3   6 12552.1 1460.25   5
  -3   3   5 127537. 5542.53   5
  -3   3   4 9827.47 1168.60   5
  -3   3   3 26863.2 1906.75   5
  -3   3   2 19607.2 1551.44   5
   3  -3  -1 51358.1 2611.24   2
  -3   3   1 49864.1 2624.03   5
   3  -3   0 123754. 4834.28   2
   3  -3   1 794.811 304.127   2
   3  -3   2 33481.5 1993.12   2
   3  -3   3 222715. 7714.97   2
   3  -3   4 176627. 6481.53   2
   3  -3   5 12795.5 1241.61   2
   3  -3   6 1282.08 422.586   2
   3  -3   7 34826.7 2399.62   2
   3  -3   8 77174.4 4060.32   2
   3  -3   9 82678.7 4355.78   2
   3  -3  10 104251. 5090.36  25
   3  -3  10 91725.3 4794.04   2
   3  -3  11 17551.0 1894.13  25
  -3   3 -11 15655.6 1871.14   6
   3  -3  12 160987. 7103.66  25
  -3   3 -12 152718. 7092.59   6
   3  -3  13 33036.7 2644.41  25
   3  -3  14 21196.0 1981.25  25
   3  -3  15 1009.27 412.904  25
   3  -3  16 3484.30 622.572  25
  -3   3 -17 11837.4 941.008  15
   3  -3  17 12439.1 927.047  25
  -3   2  16 83664.5 3286.37   8
   3  -2 -16 92776.4 3309.68  20
  -3   2  15 744.370 298.454  24
   3  -2 -15 784.990 293.036  20
  -3   2  15 103.909 136.709   8
  -3   2  14 79221.8 4154.70  24
   3  -2 -14 82529.8 4033.56  20
   3  -2 -14 83933.5 4115.48  10
  -3   2  14 78974.4 4012.48   8
  -3   2  13 21624.2 2072.07  24
  -3   2  13 19415.2 1914.46   8
   3  -2 -13 21349.9 1993.07  10
   3  -2 -12 76463.7 4373.48  10
  -3   2  12 75853.3 4454.05  24
   3  -2 -11 884.081 450.267  10
  -3   2  11 574.612 360.719  24
  -3   2  10 52520.5 3557.90  24
   3  -2 -10 58465.0 3730.67  10
   3  -2  -9 52447.6 3442.51  10
  -3   2   9 54395.4 3260.63   5
  -3   2   8 40578.4 2704.84   5
  -3   2   7 351606. 12019.1   5
  -3   2   6 93170.4 4306.15   5
  -3   2   5 20418.6 1626.72   5
  -3   2   4 163636. 6099.26   5
  -3   2   3 3791.46 611.135   5
   3  -2  -2 34900.9 1935.47   2
  -3   2   2 36912.3 2026.22   5
   3  -2  -1 9555.08 895.677   2
   3  -2   0 18738.1 1306.33   2
   3  -2   1 109628. 4201.62   2
   3  -2   2 19819.3 1376.23   2
   3  -2   3 243143. 8138.94   2
   3  -2   4 402141. 12780.1   2
   3  -2   5 153480. 5909.47   2
   3  -2   6 319943. 10931.5   2
   3  -2   7 324.669 313.982   2
   3  -2   8 41590.5 2879.90   2
   3  -2   9 68814.1 3985.35   2
   3  -2  10 16876.1 1823.54  25
   3  -2  10 15104.4 1733.60   2
   3  -2  11 234817. 9186.46  25
   3  -2  11 206705. 8594.25   2
  -3   2 -12 19640.9 2148.19   6
   3  -2  12 20424.5 2118.09  25
   3  -2  13 17456.9 1942.61  25
   3  -2  14 45159.2 3144.53  25
   3  -2  15 1448.33 504.096  25
   3  -2  16 17086.7 1479.85  25
  -3   2 -17 1634.44 331.071  15
   3  -2  17 1126.00 296.608  25
  -3   1  17 78.1957 77.1482  24
   3  -1 -16 3349.04 533.309  20
  -3   1  16 2570.70 460.143   8
  -3   1  16 3228.11 560.968  24
  -3   1  15 91983.4 4330.70   8
  -3   1  15 100909. 4591.92  24
   3  -1 -15 105932. 4532.17  20
  -3   1  14 2340.67 643.301  24
   3  -1 -14 2164.79 637.982  20
   3  -1 -14 1962.45 602.273  10
  -3   1  13 26212.5 2352.70  24
   3  -1 -13 27434.3 2442.35  10
  -3   1  12 5343.37 1030.07  24
   3  -1 -12 3782.98 942.576  10
  -3   1  11 14474.4 1768.28  24
   3  -1 -11 12810.4 1716.62  10
   3  -1 -10 35834.8 2841.52  10
   3  -1  -9 81700.5 4404.19  10
   3  -1  -9 74760.4 3732.11   7
   3  -1  -8 187376. 7294.29   7
  -3   1   8 199795. 7205.06   5
  -3   1   7 21092.8 1612.14   5
  -3   1   6 51804.4 2665.59   5
  -3   1   5 339696. 10874.8   5
   3  -1  -4 93230.6 3707.53   2
  -3   1   4 105335. 3944.89   5
   3  -1  -3 26864.1 1503.67   2
   3  -1  -2 31352.0 1638.36   2
   3  -1  -1 116890. 4214.63   2
   3  -1   0 82789.6 3249.73   2
   3  -1   1 144168. 5070.68   2
   3  -1   2 359353. 11513.8   7
   3  -1   2 395323. 11740.4   2
   3  -1   3 67217.2 3034.70   2
   3  -1   3 66989.1 2632.57   7
   3  -1   4 611029. 18736.1   2
   3  -1   5 7585.81 976.515   2
   3  -1   6 5945.80 933.300   2
   3  -1   7 2778.34 669.548   2
   3  -1   8 10640.1 1409.34   2
   3  -1   9 53374.9 3422.81  25
   3  -1   9 52940.5 3486.01   2
   3  -1  10 6351.71 1156.25   2
   3  -1  10 5496.39 1071.99  25
   3  -1  11 64364.6 3916.81   2
   3  -1  11 61263.2 4017.86  25
   3  -1  12 48800.9 3576.68  25
  -3   1 -12 54118.8 3679.18   6
   3  -1  13 5001.37 1037.99  25
   3  -1  14 97413.0 5000.41  25
   3  -1  15 3090.34 697.157  25
   3  -1  16 2034.74 499.042  25
   3  -1  17 6743.29 676.474  25
  -3   0  17 59270.5 2360.57  24
  -3   0  16 19848.7 1469.95   8
  -3   0  16 23867.2 1645.32  24
   3   0 -16 25472.4 1664.45  20
  -3   0  15 114150. 5100.53  24
   3   0 -15 112495. 4728.21  21
   3   0 -15 119087. 5121.98  20
  -3   0  14 105072. 5074.02  24
   3   0 -14 100521. 4748.29  21
   3   0 -14 98754.8 4931.52  20
   3   0 -14 103062. 5258.82  10
  -3   0  13 5798.44 1083.40  24
   3   0 -13 6673.36 1098.33  21
   3   0 -13 5797.76 1064.69  20
   3   0 -13 6467.26 1186.43  10
  -3   0  12 58829.4 3772.77  24
   3   0 -12 57759.7 3598.43  21
   3   0 -12 55424.9 3612.55  20
   3   0 -12 61821.9 3990.99  10
   3   0 -11 12084.0 1507.18  21
   3   0 -11 13280.2 1714.47  10
   3   0 -10 19900.2 2035.92  10
   3   0  -9 398.807 256.970   7
   3   0  -8 803.192 344.433   7
   3   0  -7 357627. 11233.3   4
   3   0  -7 347113. 12036.2   7
   3   0  -6 41301.5 2156.57   4
   3   0  -6 37936.6 2601.18   7
   3   0  -5 304536. 10790.1   7
   3   0  -4 281811. 8807.70   2
   3   0  -4 316571. 10542.0   7
   3   0  -3 32066.2 2268.64   7
   3   0  -3 28114.7 1396.02   2
   3   0  -2 256653. 8786.37   7
   3   0  -2 238505. 7598.62   2
   3   0  -1 3757.13 649.512   7
   3   0  -1 4572.78 525.147   2
   3   0   0 56722.0 2446.54   2
   3   0   0 56086.8 2713.17   7
   3   0   1 101085. 3902.79   2
   3   0   1 100595. 3889.83   7
   3   0   2 56912.7 2453.12   7
   3   0   2 53995.8 2664.21   2
   3   0   3 306912. 9515.10   7
   3   0   3 303734. 10165.2   2
   3   0   4 46588.6 2677.33   2
   3   0   5 95387.8 4445.50   2
   3   0   6 73846.7 3907.30   2
   3   0   7 34097.0 2564.60   2
   3   0   8 25906.7 2020.41   1
   3   0   8 25142.7 2263.12   2
   3   0   9 893.612 449.636   2
   3   0   9 1534.60 614.674  25
   3   0  10 28890.7 2628.34  25
   3   0  10 28790.5 2535.69   2
   3   0  11 37818.1 3092.11  25
   3   0  12 94115.1 5281.24  25
  -3   0 -12 91184.4 4995.71   6
   3   0  13 62311.6 3991.03  25
   3   0  14 2274.50 673.572  25
   3   0  15 80895.9 3988.97  25
   3   0  16 23559.5 1598.56  25
   3   1 -17 18906.0 1104.66  21
  -3  -1  16 46556.2 2406.46  24
   3   1 -16 45672.7 2470.32  21
   3   1 -16 46953.3 2514.41  20
  -3  -1  15 36607.3 2378.88  24
   3   1 -15 30131.5 2234.21  21
   3   1 -15 31568.0 2280.01  20
  -3  -1  14 104601. 5031.70  24
   3   1 -14 102734. 5058.11  21
   3   1 -14 99442.2 5000.75  20
   3   1 -14 102308. 5227.91  10
  -3  -1  13 85517.4 4558.66  24
   3   1 -13 82412.0 4583.02  21
   3   1 -13 82079.9 4573.82  20
   3   1 -13 82396.9 4687.39  10
  -3  -1  12 42360.5 3067.08  24
   3   1 -12 44252.4 3207.80  21
   3   1 -12 42573.4 3176.30  20
   3   1 -12 41859.7 3162.14  10
   3   1 -11 2189.55 728.010  21
   3   1 -11 1183.00 546.397  20
   3   1 -11 1279.81 511.729  10
   3   1 -10-9.00253 327.975  20
   3   1 -10 183.041 289.805  10
   3   1  -9 88118.4 4282.80   7
   3   1  -8 26397.4 2175.46   7
   3   1  -8 26996.9 1881.41   4
   3   1  -7 129738. 5137.28   4
   3   1  -7 124593. 5877.28   7
   3   1  -6 175123. 6521.03   4
   3   1  -6 185252. 7765.94   7
   3   1  -5 40380.9 3042.77   7
   3   1  -4 342109. 12428.2   7
   3   1  -3 5302.46 964.448   7
   3   1  -2 29958.9 1875.40   2
   3   1  -2 31687.2 2250.08   7
   3   1  -1 1750.54 511.412   7
   3   1  -1 9410.79 1042.98   2
   3   1   0 65781.5 3337.22   2
   3   1   0 60175.7 2945.19   7
   3   1   1 117088. 5010.32   2
   3   1   1 107526. 4310.00   7
   3   1   2 36330.0 2428.54   2
   3   1   2 31941.2 1834.88   7
   3   1   3 95371.8 4554.63   2
   3   1   4 199906. 7843.67   2
   3   1   5 428.183 348.882   2
   3   1   6 277014. 10229.8   2
   3   1   6 268339. 9876.51   1
   3   1   7 30040.8 2337.33   1
   3   1   7 32092.9 2560.06   2
   3   1   8 24693.3 2286.23  25
   3   1   8 25019.6 2119.06   1
   3   1   8 21994.1 2161.15   2
   3   1   9 77247.1 4585.85  25
   3   1   9 75625.6 4045.62   1
   3   1  10 904.255 555.429  25
  -3  -1 -11 172754. 7624.72   6
   3   1  11 172942. 7934.02  25
   3   1  12 5213.47 1094.66  25
   3   1  13 78202.4 4401.63  25
   3   1  14 89882.0 4420.00  25
   3   1  15 11622.3 1149.14  25
   3   1  16 632.577 189.961  25
   3   1  16 950.924 252.884  22
   3   2 -17 4820.32 583.447  21
   3   2 -16 184.899 241.346  21
   3   2 -15 149425. 6257.80  21
   3   2 -15 141766. 5977.12  20
  -3  -2  14 7328.37 1061.63  24
   3   2 -14 8657.19 1302.50  21
   3   2 -14 8487.25 1259.30  20
  -3  -2  13 47948.0 3056.63  24
   3   2 -13 41756.3 3167.28  21
   3   2 -13 41542.5 3126.23  20
   3   2 -13 40020.0 2967.17  10
   3   2 -12 28443.5 2612.97  21
   3   2 -12 28689.5 2657.89  20
   3   2 -12 26156.8 2351.02  10
   3   2 -11 224.462 323.729  21
   3   2 -11 400.837 275.788  20
   3   2 -10 35961.4 3127.52  20
   3   2 -10 25290.4 2211.37  10
   3   2  -9 7875.92 1159.87   7
   3   2  -9 9355.77 1604.60  20
   3   2  -9 8652.27 1132.09   4
   3   2  -8 39194.9 2995.47   7
   3   2  -8 37616.1 2515.97   4
   3   2  -7 271059. 10755.4   7
   3   2  -7 252935. 9207.32   4
   3   2  -6 106424. 4635.85   4
   3   2  -6 102506. 5959.35   7
   3   2  -5 547385. 16411.3   4
   3   2  -5 455847. 18168.9   7
   3   2  -4 7225.38 1358.45   7
   3   2  -3 270894. 10530.4   7
   3   2  -2 17234.2 1752.41   7
   3   2  -1 59575.1 3306.61   7
   3   2  -1 66472.3 3082.18   2
   3   2   0 3781.53 815.616   2
   3   2   0 3696.33 679.242   7
   3   2   1 1224.67 580.376   2
   3   2   2 97289.1 5332.66   2
   3   2   3 136410. 6610.53   2
   3   2   4 302481. 10897.1   1
   3   2   4 302653. 11593.9   2
   3   2   5 191645. 7747.08   1
   3   2   6 1141.63 487.957   1
   3   2   7 90702.8 4858.97  25
   3   2   7 98761.8 4967.64   1
   3   2   8 51756.7 3603.39  25
   3   2   8 55832.3 3546.73   1
   3   2   9 1367.41 515.405   1
   3   2   9 2343.44 722.854  25
   3   2  10 17268.4 2060.79  25
  -3  -2 -10 19580.3 2013.40   6
   3   2  11 9919.48 1473.57  25
   3   2  12 82617.6 4544.85  25
   3   2  13 5599.45 939.264  25
   3   2  14 45691.0 2496.73  25
   3   2  15 16412.4 1021.14  25
   3   2  15 16476.6 1201.68  22
   3   3 -17 22590.9 1407.07  21
   3   3 -16 5898.13 844.998  21
   3   3 -15 19229.5 1806.07  21
   3   3 -14 127450. 5859.01  21
   3   3 -14 109812. 5449.73  20
   3   3 -13 30030.2 2659.35  21
   3   3 -13 34096.0 2832.29  20
   3   3 -12 215764. 8990.45  21
   3   3 -12 221420. 9463.76  20
   3   3 -12 194689. 8297.22  10
   3   3 -11 39275.9 2687.88  12
   3   3 -11 36506.9 2997.96  21
   3   3 -11 37642.7 3470.23  20
   3   3 -11 35972.4 2779.01  10
   3   3 -10 76856.4 4224.89   4
   3   3 -10 79715.0 4200.01  12
   3   3 -10 78702.6 5407.43  20
   3   3 -10 78061.3 4321.58  10
   3   3 -10 73006.5 4130.36  17
   3   3  -9 1214.00 481.194   4
   3   3  -9 2055.65 599.143  12
   3   3  -9 1282.69 698.473  20
   3   3  -9 1316.12 551.309  17
   3   3  -8 339.133 273.601   4
   3   3  -7 101843. 4902.00   4
   3   3  -6 25566.2 2082.20   4
   3   3  -6 24813.1 2962.89   7
   3   3  -5 60909.0 3392.44   4
   3   3  -5 59209.4 4712.03   7
   3   3  -4 313984. 11384.9   4
   3   3  -4 362857. 13487.7   7
   3   3  -3 28811.4 2256.81   4
   3   3  -3 32042.2 2592.51   1
   3   3  -2 148072. 7209.89   1
   3   3  -1 9019.00 1546.42   1
   3   3   0 6381.37 1242.14   1
   3   3   1 278768. 10968.9   1
   3   3   2 1148.53 494.615   1
   3   3   3 184321. 7878.91   1
   3   3   4 20366.2 2063.61   1
   3   3   5 147559. 6739.12   1
   3   3   6 124232. 5865.01  25
   3   3   6 128550. 6145.89   1
   3   3   7 23346.6 2273.43  25
   3   3   7 27657.8 2461.05   1
   3   3   8 29889.1 2674.99  25
   3   3   9 10962.3 1569.17  25
   3   3  10 664.038 493.044  25
   3   3  11 60728.7 3623.42  25
   3   3  12 2639.81 609.917  25
   3   3  12 2462.64 672.948  22
   3   3  13 50172.4 2832.61  22
   3   3  13 49463.8 2428.81  25
   3   3  14 2352.93 447.721  22
   3   4 -17 14506.4 984.345  21
   3   4 -16 8467.78 944.057  21
   3   4 -15 68429.3 3564.99  21
   3   4 -14 53198.0 3305.41  21
   3   4 -13 137458. 5656.61  12
   3   4 -13 141052. 6438.74  21
   3   4 -12 94.4282 235.024  12
   3   4 -12-44.6910 237.511  21
   3   4 -11 42857.8 2940.87  12
   3   4 -11 39738.1 3059.28  21
   3   4 -10 2914.78 777.858  12
   3   4 -10 1531.67 592.835  21
   3   4 -10 2315.08 711.384  17
   3   4  -9 2685.55 750.518   4
   3   4  -9 2232.83 679.033  12
   3   4  -9 3670.33 754.507  17
   3   4  -9 2310.83 694.577  26
   3   4  -8 458.235 327.619   9
   3   4  -8 462.402 399.348  26
   3   4  -8 875.968 456.246   4
   3   4  -8 370.424 219.427  12
   3   4  -8 614.377 373.923  17
   3   4  -7 23607.6 2408.02  12
   3   4  -7 20691.3 1780.85  17
   3   4  -7 21145.5 2074.14   4
   3   4  -7 22318.0 1973.35   9
   3   4  -6 109031. 5411.51   4
   3   4  -5 160669. 7036.88   4
   3   4  -4 127715. 6113.02   4
   3   4  -3 223041. 9259.76   4
   3   4  -2 527.771 411.131   1
   3   4  -2 693.124 376.797   4
   3   4  -1 50852.5 3985.39   4
   3   4  -1 52586.7 4108.61   1
   3   4   0 19415.7 2452.61   4
   3   4   0 22494.2 2658.03   1
   3   4   1 2133.10 882.658   4
   3   4   1 3693.97 1059.46   1
   3   4   2 5759.17 1225.19   1
   3   4   3 24388.9 2517.84   1
   3   4   4 299820. 11305.9  22
   3   4   4 271754. 11287.9   1
   3   4   5 10575.5 1736.71  22
   3   4   5 12010.5 1685.86   1
   3   4   6 139250. 6787.24   1
   3   4   6 151309. 7922.71  22
   3   4   7 73195.5 5257.25  22
   3   4   8-991.045 636.795  22
   3   4   9 29023.7 2838.49  22
   3   4  10 3496.26 871.241  22
   3   4  11-205.567 362.672  22
   3   4  12 27444.9 1935.06  22
   3   4  13 16352.6 1115.15  22
   3   4  13 6679.16 730.615  17
   3   5 -16 1805.03 346.915  21
   3   5 -16 1677.79 295.235  13
   3   5 -15 60394.6 2918.42  21
   3   5 -14 36084.8 2348.75  21
   3   5 -13 2036.01 543.499  12
   3   5 -13 4074.72 824.434  21
   3   5 -12 205638. 7937.26  12
   3   5 -12 196226. 7995.53  21
   3   5 -11 721.401 502.738  12
   3   5 -11 655.735 419.632  21
   3   5 -11 1703.34 611.230  17
   3   5 -10 54547.9 3580.13  26
   3   5 -10 64356.4 3939.03  12
   3   5 -10 56859.1 3622.66  21
   3   5 -10 59198.4 3720.50  17
   3   5  -9 9208.76 1289.68  26
   3   5  -9 9752.11 1523.12  12
   3   5  -9 8934.53 1300.63  21
   3   5  -9 6937.05 1187.00  17
   3   5  -8 94.1835 145.126   9
   3   5  -8 358.048 226.378  26
   3   5  -8 336.555 342.671  12
   3   5  -8 17.2517 227.429  17
   3   5  -7 63071.6 4170.78   4
   3   5  -7 79977.1 5264.56  12
   3   5  -7 68192.5 3824.11  17
   3   5  -7 66460.2 3581.29  26
   3   5  -7 68552.2 3843.71   9
   3   5  -6 9465.35 1512.98   4
   3   5  -6 8507.22 1726.28  12
   3   5  -6 8612.03 1188.69  17
   3   5  -6 9868.50 1267.71   9
   3   5  -5 120531. 7505.14  12
   3   5  -5 135213. 6865.45   4
   3   5  -5 136354. 5812.90  17
   3   5  -5 128110. 5622.57   9
   3   5  -4 77586.9 3938.96  17
   3   5  -4 77209.9 5036.32   4
   3   5  -4 70906.5 3671.37   9
   3   5  -3 115576. 5026.36   9
   3   5  -3 111003. 6443.05  12
   3   5  -3 111899. 5076.77  13
   3   5  -3 119297. 5295.60  17
   3   5  -3 124835. 6941.87   4
   3   5  -2 212320. 8821.26  12
   3   5  -2 197341. 9838.55   4
   3   5  -2 196743. 7598.02  13
   3   5  -2 209105. 7983.41  17
   3   5  -1 21487.8 2576.26   1
   3   5  -1 18779.0 2540.70   4
   3   5  -1 23354.7 1810.70  13
   3   5  -1 22997.3 1971.94  17
   3   5   0 73754.6 3936.57  17
   3   5   0 67255.7 4770.88   4
   3   5   0 66156.3 5132.70   1
   3   5   1 416.729 237.396  22
   3   5   1 1184.83 677.052   1
   3   5   1 757.590 407.808  17
   3   5   2 166.531 249.603  22
   3   5   2 507.492 371.358  17
   3   5   2 125.893 473.591   1
   3   5   3 58787.6 4438.17   1
   3   5   3 54074.6 3690.47  17
   3   5   3 59731.3 3786.80  22
   3   5   4 266.147 304.459  22
   3   5   5 146446. 7558.76  22
   3   5   6 2859.33 1025.10  22
   3   5   7 116974. 6635.94  22
   3   5   8 30121.3 2874.12  22
   3   5   9 281.150 431.374  22
   3   5  10 13292.9 1439.51  22
   3   5  10 13120.3 1423.89  17
   3   5  11 60209.5 2822.12  22
   3   5  11 47052.5 2548.38  17
   3   5  12 33885.0 1443.76  22
   3   5  12 10552.7 819.376  17
   3   6 -15 2083.78 351.253  13
   3   6 -14 22465.1 1613.17  13
   3   6 -14 21655.4 1383.74  21
   3   6 -13 24830.4 1710.28  21
   3   6 -13 24414.3 1732.73  12
   3   6 -12 34037.8 2386.43  12
   3   6 -12 37204.6 2368.51  21
   3   6 -11 72269.9 3939.80  12
   3   6 -11 63296.6 3525.13  21
   3   6 -11 60363.9 3725.14  17
   3   6 -10 3739.78 939.667  26
   3   6 -10 6213.50 1168.82  12
   3   6 -10 4971.29 1009.02  17
   3   6  -9 71836.5 4114.43  26
   3   6  -9 76310.1 4854.09  12
   3   6  -9 71384.3 4196.95  17
   3   6  -8 7051.34 1145.87  26
   3   6  -8 6966.55 1490.97  12
   3   6  -8 7465.50 1221.39  17
   3   6  -7 21739.3 2876.06  12
   3   6  -7 22160.5 2102.94  17
   3   6  -7 21165.7 1946.90  26
   3   6  -6 15961.0 2550.63  12
   3   6  -6 10925.6 1589.16  13
   3   6  -6 13038.0 1570.48  17
   3   6  -5 2343.87 747.296  13
   3   6  -5 2760.30 1038.33  12
   3   6  -5 3804.85 791.626  17
   3   6  -4 224190. 10874.6  12
   3   6  -4 233429. 9190.94  13
   3   6  -4 251122. 9290.35  17
   3   6  -3 3203.59 755.043  13
   3   6  -3 4205.75 1131.12  12
   3   6  -3 3711.82 811.424  17
   3   6  -2 134234. 5895.82  13
   3   6  -2 140726. 6202.29  17
   3   6  -1 37380.5 2449.88  22
   3   6  -1 36709.7 2725.67  17
   3   6  -1 36847.6 2505.00  13
   3   6   0 107.888 222.523  22
   3   6   0 153.336 289.196  17
   3   6   1 4018.57 853.600  22
   3   6   1 4053.19 938.045  17
   3   6   2 17527.0 1854.55  22
   3   6   2 15639.7 1911.59  17
   3   6   3 11584.4 1600.53  22
   3   6   3 8538.43 1442.71  17
   3   6   4 97748.7 5513.86  22
   3   6   4 97835.7 5611.80  17
   3   6   5 16978.0 2098.62  22
   3   6   5 15061.5 2004.03  17
   3   6   6 115940. 6182.89  22
   3   6   6 112689. 6099.68  17
   3   6   7 40.1996 273.178  22
   3   6   7 168.786 347.654  17
   3   6   8 48528.6 3102.41  22
   3   6   8 47718.4 3044.11  17
   3   6   9 43476.9 2522.62  22
   3   6   9 39765.2 2353.17  17
   3   6  10 1106.46 295.539  22
   3   6  10 428.533 193.095  17
   3   7 -14 2318.52 353.625  13
   3   7 -14 2924.81 405.780  23
   3   7 -13 62664.4 2971.84  13
   3   7 -13 59140.6 2882.42  23
   3   7 -12 42442.9 2802.42  13
   3   7 -11 33445.0 2831.76  13
   3   7 -11 35972.7 2483.10  12
   3   7 -10 50095.0 3951.84  13
   3   7 -10 57875.2 3461.64  17
   3   7  -9 10154.3 1376.58  26
   3   7  -9 12038.9 1856.55  13
   3   7  -9 12032.3 1473.13  17
   3   7  -9 14652.0 1963.26  12
   3   7  -8 2552.98 685.024  26
   3   7  -8 1349.71 562.701  17
   3   7  -8 1430.68 606.468  13
   3   7  -7 6373.33 1061.85  26
   3   7  -7 6220.31 1542.37  12
   3   7  -7 5449.81 993.019  17
   3   7  -7 4490.44 1076.58  13
   3   7  -6 6196.53 988.279  26
   3   7  -6 4819.59 1009.63  13
   3   7  -6 2786.64 1089.94  12
   3   7  -6 5568.47 1001.94  17
   3   7  -5 79457.5 4510.99  13
   3   7  -5 75166.9 5582.09  12
   3   7  -5 91109.2 4542.29  17
   3   7  -4 700.384 425.638  13
   3   7  -4 553.353 310.728  12
   3   7  -4 240.608 324.014  17
   3   7  -3 135142. 6118.70  17
   3   7  -3 133744. 6016.78  13
   3   7  -3 143358. 6475.93  12
   3   7  -2 91754.1 4191.66  22
   3   7  -2 85675.8 4580.23  17
   3   7  -1 70536.6 3605.06  22
   3   7  -1 67036.5 3947.46  17
   3   7   0 76633.2 3899.72  22
   3   7   0 70073.6 4170.98  17
   3   7   1 1231.53 485.599  22
   3   7   1 1488.62 620.787  17
   3   7   2 10869.7 1415.22  22
   3   7   2 10638.5 1535.09  17
   3   7   3 17806.3 1889.04  22
   3   7   3 18968.1 2105.69  17
   3   7   4 44855.4 3140.60  22
   3   7   4 40537.8 3197.48  17
   3   7   5 29212.8 2415.86  22
   3   7   5 27698.1 2428.47  17
   3   7   6 19910.5 1812.74  22
   3   7   6 18295.6 1727.77  17
   3   7   7 110836. 4618.91  22
   3   7   7 105482. 4420.03  17
   3   7   8 760.702 284.210  22
   3   7   8 331.685 166.927  17
   3   8 -12 85933.4 3384.22  13
   3   8 -11 5674.53 691.637  23
   3   8 -11 7825.72 966.171  13
   3   8 -10 20007.7 1844.78  13
   3   8 -10 16570.0 1362.14  23
   3   8  -9 63160.1 3299.91  26
   3   8  -9 61089.3 3766.16  13
   3   8  -9 55494.0 2936.23  23
   3   8  -9 69313.5 3385.06  17
   3   8  -8-86.2335 334.760  26
   3   8  -8-20.8955 258.221  13
   3   8  -8-339.970 211.907  23
   3   8  -8 102.801 222.284  17
   3   8  -7 17701.5 2306.96  12
   3   8  -7 24846.5 2213.35  13
   3   8  -7 24361.8 1925.71  26
   3   8  -7 23117.8 1911.84  17
   3   8  -6 235.151 276.393  26
   3   8  -6 448.369 327.863  13
   3   8  -6 355.497 289.920  17
   3   8  -5 339.945 308.597  26
   3   8  -5 900.550 388.300  17
   3   8  -4 31040.5 2314.22  17
   3   8  -3 14680.8 1563.21  17
   3   8  -2 80164.7 3574.68  22
   3   8  -2 81092.8 4205.22  17
   3   8  -1 953.216 348.916  22
   3   8  -1 1819.00 591.036  17
   3   8   0 22738.3 1752.88  22
   3   8   0 29485.9 2345.96  17
   3   8   1 52768.5 2890.94  22
   3   8   1 52195.5 3354.39  17
   3   8   2 139.015 179.486  22
   3   8   2 203.696 223.859  17
   3   8   3 14488.1 1553.71  17
   3   8   3 16111.2 1437.25  22
   3   8   4 11396.5 1118.03  22
   3   8   4 10023.6 1121.86  17
   3   8   5 1739.70 384.502  22
   3   8   5 1791.44 365.236  17
   3   9  -8 5412.69 676.676  17
   3   9  -7 622.149 309.253  26
   3   9  -7 325.068 182.703  17
   3   9  -6 6567.55 844.649  17
   3   9  -6 8850.89 931.456  26
   3   9  -5 8497.91 928.739  26
   3   9  -5 7952.63 972.284  17
   3   9  -4 33192.0 2013.33  26
   3   9  -4 36671.9 2269.46  17
   3   9  -3 64812.7 3088.14  26
   3   9  -3 67646.6 3394.91  17
   3   9  -2 13435.6 1198.09  26
   3   9  -2 14144.0 1390.37  17
   3   9  -1 110199. 4772.07  17
   3   9   0 1452.70 394.127  17
   3   9   1 11853.6 1053.69  17
  -4  10   0 14570.9 1202.44  15
  -4  10  -1 12657.9 1194.78  15
  -4  10  -2 24568.2 1784.80  15
  -4  10  -3 5038.42 787.119  15
  -4  10  -4 81312.3 3859.00  15
  -4  10  -5 36436.9 2334.43  15
  -4  10  -6 92592.8 4141.13  15
  -4   9   4 1866.38 379.036  11
  -4   9   3 72491.1 3231.31  11
  -4   9   3 80020.3 3596.51  15
  -4   9   2 3528.16 712.404  15
  -4   9   2 3648.20 667.868  11
  -4   9   2 1702.41 404.553  19
  -4   9   1 71754.3 3471.93  19
  -4   9   1 83422.5 3984.77  15
  -4   9   0-214.180 399.427  15
  -4   9   0 290.976 217.750  19
  -4   9  -1 11713.4 1219.95  19
  -4   9  -1 16215.1 1536.57  15
  -4   9  -2 633.187 369.871  15
  -4   9  -2-85.2410 270.471  19
  -4   9  -3-112.556 206.552  15
  -4   9  -3 61.3595 169.388  19
  -4   9  -3 32.3591 301.538  18
  -4   9  -4 72687.1 3484.67  18
  -4   9  -4 77837.5 3909.09  15
  -4   9  -5 5997.26 974.873  15
  -4   9  -5 4766.93 776.196  18
  -4   9  -6 28569.8 1964.18  18
  -4   9  -6 29631.7 2268.52  15
  -4   9  -7 37167.6 2304.23  18
  -4   9  -7 39998.8 2709.63  15
  -4   9  -8 2026.59 588.479  15
  -4   9  -8 2015.94 493.301  18
  -4   9  -9 11575.8 1094.35  18
  -4   9  -9 9939.81 1199.21  15
  -4   9 -10 4422.06 689.212  15
  -4   8   8 18408.0 1076.67  11
  -4   8   7 8045.18 807.689  11
  -4   8   6 5660.70 780.266  11
  -4   8   5 16225.0 1486.73  11
  -4   8   5 15038.8 1604.65  15
  -4   8   4 105704. 4960.41  11
  -4   8   4 107966. 5205.95  15
  -4   8   3 49102.7 3258.92  11
  -4   8   3 55527.9 3445.00  15
  -4   8   2 99986.4 5407.32  11
  -4   8   2 115621. 5402.84  15
  -4   8   1-91.8542 365.463  15
  -4   8   1 555.229 326.324  19
  -4   8   1-89.1978 317.212  11
  -4   8   0 12552.7 1839.22  11
  -4   8   0 15686.7 1548.56  19
  -4   8   0 18587.3 1828.76  15
  -4   8  -1 1650.46 573.723  15
  -4   8  -1 1323.71 426.828  19
  -4   8  -1 2520.60 644.875  18
  -4   8  -2 39730.9 2596.21  19
  -4   8  -2 43643.1 2642.60  18
  -4   8  -2 42159.3 2880.69  15
  -4   8  -3 473.394 376.716  15
  -4   8  -3 766.018 361.521  19
  -4   8  -3-155.544 333.085  18
  -4   8  -4 5790.44 1028.92  15
  -4   8  -4 4844.43 881.369  19
  -4   8  -4 4517.50 821.198  18
  -4   8  -5 78441.7 4025.40  18
  -4   8  -5 79139.4 4341.02  15
  -4   8  -6 58857.7 3490.71  18
  -4   8  -6 70058.8 4036.10  15
  -4   8  -7 77599.4 4256.08  18
  -4   8  -7 87073.3 4716.22  15
  -4   8  -8 84109.9 4526.40  18
  -4   8  -8 94350.8 5059.58  15
  -4   8  -9 369.632 357.167  15
  -4   8  -9 335.523 404.872  18
  -4   8 -10 15641.5 1656.13  18
  -4   8 -10 17176.7 1877.35  15
  -4   8 -11 1486.29 516.963  15
  -4   8 -11 697.991 322.384  18
  -4   8 -12 18844.9 1371.99  18
  -4   8 -12 20738.7 1545.65  15
  -4   7  10 1483.91 261.800  11
  -4   7   9 69968.9 3055.90  11
  -4   7   8-92.5350 200.007  11
  -4   7   7 19324.8 1707.44  11
  -4   7   6 11093.6 1363.30  11
  -4   7   6 10196.2 1428.61  15
  -4   7   5 6562.40 1174.21  15
  -4   7   5 6666.75 1131.21  11
  -4   7   4 50542.9 3434.45  11
  -4   7   4 54497.5 3608.52  15
  -4   7   3 19945.0 2043.10  15
  -4   7   2 20464.1 2027.83  15
  -4   7   1 117614. 5633.14  15
  -4   7   0 7518.12 1192.59  15
  -4   7  -1 16409.1 1573.70  19
  -4   7  -1 17461.4 1825.04  15
  -4   7  -2 723.281 473.838  15
  -4   7  -2 945.036 412.105  19
  -4   7  -2 323.350 271.229  18
  -4   7  -3 8823.28 1167.91  19
  -4   7  -3 11058.2 1294.62  18
  -4   7  -3 9362.06 1346.58  15
  -4   7  -4 54858.2 3263.70  19
  -4   7  -4 57252.9 3373.30  18
  -4   7  -4 60693.2 3711.86  15
  -4   7  -5 22532.0 2195.69  15
  -4   7  -5 21785.9 1969.03  19
  -4   7  -5 20955.6 1961.61  18
  -4   7  -6 109433. 5809.22  15
  -4   7  -6 122593. 5686.85  23
  -4   7  -6 123301. 5714.85  18
  -4   7  -7 75103.6 4554.02  15
  -4   7  -7 71415.4 3994.71  23
  -4   7  -7 72406.0 4260.90  18
  -4   7  -8 95395.6 5443.42  15
  -4   7  -8 99228.0 5328.84  18
  -4   7  -9 78636.8 4903.56  15
  -4   7  -9 74974.0 4636.85  18
  -4   7 -10 17224.0 2122.69  15
  -4   7 -10 17696.1 2063.92  18
  -4   7 -11 585.366 496.410  15
  -4   7 -11 178.782 425.379  18
  -4   7 -12-51.0022 397.486  15
  -4   7 -12 98.5523 313.080  18
  -4   7 -13 10748.5 1171.36  15
  -4   7 -13 9671.44 1066.48  18
  -4   7 -14 17845.7 1172.78  15
  -4   7 -14 15676.2 1039.77  18
  -4   6  11 26325.5 1435.97  11
  -4   6  10 59110.2 2879.57  11
  -4   6   9 276.962 248.575  11
  -4   6   8 55458.9 3351.02  11
  -4   6   7 26616.8 2305.69  11
  -4   6   7 22371.4 2188.36  15
  -4   6   6 64118.2 3931.33  11
  -4   6   6 58613.6 3857.46  15
  -4   6   5 14919.2 1792.47  15
  -4   6   4 525.446 397.133  15
  -4   6   3 173805. 7330.03  15
  -4   6   2 57627.6 3480.46  15
   4  -6  -1 160120. 7073.54   2
  -4   6   1 164666. 6870.37  15
   4  -6   0 22475.1 2131.90   2
  -4   6   0 27158.2 2202.79  15
  -4   6  -1 830.263 451.833  15
   4  -6   1 679.617 437.750   2
  -4   6  -1 112.306 244.329  14
  -4   6  -2 23701.4 2010.13  14
   4  -6   2 27530.0 2324.91   2
  -4   6  -2 26597.9 2227.66  15
  -4   6  -3 2110.64 661.598  15
   4  -6   3 1908.94 575.172   2
  -4   6  -3 1955.95 559.565  14
  -4   6  -4 15005.5 1724.84  15
  -4   6  -4 19982.0 1931.05  23
  -4   6  -4 17006.1 1658.77  18
  -4   6  -4 16785.4 1686.34  14
   4  -6   4 16777.3 1788.10   2
  -4   6  -5 31313.1 2573.98  15
  -4   6  -5 30775.3 2429.50  23
  -4   6  -5 30226.3 2381.31  18
  -4   6  -5 27864.6 2302.08  14
  -4   6  -6 711.945 406.746  15
  -4   6  -6 1963.59 629.953  14
  -4   6  -6 1689.68 606.228  23
  -4   6  -7 288592. 11217.8  15
  -4   6  -7 283096. 10832.5  14
  -4   6  -7 279219. 10163.1  23
  -4   6  -8 11598.5 1690.52  15
  -4   6  -8 9619.75 1466.01  14
  -4   6  -9 27856.0 2750.93  15
  -4   6  -9 22677.4 2379.95  14
  -4   6 -10 6332.10 1283.72  15
  -4   6 -10 5531.29 1157.16  14
  -4   6 -11 5110.08 1158.31  15
  -4   6 -12 10007.6 1510.58  15
  -4   6 -13 690.542 395.364  15
  -4   6 -14 12751.7 1226.90  15
  -4   6 -15 37187.5 1757.02  15
  -4   6 -15 29952.5 1560.72  18
   4  -5 -13 4958.37 568.189  20
  -4   5  12 36717.0 1868.65  24
  -4   5  12 38268.4 1724.38  11
  -4   5  11 28954.3 1849.20   8
  -4   5  11 28408.4 1841.02  24
  -4   5  11 30189.4 1834.92  11
  -4   5  10 19089.6 1663.06   8
  -4   5  10 19732.8 1661.92  24
  -4   5  10 20477.9 1716.46  11
  -4   5   9 91346.5 4652.01   8
  -4   5   9 94501.3 4583.06  24
  -4   5   9 101411. 4848.80  11
   4  -5  -9 100460. 4499.94  10
  -4   5   8 54206.5 3488.60   8
  -4   5   8 59280.0 3661.49  11
   4  -5  -8 63081.0 3505.38  10
  -4   5   8 59804.9 3797.13  15
  -4   5   7 933.293 454.818   5
  -4   5   7 848.409 469.710  15
  -4   5   7 1210.66 488.180   8
   4  -5  -7 957.602 420.058  10
  -4   5   6 1462.57 606.681   5
  -4   5   6 1170.43 514.845  15
   4  -5  -6 1451.76 558.061  10
  -4   5   5 5468.56 1093.33   5
  -4   5   5 4461.69 932.035  15
   4  -5  -5 4629.06 947.830   2
   4  -5  -5 5928.67 1027.88  10
   4  -5  -4 52641.6 3482.61   2
   4  -5  -4 60847.1 3465.89  10
  -4   5   4 55490.4 3353.30  15
   4  -5  -3 10305.0 1393.53   2
   4  -5  -3 10176.7 1277.13  10
  -4   5   3 9272.74 1197.52  15
   4  -5  -2 192215. 7956.76   2
   4  -5  -2 208513. 7784.09  10
  -4   5   2 192402. 7493.00  15
  -4   5   1 102656. 4896.55  14
   4  -5  -1 104727. 5083.92   2
  -4   5   1 105274. 4731.61  15
  -4   5   0 59965.3 3423.71  14
   4  -5   0 64063.1 3661.07   2
  -4   5   0 62432.9 3371.85  15
   4  -5   1 165394. 6822.20   2
  -4   5  -1 156875. 6443.49  15
  -4   5  -2 11017.8 1310.31  15
   4  -5   2 9369.37 1265.80   2
  -4   5  -3 3640.95 773.309  15
  -4   5  -3 3174.22 693.456  14
   4  -5   3 4232.81 840.192   2
  -4   5  -4 810.483 418.201  15
  -4   5  -4 607.414 304.568  14
  -4   5  -4 387.724 300.001  23
   4  -5   4 210.064 195.650   2
  -4   5  -5 134215. 6011.10  15
  -4   5  -5 125418. 5768.39  14
  -4   5  -5 132660. 5558.40  23
   4  -5   5 130993. 5924.71   2
   4  -5   6 35134.4 2649.55   2
  -4   5  -6 35633.1 2723.11  15
  -4   5  -6 32871.1 2570.09  14
  -4   5  -7 61512.7 3909.18  15
   4  -5   7 63240.2 3795.81   2
  -4   5  -7 58748.5 3742.20  14
  -4   5  -8 170773. 7768.98  15
  -4   5  -9 24620.7 2524.29  15
  -4   5 -10 81178.7 5064.78  15
  -4   5 -11 247.950 404.958  15
  -4   5 -12 2084.02 755.736  15
  -4   5 -13 7933.53 1246.07  15
  -4   5 -14 4485.77 809.490  15
  -4   5 -14 3413.16 604.818  14
  -4   5 -15 77074.1 3358.61  15
  -4   4  14 11365.4 859.164  24
   4  -4 -14 12195.7 926.330  20
  -4   4  13 652.621 248.365  24
  -4   4  12 9605.59 1130.40  24
   4  -4 -12 9156.76 1024.85  10
  -4   4  11 67226.8 3541.41   8
  -4   4  11 72400.4 3836.35  24
  -4   4  11 70132.8 3399.62  11
   4  -4 -11 81290.1 3888.95  10
  -4   4  10 9316.77 1291.02  24
  -4   4  10 10846.1 1273.10  11
   4  -4 -10 10876.4 1357.46  10
  -4   4   9 78446.8 4340.86  24
  -4   4   9 78783.9 4226.81  11
   4  -4  -9 83680.0 4447.77  10
  -4   4   9 79996.2 4355.19   5
   4  -4  -8 10601.8 1417.56  10
  -4   4   8 8932.32 1280.55  24
  -4   4   8 9375.79 1419.56  15
  -4   4   8 9384.43 1368.53   5
  -4   4   7 22333.2 2088.76  24
   4  -4  -7 21551.8 2080.93  10
  -4   4   7 22120.6 2194.54  15
  -4   4   7 21986.3 2180.42   5
  -4   4   6 133254. 6172.88  24
   4  -4  -6 133253. 6107.32   2
   4  -4  -6 154041. 6483.10  10
  -4   4   6 144216. 6444.26  15
  -4   4   6 149863. 6707.17   5
  -4   4   5 476.734 380.515   5
  -4   4   5 1012.05 461.135  15
   4  -4  -5 704.818 383.020   2
   4  -4  -5 328.316 242.576  10
   4  -4  -4 17988.4 1776.01   2
   4  -4  -4 20877.5 1834.10  10
  -4   4   4 21750.0 2038.28   5
   4  -4  -3 68441.5 3734.60   2
   4  -4  -2 248.992 239.661   2
   4  -4  -1 366755. 12499.0   2
   4  -4   0 3009.45 672.592   2
   4  -4   1 82412.3 4098.84   2
   4  -4   2 21665.8 1847.66   2
   4  -4   3 261.173 245.981   2
   4  -4   4 13098.2 1456.70   2
   4  -4   5 6264.43 1008.98   2
  -4   4  -6 54698.3 3335.56  15
   4  -4   6 56317.3 3418.70   2
  -4   4  -7 197913. 8145.86  15
   4  -4   7 203696. 8192.39   2
  -4   4  -8 48606.9 3378.29  15
   4  -4   8 45969.5 3221.05   2
  -4   4  -9 247979. 10079.1  15
  -4   4 -10 1772.99 691.177  15
  -4   4 -11 2796.18 843.142  15
  -4   4 -12 25239.7 2430.57  15
   4  -4  12 22661.5 1990.52  25
  -4   4 -13 3533.14 800.540  15
   4  -4  13 5158.43 865.347  25
  -4   4 -14 10738.4 1280.72  15
   4  -4  14 9968.81 1049.78  25
  -4   4 -15 2531.03 527.287  15
  -4   4 -16 33343.1 1657.19  15
  -4   3  15 3641.71 481.347  24
   4  -3 -15 3569.68 455.156  20
  -4   3  14 8279.82 943.953  24
   4  -3 -14 8431.00 948.438  20
  -4   3  13 32497.4 2297.68  24
   4  -3 -13 34416.9 2237.69  10
  -4   3  12 31062.4 2365.76  24
   4  -3 -12 23188.3 2006.28  10
  -4   3  11 8096.28 1255.08  24
   4  -3 -11 9499.92 1337.11  10
  -4   3  10 111530. 5519.55  24
  -4   3  10 104512. 4873.78  11
   4  -3 -10 111420. 5504.23  10
  -4   3   9 49814.8 3364.73  24
   4  -3  -9 43146.7 3012.86   7
   4  -3  -9 49576.7 3373.56  10
  -4   3   9 49137.9 3158.18   5
   4  -3  -8 160366. 7106.22  10
  -4   3   8 160744. 6934.34   5
   4  -3  -7 62338.3 3744.69  10
  -4   3   7 64573.5 3821.42  15
  -4   3   7 60310.2 3687.39   5
   4  -3  -6 26327.9 2056.77   2
   4  -3  -6 32174.9 2405.91  10
  -4   3   6 30551.1 2402.90   5
   4  -3  -5 6737.96 965.354   2
  -4   3   5 6459.34 1053.53   5
   4  -3  -4 10201.3 1185.65   2
   4  -3  -3 174068. 6718.35   2
   4  -3  -2 95201.7 4311.20   2
   4  -3  -1 41232.9 2493.57   2
   4  -3   0 443869. 14337.1   2
   4  -3   1 74816.2 3649.22   2
   4  -3   2 202474. 7511.21   2
   4  -3   3 61869.5 3281.58   2
   4  -3   4 48689.0 2890.54   2
   4  -3   5 12369.0 1397.40   2
   4  -3   6 1479.47 510.588   2
   4  -3   7 229448. 9040.93   2
   4  -3   8 110097. 5533.62   2
   4  -3   9 32323.1 2667.36   2
   4  -3   9 26313.8 2280.76  25
   4  -3  10 200530. 8277.39  25
   4  -3  11 21832.9 2104.22  25
   4  -3  12 8980.30 1310.34  25
   4  -3  13 6497.74 1056.40  25
  -4   3 -14 4315.84 799.988  15
   4  -3  14 5524.05 898.384  25
  -4   3 -15 32465.0 2044.74  15
   4  -3  15 36593.6 2128.71  25
  -4   3 -16 3481.41 471.747  15
   4  -3  16 3121.69 430.603  25
  -4   2  16 9617.57 715.650  24
  -4   2  15 391.423 233.922  24
   4  -2 -15 560.485 247.144  20
  -4   2  14 56487.2 3118.32  24
   4  -2 -14 56835.0 3117.83  20
   4  -2 -14 58624.7 3102.23  10
  -4   2  13 3996.12 820.957  24
   4  -2 -13 1540.83 515.631  20
   4  -2 -13 3394.03 743.677  10
  -4   2  12 4062.23 874.218  24
   4  -2 -12 2174.92 673.990  10
  -4   2  11 76961.3 4446.23  24
   4  -2 -11 73571.6 4354.53  10
  -4   2  10-100.448 247.051  24
   4  -2 -10 142.028 262.895  10
   4  -2  -9 214932. 8711.62   7
   4  -2  -9 250097. 9569.22  10
   4  -2  -8 13775.1 1609.93   7
   4  -2  -8 16602.5 1821.27  10
  -4   2   8 16741.1 1608.56   5
   4  -2  -7 64696.1 3885.90  10
  -4   2   7 73659.2 3787.73   5
   4  -2  -5 36162.8 2210.87   2
   4  -2  -4 5371.79 779.743   2
   4  -2  -3 3931.14 650.174   2
   4  -2  -2 11041.4 1118.39   2
   4  -2  -1 269044. 9140.36   2
   4  -2   0 55891.4 2864.09   2
   4  -2   1 238054. 8308.72   2
   4  -2   2 268.295 226.212   2
   4  -2   3 12889.4 1291.75   2
   4  -2   3 10954.7 1035.70   7
   4  -2   4 167094. 6621.46   2
   4  -2   5 30894.1 2302.44   2
   4  -2   6 72909.7 4025.70   2
   4  -2   7 2387.91 690.114   2
   4  -2   8 204046. 8181.74  25
   4  -2   8 202539. 8521.99   2
   4  -2   9 126170. 6040.03  25
   4  -2   9 127014. 6244.34   2
   4  -2  10 85333.6 4789.08  25
   4  -2  11 28866.7 2577.22  25
   4  -2  12 702.641 482.596  25
   4  -2  13 1387.68 516.749  25
   4  -2  14 176.802 202.946  25
  -4   2 -15 669.213 287.656  15
   4  -2  15 680.529 328.613  25
  -4   2 -16 37118.0 1759.77  15
   4  -2  16 46327.6 2121.39  25
  -4   1  16 90865.2 3493.97  24
   4  -1 -16 93399.6 3502.86  20
  -4   1  15 32917.9 2072.49  24
   4  -1 -15 34304.4 2146.73  20
  -4   1  14 866.320 378.070  24
   4  -1 -14 617.979 366.793  20
   4  -1 -14 1300.60 504.497  10
  -4   1  13 27785.5 2331.08  24
   4  -1 -13 27070.3 2313.78  20
   4  -1 -13 26082.9 2288.47  10
   4  -1 -12 11632.5 1574.36  10
  -4   1  12 12291.4 1597.79  24
   4  -1 -11 53838.7 3289.04  21
   4  -1 -11 60721.9 3938.28  10
   4  -1 -10 9665.48 1477.54  10
   4  -1  -9 1733.48 565.883   7
   4  -1  -9 1464.35 561.155  10
   4  -1  -8 214054. 8611.00   7
   4  -1  -8 234721. 9104.76  10
   4  -1  -7 22990.3 2079.03   7
   4  -1  -6 112276. 5402.67   7
   4  -1  -5 5780.71 1047.18   7
   4  -1  -4 101404. 4045.93   2
   4  -1  -3 126646. 4823.56   2
   4  -1  -2 3003.02 523.283   2
   4  -1  -1 279678. 9825.81   7
   4  -1  -1 262799. 8900.63   2
   4  -1   0 185919. 7062.49   7
   4  -1   0 184506. 6602.62   2
   4  -1   1 92096.6 4008.76   2
   4  -1   1 97550.9 4182.95   7
   4  -1   2 793184. 23759.6   2
   4  -1   2 778822. 23461.2   7
   4  -1   3 19658.1 1658.43   2
   4  -1   3 19583.3 1364.01   7
   4  -1   4 49201.6 2976.18   2
   4  -1   5 1980.15 584.633   2
   4  -1   6 2275.13 659.977   2
   4  -1   7 94909.6 5047.73   2
   4  -1   8 7243.08 1242.02   2
   4  -1   8 3950.41 899.344  25
   4  -1   9 174629. 7683.09  25
   4  -1   9 171388. 7746.81   2
   4  -1  10 66318.0 4238.04  25
   4  -1  11 33425.7 2867.37  25
   4  -1  12 101419. 5368.93  25
   4  -1  13 675.523 407.461  25
   4  -1  14 7142.39 1055.90  25
   4  -1  15 51456.2 2787.42  25
   4  -1  16 5891.22 644.627  25
  -4   0  16 14031.2 1043.95  24
   4   0 -16 11910.3 1022.33  20
   4   0 -15 5592.31 691.031  21
  -4   0  15 4594.82 726.051  24
   4   0 -15 5224.07 824.080  20
  -4   0  14 89664.7 4378.59  24
   4   0 -14 85526.6 4054.66  21
   4   0 -14 90072.9 4496.85  20
   4   0 -14 94974.0 4647.71  10
  -4   0  13 30537.4 2449.19  24
   4   0 -13 29916.8 2275.48  21
   4   0 -13 28374.5 2444.97  20
   4   0 -13 30677.0 2545.85  10
  -4   0  12 30018.8 2549.32  24
   4   0 -12 31578.7 2483.36  21
   4   0 -12 30434.8 2605.21  20
   4   0 -12 32940.7 2739.40  10
   4   0 -11 425.006 426.898  21
   4   0 -11 124.416 267.567  20
   4   0 -10 13685.4 1743.35  10
   4   0  -9 137454. 6103.25   7
   4   0  -9 143935. 6575.26  10
   4   0  -8 40016.4 2834.63   7
   4   0  -8 40700.3 2893.43  10
   4   0  -7 129543. 6008.10   7
   4   0  -6 984.802 513.676   7
   4   0  -5 57353.3 3686.49   7
   4   0  -4 342.071 215.967   7
   4   0  -3 88165.5 4656.16   7
   4   0  -2 7309.35 805.869   2
   4   0  -2 6450.75 1054.65   7
   4   0  -1 11456.6 1095.84   2
   4   0  -1 12550.8 1359.76   7
   4   0   0 308117. 10300.0   2
   4   0   0 312810. 10556.9   7
   4   0   1 269828. 9365.64   7
   4   0   1 281402. 9534.44   2
   4   0   2 22569.3 1821.72   2
   4   0   2 23298.2 1624.70   7
   4   0   3 96737.5 4564.47   2
   4   0   3 92409.8 3876.31   7
   4   0   4 62234.9 3572.48   2
   4   0   5 13305.3 1561.05   2
   4   0   6 2481.94 702.976   2
   4   0   7 1764.36 629.700   2
   4   0   7 1847.30 627.642  25
   4   0   8 112731. 5903.44  25
   4   0   8 127256. 5721.61   1
   4   0   8 123021. 6105.82   2
   4   0   9 2551.47 778.390   2
   4   0   9 2581.01 742.219  25
   4   0  10 337640. 12918.5  25
   4   0  11 29707.0 2735.24  25
   4   0  12 10612.9 1521.04  25
   4   0  13 17385.8 1825.37  25
   4   0  14 21985.6 1840.41  25
   4   0  15 13066.9 1172.94  25
  -4  -1  16 114055. 4091.43  24
   4   1 -16 110481. 4103.47  21
   4   1 -16 114206. 4395.20  20
  -4  -1  15 5209.93 766.104  24
   4   1 -15 5536.18 790.998  21
   4   1 -15 6301.12 904.806  20
   4   1 -14 43944.2 2797.86  21
   4   1 -14 45619.2 2951.01  20
   4   1 -14 43891.8 2893.75  10
  -4  -1  14 44383.3 2779.84  24
  -4  -1  13 13863.0 1575.59  24
   4   1 -13 13963.9 1599.37  21
   4   1 -13 14519.8 1697.29  20
   4   1 -13 12543.5 1560.95  10
   4   1 -12 2205.34 708.788  21
   4   1 -12 1816.64 721.474  20
   4   1 -12 2115.73 660.643  10
   4   1 -11 20394.1 2205.89  20
   4   1 -11 20787.1 2101.18  10
   4   1 -10 1770.91 677.222  20
   4   1 -10 2321.94 705.701  10
   4   1  -9 34143.0 2623.68   7
   4   1  -9 34540.4 2482.03  12
   4   1  -9 32990.3 2871.88  20
   4   1  -9 28732.1 2408.67  10
   4   1  -8 64671.8 3971.96   7
   4   1  -8 63547.3 3538.44  12
   4   1  -8 58150.7 3900.25  20
   4   1  -8 59928.1 3526.56  10
   4   1  -8 62901.9 3694.81   9
   4   1  -7 35540.2 2381.47   4
   4   1  -7 36993.9 3025.16   7
   4   1  -6 702946. 22457.6   4
   4   1  -6 781802. 24324.9   7
   4   1  -5 1035.17 601.726   7
   4   1  -4 102983. 5629.28   7
   4   1  -3 203430. 8551.28   7
   4   1  -2 200.695 228.859   7
   4   1  -1 225815. 8529.54   2
   4   1  -1 220639. 8473.07   7
   4   1   0 36025.4 2594.25   2
   4   1   0 28976.9 2137.97   7
   4   1   1 132684. 5826.97   2
   4   1   1 111798. 4932.08   7
   4   1   2 164126. 7019.46   2
   4   1   2 155774. 6049.46   7
   4   1   3 114237. 5560.02   2
   4   1   4 100963. 5201.32   2
   4   1   5 247.561 215.371   2
   4   1   6 5840.98 1101.91   2
   4   1   6 6874.26 1183.30  25
   4   1   6 6172.55 1098.76   1
   4   1   7 142822. 6710.87  25
   4   1   7 139241. 6435.21   1
   4   1   7 138905. 6642.92   2
   4   1   8 22405.8 2368.24  25
   4   1   8 22697.4 2272.51   2
   4   1   8 23757.2 2224.58   1
   4   1   9 119609. 6286.76  25
   4   1  10 3004.65 879.885  25
   4   1  11 104792. 5622.79  25
   4   1  12 62848.9 3895.16  25
   4   1  13 56578.0 3342.99  25
   4   1  14 9968.12 1085.49  25
   4   1  15 1508.01 317.085  25
   4   1  15 849.122 251.740  22
   4   2 -16 14088.1 1107.48  21
  -4  -2  15 27282.0 1662.94  24
   4   2 -15 27016.4 1928.99  21
   4   2 -15 23785.2 1841.85  20
  -4  -2  14 20388.6 1701.72  24
   4   2 -14 21364.9 1917.03  21
   4   2 -14 19281.4 1835.70  20
  -4  -2  13 79666.2 4029.76  24
   4   2 -13 76063.8 4254.39  21
   4   2 -13 67115.7 4124.00  20
   4   2 -13 66108.3 3808.69  10
   4   2 -12 4850.40 1034.51  21
   4   2 -12 4696.11 1034.49  20
   4   2 -12 3889.33 820.449  10
   4   2 -11 12810.0 1456.74  12
   4   2 -11 10256.9 1615.37  20
   4   2 -11 10645.4 1412.02  10
   4   2 -10 25960.9 2181.60  12
   4   2 -10 21474.7 2427.79  20
   4   2 -10 24114.0 2150.49  10
   4   2  -9 30974.6 2444.32  12
   4   2  -9 31499.0 2659.29   7
   4   2  -9 27814.0 2815.68  20
   4   2  -9 26913.9 2259.12  10
   4   2  -8 252706. 9733.39  12
   4   2  -8 270196. 10813.4   7
   4   2  -8 269759. 9686.05   4
   4   2  -8 236299. 10459.2  20
   4   2  -8 260153. 9824.60   9
   4   2  -7 95483.9 4612.79   4
   4   2  -7 96012.8 5805.31   7
   4   2  -7 95305.8 4992.21  16
   4   2  -7 94005.3 4784.36  12
   4   2  -7 87359.4 4524.87   9
   4   2  -6 12679.0 1444.01   4
   4   2  -6 18897.3 2449.34   7
   4   2  -5 113179. 5245.77   4
   4   2  -5 134877. 7266.13   7
   4   2  -4 49277.0 4013.84   7
   4   2  -3 52903.1 3890.01   7
   4   2  -2 1103.80 501.867   7
   4   2  -1 39062.1 2814.71   7
   4   2   0 51478.4 3135.94   7
   4   2   1 17542.5 2116.59   2
   4   2   2 447817. 16272.7   2
   4   2   3 117282. 6288.40   2
   4   2   4 14471.5 1737.55   1
   4   2   4 15291.3 1972.15   2
   4   2   5 74198.0 4308.26  25
   4   2   5 81967.2 4572.88   1
   4   2   6 8880.39 1369.25   1
   4   2   6 9424.94 1447.77  25
   4   2   7 7765.97 1363.71  25
   4   2   7 10344.5 1469.37   1
   4   2   8 6049.87 1272.79  25
   4   2   9 35016.8 3050.14  25
   4   2  10 133365. 6608.29  25
   4   2  11 21809.4 2152.13  25
   4   2  12 69147.7 3814.01  25
   4   2  13 20700.4 1664.26  22
   4   2  13 21849.4 1651.34  25
   4   2  14 1039.33 289.490  22
   4   2  14 2589.43 409.066  25
   4   3 -16 57518.9 2642.47  21
   4   3 -15 8448.43 1016.93  21
   4   3 -14 180577. 7250.35  21
   4   3 -13 1293.30 500.621  21
   4   3 -13 863.345 481.378  20
   4   3 -12 16814.8 1626.74  12
   4   3 -12 18376.9 1993.27  21
   4   3 -12 18378.6 2094.22  20
   4   3 -11 108991. 5201.33  12
   4   3 -11 107011. 6062.50  20
   4   3 -10 17098.9 1831.89  12
   4   3 -10 18092.9 2303.50  20
   4   3  -9 49791.6 3358.14  12
   4   3  -9 47100.5 3905.09  20
   4   3  -9 48952.7 3364.54   9
   4   3  -8 24468.7 2194.98   4
   4   3  -8 21932.1 2210.70  12
   4   3  -8 20981.1 2437.66  20
   4   3  -8 25157.2 2257.23   9
   4   3  -7 4585.84 902.404   9
   4   3  -7 3727.74 836.171   4
   4   3  -7 5171.54 1122.36  12
   4   3  -7 3764.74 987.992  20
   4   3  -7 4166.95 938.671  16
   4   3  -6 195904. 7965.04   4
   4   3  -6 206845. 8857.19  12
   4   3  -6 207327. 10383.9   7
   4   3  -6 185050. 8008.13  20
   4   3  -6 193792. 8040.49  16
   4   3  -6 196753. 7799.07   9
   4   3  -5 97432.9 4947.74   4
   4   3  -5 103525. 6850.19   7
   4   3  -4 82405.2 4470.80   4
   4   3  -3 4431.17 950.831   4
   4   3  -2 414.355 447.212   1
   4   3  -1 64401.4 4933.76   1
   4   3   0 23283.9 2739.25   1
   4   3   1 77267.9 5039.19   1
   4   3   2 238.530 326.014   1
   4   3   3 160235. 6819.52  25
   4   3   3 153074. 7420.67   1
   4   3   4 93367.8 4902.44  25
   4   3   4 91682.5 5212.33   1
   4   3   5 41867.9 3269.03   1
   4   3   5 44419.9 3224.61  25
   4   3   6 38757.0 3113.99  25
   4   3   7 29250.9 2735.23  25
   4   3   8 43160.9 3367.49  25
   4   3   9 53052.5 3664.10  25
   4   3  10 64759.1 3888.68  25
   4   3  10 70465.3 4168.50  22
   4   3  11 34498.6 2385.35  25
   4   3  11 33193.2 2495.80  22
   4   3  12 331.427 175.055  25
   4   3  12 129.852 169.443  22
   4   3  13 78611.9 3251.93  22
   4   4 -16 80704.1 3110.57  21
   4   4 -15 26344.6 1754.22  21
   4   4 -14 3113.58 657.806  21
   4   4 -13 101608. 4388.60  12
   4   4 -13 107162. 5001.28  21
   4   4 -12 6271.08 986.688  12
   4   4 -12 7490.16 1184.65  21
   4   4 -11 14676.1 1619.29  12
   4   4 -11 14089.6 1671.68  21
   4   4 -10 228.844 353.955  12
   4   4 -10 315.296 310.648  17
   4   4  -9 1789.73 631.032  12
   4   4  -9 2070.36 634.201  17
   4   4  -9 1441.09 550.296   9
   4   4  -8 20145.3 2244.35  12
   4   4  -8 20885.4 1886.82  17
   4   4  -8 19001.1 2012.11   9
   4   4  -7 1065.05 474.960   9
   4   4  -7 1792.69 604.404   4
   4   4  -7 2735.43 904.416  12
   4   4  -7 1653.22 488.062  17
   4   4  -6 222310. 10289.0  12
   4   4  -6 221984. 8094.62  17
   4   4  -6 201082. 8727.56   4
   4   4  -6 215263. 8570.07   9
   4   4  -5 43363.4 3263.43   4
   4   4  -5 49829.9 4414.19  12
   4   4  -5 41505.7 2634.61  17
   4   4  -5 43238.5 3005.31  16
   4   4  -5 43431.1 2933.83   9
   4   4  -4 13668.3 1521.71   9
   4   4  -4 16561.4 1986.66   4
   4   4  -4 15440.2 1487.09  17
   4   4  -4 11664.0 1418.51  16
   4   4  -3 196273. 7506.13   9
   4   4  -3 187998. 7602.60  25
   4   4  -3 199246. 8834.41   4
   4   4  -3 199389. 7318.16  17
   4   4  -2 365.991 241.657  25
   4   4  -2 500.987 574.616   4
   4   4  -2 253.700 417.989  12
   4   4  -2 886.525 403.552  17
   4   4  -1 22408.1 2796.26   4
   4   4  -1 19303.6 2770.87   1
   4   4  -1 25932.4 2055.29  17
   4   4  -1 23211.5 2036.10  25
   4   4   0 13390.1 2255.82   1
   4   4   0 17757.4 1748.96  25
   4   4   0 16417.2 1665.09  17
   4   4   1 49718.2 4294.52   1
   4   4   1 49514.0 3176.16  25
   4   4   1 50192.4 3160.54  17
   4   4   2 319610. 12865.1   1
   4   4   2 285988. 10942.5  25
   4   4   2 302803. 11069.5  17
   4   4   3 57033.5 3384.90  22
   4   4   3 58277.1 4288.29   1
   4   4   3 58143.4 3664.49  25
   4   4   4 94855.0 5002.46  22
   4   4   4 98726.6 5201.84  25
   4   4   5 65579.4 4148.22  25
   4   4   5 68406.1 4265.88  22
   4   4   6 4632.31 1088.51  22
   4   4   6 2687.20 812.963  25
   4   4   7 29078.1 2752.63  22
   4   4   7 25310.6 2398.38  25
   4   4   8 121.249 204.784  25
   4   4   8 319.423 373.524  22
   4   4   9 4648.70 960.998  22
   4   4   9 6148.71 993.160  25
   4   4  10 7416.86 1067.37  22
   4   4  11 32754.9 2048.44  22
   4   4  12 70242.3 2616.36  22
   4   4  12 47594.2 2376.55  17
   4   5 -15 4997.44 570.941  13
   4   5 -15 4634.31 522.422  21
   4   5 -14 66564.4 3025.09  21
   4   5 -13 29075.1 1861.53  12
   4   5 -13 31360.1 2062.90  21
   4   5 -12 21186.6 1761.11  12
   4   5 -12 22461.9 1860.10  21
   4   5 -11 4952.01 915.725  12
   4   5 -11 5216.78 912.741  21
   4   5 -10 18637.8 1943.55  12
   4   5 -10 15767.5 1692.29  21
   4   5 -10 17317.0 1753.08  17
   4   5  -9 36285.0 3021.54  12
   4   5  -9 32757.3 2589.69  21
   4   5  -9 36911.2 2675.04  17
   4   5  -8 28803.4 2876.60  12
   4   5  -8 28448.8 2311.56  17
   4   5  -8 25343.4 2302.74   9
   4   5  -7 61249.1 3402.76  26
   4   5  -7 72714.1 5148.08  12
   4   5  -7 63363.7 3673.30  17
   4   5  -7 60404.0 3771.79   9
   4   5  -6 7450.15 1048.90  26
   4   5  -6 8539.98 1833.33  12
   4   5  -6 10994.1 1357.48  17
   4   5  -6 7287.05 1164.14   9
   4   5  -5 190826. 10828.0  12
   4   5  -5 211109. 8632.80   9
   4   5  -4 60977.1 3488.19  17
   4   5  -4 63500.8 3592.14   9
   4   5  -3 56128.1 3357.24   9
   4   5  -3 51710.5 3065.93  13
   4   5  -3 45877.2 4177.93  12
   4   5  -3 52895.1 3267.81  17
   4   5  -2 28509.8 3369.75   4
   4   5  -2 28057.2 2370.38  25
   4   5  -2 32903.7 2973.05  12
   4   5  -2 34082.7 2547.46  17
   4   5  -1 14233.3 1620.75  25
   4   5  -1 10358.8 2049.18   4
   4   5  -1 15873.8 1706.11  17
   4   5   0 70862.5 4081.65  25
   4   5   0 78263.3 4241.50  17
   4   5   1 9997.53 1395.43  17
   4   5   2 60178.3 3803.54  17
   4   5   3 14002.2 1552.75  22
   4   5   3 13982.7 1754.27  17
   4   5   4 28734.6 2413.42  22
   4   5   4 32452.5 2788.17  17
   4   5   5 108941. 5504.39  22
   4   5   5 103551. 5680.15  17
   4   5   6 11851.1 1564.12  22
   4   5   6 11520.4 1634.68  17
   4   5   7 320.131 301.283  22
   4   5   7-2.79526 304.751  17
   4   5   8 8555.14 1196.26  22
   4   5   8 10244.9 1361.46  17
   4   5   9 4614.44 772.350  22
   4   5   9 3711.11 730.072  17
   4   5  10 44620.2 2233.78  22
   4   5  10 42233.1 2262.45  17
   4   6 -14 66831.6 2731.88  13
   4   6 -13 23139.0 1650.75  13
   4   6 -13 22291.7 1397.59  12
   4   6 -12 7336.37 1053.29  13
   4   6 -12 5589.47 791.179  12
   4   6 -12 7166.56 779.851  21
   4   6 -11 66514.9 4060.56  13
   4   6 -11 77297.9 3817.83  12
   4   6 -10-125.347 281.073  12
   4   6 -10 244.958 347.005  17
   4   6  -9 473.581 474.238  26
   4   6  -9 1451.99 674.393  12
   4   6  -9 989.013 489.266  17
   4   6  -8 10906.7 1325.93  26
   4   6  -8 9802.56 1540.05  13
   4   6  -8 11994.8 1882.12  12
   4   6  -8 10261.8 1362.06  17
   4   6  -7 22591.6 2844.24  12
   4   6  -7 23135.6 1914.91  26
   4   6  -7 24179.3 2090.27  17
   4   6  -7 18122.9 1753.76   9
   4   6  -6 107486. 4738.71  26
   4   6  -6 93925.6 5034.68  13
   4   6  -6 83090.1 6307.79  12
   4   6  -6 104042. 5003.48  17
   4   6  -6 94292.8 4695.53   9
   4   6  -5 21093.8 1987.72  13
   4   6  -5 23557.7 2064.60  17
   4   6  -5 20839.7 1874.89   9
   4   6  -4 86487.8 4423.99  13
   4   6  -4 80840.3 5664.38  12
   4   6  -4 92872.6 4630.12  17
   4   6  -4 85577.5 4332.54   9
   4   6  -3 103610. 4852.61  13
   4   6  -3 106137. 5889.92  12
   4   6  -3 116831. 5323.50  17
   4   6  -3 101895. 4920.07   9
   4   6  -2 11656.9 1383.39   9
   4   6  -2 13397.6 1370.67  13
   4   6  -2 14060.0 1595.14  17
   4   6  -1 27668.7 2223.67   9
   4   6  -1 29752.7 2396.05  17
   4   6   0 9587.44 1316.30  17
   4   6   1 1374.99 538.217  17
   4   6   2 39755.9 2571.16  22
   4   6   2 39871.6 2964.45  17
   4   6   3 77158.4 4030.29  22
   4   6   3 84070.6 4629.88  17
   4   6   4 71426.5 3804.66  22
   4   6   4 66805.6 4112.75  17
   4   6   5 22563.2 1964.49  22
   4   6   5 25279.2 2274.18  17
   4   6   6 54809.5 3104.83  22
   4   6   6 53741.9 3346.32  17
   4   6   7 30530.9 2012.39  22
   4   6   7 28693.8 2118.70  17
   4   6   8 19794.8 1358.75  22
   4   6   8 18553.7 1413.29  17
   4   6   9 15717.2 999.124  17
   4   7 -12 33244.1 1824.05  13
   4   7 -12 26102.0 1407.11  23
   4   7 -11 35528.1 2261.86  13
   4   7 -11 37907.8 2165.01  12
   4   7 -11 31235.9 1807.96  23
   4   7 -10 9445.16 1224.42  13
   4   7 -10 10616.0 1237.82  12
   4   7 -10 6671.11 824.215  23
   4   7 -10 10321.9 1112.67  17
   4   7  -9 8364.66 1225.25  13
   4   7  -9 9100.56 1350.51  12
   4   7  -9 7645.39 895.919  23
   4   7  -9 10628.3 1209.92  17
   4   7  -8 20771.3 1709.39  26
   4   7  -8 18772.5 1892.85  13
   4   7  -8 20189.9 2281.52  12
   4   7  -8 20422.9 1784.02  17
   4   7  -7 6821.42 968.469  26
   4   7  -7 6658.11 1081.22  13
   4   7  -7 7963.16 1544.94  12
   4   7  -7 5994.15 963.534  17
   4   7  -6 9233.41 1123.94  26
   4   7  -6 8723.17 1201.19  13
   4   7  -6 7354.67 1526.07  12
   4   7  -6 9221.45 1202.26  17
   4   7  -5 43494.2 2639.71  26
   4   7  -5 41413.7 2717.70  13
   4   7  -5 39381.4 3406.78  12
   4   7  -5 47071.1 2907.49  17
   4   7  -4 194.858 239.499  13
   4   7  -4 43.3237 249.307  12
   4   7  -4-125.703 338.277  17
   4   7  -3 74749.6 3943.90  17
   4   7  -2 2026.86 582.356  17
   4   7  -1 92.5078 194.968  17
   4   7   0 19599.7 1842.51  17
   4   7   1 521.684 355.673  17
   4   7   2 60046.2 2916.24  22
   4   7   2 59804.6 3514.40  17
   4   7   3 6656.14 848.029  22
   4   7   3 6937.75 1045.44  17
   4   7   4 39205.3 2148.65  22
   4   7   4 35618.6 2467.32  17
   4   7   5 89605.9 3562.29  22
   4   7   5 86074.4 3963.20  17
   4   7   6 5556.39 687.199  17
   4   8  -8 1828.94 427.122  17
   4   8  -7 3973.73 626.725  26
   4   8  -7 4652.40 703.616  17
   4   8  -6 20625.7 1484.91  26
   4   8  -6 19719.6 1557.08  17
   4   8  -5 103185. 4155.85  26
   4   8  -5 96306.3 4283.70  17
   4   8  -4 46438.1 2477.30  26
   4   8  -4 49082.3 2730.07  17
   4   8  -3 8516.75 928.401  26
   4   8  -3 9021.19 1069.38  17
   4   8  -2 90548.8 4143.26  17
   4   8  -1 23932.8 1834.79  17
   4   8   0 17607.0 1532.38  17
   4   8   1 7207.32 925.700  17
   4   8   2 4170.02 673.605  17
   4   8   3 41675.8 2106.96  17
  -5   9   3 42259.3 2108.16  15
  -5   9   2 3752.79 614.066  15
  -5   9   1 33803.7 2105.65  15
  -5   9   0 5643.44 831.731  15
  -5   9  -1 25438.8 1837.43  15
  -5   9  -2 52847.6 2861.38  15
  -5   9  -3 948.195 375.254  15
  -5   9  -4 37774.8 2331.57  15
  -5   9  -5 29594.1 2025.10  15
  -5   9  -6 44147.9 2529.64  15
  -5   9  -7 362.620 272.939  15
  -5   9  -8-28.9121 184.622  15
  -5   8   6 4365.85 563.916  11
  -5   8   5 81843.4 3552.40  11
  -5   8   4 24249.3 1814.35  11
  -5   8   4 23428.4 1868.38  15
  -5   8   3 5128.49 912.348  15
  -5   8   3 4625.40 856.113  11
  -5   8   2 43137.2 2956.45  11
  -5   8   2 40775.6 2732.65  15
  -5   8   1 1963.98 602.078  15
  -5   8   1 1650.57 600.010  11
  -5   8   0 8342.76 1445.96  11
  -5   8   0 11335.1 1341.79  15
  -5   8  -1-22.1962 281.510  15
  -5   8  -1-42.2969 435.411  11
  -5   8  -2 434.369 325.839  15
  -5   8  -3 72086.7 3799.14  15
  -5   8  -4 1169.06 491.368  15
  -5   8  -5 80274.1 4095.19  15
  -5   8  -6 5601.32 944.516  15
  -5   8  -7 3190.56 729.490  15
  -5   8  -8 30546.8 2261.72  15
  -5   8  -9 5845.17 901.333  15
  -5   8 -10 10729.2 1105.09  15
  -5   8 -11 4195.87 552.186  15
  -5   7   9 11752.8 798.454  11
  -5   7   8 12363.4 1032.35  11
  -5   7   7 39055.3 2298.59  11
  -5   7   6 68212.1 3530.90  11
  -5   7   6 70874.4 3674.05  15
  -5   7   5 24595.7 2044.09  11
  -5   7   5 25270.4 2125.46  15
  -5   7   4 66183.8 3877.05  11
  -5   7   4 74063.3 4078.88  15
  -5   7   3 99399.3 5012.71  15
  -5   7   2 45056.9 3041.83  15
  -5   7   1 8644.64 1243.16  15
  -5   7   0 21579.4 1992.88  15
   5  -7   1 24073.4 1928.20  10
  -5   7  -1 22955.0 2061.55  15
  -5   7  -2 2873.60 704.501  15
  -5   7  -3 43996.3 2954.83  14
  -5   7  -3 43772.3 2973.40  15
  -5   7  -4 67313.6 3791.15  14
  -5   7  -4 63177.7 3730.08  15
  -5   7  -5 4910.20 950.024  15
  -5   7  -6 104973. 5211.89  15
  -5   7  -7 8984.60 1308.30  15
  -5   7  -8 14827.9 1713.00  15
  -5   7  -9 7135.55 1161.85  15
  -5   7  -9 5554.85 825.056  18
  -5   7 -10 204.162 257.414  15
  -5   7 -10 956.930 324.092  18
  -5   7 -11 45084.9 2623.34  15
  -5   7 -11 36861.8 1999.59  18
  -5   7 -12 3756.96 592.902  15
  -5   6  10 38920.4 1856.74  11
  -5   6   9 1127.54 353.740  11
  -5   6   8 20558.8 1720.13  11
  -5   6   7 5091.68 912.388  11
  -5   6   6 574.933 409.550  15
   5  -6  -6-219.042 236.392  10
   5  -6  -5 76593.0 3920.40  10
  -5   6   5 65714.4 3996.97  15
  -5   6   4 1799.07 643.657  15
   5  -6  -4 1722.94 584.277  10
   5  -6  -3 63431.6 3684.78  10
  -5   6   3 60886.2 3686.98  15
   5  -6  -2 38665.5 2748.27  10
  -5   6   2 32069.8 2538.62  15
   5  -6  -1 39137.3 2793.31  10
  -5   6   1 35707.4 2634.06  15
  -5   6   0 52760.6 3281.81  15
  -5   6  -1 33203.9 2591.15  14
  -5   6  -1 33575.3 2526.73  15
  -5   6  -2 2259.64 667.677  15
  -5   6  -2 2609.14 674.587  14
  -5   6  -3 43318.9 3022.56  14
  -5   6  -3 41647.6 2918.91  15
  -5   6  -4 29096.3 2441.94  14
  -5   6  -4 28847.2 2418.19  15
  -5   6  -5 184086. 7668.98  15
  -5   6  -5 170603. 7524.78  14
  -5   6  -6 35883.4 2801.10  15
  -5   6  -6 35494.0 2834.15  14
  -5   6  -7 79088.4 4512.74  15
  -5   6  -7 75797.9 4503.55  14
  -5   6  -8 1291.48 559.382  15
  -5   6  -8 1363.83 536.654  14
  -5   6  -9 26371.6 2394.83  15
  -5   6  -9 16269.9 1922.82  14
  -5   6 -10 3224.94 803.189  15
  -5   6 -10 3658.26 876.619  14
  -5   6 -11 1287.27 525.052  15
  -5   6 -11 471.583 299.990  14
  -5   6 -12 2682.61 603.391  15
  -5   6 -12 2734.23 536.066  14
  -5   6 -12 2409.49 494.410  18
  -5   6 -13 35943.3 2001.72  15
   5  -5 -12 36723.3 1842.80  20
  -5   5  11 43862.0 1936.63  11
  -5   5  10 15908.9 1287.01  11
   5  -5 -10 15505.8 1278.02  10
  -5   5   9 12588.0 1329.02  11
   5  -5  -9 11617.2 1251.99  10
  -5   5   8 62391.4 3573.43  11
   5  -5  -8 60597.6 3480.05  10
   5  -5  -7 29027.2 2378.70  10
  -5   5   7 25818.5 2273.29  15
  -5   5   6 2600.48 722.363  15
   5  -5  -6 3238.40 817.238  10
   5  -5  -5 17761.4 1893.74  10
  -5   5   5 17384.2 1861.84  15
   5  -5  -4 166857. 7157.28  10
  -5   5   4 156603. 6827.63  15
   5  -5  -3 34463.6 2711.06  10
  -5   5   3 36995.8 2606.15  15
   5  -5  -2 214961. 8500.54  10
  -5   5   2 201104. 7917.09  15
  -5   5   1 13970.5 1690.45  14
   5  -5  -1 17185.8 1809.17   2
  -5   5   1 18948.2 1713.32  15
  -5   5   0 23020.2 2136.06  14
   5  -5   0 22318.9 2089.14   2
  -5   5   0 22805.8 1915.36  15
  -5   5  -1 5079.04 866.880  15
  -5   5  -1 2934.65 735.218  14
   5  -5   1 4018.08 864.167   2
  -5   5  -2 722.915 369.084  15
  -5   5  -2 133.953 279.517  14
   5  -5   2 525.990 342.252   2
  -5   5  -3 138969. 5962.35  15
  -5   5  -3 125598. 6060.30  14
   5  -5   3 131806. 6153.13   2
  -5   5  -4 7135.55 1124.74  15
  -5   5  -4 8255.21 1269.89  14
  -5   5  -5 18410.8 1867.54  15
  -5   5  -5 13013.4 1672.82  14
  -5   5  -6 259689. 9876.95  15
  -5   5  -6 243431. 9961.77  14
  -5   5  -7 1382.47 618.555  15
  -5   5  -7 1605.04 670.714  14
  -5   5  -8 116519. 5787.56  15
  -5   5  -8 106980. 5814.08  14
  -5   5  -9 1940.94 667.921  15
  -5   5  -9 1194.45 622.657  14
  -5   5 -10 2338.46 735.929  15
  -5   5 -10 2554.92 780.570  14
  -5   5 -11 10019.8 1379.24  15
  -5   5 -11 8690.43 1309.51  14
  -5   5 -12 7986.74 1121.57  15
  -5   5 -12 8808.33 1199.18  14
  -5   5 -13 47523.1 2600.67  15
  -5   5 -13 45379.5 2547.32  14
  -5   5 -14 1549.31 322.393  15
  -5   5 -14 1142.14 261.532  14
  -5   4  13 46238.1 2029.40  24
   5  -4 -13 53874.9 2375.14  20
  -5   4  12 173.562 158.101  24
   5  -4 -12 700.943 272.608  10
  -5   4  11 26300.0 1909.03  24
   5  -4 -11 31505.3 2093.92  10
  -5   4  10 30846.2 2203.08  24
  -5   4  10 30417.4 2012.82  11
   5  -4 -10 28507.8 2212.69  10
  -5   4   9 23190.1 1989.49  24
  -5   4   9 22061.7 1876.71  11
   5  -4  -9 25424.0 2179.77  10
  -5   4   8 25497.4 2170.21  24
   5  -4  -8 25732.4 2310.56  10
  -5   4   7 34622.7 2636.01  24
   5  -4  -7 39308.9 2938.70  10
   5  -4  -6 11434.6 1517.05  10
   5  -4  -5 74016.4 4277.24  10
   5  -4  -4 76241.5 4201.43   2
   5  -4  -4 91628.5 4682.05  10
   5  -4  -3 193359. 7974.46   2
   5  -4  -3 217526. 8384.78  10
  -5   4   2 2481.96 690.553  14
   5  -4  -2 2222.29 638.154   2
  -5   4   1 164815. 6905.82  14
   5  -4  -1 154063. 6683.33   2
  -5   4   0 21834.0 2037.74  14
   5  -4   0 23558.6 2063.18   2
  -5   4  -1 92143.6 4717.53  14
   5  -4   1 89148.2 4602.65   2
  -5   4  -2 8308.71 1246.61  14
   5  -4   2 7949.93 1194.78   2
  -5   4  -3 22449.8 1868.39  15
  -5   4  -3 25745.9 2236.01  14
   5  -4   3 21788.6 2044.64   2
  -5   4  -4 2308.55 626.536  15
  -5   4  -4 1563.74 528.086  14
   5  -4   4 2095.13 630.848   2
  -5   4  -5 41267.2 2779.58  15
   5  -4   5 37260.6 2884.16   2
  -5   4  -5 37934.8 2924.93  14
  -5   4  -6 93461.8 4694.14  15
   5  -4   6 87204.8 4880.29   2
  -5   4  -6 85692.8 4860.27  14
  -5   4  -7 42811.2 3044.26  15
  -5   4  -8 13449.0 1657.17  15
  -5   4  -9 45195.5 3242.01  15
  -5   4 -10 3732.09 892.953  15
  -5   4 -11 22749.6 2122.71  15
  -5   4 -12 2347.28 606.021  15
  -5   4 -13 4358.64 710.942  15
  -5   4 -13 4429.73 779.383  14
  -5   4 -14 81342.2 3282.95  15
  -5   4 -14 76997.3 3452.44  14
  -5   3  14 678.576 229.591  24
   5  -3 -14 373.616 180.959  20
  -5   3  13 17175.4 1376.61  24
   5  -3 -13 16731.5 1400.99  20
   5  -3 -13 17019.1 1335.26  10
  -5   3  12 104399. 4648.55  24
   5  -3 -12 97915.4 4633.39  20
   5  -3 -12 107602. 4670.01  10
  -5   3  11 18766.4 1790.04  24
   5  -3 -11 17569.5 1731.79  10
  -5   3  10 144739. 6384.54  24
   5  -3 -10 138274. 6347.69  10
  -5   3   9 23723.1 2196.52  24
   5  -3  -9 24411.0 2274.39  10
   5  -3  -8 23267.8 2250.32   7
   5  -3  -8 22538.0 2212.32  10
   5  -3  -7 9405.90 1454.89   7
   5  -3  -7 7067.20 1210.39  10
   5  -3  -6 3834.82 897.248  10
   5  -3  -5 112376. 5439.90  10
   5  -3  -4 6600.99 999.088   2
   5  -3  -4 7273.45 1134.61  10
  -5   3   3 18496.4 1773.64  14
   5  -3  -3 16280.3 1618.01   2
   5  -3  -3 17812.5 1743.50  10
  -5   3   2 285222. 10291.8  14
   5  -3  -2 281902. 10177.6   2
   5  -3  -1 978.724 435.688   2
   5  -3   0 82451.2 4193.67   2
   5  -3   1 1713.36 493.547   2
   5  -3   2 9861.49 1242.00   7
   5  -3   2 10283.7 1302.01   2
  -5   3  -3 3782.51 828.893  14
   5  -3   3 3364.99 765.976   2
   5  -3   4 15409.0 1717.98   2
  -5   3  -4 17874.7 1834.96  14
   5  -3   5 23757.7 2234.39   2
   5  -3   6 91750.7 5032.69   2
  -5   3  -7 158139. 6652.98  15
   5  -3   7 155109. 7274.49   2
  -5   3  -8 216843. 8572.21  15
  -5   3  -9 45819.8 3098.37  15
   5  -3   9 42081.7 2989.25  25
  -5   3 -10 26466.0 2281.49  15
   5  -3  10 25128.0 2233.59  25
  -5   3 -11 2212.18 668.265  15
   5  -3  11 3340.25 785.734  25
  -5   3 -12 776.281 407.317  15
   5  -3  12 897.627 435.908  25
  -5   3 -13 27608.9 1896.90  15
   5  -3  13 30973.7 2054.58  25
  -5   3 -14 28935.3 1617.22  15
   5  -3  14 28677.1 1697.55  25
  -5   3 -15 14839.0 1057.29  14
  -5   2  15 29122.9 1456.03  24
   5  -2 -15 30571.8 1507.83  20
  -5   2  14 13612.7 1175.95  24
   5  -2 -14 12815.6 1166.03  20
   5  -2 -14 13204.3 1132.74  10
  -5   2  13 31454.5 2159.82  24
   5  -2 -13 31833.3 2199.04  20
   5  -2 -13 28935.0 2071.45  10
  -5   2  12 30205.8 2343.76  24
   5  -2 -12 32933.5 2440.91  20
   5  -2 -12 29534.3 2306.62  10
  -5   2  11 87294.0 4660.24  24
   5  -2 -11 87805.1 4635.20  10
   5  -2 -10 1665.41 628.084  10
   5  -2  -9 26952.2 2308.11   7
   5  -2  -9 27607.0 2501.47  10
   5  -2  -8 12652.6 1634.30   7
   5  -2  -8 14363.5 1758.67  10
   5  -2  -7 69770.8 4310.52   7
   5  -2  -7 71177.8 4254.74  10
   5  -2  -6 679.543 436.297   7
   5  -2  -6 1611.83 629.081  10
   5  -2  -5 35422.8 2655.91  10
   5  -2  -4 39047.3 2709.06  10
   5  -2  -3 91209.2 5169.22   7
   5  -2  -3 89630.1 4210.81   2
   5  -2  -2 110950. 5628.67   7
   5  -2  -2 101149. 4666.65   2
   5  -2  -1 176133. 7473.71   7
   5  -2  -1 160797. 6566.05   2
   5  -2   0 4810.07 947.621   7
   5  -2   0 4651.63 817.114   2
   5  -2   1 108064. 5046.69   7
   5  -2   1 104626. 4872.17   2
   5  -2   2 532.948 254.403   7
   5  -2   2 596.716 323.021   2
   5  -2   3 67176.2 3829.85   2
   5  -2   4 27195.5 2346.16   2
   5  -2   5 1057.28 530.260  25
   5  -2   5 395.152 217.080   2
   5  -2   6 372860. 12865.4  25
   5  -2   6 353577. 13347.6   2
   5  -2   7 1605.82 536.680  25
   5  -2   7 1548.15 643.351   2
   5  -2   8 119081. 5842.59  25
   5  -2   9 65243.1 4050.63  25
   5  -2  10 2979.37 798.310  25
  -5   2 -11 40917.1 2683.34  15
   5  -2  11 41443.2 3008.61  25
  -5   2 -12 717.054 391.551  15
   5  -2  12-977.455 432.924  25
   5  -2  13 4905.58 826.695  25
   5  -2  14 5284.52 747.564  25
   5  -2  15 1602.75 312.494  25
  -5   2 -15 1694.40 345.015  14
  -5   1  15 13321.5 1010.93  24
   5  -1 -15 13005.3 1046.91  20
  -5   1  14 2456.37 537.681  24
   5  -1 -14 1506.04 453.641  20
   5  -1 -14 2439.20 516.010  10
  -5   1  13 45480.3 2820.14  24
   5  -1 -13 47032.3 2915.95  20
   5  -1 -13 42946.2 2758.47  10
  -5   1  12 30235.2 2393.74  24
   5  -1 -12 28326.3 2363.40  20
   5  -1 -12 28864.8 2353.12  10
   5  -1 -11 45504.7 2818.71  21
   5  -1 -11 41353.0 3076.77  20
   5  -1 -11 43781.7 3161.35  10
   5  -1 -10 219328. 9092.92  20
   5  -1 -10 226466. 9222.62  10
   5  -1  -9 9742.87 1357.81   7
   5  -1  -9 10184.5 1530.05  10
   5  -1  -8 49516.3 3405.93   7
   5  -1  -8 47307.9 3392.80  10
   5  -1  -7 937.078 495.126   7
   5  -1  -7 1478.57 584.539  10
   5  -1  -7 552.008 357.813  16
   5  -1  -6 795.954 434.818   7
   5  -1  -6 628.343 389.348  10
   5  -1  -6 832.431 363.610  16
   5  -1  -5 15495.0 1667.79  10
   5  -1  -5 15505.5 1594.37  16
   5  -1  -4 31594.9 2787.51   7
   5  -1  -3 89932.4 5059.52   7
   5  -1  -2 66617.1 4098.54   7
   5  -1  -1 208937. 7780.62   2
   5  -1  -1 209544. 8497.61   7
   5  -1   0 280413. 10050.4   2
   5  -1   0 290623. 10477.2   7
   5  -1   1 47353.1 3007.11   2
   5  -1   1 54924.7 3134.16   7
   5  -1   2 58071.5 3487.65   2
   5  -1   2 62594.2 3279.98   7
   5  -1   3 27704.8 2331.55   2
   5  -1   4 5775.23 1067.55   2
   5  -1   5 41614.7 2929.12  25
   5  -1   5 41752.1 3131.96   2
   5  -1   6 10173.5 1425.22  25
   5  -1   6 9761.21 1483.27   2
   5  -1   7 39995.7 3203.86   2
   5  -1   7 44900.1 3235.89  25
   5  -1   8 26654.6 2504.42  25
   5  -1   9 116519. 5983.71  25
   5  -1  10 29065.8 2618.15  25
   5  -1  11 1751.12 662.057  25
   5  -1  12 2773.61 716.026  25
   5  -1  13 13095.1 1390.42  25
   5  -1  14 18982.2 1460.16  25
   5  -1  15 3873.39 470.845  25
  -5   0  15 36645.9 1927.04  24
   5   0 -15 39229.2 2105.31  20
  -5   0  14 160.227 239.980  24
   5   0 -14 322.908 215.749  21
   5   0 -14 22.4625 224.739  20
   5   0 -14 234.127 145.945  10
  -5   0  13 233.834 325.744  24
   5   0 -13 178.219 138.004  21
   5   0 -13-160.210 312.564  20
   5   0 -13-91.0093 275.512  10
  -5   0  12 75261.1 4173.80  24
   5   0 -12 76628.8 3998.00  21
   5   0 -12 80654.9 4434.66  20
   5   0 -12 79119.9 4300.79  10
   5   0 -11 48335.7 3422.24  20
   5   0 -11 52288.0 3484.53  10
   5   0 -10 71440.3 4387.52  20
   5   0 -10 70855.3 4269.85  10
   5   0  -9 57509.5 3759.67   7
   5   0  -9 71406.9 3852.98  12
   5   0  -9 66088.5 4161.95  20
   5   0  -9 64467.7 4040.32  10
   5   0  -8 1050.43 459.973   7
   5   0  -8 182.756 261.835  12
   5   0  -8 1542.45 557.204  20
   5   0  -8 998.308 491.866  10
   5   0  -7 119152. 5916.63   7
   5   0  -7 102531. 5377.92  20
   5   0  -7 100496. 5234.58  10
   5   0  -7 102599. 5323.03  16
   5   0  -7 113315. 5411.46   9
   5   0  -6 3207.79 722.920   9
   5   0  -6 4508.73 1048.22   7
   5   0  -6 4329.47 948.036  20
   5   0  -6 5088.32 944.126  10
   5   0  -6 7048.03 1135.70  16
   5   0  -5 100343. 4968.18  16
   5   0  -4 38379.6 3205.55   7
   5   0  -3 4126.94 989.407   7
   5   0  -2 451744. 15857.7   7
   5   0  -1 51914.9 3411.59   7
   5   0   0 184660. 7333.43   2
   5   0   0 172697. 7280.74   7
   5   0   1 72818.6 3999.68   2
   5   0   1 63266.8 3567.82   7
   5   0   2 488.461 276.375   7
   5   0   2 1252.50 505.169   2
   5   0   3 24730.9 2279.54   2
   5   0   4 638.652 375.927  25
   5   0   4 520.708 365.007   2
   5   0   5 2440.79 753.368   2
   5   0   5 3129.81 788.741  25
   5   0   6 31775.4 2724.01  25
   5   0   6 29974.0 2687.08   2
   5   0   7 10348.3 1477.32   1
   5   0   7 12132.5 1660.29  25
   5   0   8 156302. 7418.34  25
   5   0   9 2053.79 786.817  25
   5   0  10 84311.5 4885.09  25
   5   0  11 40678.0 3049.82  25
   5   0  12 2927.88 757.146  25
   5   0  13 19387.3 1651.54  25
   5   0  14 2807.49 502.419  25
  -5  -1  15 29.5918 139.669  24
   5   1 -15-69.5509 164.238  21
  -5  -1  14 6939.87 883.824  24
   5   1 -14 7551.18 917.644  21
   5   1 -14 7579.11 1005.26  20
   5   1 -14 8755.29 1016.14  10
  -5  -1  13 11497.9 1302.92  24
   5   1 -13 8526.44 1132.40  21
   5   1 -13 12216.3 1426.24  20
   5   1 -13 13560.6 1412.81  10
   5   1 -12 19396.0 1872.50  21
   5   1 -12 18886.7 1983.44  20
   5   1 -12 20492.1 1887.20  10
   5   1 -11 54771.5 3684.02  20
   5   1 -11 47860.2 3225.10  10
   5   1 -10 38707.5 2711.46  12
   5   1 -10 36528.4 3038.11  20
   5   1 -10 33059.0 2634.31  10
   5   1  -9 41554.8 3083.92   7
   5   1  -9 42304.6 2970.01  12
   5   1  -9 37992.7 3158.02  20
   5   1  -9 37948.7 2845.35  10
   5   1  -8 124857. 6295.39   7
   5   1  -8 121030. 5784.60  12
   5   1  -8 116821. 6128.15  20
   5   1  -8 114641. 5579.67  10
   5   1  -8 123967. 5962.28   9
   5   1  -7 7224.48 1071.03   4
   5   1  -7 8730.67 1537.40   7
   5   1  -7 6974.87 1169.35  12
   5   1  -7 7693.73 1275.99  20
   5   1  -7 8968.19 1241.95  10
   5   1  -7 8412.21 1338.85  16
   5   1  -7 7616.37 1236.34   9
   5   1  -6 891.676 430.077   4
   5   1  -6 367.151 338.375   7
   5   1  -6 533.968 443.360  20
   5   1  -6 1129.50 500.353  10
   5   1  -6 271.900 224.497  16
   5   1  -5 31891.1 2601.43  16
   5   1  -5 34760.9 2515.79   9
   5   1  -4 19838.7 1867.05  25
   5   1  -4 20206.2 1963.12  16
   5   1  -3 50728.6 3838.83   7
   5   1  -2 405.180 417.945   7
   5   1  -1 292667. 11137.3   7
   5   1   0 36546.7 2722.68   7
   5   1   1 286151. 10364.0   7
   5   1   2 7848.42 1331.48   2
   5   1   2 7175.71 1145.40  25
   5   1   2 6104.73 920.174   7
   5   1   3 1638.51 625.361   2
   5   1   3 1430.48 601.699  25
   5   1   4 7779.84 1273.80  25
   5   1   4 7953.52 1340.91   2
   5   1   5 22383.9 2258.52  25
   5   1   5 17108.5 2004.60   2
   5   1   6 62332.8 3996.94   1
   5   1   6 65840.9 4232.22  25
   5   1   6 58073.1 3950.09   2
   5   1   7 16291.1 2032.75  25
   5   1   8 56646.8 4046.17  25
   5   1   9 153828. 7345.87  25
   5   1  10 3917.74 949.249  25
   5   1  11 95419.4 4937.46  25
   5   1  12 6258.65 985.545  25
   5   1  13 6369.60 828.608  25
   5   1  13 4627.83 666.134  22
   5   2 -15 42687.5 2130.28  21
  -5  -2  14 120.572 144.846  24
   5   2 -14 689.261 318.527  21
  -5  -2  13 7355.01 985.688  24
   5   2 -13 7081.04 1034.24  21
   5   2 -13 7276.07 1084.44  20
   5   2 -13 7191.83 929.928  10
   5   2 -12 18475.4 1541.91  12
   5   2 -12 19492.0 1915.04  21
   5   2 -12 19801.6 1998.97  20
   5   2 -12 18863.1 1661.75  10
   5   2 -11 1167.04 433.950  12
   5   2 -11 1312.27 534.146  20
   5   2 -11 1369.05 481.237  10
   5   2 -10 225106. 8646.89  12
   5   2 -10 211001. 9240.21  20
   5   2 -10 211018. 8239.47  10
   5   2  -9 62972.7 3830.55  12
   5   2  -9 56668.4 3832.15   7
   5   2  -9 60540.0 4165.48  20
   5   2  -8 201947. 8582.34  12
   5   2  -8 225096. 9508.78   7
   5   2  -8 205169. 9016.04  20
   5   2  -8 208284. 8612.11   9
   5   2  -7 48316.0 3149.07   4
   5   2  -7 49653.6 3473.08  12
   5   2  -7 50930.4 4079.66   7
   5   2  -7 46436.2 3409.98  20
   5   2  -7 47038.5 3512.18  16
   5   2  -7 47923.5 3275.87   9
   5   2  -6 25489.6 2259.20   4
   5   2  -6 32477.8 3299.35   7
   5   2  -6 29812.4 2681.65  12
   5   2  -6 27107.7 2376.56  20
   5   2  -6 28754.4 2567.18  16
   5   2  -6 26679.2 2293.29   9
   5   2  -5 14569.8 1639.44   4
   5   2  -5 18647.8 2150.15  12
   5   2  -5 15262.8 1782.67  16
   5   2  -5 14609.2 1607.29   9
   5   2  -4 4992.19 903.188   9
   5   2  -4 4559.80 943.110  25
   5   2  -4 4264.68 1072.23  12
   5   2  -4 3577.10 813.856  16
   5   2  -3 6681.74 1047.38   9
   5   2  -3 7957.75 1516.66   7
   5   2  -3 7431.97 1496.55  12
   5   2  -3 8169.63 1223.79  16
   5   2  -3 6321.22 1121.56  25
   5   2  -2 74978.9 4251.39  25
   5   2  -2 75309.5 4766.93   7
   5   2  -2 78606.9 4237.02  16
   5   2  -1 42369.8 2988.16  25
   5   2  -1 39466.6 3080.18   7
   5   2  -1 38504.5 2789.79  16
   5   2   0 183998. 7641.59  16
   5   2   0 188467. 7849.41  25
   5   2   1 239.820 265.288  25
   5   2   1 502.989 328.385  16
   5   2   2 52819.4 3561.04  25
   5   2   3 108598. 5855.44   1
   5   2   3 113054. 5743.23  25
   5   2   4 13307.2 1762.68  25
   5   2   4 13805.7 1803.62   1
   5   2   5 24033.5 2473.74  25
   5   2   6 25081.5 2540.59  25
   5   2   7 57890.9 4077.39  25
   5   2   8 99946.9 5619.28  25
   5   2   9 69315.0 4333.51  25
   5   2  10 115557. 5646.55  25
   5   2  11 86.5702 272.156  25
   5   2  11-12.8014 201.445  22
   5   2  12 18834.6 1412.70  22
   5   2  12 20100.9 1533.96  25
   5   3 -15 23292.0 1414.82  21
   5   3 -14 4163.00 683.513  21
   5   3 -13 3193.99 702.032  21
   5   3 -12 52740.2 2883.49  12
   5   3 -12 50678.9 3243.82  21
   5   3 -11 21215.8 1887.00  12
   5   3 -10 2694.13 701.460  12
   5   3  -9 131432. 6224.97  12
   5   3  -8 21484.8 2233.46  12
   5   3  -8 19283.2 2055.47   9
   5   3  -7 82184.2 4967.12  12
   5   3  -7 82886.5 4862.81  16
   5   3  -7 80556.7 4559.99   9
   5   3  -6 812.566 455.952   9
   5   3  -6 1203.71 540.533  12
   5   3  -6 1267.68 555.834  16
   5   3  -5-124.559 235.260   9
   5   3  -5 325.996 368.791   4
   5   3  -5-625.573 528.225  12
   5   3  -5-605.184 372.131  16
   5   3  -4 14496.1 1801.51   4
   5   3  -4 15803.5 1776.15  16
   5   3  -4 16438.7 1764.98   9
   5   3  -3 1681.19 571.367   9
   5   3  -3 854.185 453.014  25
   5   3  -3 919.681 438.585   4
   5   3  -3 1533.44 881.519  12
   5   3  -3 962.398 461.877  16
   5   3  -2 90139.0 4774.51  25
   5   3  -2 78131.4 4931.11   4
   5   3  -2 78063.2 5670.12  12
   5   3  -2 79271.4 4363.44  16
   5   3  -1 92466.9 6043.51   1
   5   3  -1 84237.3 5506.36  12
   5   3  -1 88479.1 4156.72  17
   5   3  -1 88988.2 4808.48  25
   5   3  -1 80171.5 4426.42  16
   5   3   0 39006.1 2551.00  17
   5   3   0 31840.9 2589.18  16
   5   3   0 39520.0 2985.40  25
   5   3   0 40442.1 3739.89   1
   5   3   1 313175. 12772.6   1
   5   3   1 312479. 11561.3  25
   5   3   1 307910. 10835.1  17
   5   3   1 281468. 10982.5  16
   5   3   2 2037.66 742.791   1
   5   3   2 2440.06 722.046  25
   5   3   2 1520.24 511.222  17
   5   3   3 106297. 5761.63  25
   5   3   3 119915. 5558.59  17
   5   3   4 973.528 517.239  25
   5   3   5 24157.6 2464.13  25
   5   3   6 26183.8 2575.68  25
   5   3   6 22226.6 2103.63  22
   5   3   7 4060.10 1028.21  25
   5   3   7 5851.14 1086.13  22
   5   3   8 37044.4 2947.42  25
   5   3   8 38228.8 2791.69  22
   5   3   9 24192.9 2149.98  25
   5   3   9 21759.4 1906.86  22
   5   3  10 42189.2 2510.93  22
   5   3  10 42813.1 2630.74  25
   5   3  11 83414.5 3428.89  25
   5   3  11 77947.0 3349.17  22
   5   3  11 80890.2 3552.97  17
   5   3  12 754.389 242.545  17
   5   4 -14 1772.87 390.453  21
   5   4 -13 12318.4 1002.46  12
   5   4 -13 13820.0 1286.57  21
   5   4 -12 441.985 243.992  12
   5   4 -12 81.0807 208.360  21
   5   4 -11 1219.52 465.104  12
   5   4 -11 2151.65 617.455  21
   5   4 -10 84531.5 4417.80  12
   5   4  -9 7874.67 1230.96  12
   5   4  -8 192597. 8479.32  12
   5   4  -8 191300. 8133.56   9
   5   4  -7 2818.63 792.418   9
   5   4  -7 2945.09 933.174  12
   5   4  -6 39987.7 3709.15  12
   5   4  -6 40229.8 2583.94  17
   5   4  -6 38935.9 2977.10   9
   5   4  -5 72259.9 5357.93  12
   5   4  -5 69466.5 3584.02  17
   5   4  -5 61021.3 3925.08  16
   5   4  -5 68257.5 4062.77   9
   5   4  -4 12624.9 2183.54  12
   5   4  -4 11535.8 1309.45  17
   5   4  -4 10700.3 1469.07  16
   5   4  -4 10994.6 1479.95   9
   5   4  -3 14126.2 1668.84   9
   5   4  -3 12454.5 2193.66  12
   5   4  -3 13692.5 1440.27  17
   5   4  -3 11639.7 1509.16  16
   5   4  -2 31681.4 2571.78   9
   5   4  -2 32263.5 2684.30  25
   5   4  -2 26893.3 3007.99  12
   5   4  -2 33170.5 2387.63  17
   5   4  -1 55339.0 3652.53  25
   5   4  -1 54037.4 3824.80  12
   5   4  -1 54232.0 3296.63  17
   5   4   0 141919. 6049.06  17
   5   4   0 123691. 6198.50  25
   5   4   1 60545.0 3604.75  17
   5   4   1 56153.0 3748.25  25
   5   4   2 232562. 8855.20  17
   5   4   2 203824. 8894.23  25
   5   4   3 5226.39 1086.88  25
   5   4   3 6371.42 1115.30  17
   5   4   4 53537.4 3538.77  17
   5   4   4 49316.1 3540.48  25
   5   4   5 3881.72 949.075  25
   5   4   5 5419.96 1049.33  17
   5   4   6 6862.22 1181.92  25
   5   4   6 7438.81 1053.55  22
   5   4   6 9181.86 1366.55  17
   5   4   7 19442.9 1916.52  25
   5   4   7 20939.2 1788.03  22
   5   4   7 20828.7 2027.47  17
   5   4   8 6448.33 945.756  25
   5   4   8 5294.17 820.441  22
   5   4   8 6232.16 1012.21  17
   5   4   9 60280.5 2883.07  25
   5   4   9 62741.0 2956.15  22
   5   4   9 68532.1 3377.91  17
   5   4  10 1550.58 307.058  22
   5   4  10 2335.92 454.874  17
   5   5 -13 863.393 243.389  12
   5   5 -13 1075.93 286.087  21
   5   5 -12 12697.4 1127.59  12
   5   5 -12 13226.9 1138.75  21
   5   5 -11 258.268 246.859  12
   5   5 -11 101.990 181.753  21
   5   5 -10 24968.1 2045.10  12
   5   5 -10 23869.8 1873.82  21
   5   5  -9 17476.3 1857.82  12
   5   5  -9 19086.0 1736.84  21
   5   5  -9 20289.1 1667.91  17
   5   5  -8 576.554 401.549   9
   5   5  -8 255.860 432.993  12
   5   5  -8-21.9165 202.153  17
   5   5  -7 192568. 8770.66  12
   5   5  -7 185622. 7180.71  17
   5   5  -7 166938. 7418.19   9
   5   5  -6 1146.45 473.917   9
   5   5  -6 1333.14 498.714  13
   5   5  -6 522.339 493.061  12
   5   5  -6 1952.76 527.322  17
   5   5  -5 63848.9 3558.38  13
   5   5  -5 64292.6 5031.51  12
   5   5  -5 70722.8 3714.14  17
   5   5  -5 66039.1 3899.96   9
   5   5  -4 131.312 255.050   9
   5   5  -4 1041.63 684.812  12
   5   5  -4 259.060 281.942  17
   5   5  -3 255.821 245.446   9
   5   5  -3-478.990 457.193  12
   5   5  -3 70.4437 175.407  17
   5   5  -2 39805.1 2892.78   9
   5   5  -2 39906.3 3126.38  12
   5   5  -2 43121.6 2843.29  17
   5   5  -1-77.3814 240.932   9
   5   5  -1 335.645 283.145  17
   5   5   0 74113.2 4319.90  25
   5   5   0 79535.9 4211.05  17
   5   5   1 30142.4 2547.50  25
   5   5   1 33896.6 2564.39  17
   5   5   2 42769.9 3126.79  25
   5   5   2 49391.7 3203.41  17
   5   5   3 73709.5 4077.22  17
   5   5   3 62322.8 4107.07  25
   5   5   4 408.819 327.580  25
   5   5   4 718.260 422.982  17
   5   5   5 226.640 315.173  17
   5   5   6 32429.4 1986.05  22
   5   5   6 36101.1 2514.76  17
   5   5   7 676.242 247.967  22
   5   5   7 896.644 347.049  17
   5   5   8 32769.1 1960.44  17
   5   5   9 1215.59 277.740  17
   5   6 -12 5047.18 595.398  13
   5   6 -12 5037.21 551.731  12
   5   6 -11 18060.6 1402.05  13
   5   6 -11 16919.9 1315.26  12
   5   6 -10 3343.83 672.737  13
   5   6 -10 3477.70 662.605  12
   5   6  -9 70467.6 3721.99  12
   5   6  -9 64138.6 3113.28  17
   5   6  -8 46512.9 2917.04  13
   5   6  -8 54092.3 3505.16  12
   5   6  -8 52367.3 2863.50  17
   5   6  -7 31005.2 2239.29  13
   5   6  -7 31505.0 2832.29  12
   5   6  -7 31084.6 2181.12  17
   5   6  -7 30376.1 2166.80   9
   5   6  -6 45099.8 2772.58  13
   5   6  -6 45630.6 3686.03  12
   5   6  -6 53441.2 3005.75  17
   5   6  -6 48305.3 2907.75   9
   5   6  -5 1118.50 445.503   9
   5   6  -5 977.225 356.819  13
   5   6  -5 583.302 384.900  12
   5   6  -5 1854.03 559.466  17
   5   6  -4 22187.9 2273.69  12
   5   6  -4 22201.6 1847.59  17
   5   6  -4 20327.1 1817.85   9
   5   6  -3 1510.81 498.026   9
   5   6  -3 911.659 444.239  12
   5   6  -3 2588.10 653.895  17
   5   6  -2 104.879 189.073   9
   5   6  -2 549.107 309.032  17
   5   6  -1 15231.7 1549.72  17
   5   6  -1 14798.4 1522.88   9
   5   6   0 18242.4 1717.31   9
   5   6   0 16870.5 1651.29  17
   5   6   1 75816.0 3982.72   9
   5   6   1 83389.0 4146.85  17
   5   6   2 40888.9 2684.46   9
   5   6   2 46409.9 2869.00  17
   5   6   3 44491.0 2799.04  17
   5   6   4 65850.5 3446.37  17
   5   6   5 1623.90 449.944  17
   5   6   6 22314.1 1388.03   9
   5   6   6 22707.8 1525.79  17
   5   6   7 9553.02 771.741  17
   5   7 -10 29829.4 1613.49  12
   5   7  -9 826.994 244.047  13
   5   7  -9 601.010 268.900  12
   5   7  -8 21874.5 1731.35  12
   5   7  -8 20625.5 1404.13  13
   5   7  -8 23540.9 1504.07  17
   5   7  -7 59000.5 2768.52  13
   5   7  -7 61567.3 3363.08  12
   5   7  -7 64839.6 2994.60  17
   5   7  -6 29095.9 2178.93  12
   5   7  -6 30017.4 1931.93  17
   5   7  -5 111001. 4901.46  12
   5   7  -5 124734. 4893.53  17
   5   7  -4 2267.85 524.664  17
   5   7  -3 14675.2 1343.48  17
   5   7  -2 19612.7 1585.66  17
   5   7  -1 4461.02 728.085  17
   5   7   0 36635.1 2238.80  17
   5   7   1 5166.85 764.201  17
   5   7   2 55705.7 2775.98  17
   5   7   3 17146.6 1285.61  17
   5   7   4 47139.7 2133.33  17
   5   8  -4 17987.6 1161.16  17
   5   8  -3 588.696 228.713  17
   5   8  -2 4657.23 554.088  17
  -6   8   4 25512.9 1475.38  11
  -6   8   3 19574.3 1425.47  11
  -6   8   3 20250.8 1344.48  15
  -6   8   2 7797.24 973.468  11
  -6   8   2 8766.04 940.701  15
  -6   8   1 1368.46 399.063  15
  -6   8   1 1270.32 419.448  11
  -6   8   0 8842.31 1207.21  11
  -6   8   0 9644.24 1049.58  15
  -6   8  -1 32997.0 2513.75  11
  -6   8  -1 41299.6 2359.20  15
  -6   8  -2 27759.1 1889.95  15
  -6   8  -3 51883.8 2742.12  15
  -6   8  -4 573.311 272.836  15
  -6   8  -5 22596.5 1614.96  15
  -6   8  -6 4682.74 680.153  15
  -6   8  -7 26496.9 1641.46  15
  -6   8  -8 1523.80 338.568  15
  -6   7   7 87.1058 114.804  11
  -6   7   6 40322.9 2158.60  11
  -6   7   5 9519.99 1053.97  11
  -6   7   4 43376.4 2613.30  11
  -6   7   4 38803.7 2374.70  15
  -6   7   3 476.654 367.655  15
  -6   7   2 4588.62 810.505  15
   6  -7  -2 3804.45 653.343  10
   6  -7  -1 17736.2 1519.95  10
  -6   7   1 19328.8 1688.03  15
  -6   7   0 9.64477 211.002  15
   6  -7   0-158.834 247.804  10
   6  -7   1 93708.7 4369.08  10
  -6   7  -1 95423.9 4426.82  15
   6  -7   2 21484.9 1796.44  10
  -6   7  -2 22789.6 1834.69  15
  -6   7  -3 10792.2 1219.48  15
  -6   7  -4 115567. 5019.75  15
  -6   7  -5 132.801 188.738  15
  -6   7  -5 211.406 286.148  14
  -6   7  -6 9701.05 1248.93  14
  -6   7  -6 10198.2 1163.17  15
  -6   7  -7 119.722 239.656  15
  -6   7  -7-100.880 318.292  14
  -6   7  -8 923.586 353.385  15
  -6   7  -8 681.382 263.742  14
  -6   7  -9 29580.5 1797.80  15
  -6   7 -10 3471.03 472.663  15
  -6   6   8 29508.0 1736.82  11
  -6   6   7 61069.3 3128.77  11
   6  -6  -7 65539.5 2902.39  10
   6  -6  -6 98043.3 4266.51  10
   6  -6  -5 21693.6 1815.35  10
  -6   6   5 22913.2 1824.59  15
  -6   6   4-800.874 401.519  15
   6  -6  -4 183.475 312.351  10
   6  -6  -3 23987.5 2077.49  10
  -6   6   3 23974.9 2009.20  15
  -6   6   2 4803.71 850.355  15
   6  -6  -2 5796.44 1032.30  10
   6  -6  -1 16080.9 1760.42  10
  -6   6   1 17834.1 1673.77  15
   6  -6   0 11545.7 1493.46  10
  -6   6   0 10122.1 1238.66  15
  -6   6  -1 3658.94 716.799  15
  -6   6  -1 3996.59 890.668  14
  -6   6  -2 73608.1 4241.32  14
  -6   6  -2 81125.4 3991.95  15
  -6   6  -3 99864.0 5123.53  14
  -6   6  -3 104541. 4768.09  15
  -6   6  -4 36857.5 2792.85  14
  -6   6  -4 35821.9 2488.00  15
  -6   6  -5 72920.5 4272.34  14
  -6   6  -5 79116.9 3981.59  15
  -6   6  -6 6184.78 1085.08  14
  -6   6  -6 7111.01 1044.05  15
  -6   6  -7 23370.7 2181.57  14
  -6   6  -7 24787.8 1985.88  15
  -6   6  -8-150.481 329.223  15
  -6   6  -8 261.215 328.010  14
  -6   6  -9 4475.70 745.297  15
  -6   6  -9 5606.75 975.153  14
  -6   6 -10 13428.4 1341.92  14
  -6   6 -10 14021.1 1204.59  15
  -6   6 -11 329.319 157.138  15
  -6   6 -11 677.866 228.372  14
   6  -5 -10 660.652 240.605  20
   6  -5 -10-29.3619 93.8067  10
  -6   5   9 17229.3 1283.54  11
   6  -5  -9 19048.0 1433.47  10
  -6   5   8 314.623 210.812  11
   6  -5  -8-194.165 162.355  10
   6  -5  -7 36161.4 2545.70  10
   6  -5  -6 3877.79 856.118  10
   6  -5  -5 721.290 362.576  10
   6  -5  -4 210754. 8667.29  10
   6  -5  -3 935.860 519.683  10
   6  -5  -2 48676.7 3409.20  10
   6  -5  -1 9774.01 1429.49  10
  -6   5   0 9040.31 1368.92  14
  -6   5  -1 59011.2 3802.82  14
  -6   5  -2 3139.59 828.826  14
  -6   5  -3 89153.5 4918.54  14
  -6   5  -4 38393.3 3061.73  14
  -6   5  -4 42374.8 2705.73  15
  -6   5  -5 48499.1 3485.18  14
  -6   5  -5 55329.0 3182.70  15
  -6   5  -6 7854.51 1124.68  15
  -6   5  -6 8450.39 1370.98  14
  -6   5  -7 190.377 302.752  15
  -6   5  -7-14.5349 239.712  14
  -6   5  -8 112.461 282.563  15
  -6   5  -8 548.725 424.780  14
  -6   5  -9 2621.19 618.913  15
  -6   5  -9 2917.81 767.809  14
  -6   5 -10 15857.1 1384.54  15
  -6   5 -10 16005.8 1682.83  14
  -6   5 -11 47826.2 2350.16  15
  -6   5 -11 48186.9 2836.46  14
  -6   5 -12 9433.50 943.617  14
   6  -4 -11 46921.5 2326.86  20
   6  -4 -11 52317.2 2423.96  10
  -6   4  10 2282.66 464.616  24
   6  -4 -10 2986.27 570.750  20
   6  -4 -10 2100.28 506.249  10
  -6   4   9 16847.2 1433.55  24
  -6   4   9 17632.3 1422.72  11
   6  -4  -9 17948.4 1667.41  10
  -6   4   8 12314.6 1302.94  24
   6  -4  -8 10832.9 1402.33  10
  -6   4   7 7471.90 1049.63  24
   6  -4  -7 10587.5 1425.72  10
   6  -4  -6 134019. 6295.98  10
   6  -4  -5 55365.9 3670.45  10
   6  -4  -4 35936.3 3071.71   7
   6  -4  -4 40735.5 3045.75  10
   6  -4  -3 71260.7 4521.07   7
   6  -4  -3 69910.5 4241.13  10
   6  -4  -2 6005.94 1191.60   7
   6  -4  -2 5658.93 1087.77  10
  -6   4   1 51617.5 3505.55  14
   6  -4  -1 47758.9 3526.61   7
  -6   4   0-131.537 315.374  14
   6  -4   0 15.1998 305.692   7
  -6   4  -1 12199.5 1609.47  14
   6  -4   1 9980.84 1373.80   7
  -6   4  -2 71676.8 4320.18  14
  -6   4  -3 1893.12 649.614  14
  -6   4  -4 399224. 14464.6  14
  -6   4  -5 1548.01 646.705  14
  -6   4  -6 7201.10 1315.76  14
  -6   4  -7 32295.2 2838.91  14
  -6   4  -8 343.890 403.981  14
  -6   4  -9 8307.93 1320.48  14
  -6   4 -10-25.3916 242.220  14
  -6   4 -11 15612.2 1611.56  14
  -6   4 -12 76613.3 3645.74  14
  -6   4 -13 5835.27 678.126  14
  -6   3  12 80167.0 3331.44  24
   6  -3 -12 79269.5 3411.08  20
   6  -3 -12 82428.4 3458.92  10
  -6   3  11 5699.93 801.703  24
   6  -3 -11 6101.32 849.854  20
   6  -3 -11 5370.24 822.160  10
  -6   3  10 15536.2 1505.34  24
   6  -3 -10 17576.7 1584.49  20
   6  -3 -10 15710.5 1579.41  10
  -6   3   9 8510.16 1181.41  24
   6  -3  -9 7999.50 1194.50  10
   6  -3  -8 6746.69 1164.78  10
   6  -3  -7 22500.0 2189.97  10
   6  -3  -6 2061.99 727.748   7
   6  -3  -6 2883.40 780.980  10
   6  -3  -5 71622.2 4496.11   7
   6  -3  -5 62593.4 4018.42  10
   6  -3  -4 74517.8 4694.41   7
   6  -3  -4 71513.3 4277.39  10
   6  -3  -3 176430. 8092.52   7
   6  -3  -3 169485. 7471.70  10
  -6   3   2 35942.5 2758.97  14
   6  -3  -2 33446.2 2976.58   7
   6  -3  -2 32042.7 2657.53  10
  -6   3   1 2343.44 660.927  14
   6  -3  -1 2780.60 816.498   7
   6  -3  -1 1607.02 511.896   2
  -6   3   0 2819.74 757.389  14
   6  -3   0 4398.39 995.005   7
   6  -3   0 3064.40 745.298   2
   6  -3   0 4342.34 896.511  16
   6  -3   1 16560.5 1825.22   2
  -6   3  -1 19707.7 2032.83  14
   6  -3   1 19581.2 1952.80   7
   6  -3   1 22898.3 2114.44  16
   6  -3   2 19364.3 2028.18   2
  -6   3  -2 23495.1 2261.34  14
  -6   3  -3 55981.8 3745.17  14
  -6   3  -4 2000.08 708.768  14
  -6   3  -5 92867.6 5207.82  14
  -6   3  -6 97470.4 5413.92  14
  -6   3  -7 67326.8 4335.23  14
  -6   3  -8 25985.2 2518.66  14
  -6   3  -9 245.750 285.975  14
   6  -3  10 21780.1 1787.00  25
  -6   3 -10 21505.7 2122.15  14
   6  -3  11 11288.8 1140.52  25
  -6   3 -11 10746.2 1348.98  14
  -6   3 -12 55567.2 3036.07  14
  -6   3 -13 33400.1 1913.61  14
  -6   2  13 15724.2 1177.65  24
   6  -2 -13 16031.6 1187.55  20
   6  -2 -13 15419.6 1173.62  10
  -6   2  12 9269.71 1041.86  24
   6  -2 -12 7265.15 939.386  20
   6  -2 -12 7867.96 957.843  10
  -6   2  11 106839. 4719.99  24
   6  -2 -11 95388.6 4524.65  20
   6  -2 -11 94279.8 4522.32  10
  -6   2  10 5528.23 942.766  24
   6  -2 -10 3907.83 808.165  20
   6  -2 -10 4130.27 839.512  10
   6  -2  -9 97175.5 4846.25  20
   6  -2  -9 93883.9 4930.26  10
   6  -2  -8 208.955 230.846  20
   6  -2  -8 349.813 311.795  10
   6  -2  -7 2721.27 809.542   7
   6  -2  -7 1516.31 574.573  20
   6  -2  -7 2766.97 787.246  10
   6  -2  -6 58542.2 4027.07   7
   6  -2  -6 54972.9 3741.94  10
   6  -2  -6 60391.0 3626.17  16
   6  -2  -5-613.305 431.804   7
   6  -2  -5 695.932 306.051  16
   6  -2  -5 284.190 426.063  10
   6  -2  -4 187001. 8589.92   7
   6  -2  -4 184529. 7909.82  10
   6  -2  -4 189930. 7732.72  16
  -6   2   3 20600.0 2007.79  14
   6  -2  -3 20359.4 2304.55   7
   6  -2  -3 21115.3 2078.43  10
   6  -2  -3 20751.5 1970.66  16
  -6   2   2 1829.88 609.561  14
   6  -2  -2 1757.79 666.299   7
   6  -2  -2 2135.04 669.390  16
   6  -2  -2 1837.63 625.641  10
  -6   2   1 144697. 6604.61  14
   6  -2  -1 152938. 7177.83   7
   6  -2  -1 163081. 6895.63  16
  -6   2   0 704.095 406.567  14
   6  -2   0 1338.04 561.921   7
   6  -2   0 1656.22 570.060   2
   6  -2   0 924.463 469.406  16
   6  -2   1 21157.1 2080.92   2
   6  -2   1 22058.6 2068.21   7
  -6   2  -1 22437.6 2127.20  14
  -6   2  -2 2347.49 691.658  14
   6  -2   2 3247.19 841.311   2
   6  -2   3 17333.0 1995.46   2
  -6   2  -3 21578.0 2138.57  14
   6  -2   4 300725. 11129.8  25
  -6   2  -4 316440. 11748.9  14
   6  -2   5 31988.2 2568.77  25
  -6   2  -5 34059.8 2851.13  14
   6  -2   6 196130. 8191.96  25
  -6   2  -6 203446. 8682.23  14
   6  -2   7 9369.29 1387.65  25
  -6   2  -7 8665.09 1414.02  14
  -6   2  -8 681.487 395.955  14
   6  -2   8 978.091 475.355  25
   6  -2   9 4686.41 947.045  25
  -6   2 -10 321.197 318.928  14
   6  -2  10-18.2908 217.871  25
  -6   2 -11 1145.80 466.416  14
   6  -2  11 340.370 220.261  25
  -6   2 -12 3770.00 691.771  14
   6  -2  12 3630.44 623.781  25
   6  -2  13 36575.4 1844.50  25
  -6   2 -13 41321.0 2095.40  14
  -6   1  14 56.9567 82.6533  24
   6  -1 -14 41.1466 119.427  20
  -6   1  13 17951.5 1379.83  24
   6  -1 -13 18134.6 1389.43  20
   6  -1 -13 15704.6 1290.75  10
  -6   1  12 86754.3 4029.27  24
   6  -1 -12 86310.8 4045.07  20
   6  -1 -12 81714.2 3950.14  10
  -6   1  11 42379.9 2804.10  24
   6  -1 -11 40075.9 2371.38  21
   6  -1 -11 41630.8 2781.44  20
   6  -1 -11 44645.0 2844.88  10
   6  -1 -10 67138.5 3842.31  20
   6  -1 -10 65584.1 3849.45  10
   6  -1  -9 1907.47 571.982  12
   6  -1  -9 2584.43 714.995  20
   6  -1  -9 3612.75 880.220  10
   6  -1  -8 15570.4 1677.03  12
   6  -1  -8 15688.2 1760.60  20
   6  -1  -8 15522.6 1824.44  10
   6  -1  -7 11758.9 1684.78   7
   6  -1  -7 12564.6 1523.26  20
   6  -1  -7 11411.4 1596.49  10
   6  -1  -7 14288.7 1699.58  16
   6  -1  -6 29444.7 2775.94   7
   6  -1  -6 28340.6 2512.90  10
   6  -1  -6 26522.0 2378.94  16
   6  -1  -5 37430.4 3211.75   7
   6  -1  -5 34046.8 2759.28  10
   6  -1  -5 36122.3 2785.80  16
   6  -1  -4 779.003 571.371   7
   6  -1  -4 725.054 427.139  10
   6  -1  -4 1052.00 511.780  16
  -6   1   3 255039. 9622.48  14
   6  -1  -3 276185. 10905.4   7
   6  -1  -3 238495. 9624.06  10
   6  -1  -3 260751. 9950.77  16
  -6   1   2 23461.7 2034.73  14
   6  -1  -2 23117.2 2041.00  25
   6  -1  -2 25224.9 2544.43   7
   6  -1  -2 20896.4 1978.37  10
   6  -1  -2 23539.9 2209.66  16
   6  -1  -1 130255. 5842.57  25
   6  -1  -1 125121. 6370.95   7
  -6   1   1 129534. 5811.73  14
   6  -1  -1 135285. 6281.71  16
   6  -1   0 13469.7 1545.36  25
   6  -1   0 13210.8 1665.35   7
   6  -1   0 12668.5 1652.52  16
  -6   1   0 12688.6 1498.87  14
  -6   1  -1 294.882 308.894  14
   6  -1   1-639.404 366.610  25
   6  -1   1 188.556 276.251   7
  -6   1  -2 49173.6 3214.98  14
   6  -1   2 42272.4 3221.56   2
   6  -1   2 46124.6 3152.70  25
  -6   1  -3 823.210 473.352  14
   6  -1   3-59.7295 313.277  25
   6  -1   3 1163.26 487.287   2
   6  -1   4 49051.6 3383.91  25
  -6   1  -4 47987.6 3339.33  14
   6  -1   5 81166.9 4629.42  25
  -6   1  -5 80847.4 4615.58  14
  -6   1  -6 774.575 499.262  14
   6  -1   6 868.365 531.156  25
   6  -1   7 163492. 7415.18  25
   6  -1   8 1528.56 626.965  25
   6  -1   9 217.174 250.474  25
   6  -1  10 3708.46 836.791  25
  -6   1 -11 167.049 160.158  14
   6  -1  11 13.8776 260.938  25
   6  -1  12 56069.3 2931.92  25
  -6   1 -12 59365.4 2868.78  14
  -6   1 -13 148.020 84.9225  14
   6  -1  13 177.849 108.049  25
  -6   0  14 37585.8 1842.67  24
  -6   0  13 4672.44 701.350  24
   6   0 -13 5533.42 634.123  21
   6   0 -13 5631.26 785.543  20
   6   0 -13 6345.01 779.979  10
  -6   0  12 67541.2 3457.24  24
   6   0 -12 68064.3 3223.96  21
   6   0 -12 61052.0 3394.52  20
   6   0 -12 66619.1 3409.81  10
   6   0 -11 20531.1 1776.50  21
   6   0 -11 22558.4 1995.11  20
   6   0 -11 22726.3 1927.78  10
   6   0 -10 9497.25 1151.17  12
   6   0 -10 12780.3 1555.77  20
   6   0 -10 13869.3 1586.25  10
   6   0  -9 81670.8 4248.70  12
   6   0  -9 79803.5 4443.24  20
   6   0  -9 71547.1 4201.56  10
   6   0  -8 3646.73 883.834   7
   6   0  -8 3129.86 809.662  12
   6   0  -8 2590.96 727.314  20
   6   0  -8 3501.39 812.807  10
   6   0  -7 1894.04 746.402   7
   6   0  -7 267.340 250.365  12
   6   0  -7 565.092 337.473  20
   6   0  -7 628.332 387.293  10
   6   0  -7 1248.73 589.111  16
   6   0  -6 60.7418 278.016   9
   6   0  -6 144.669 280.439   7
   6   0  -6 389.524 230.247  10
   6   0  -6 567.812 356.993  16
   6   0  -5 679.169 379.709   9
   6   0  -5 949.813 573.047   7
   6   0  -5 901.435 478.475  10
   6   0  -5 471.239 376.389  16
   6   0  -4 122155. 6542.23   7
   6   0  -4 101414. 5156.48  10
   6   0  -4 119185. 5833.60  16
   6   0  -4 115414. 5422.66   9
   6   0  -3 22750.9 2109.86  25
   6   0  -3 22315.0 2482.43   7
   6   0  -3 17777.7 1762.19  10
   6   0  -3 20249.9 2080.22  16
   6   0  -3 19994.5 1877.40   9
   6   0  -2 184412. 7706.90  25
   6   0  -2 182215. 8423.57   7
   6   0  -2 185859. 8015.37  16
   6   0  -2 180467. 7335.12   9
   6   0  -1 102415. 4879.00   9
   6   0  -1 101694. 5205.28  25
   6   0  -1 100893. 5555.72   7
   6   0  -1 107577. 5523.82  16
   6   0   0 35750.0 2529.91   9
   6   0   0 36836.1 2845.25  25
   6   0   0 38328.9 2969.23   7
   6   0   0 35577.1 2928.97  16
   6   0   1 132454. 6150.03  25
   6   0   1 119044. 5761.52   7
   6   0   2 12081.2 1603.08  25
  -6   0  -3 1999.99 611.036  14
   6   0   3 3786.35 899.374  25
   6   0   4 22539.0 2309.45  25
  -6   0  -4 21531.8 2018.53  14
   6   0   5 102474. 5601.09  25
  -6   0  -5 105402. 5215.84  14
   6   0   6 87509.0 5124.39  25
  -6   0  -6 94126.5 4848.07  14
   6   0   7 28567.1 2653.93  25
  -6   0  -7 32130.2 2534.81  14
   6   0   8 53408.1 3689.94  25
  -6   0  -8 52727.1 3346.10  14
   6   0   9 35382.2 2766.00  25
  -6   0  -9 29681.1 2305.73  14
   6   0  10 13478.2 1541.06  25
  -6   0 -10 13445.8 1353.65  14
   6   0  11 8678.04 1134.60  25
  -6   0 -11 10919.8 1054.89  14
  -6   0 -12-342.876 148.134  14
   6   0  12 343.004 149.535  25
  -6  -1  14 16525.3 1050.72  24
   6   1 -14 15189.7 960.325  21
  -6  -1  13 7315.49 846.401  24
   6   1 -13 8538.10 890.021  21
   6   1 -13 7188.02 766.743  10
   6   1 -12 10283.5 1165.02  21
   6   1 -12 11589.0 1268.42  20
   6   1 -12 10496.3 1086.54  10
   6   1 -11 114042. 4707.91  12
   6   1 -11 110568. 5218.04  20
   6   1 -11 112490. 4874.69  10
   6   1 -10 6574.95 1003.42  12
   6   1 -10 6200.08 1047.62  20
   6   1 -10 5148.22 866.713  10
   6   1  -9 43155.0 2978.08  12
   6   1  -9 44033.9 3104.87  20
   6   1  -9 37033.6 2650.19  10
   6   1  -8 30817.5 2573.52  12
   6   1  -8 29160.3 2469.13  20
   6   1  -8 26092.3 2176.75  10
   6   1  -7 339.712 225.330   9
   6   1  -7 1346.88 612.738  12
   6   1  -7 495.130 358.975   7
   6   1  -7 572.290 435.417  20
   6   1  -7-834.772 396.735  10
   6   1  -7-190.302 346.681  16
   6   1  -6 169488. 8191.46   7
   6   1  -6 159665. 7456.13  12
   6   1  -6 162250. 7510.02  16
   6   1  -6 163746. 7263.38   9
   6   1  -5 4765.85 996.536   9
   6   1  -5 5712.16 1315.00   7
   6   1  -5 4155.45 1008.53  16
   6   1  -4 45070.4 3818.44   7
   6   1  -4 40935.2 3249.17  16
   6   1  -4 48380.5 3211.60   9
   6   1  -3 110635. 5711.27  25
   6   1  -3 116622. 6491.44   7
   6   1  -3 111952. 5810.34  16
   6   1  -3 116937. 5538.64   9
   6   1  -2 1262.74 533.425   9
   6   1  -2 568.197 460.070  25
   6   1  -2 853.186 541.895   7
   6   1  -2 289.170 389.002  16
   6   1  -1 211488. 8389.07   9
   6   1  -1 216468. 8882.22  25
   6   1  -1 205897. 8992.33   7
   6   1  -1 210595. 8916.17  16
   6   1   0 3822.42 905.630  25
   6   1   0 3585.01 885.944   7
   6   1   0 3752.87 926.904  16
   6   1   1 20793.0 2197.07  25
   6   1   1 21009.7 2235.32  16
   6   1   2 2153.31 734.585  25
   6   1   3-386.779 362.103  25
   6   1   4 72621.9 4610.47  25
   6   1   5 8748.66 1475.65  25
   6   1   6 79203.4 4826.34  25
   6   1   7 200437. 8822.54  25
   6   1   8 23345.2 2314.96  25
   6   1   9 64037.6 3890.11  25
   6   1  10 260.021 251.312  25
   6   1  11 176.408 196.915  25
   6   1  11-314.100 160.942  16
   6   1  12 16214.1 1158.63  25
   6   2 -14 2158.34 357.696  21
  -6  -2  13 17032.2 1216.75  24
   6   2 -13 16455.8 1306.85  21
   6   2 -12 48255.0 2336.83  12
   6   2 -12 50711.9 2828.24  21
   6   2 -11 7073.10 933.879  12
   6   2 -10 93229.5 4531.05  12
   6   2  -9 118711. 5610.08  12
   6   2  -8 61473.9 3856.85  12
   6   2  -8 62965.5 3880.44   9
   6   2  -7 88770.9 4958.49  12
   6   2  -7 85275.6 5262.75   7
   6   2  -7 84059.9 4980.39  16
   6   2  -7 87327.1 4803.99   9
   6   2  -6 14176.8 1855.58  12
   6   2  -6 16455.3 2238.64   7
   6   2  -6 13002.5 1766.55  16
   6   2  -6 15320.7 1810.98   9
   6   2  -5 10088.6 1611.01  12
   6   2  -5 10266.2 1782.24   7
   6   2  -5 9776.52 1514.05  16
   6   2  -5 10845.1 1474.25   9
   6   2  -4 28008.0 2854.28  12
   6   2  -4 28744.9 3044.58   7
   6   2  -4 28377.0 2621.41  16
   6   2  -4 28560.6 2462.91   9
   6   2  -3 99763.5 5372.07  25
   6   2  -3 100277. 5970.56  12
   6   2  -3 95334.9 5777.79   7
   6   2  -3 87184.0 5090.40  16
   6   2  -3 96279.4 5003.64   9
   6   2  -2 61075.6 3730.11   9
   6   2  -2 56497.3 3891.75  25
   6   2  -2 58445.5 4427.76  12
   6   2  -2 56679.4 3840.25  16
   6   2  -1 28420.9 2452.86   9
   6   2  -1 31730.1 2791.06  25
   6   2  -1 30751.6 3040.78  12
   6   2  -1 29585.8 2642.66  16
   6   2   0 132110. 6492.87  25
   6   2   0 127013. 6610.88  12
   6   2   0 125019. 6235.79  16
   6   2   1 34461.6 2971.65  25
   6   2   1 30053.5 2695.04  16
   6   2   2 24546.4 2491.65  25
   6   2   2 24064.2 2381.48  16
   6   2   3 6373.92 1259.20  25
   6   2   3 8887.96 1417.91  16
   6   2   4 1138.61 587.484  25
   6   2   4 856.090 431.826  16
   6   2   5 18489.4 2157.67  25
   6   2   5 18310.8 2045.33  16
   6   2   6 1687.72 710.997  25
   6   2   6 1990.55 545.391  17
   6   2   6 2186.91 664.741  16
   6   2   7 56422.3 3228.37  17
   6   2   7 58544.7 3573.69  16
   6   2   7 65123.2 4067.79  25
   6   2   8 28710.2 2453.89  25
   6   2   8 24329.2 1866.53  17
   6   2   8 27128.2 2042.56  16
   6   2   9 2352.73 642.139  25
   6   2   9 2030.46 476.579  17
   6   2  10 41957.6 2422.87  25
   6   2  10 34991.1 1834.97  17
   6   2  11 15977.2 1144.89  25
   6   3 -13 1200.32 333.953  21
  -6  -3  12 9172.80 841.086  24
   6   3 -12 7740.96 793.872  12
   6   3 -12 8849.77 1012.68  21
   6   3 -11 94045.4 4160.19  12
   6   3 -11 93140.8 4387.88  21
   6   3 -10 2488.76 620.253  12
   6   3  -9 87662.0 4512.00  12
   6   3  -8 5420.05 1035.80   9
   6   3  -8 5068.19 1031.62  12
   6   3  -7 3129.66 846.877   9
   6   3  -7 3190.96 835.089  12
   6   3  -6 19267.8 2260.78  12
   6   3  -6 21131.9 2186.22  16
   6   3  -6 22494.2 2175.18   9
   6   3  -5 1145.86 521.449   9
   6   3  -5 487.469 429.319  12
   6   3  -5 601.046 428.423  16
   6   3  -4 25239.1 2794.84  12
   6   3  -4 23846.0 2323.98  16
   6   3  -4 24395.7 2290.69   9
   6   3  -3 3645.07 887.007   9
   6   3  -3 5083.74 1229.37  12
   6   3  -3 3982.95 913.034  16
   6   3  -2 34481.1 2744.83   9
   6   3  -2 37034.7 3001.45  25
   6   3  -2 31619.8 3149.21  12
   6   3  -2 29080.3 2614.32  16
   6   3  -1 206599. 8479.61   9
   6   3  -1 208484. 8812.99  25
   6   3  -1 198793. 8949.28  12
   6   3  -1 194839. 8407.39  16
   6   3   0 19942.5 2183.49  25
   6   3   0 20283.3 2083.92  16
   6   3   1 82559.3 4806.56  25
   6   3   1 75102.3 4442.64  16
   6   3   2 12514.0 1352.38  17
   6   3   2 10601.3 1580.73  25
   6   3   2 12235.4 1587.86  16
   6   3   3 9871.31 1191.69  17
   6   3   3 9120.19 1469.62  25
   6   3   3 7520.41 1204.22  16
   6   3   4 73314.5 3799.08  17
   6   3   4 69164.5 4374.39  25
   6   3   5 78966.9 3986.20  17
   6   3   5 77105.2 4574.62  25
   6   3   6 43138.2 3104.44  25
   6   3   6 38647.6 2536.39  17
   6   3   7 6773.77 1099.48  25
   6   3   7 5018.42 814.216  17
   6   3   8 95813.8 4399.53  25
   6   3   8 87117.4 3829.29  17
   6   3   9 54723.2 2647.42  25
   6   3   9 46343.7 2222.82  17
   6   4 -12 16685.1 1099.93  12
   6   4 -12 17266.4 1235.55  21
   6   4 -11 34603.1 2013.44  12
   6   4 -11 33509.1 2055.41  21
   6   4 -10 22912.9 1766.99  12
   6   4 -10 22113.5 1752.01  21
   6   4  -9 593.537 303.922  12
   6   4  -8 76563.3 4242.67  12
   6   4  -8 77201.7 4175.01   9
   6   4  -7 13825.1 1741.91  12
   6   4  -7 12287.1 1538.29   9
   6   4  -6 22193.2 2354.66  12
   6   4  -6 20121.5 2022.49   9
   6   4  -5 1198.77 540.208   9
   6   4  -5 2284.05 883.720  12
   6   4  -4 2392.69 676.548   9
   6   4  -4 2071.93 819.090  12
   6   4  -4 2604.51 719.068  16
   6   4  -3 53881.8 4006.77  12
   6   4  -3 51896.4 3442.29  16
   6   4  -3 56355.7 3583.17   9
   6   4  -2 850.601 457.367   9
   6   4  -2 329.698 285.485  12
   6   4  -2 546.473 310.219  16
   6   4  -1 116584. 5660.50   9
   6   4  -1 108714. 5656.96  25
   6   4  -1 118543. 4951.66  17
   6   4  -1 110844. 5466.21  16
   6   4   0 49220.6 3342.04   9
   6   4   0 51700.0 2914.78  17
   6   4   0 47217.1 3375.08  25
   6   4   1 8440.74 1327.65  25
   6   4   1 9714.73 1171.48  17
   6   4   2 103128. 5391.42  25
   6   4   2 109735. 4840.06  17
   6   4   3 2643.74 712.794  25
   6   4   3 2377.51 586.432  17
   6   4   4 10219.0 1375.12  25
   6   4   4 11585.2 1275.22  17
   6   4   5 395.054 311.014  25
   6   4   5 110.671 190.986  17
   6   4   6 6168.53 908.313  25
   6   4   6 5917.98 811.754  17
   6   4   7 57339.3 2832.03  25
   6   4   7 61252.4 2772.84  17
   6   4   8 105.908 89.0257  17
   6   5 -11 611.583 212.626  12
   6   5 -10 37750.8 1954.68  13
   6   5 -10 41378.3 2213.28  12
   6   5 -10 38048.1 1910.21  21
   6   5  -9 104694. 4217.45  13
   6   5  -9 116915. 4741.31  12
   6   5  -9 105592. 4220.53  21
   6   5  -8 30623.6 1836.93  13
   6   5  -8 29210.2 2194.57  12
   6   5  -8 25592.9 1770.23  21
   6   5  -7 61813.5 3649.18  12
   6   5  -7 59646.0 3345.94   9
   6   5  -6 15673.2 1814.29  12
   6   5  -6 16842.2 1651.02   9
   6   5  -5 10440.4 1474.96  12
   6   5  -5 10138.0 1297.54   9
   6   5  -4 16233.2 1856.09  12
   6   5  -4 20125.0 1534.52  17
   6   5  -4 19459.1 1826.23   9
   6   5  -3 21303.1 1963.53  12
   6   5  -3 23253.7 1696.07  17
   6   5  -3 25112.4 2098.06   9
   6   5  -2 19337.2 1547.24  17
   6   5  -2 19348.5 1838.83   9
   6   5  -1 11669.2 1201.33  17
   6   5  -1 13272.8 1489.42   9
   6   5   0 127705. 5716.67   9
   6   5   0 128793. 5245.41  17
   6   5   1 49204.8 3074.27   9
   6   5   1 50524.9 2759.55  17
   6   5   2 4996.45 876.273   9
   6   5   2 4533.14 730.174  17
   6   5   3 7409.71 1019.30   9
   6   5   3 6465.14 852.502  17
   6   5   4 42051.5 2553.97   9
   6   5   4 44447.6 2365.08  17
   6   5   5 8649.87 973.529   9
   6   5   5 9400.66 892.860  17
   6   5   6 19142.8 1299.19   9
   6   5   6 16551.4 1067.76  17
   6   6  -9 77563.2 3163.59  12
   6   6  -8 31939.4 1916.09  12
   6   6  -7 5822.33 816.971  12
   6   6  -6 60949.7 3127.36  12
   6   6  -5 2030.21 449.807   9
   6   6  -5 1713.63 424.095  12
   6   6  -5 2256.25 419.625  17
   6   6  -4 2043.97 472.262   9
   6   6  -4 1203.49 350.302  12
   6   6  -4 1895.03 418.037  17
   6   6  -3 25587.4 1606.27  17
   6   6  -3 22805.1 1725.12   9
   6   6  -2 386.600 192.569   9
   6   6  -2 574.404 232.495  17
   6   6  -1 67374.6 2970.24  17
   6   6  -1 60640.0 3132.52   9
   6   6   0 89.5285 126.108   9
   6   6   0-717.790 269.755  17
   6   6   1 45067.1 2233.53  17
   6   6   1 43891.4 2407.91   9
   6   6   2 28259.2 1599.36  17
   6   6   2 27908.4 1728.66   9
   6   6   3 9671.44 788.686  17
   6   6   3 9070.78 831.653   9
  -7   7   4 8663.77 803.910  11
  -7   7   3 385.737 187.292  11
   7  -7  -2 18558.9 1203.48  10
   7  -7  -1 7247.98 782.953  10
   7  -7   0 8317.61 894.482  10
   7  -7   1 36653.1 2119.32  10
   7  -7   2 69903.0 3254.92  10
   7  -7   3 32229.7 1988.94  10
   7  -7   4 3465.99 592.327  10
   7  -7   5 780.495 297.748  10
   7  -7   6 5714.27 724.342  10
   7  -7   7 9629.84 872.299  10
  -7   6   6 1125.58 310.991  11
   7  -6  -6 1066.00 281.453  10
   7  -6  -5 27661.2 1722.76  10
   7  -6  -4 32222.5 2061.67  10
   7  -6  -3 5625.99 864.426  10
   7  -6  -2 489.922 260.102  10
   7  -6  -1 1100.35 444.714  10
   7  -6   0 129057. 5649.95  10
   7  -6   1 8185.11 1130.88  10
   7  -6   2 55471.1 3289.40  10
  -7   6  -3 33958.2 2441.29  14
  -7   6  -4 2325.05 587.530  14
  -7   6  -5 33076.0 2371.50  14
  -7   6  -6 29016.0 2152.91  14
  -7   6  -7 804.675 315.779  14
  -7   6  -8 13525.6 1231.92  14
  -7   6  -9 3498.30 510.022  14
  -7   5   8 6334.88 603.037  11
   7  -5  -8 8612.69 808.043  10
  -7   5   7 31302.4 1855.39  11
   7  -5  -7 33064.2 2034.77  10
   7  -5  -6 68947.2 3510.35  10
   7  -5  -5 20578.4 1836.53  10
   7  -5  -4 9623.54 1269.54  10
   7  -5  -3 2530.56 710.355  10
   7  -5  -2 49936.9 3268.00  10
   7  -5  -1 7379.42 1178.17  10
   7  -5   0 10602.4 1430.67  10
  -7   5  -1 111233. 5443.96  14
   7  -5   1 113173. 5521.86  10
  -7   5  -2 17065.5 1824.13  14
  -7   5  -3 167734. 7211.13  14
  -7   5  -4 41745.6 2967.35  14
  -7   5  -5 43648.8 3013.96  14
  -7   5  -6 5510.49 983.955  14
  -7   5  -7 199.258 225.717  14
  -7   5  -8 10912.1 1287.48  14
  -7   5  -9 3726.99 671.801  14
  -7   5 -10 9942.57 943.117  14
   7  -4 -10 4297.64 510.736  10
   7  -4  -9 4840.25 686.241  10
  -7   4   8 95126.6 3814.44  11
   7  -4  -8 105035. 4454.41  10
   7  -4  -7 7727.56 1106.50  10
   7  -4  -6 45016.2 2966.39  10
   7  -4  -5 50089.5 3281.54  10
   7  -4  -4 16346.4 1814.05  10
   7  -4  -3 33597.2 2709.93  10
   7  -4  -2 47900.7 3325.03  10
   7  -4  -1 7701.22 1254.97  10
  -7   4   0 36898.0 2850.24  14
   7  -4   0 33882.8 2742.13  10
  -7   4  -1 13672.8 1696.48  14
  -7   4  -2 108079. 5518.39  14
  -7   4  -3 12940.2 1660.73  14
   7  -4   3 11340.5 1354.85  16
  -7   4  -4 30865.1 2612.28  14
   7  -4   4 30541.8 2366.00  16
  -7   4  -5 23291.0 2212.57  14
   7  -4   5 19913.0 1914.40  16
  -7   4  -6 18397.7 1947.22  14
  -7   4  -7 6657.11 1140.95  14
  -7   4  -8 6241.51 1022.51  14
  -7   4  -9 22854.7 1894.77  14
  -7   4 -10 51355.5 2741.57  14
  -7   4 -11 56857.8 2545.30  14
   7  -3 -11 113.481 96.0068  10
  -7   3  10 33396.6 1759.73  24
   7  -3 -10 37074.1 2070.51  10
  -7   3   9 10180.5 1000.01  24
   7  -3  -9 10946.9 1189.98  10
  -7   3   8 6470.79 866.265  24
   7  -3  -8 6586.12 994.094  10
   7  -3  -7 94633.4 4730.16  10
   7  -3  -6 37416.1 2787.31  10
   7  -3  -5 113419. 5593.03  10
   7  -3  -4 26009.0 2361.02  10
   7  -3  -3 21964.3 2174.75  10
   7  -3  -2 6979.03 1089.02  16
   7  -3  -2 5245.16 1071.22  10
  -7   3   1 1705.94 642.127  14
   7  -3  -1 833.705 489.906  16
   7  -3  -1 1062.44 516.160  10
  -7   3   0 20563.2 2088.22  14
   7  -3   0 19783.3 2040.01  10
   7  -3   0 20221.1 1967.12  16
  -7   3  -1 23148.1 2247.22  14
   7  -3   1 21952.5 2114.82  16
  -7   3  -2 15633.1 1853.49  14
   7  -3   2 16030.3 1821.30  16
  -7   3  -3 160556. 7198.50  14
   7  -3   3 155420. 7075.36  16
  -7   3  -4 1506.52 576.545  14
  -7   3  -5 83867.9 4742.59  14
  -7   3  -6 8759.86 1370.40  14
  -7   3  -7 217.426 329.593  14
  -7   3  -8 41226.7 2871.10  14
  -7   3  -9 3884.38 770.954  14
  -7   3 -10 15947.5 1411.79  14
  -7   3 -11 15702.4 1184.07  14
  -7   2  11 6356.75 705.529  24
   7  -2 -11 4455.24 617.933  10
  -7   2  10 20.3394 186.889  24
   7  -2 -10 31.2184 134.607  20
   7  -2 -10-44.2718 150.632  10
  -7   2   9 10710.6 1200.17  24
   7  -2  -9 10171.0 1209.92  10
   7  -2  -8 53667.9 2887.76  12
   7  -2  -8 52279.7 3233.66  10
   7  -2  -7 39542.4 2674.14  12
   7  -2  -7 38289.8 2793.41  10
   7  -2  -6 79780.2 4463.70  10
   7  -2  -5 5557.28 1056.16  10
   7  -2  -5 3723.13 844.504  16
   7  -2  -4 23801.1 2254.97  10
   7  -2  -4 20920.9 2035.60  16
   7  -2  -3 24720.1 2308.95  10
   7  -2  -3 23276.2 2199.79  16
   7  -2  -2 27386.5 2469.61  10
   7  -2  -2 34805.4 2717.79  16
  -7   2   1 371.146 296.395  14
   7  -2  -1 346.411 424.601   7
   7  -2  -1 698.862 476.212  16
   7  -2  -1 420.412 261.512  10
  -7   2   0 210.928 251.620  14
   7  -2   0 380.416 440.910  16
   7  -2   0-109.763 353.655  10
  -7   2  -1 77333.0 4368.36  14
   7  -2   1 67375.3 4284.49  16
  -7   2  -2 67735.2 4057.14  14
   7  -2   2 60551.3 4049.92  16
  -7   2  -3 121640. 5970.64  14
   7  -2   3 122123. 6219.14  16
  -7   2  -4 123836. 6029.11  14
  -7   2  -5 288.467 385.180  14
   7  -2   5 235.940 242.227  25
   7  -2   6 62150.6 3590.76  25
  -7   2  -6 74542.0 4195.48  14
  -7   2  -7 1622.60 599.173  14
   7  -2   7 1529.33 443.166  25
  -7   2  -8 8150.03 1150.31  14
   7  -2   8 5540.59 862.265  25
  -7   2  -9 212.329 248.919  14
   7  -2   9-139.679 260.615  25
  -7   2 -10 1033.10 341.246  14
   7  -2  10 1906.44 406.557  25
  -7   2 -11 46598.2 2167.39  14
  -7   1  12 1638.42 326.824  24
   7  -1 -12 1513.88 300.496  10
  -7   1  11 5037.36 709.919  24
   7  -1 -11 4513.78 551.671  20
   7  -1 -11 6198.95 752.796  10
   7  -1 -10 18222.3 1290.42  21
   7  -1 -10 16219.4 1244.10  20
   7  -1 -10 17330.3 1488.61  10
   7  -1  -9 2227.81 503.079  12
   7  -1  -9 2219.35 600.081  10
   7  -1  -8 38393.8 2575.58  12
   7  -1  -8 39032.3 2708.43  10
   7  -1  -7 16775.4 1782.75  12
   7  -1  -7 18331.4 1842.47  10
   7  -1  -6 1154.51 456.852  10
   7  -1  -6 300.813 335.092  16
   7  -1  -5 148830. 6747.76  10
   7  -1  -5 157208. 6943.93  16
   7  -1  -4 1919.88 627.678  10
   7  -1  -4 1031.00 496.044  16
   7  -1  -3 50169.4 3335.82  10
   7  -1  -3 53665.2 3612.21  16
   7  -1  -2 1441.39 622.993   7
   7  -1  -2 1207.36 550.240  10
   7  -1  -2 866.143 492.827  16
  -7   1   1 14803.0 1636.24  14
   7  -1  -1 13781.3 1611.44  25
   7  -1  -1 15392.8 1857.23   7
   7  -1  -1 13777.0 1602.07  10
   7  -1  -1 17030.5 1968.36  16
  -7   1   0 49179.2 3208.06  14
   7  -1   0 47908.7 3204.61  25
   7  -1   0 42925.7 2979.58  10
   7  -1   0 51520.5 3617.94  16
  -7   1  -1 538.459 407.843  14
   7  -1   1 243.756 302.547  25
   7  -1   1 290.859 284.406  10
   7  -1   1 148.573 427.646  16
  -7   1  -2 112654. 5397.32  14
   7  -1   2 103826. 5348.73  25
   7  -1   2 107821. 5797.37  16
  -7   1  -3 87414.1 4599.09  14
   7  -1   3 82130.7 4562.40  25
   7  -1   3 83441.8 4974.38  16
  -7   1  -4 49988.7 3324.44  14
   7  -1   4 52886.4 3457.21  25
   7  -1   5 118570. 5795.20  25
  -7   1  -5 125256. 5784.62  14
  -7   1  -6 972.313 426.507  14
   7  -1   6 973.102 455.775  25
   7  -1   7 8097.72 1176.70  25
  -7   1  -7 7668.48 1111.13  14
   7  -1   8 9242.38 1199.06  25
  -7   1  -8 10399.2 1211.53  14
  -7   1  -9 188.903 141.264  14
   7  -1   9 174.629 198.444  25
  -7   1 -10 11159.4 943.501  14
   7  -1  10 11089.6 1040.14  25
   7  -1  11 118.081 155.531  16
  -7   0  12 32843.9 1769.78  24
  -7   0  11 8015.30 944.047  24
   7   0 -11 9215.09 867.531  21
   7   0 -11 9281.43 871.697  10
   7   0 -10 24855.1 1613.08  12
   7   0 -10 25276.2 1736.33  10
   7   0  -9 619.919 321.668  12
   7   0  -9 1243.98 534.769  10
   7   0  -8 4767.15 878.443  12
   7   0  -8 3082.79 670.708  10
   7   0  -7 53626.6 3382.86  12
   7   0  -7 43840.7 2891.27  10
   7   0  -6 54752.7 3607.08  12
   7   0  -6 49868.5 3119.19  10
   7   0  -6 48400.6 3429.53  16
   7   0  -5 92164.0 4675.57  10
   7   0  -5 99711.2 5290.77  16
   7   0  -5 99661.3 4857.33   9
   7   0  -4 87491.6 4898.74  16
   7   0  -4 82229.0 4376.19   9
   7   0  -3 7981.25 1421.69  16
   7   0  -3 7070.48 1110.10   9
   7   0  -2 71150.6 4388.49  16
   7   0  -2 65988.1 3764.57   9
   7   0  -1 1677.56 531.618   9
   7   0  -1 1418.79 581.225  25
   7   0  -1 1366.70 537.715  16
   7   0   0 347.095 272.285   9
   7   0   0 48.9195 248.721  25
   7   0   1 20648.7 2130.57  25
   7   0   1 19081.9 2164.86  16
   7   0   1 17761.2 1698.11   9
   7   0   2 6478.24 1009.31   9
   7   0   2 6739.52 1195.86  25
   7   0   2 6537.07 1242.15  16
   7   0   3 166150. 6742.60   9
   7   0   3 161260. 7455.27  25
   7   0   3 184373. 8013.17  16
   7   0   4 3982.89 923.647  25
   7   0   4 4164.68 1012.63  16
   7   0   5 48296.0 3370.55  25
   7   0   6 49184.8 3302.85  25
   7   0   7 348.722 339.642  25
   7   0   8 17273.6 1651.59  25
   7   0   9 2457.97 550.014  25
   7   0   9 3141.96 629.209  16
   7   0  10 1295.48 353.788  25
   7   0  10 1590.33 356.267  16
  -7  -1  12 709.610 222.961  24
   7   1 -12 404.740 169.240  21
   7   1 -11 16689.7 1055.55  12
   7   1 -11 16667.1 1292.08  21
   7   1 -10 9078.59 970.652  12
   7   1  -9 2649.28 599.222  12
   7   1  -8 43605.5 2878.94  12
   7   1  -7 20802.5 2012.59  12
   7   1  -6 134735. 6431.81  12
   7   1  -6 135149. 6503.13  16
   7   1  -6 142536. 6280.41   9
   7   1  -5 110345. 5792.72  12
   7   1  -5 112418. 5803.23  16
   7   1  -5 113959. 5483.57   9
   7   1  -4 78558.2 4845.03  12
   7   1  -4 84746.3 4871.68  16
   7   1  -4 84981.2 4526.72   9
   7   1  -3 69477.9 4556.73  12
   7   1  -3 70303.7 4351.62  16
   7   1  -3 69330.8 3996.75   9
   7   1  -2 6342.02 1319.12  12
   7   1  -2 6401.98 1213.01  16
   7   1  -2 6987.94 1164.05   9
   7   1  -1 8261.84 1362.43  25
   7   1  -1 8682.21 1519.91  12
   7   1  -1 7584.48 1341.74  16
   7   1  -1 8531.98 1245.82   9
   7   1   0 3326.87 794.561   9
   7   1   0 3100.03 831.966  25
   7   1   0 2233.10 691.294  12
   7   1   0 3418.07 936.018  16
   7   1   1 17091.6 1759.82   9
   7   1   1 15702.3 1917.13  25
   7   1   1 18691.4 1985.89  12
   7   1   1 19061.0 2099.67  16
   7   1   2 15939.4 1654.23   9
   7   1   2 14143.8 1804.07  25
   7   1   2 15288.0 1894.30  16
   7   1   3 1560.43 632.850  25
   7   1   3 2239.26 727.495  16
   7   1   4 59321.9 3861.13  25
   7   1   4 61492.3 3955.56  16
   7   1   5 44368.8 3181.57  25
   7   1   5 44776.0 3230.14  16
   7   1   6 97378.5 5019.96  25
   7   1   6 102069. 5066.34  16
   7   1   7 8657.88 1209.25  25
   7   1   7 9206.30 1205.23  16
   7   1   8 40.1725 196.724  25
   7   1   8 366.442 254.385  16
   7   1   9 4825.90 696.078  25
   7   1   9 5046.41 591.738  16
   7   1  10 10313.5 833.703  25
   7   2 -12 41226.8 1865.26  21
   7   2 -11 919.449 244.043  12
   7   2 -11 739.004 248.281  21
   7   2 -10 58201.8 2831.85  12
   7   2  -9 1160.33 437.435  12
   7   2  -8 7605.67 1101.70  12
   7   2  -7 8806.20 1242.40  12
   7   2  -6 501.078 395.512   9
   7   2  -6 455.775 388.599  12
   7   2  -6 293.926 307.376  16
   7   2  -5 102889. 5436.77  12
   7   2  -5 97209.3 5248.46  16
   7   2  -5 102425. 5099.20   9
   7   2  -4 7368.55 1351.79  12
   7   2  -4 8362.39 1326.25  16
   7   2  -4 8005.23 1225.55   9
   7   2  -3 10903.9 1622.44  12
   7   2  -3 8159.26 1317.18  16
   7   2  -3 8866.46 1292.38   9
   7   2  -2 63382.4 4199.20  12
   7   2  -2 57976.0 3869.13  16
   7   2  -2 61639.8 3708.53   9
   7   2  -1 1537.75 580.796   9
   7   2  -1 1083.30 534.729  25
   7   2  -1 1167.95 509.114  12
   7   2  -1 1128.26 490.089  16
   7   2   0 14403.8 1623.70   9
   7   2   0 13652.8 1736.92  25
   7   2   0 12089.2 1531.07  12
   7   2   0 13309.3 1689.37  16
   7   2   1 1322.97 523.324   9
   7   2   1 1209.53 504.973  25
   7   2   1 1701.40 602.913  16
   7   2   2 6555.27 1057.45   9
   7   2   2 6197.87 1167.72  25
   7   2   2 5453.77 1065.73  16
   7   2   3 74257.4 4356.50  25
   7   2   3 73524.6 4232.11  16
   7   2   4 9986.57 1410.91  25
   7   2   4 6984.68 1133.22  16
   7   2   5 230144. 9023.22  25
   7   2   5 231194. 8670.65  16
   7   2   6 648.444 442.103  25
   7   2   6-19.2411 167.974  16
   7   2   7 49638.9 2876.67  25
   7   2   8 35991.2 2105.72  25
   7   3 -11 45681.0 2122.36  21
   7   3 -10 172.245 154.846  12
   7   3 -10 640.022 267.408  21
   7   3  -9 6904.06 883.279  12
   7   3  -8 3809.29 738.859  12
   7   3  -7 7291.91 1078.55  12
   7   3  -6 20733.8 1983.72  12
   7   3  -6 22873.7 1996.72   9
   7   3  -5 343.086 330.814   9
   7   3  -5 234.038 281.068  12
   7   3  -4 66078.1 4136.63  12
   7   3  -4 70097.9 4053.27  16
   7   3  -4 77463.5 4146.84   9
   7   3  -3 31330.8 2643.64  12
   7   3  -3 27405.7 2375.98  16
   7   3  -3 32690.8 2489.60   9
   7   3  -2 87596.0 4642.04  12
   7   3  -2 81497.8 4479.76  16
   7   3  -2 88936.7 4559.81   9
   7   3  -1 13132.8 1454.77  12
   7   3  -1 12508.6 1526.06  16
   7   3  -1 12421.0 1493.24   9
   7   3   0 81.2669 266.476   9
   7   3   0-26.2255 371.051  25
   7   3   0 431.137 288.987  16
   7   3   1 15147.3 1608.20   9
   7   3   1 17162.4 1838.82  25
   7   3   1 12691.5 1489.88  16
   7   3   2 18819.5 1768.32   9
   7   3   2 21787.7 2063.37  25
   7   3   2 17058.5 1670.68  16
   7   3   3 5856.69 918.706   9
   7   3   3 6747.77 1119.72  25
   7   3   3 6153.37 912.289  16
   7   3   4 83269.3 4021.71   9
   7   3   4 89647.9 4427.51  25
   7   3   5 2338.19 529.042   9
   7   3   5 2014.62 528.052  25
   7   3   6 125074. 4900.16   9
   7   3   6 135609. 5246.80  25
   7   3   7 750.616 236.532   9
   7   3   7 624.030 228.585  25
   7   4 -10 42246.7 1880.27  12
   7   4  -9 5794.01 686.609  12
   7   4  -9 4580.73 571.234  21
   7   4  -8 25311.9 1728.34  12
   7   4  -7 243.606 146.803  12
   7   4  -6 4653.43 810.863   9
   7   4  -6 4348.23 797.441  12
   7   4  -5 88009.4 4403.65  12
   7   4  -5 97409.6 4476.97   9
   7   4  -4 284.879 296.801   9
   7   4  -4 469.973 273.340  12
   7   4  -3 148901. 6120.96  12
   7   4  -3 160295. 6464.15   9
   7   4  -2 10109.1 1251.67   9
   7   4  -1 36122.8 2485.61   9
   7   4   0 26887.7 2069.75   9
   7   4   1 4395.12 793.060   9
   7   4   2 8508.91 1056.83   9
   7   4   3 1593.54 436.939   9
   7   4   4 15322.6 1272.88   9
   7   4   5 31054.0 1722.78   9
   7   5  -7 29465.0 1608.62  12
   7   5  -6 2170.42 420.573  12
   7   5  -5 13878.3 1081.56  12
   7   5  -5 16031.7 1290.72   9
   7   5  -4 23464.5 1660.20   9
   7   5  -3 301.679 244.811   9
   7   5  -2 88622.3 3905.78   9
   7   5  -1 1010.91 329.612   9
   7   5   0 11517.1 1095.82   9
   7   5   1 6866.06 793.504   9
   7   5   2 5592.48 659.154   9
   8  -6  -2 45578.4 2146.61  10
   8  -6  -1 3583.05 546.464  10
   8  -6   0 67765.2 3039.56  10
   8  -6   1 13956.9 1175.53  10
   8  -6   2 30866.0 1855.22  10
   8  -6   3 15752.9 1230.35  10
   8  -6   4 7638.58 794.934  10
   8  -6   5 9644.18 839.801  10
   8  -5  -5 195.341 127.230  10
   8  -5  -4 32858.1 1950.52  10
   8  -5  -3 110.513 164.359  10
   8  -5  -2 25412.0 1844.42  10
   8  -5  -1 36730.4 2350.15  10
   8  -5   0 2044.72 552.465  10
   8  -5   1 85711.3 4039.81  10
   8  -5   2 1097.11 376.824  10
   8  -5   3 3402.96 626.858  10
   8  -5   4 2671.95 538.718  10
  -8   5  -5 1708.00 437.820  14
   8  -5   5 1626.75 408.061  10
  -8   5  -6 37915.1 2122.58  14
   8  -5   6 37082.4 2011.29  10
  -8   5  -7 4174.78 554.046  14
   8  -5   7 3616.70 476.941  10
   8  -4  -7 17178.3 1161.32  10
   8  -4  -6 44609.8 2351.56  10
   8  -4  -5 13625.4 1141.58  12
   8  -4  -5 16982.4 1420.38  10
   8  -4  -4 3535.01 676.923  10
   8  -4  -3 4809.66 823.001  10
   8  -4  -2 12912.8 1407.46  10
   8  -4  -1 99996.1 4700.97  10
   8  -4   0 14080.9 1478.91  10
   8  -4   1 22976.3 1908.65  10
   8  -4   2 45096.4 2777.03  10
  -8   4  -3 180.493 240.349  14
   8  -4   3 177.090 186.367  10
  -8   4  -4 24844.9 1947.15  14
   8  -4   4 23199.8 1786.43  10
  -8   4  -5 155.267 196.633  14
   8  -4   5 546.388 239.366  16
  -8   4  -6 840.287 327.880  14
   8  -4   6 961.615 304.367  16
   8  -4   6 1136.30 326.809  10
  -8   4  -7 10891.9 1036.99  14
   8  -4   7 10341.5 884.127  10
  -8   4  -8 8157.07 756.629  14
   8  -3  -8 1183.75 290.320  10
   8  -3  -7 96303.7 3979.73  10
   8  -3  -6-30.3698 248.905  12
   8  -3  -6-20.3537 204.850  10
   8  -3  -5 11576.3 1263.43  10
   8  -3  -4 5086.78 863.625  10
   8  -3  -3 5864.49 953.269  10
   8  -3  -2 13017.0 1459.60  10
   8  -3  -1 548.838 277.248  16
   8  -3  -1 184.400 258.059  10
   8  -3   0 17350.1 1680.84  10
   8  -3   0 15130.5 1450.61  16
   8  -3   1 99527.7 4771.81  10
   8  -3   1 108347. 4757.50  16
  -8   3  -2 17336.4 1686.56  14
   8  -3   2 17072.9 1602.37  10
   8  -3   2 17305.4 1609.11  16
  -8   3  -3 68060.8 3668.66  14
   8  -3   3 65445.9 3458.31  10
   8  -3   3 71711.3 3653.17  16
  -8   3  -4-46.3294 189.919  14
   8  -3   4 185.073 220.319  16
   8  -3   4 324.796 254.570  10
  -8   3  -5 4706.57 789.321  14
   8  -3   5 4510.99 696.449  10
   8  -3   5 4699.99 796.235  16
  -8   3  -6 19122.4 1538.12  14
   8  -3   6 16872.1 1263.94  10
   8  -3   6 19382.7 1564.61  16
  -8   3  -7 20410.6 1476.74  14
   8  -3   7 20218.6 1492.87  16
  -8   3  -8 44898.0 2121.74  14
   8  -3   8 45691.4 2184.07  16
  -8   2   8 33426.3 1749.09  24
   8  -2  -8 36596.4 1924.13  10
   8  -2  -7 12784.0 1117.04  12
   8  -2  -7 12985.0 1179.65  10
   8  -2  -6 82221.9 3854.44  12
   8  -2  -6 80569.4 3793.40  10
   8  -2  -5 4192.39 798.990  12
   8  -2  -5 4390.78 781.397  10
   8  -2  -4 39383.7 2563.61  10
   8  -2  -4 34607.4 2313.37  16
   8  -2  -3 655.638 372.724  10
   8  -2  -3 273.524 196.845  16
   8  -2  -2 542.132 411.622  10
   8  -2  -2 386.477 276.050  16
   8  -2  -1 43979.7 2809.05  10
   8  -2  -1 46492.8 2977.78  16
   8  -2   0 345.701 207.460  10
   8  -2   0 198.195 265.851  16
   8  -2   1 100586. 4678.26  10
   8  -2   1 110872. 5155.91  16
  -8   2  -2 34708.7 2367.06  14
   8  -2   2 29035.2 2099.29  10
   8  -2   2 34618.4 2536.25  16
  -8   2  -3 13017.3 1353.99  14
   8  -2   3 9769.05 1083.78  10
   8  -2   3 13963.4 1543.31  16
  -8   2  -4 102905. 4500.88  14
   8  -2   4 94401.4 4682.16  16
  -8   2  -5 804.303 318.489  14
   8  -2   5 1092.92 483.451  16
  -8   2  -6 2920.70 549.069  14
   8  -2   6 2503.99 575.692  16
  -8   2  -7 4376.42 590.295  14
   8  -2   7 5027.66 746.901  16
   8  -2   8 361.433 217.204  16
  -8   1   9 298.039 149.187  24
   8  -1  -8 24321.5 1482.61  12
   8  -1  -8 21874.9 1356.01  10
   8  -1  -7 63876.8 3104.20  12
   8  -1  -7 58630.4 2808.05  10
   8  -1  -6 28171.6 2076.21  12
   8  -1  -6 26407.7 1801.70  10
   8  -1  -5 47179.8 2956.56  12
   8  -1  -5 40976.3 2461.55  10
   8  -1  -4 104.083 310.114  12
   8  -1  -4 118.999 304.925  10
   8  -1  -4-40.6444 227.605  16
   8  -1  -3 5942.65 883.065  10
   8  -1  -3 5010.55 933.995  16
   8  -1  -2 2300.60 558.700  10
   8  -1  -2 2190.25 646.087  16
   8  -1  -1 6546.22 1097.15  16
   8  -1   0 15221.2 1692.93  16
   8  -1   1 5693.93 1026.39  16
   8  -1   2 69499.7 3576.91  25
   8  -1   2 75797.3 4144.01  16
   8  -1   3 75215.4 3715.05  25
   8  -1   3 80528.3 4260.32  16
   8  -1   4 28723.1 2001.27  25
   8  -1   4 33986.2 2469.98  16
   8  -1   5 4536.68 736.703  25
   8  -1   5 6076.35 968.693  16
   8  -1   6 1179.63 342.094  25
   8  -1   6 1159.61 387.339  16
   8  -1   7 2986.30 438.895  25
   8  -1   7 4631.40 698.968  16
   8  -1   8 923.960 276.507  16
   8   0  -8 557.152 262.546  12
   8   0  -7 27030.8 1908.47  12
   8   0  -6 56758.2 3187.77  12
   8   0  -5 819.077 396.568  12
   8   0  -5 726.676 422.971  16
   8   0  -4 208666. 8175.07  12
   8   0  -4 194474. 7930.68  16
   8   0  -3 10119.5 1389.84  12
   8   0  -3 9545.87 1320.57  16
   8   0  -2 12156.3 1548.66  12
   8   0  -2 9813.21 1360.59  16
   8   0  -1 4824.06 976.228  12
   8   0  -1 3624.22 833.030  16
   8   0   0 5246.71 970.052  12
   8   0   0 3349.46 813.102  16
   8   0   1 75524.4 3910.36  12
   8   0   1 76254.3 4230.79  16
   8   0   2 2139.24 567.539  25
   8   0   2 1552.05 569.166  16
   8   0   3 83245.4 4111.97  25
   8   0   3 88467.5 4458.04  16
   8   0   4 14384.1 1405.37  25
   8   0   4 15898.1 1599.50  16
   8   0   5 10584.7 1124.94  25
   8   0   5 12697.1 1330.98  16
   8   0   6 17922.3 1364.81  25
   8   0   6 17004.3 1437.93  16
   8   0   7 795.326 227.432  25
   8   0   7 1.15399 162.839  16
   8   1  -9 11286.5 835.782  12
   8   1  -9 13275.2 965.837  21
   8   1  -8 8528.37 877.563  12
   8   1  -7 4911.77 744.429  12
   8   1  -6 115434. 4998.33  12
   8   1  -5 76050.8 3926.80  12
   8   1  -4 54302.9 3263.47  12
   8   1  -4 52139.5 3230.02  16
   8   1  -3 8791.82 1247.73  12
   8   1  -3 6436.28 1046.65  16
   8   1  -3 7564.17 950.934   9
   8   1  -2 8743.55 1229.56  12
   8   1  -2 10247.1 1344.94  16
   8   1  -2 8034.96 998.945   9
   8   1  -1 6123.77 971.792  12
   8   1  -1 4833.05 925.123  16
   8   1  -1 6276.14 880.454   9
   8   1   0 191.525 205.610   9
   8   1   0 857.425 351.864  12
   8   1   0 267.959 332.114  16
   8   1   1 10457.7 1311.41  16
   8   1   1 8085.64 942.295   9
   8   1   2 51331.1 3027.60  25
   8   1   2 48372.2 3036.41  16
   8   1   2 49765.6 2541.71   9
   8   1   3 607.127 278.532   9
   8   1   3 712.449 335.037  25
   8   1   3 1033.90 407.017  16
   8   1   4 122759. 5114.59  25
   8   1   4 123666. 5147.56  16
   8   1   5 16449.5 1369.44  25
   8   1   5 17524.5 1379.71  16
   8   1   6 6972.12 763.803  25
   8   1   6 8155.31 758.092  16
   8   2  -8 14838.0 1094.04  12
   8   2  -7 50956.5 2557.51  12
   8   2  -6 512.901 257.691  12
   8   2  -5 33363.3 2216.56  12
   8   2  -4 36132.3 2415.36  12
   8   2  -4 40024.5 2580.04  16
   8   2  -4 39733.5 2334.14   9
   8   2  -3 18235.6 1628.44  12
   8   2  -3 19610.4 1753.80  16
   8   2  -3 19601.3 1575.36   9
   8   2  -2 12453.9 1252.55  12
   8   2  -2 10702.0 1280.78  16
   8   2  -2 11061.7 1171.94   9
   8   2  -1 412.000 254.633   9
   8   2  -1 427.882 213.111  12
   8   2  -1 704.729 296.002  16
   8   2   0 785.258 309.379   9
   8   2   0 1215.15 408.467  16
   8   2   1 28633.2 2058.34  16
   8   2   1 29857.2 1889.04   9
   8   2   2 19577.0 1560.18  16
   8   2   2 18126.2 1355.26   9
   8   2   3 59095.4 2804.98  16
   8   2   3 56544.6 2570.81   9
   8   2   4 1598.40 301.472   9
   8   3  -7 2863.79 424.163  12
   8   3  -6 59248.0 2643.19  12
   8   3  -5 145.001 108.099  12
   8   3  -4 97008.1 3959.51  12
   8   3  -4 107307. 4184.52   9
   8   3  -3 18537.4 1254.75  12
   8   3  -3 20671.6 1490.15   9
   8   3  -2 1531.78 418.231   9
   8   3  -1 37649.7 2128.03   9
   8   3   0 1332.60 356.126   9
   8   3   1 7247.98 771.521   9
   8   3   2 267.766 130.968   9
   9  -3  -2 27111.3 1563.55  12
   9  -3  -1 22120.4 1413.75  12
   9  -3   0 25656.7 1532.38  12
   9  -3   1 4003.15 506.401  12
   9  -2  -4 1149.61 281.222  12
   9  -2  -3 35026.9 1886.25  12
   9  -2  -2 9461.96 910.402  12
   9  -2  -1 43394.6 2217.92  12
   9  -2   0 3780.66 537.221  12
   9  -2   0 4015.72 519.251  16
   9  -2   1 27164.9 1519.92  16
   9  -1  -4 802.749 251.666  12
   9  -1  -3 30481.8 1738.52  12
   9  -1  -2 18705.5 1309.33  12
   9  -1  -1 3175.34 504.628  12
   9  -1  -1 3850.48 562.841  16
   9  -1   0 86949.7 3482.96  12
   9  -1   0 111895. 4006.71  16
   9  -1   1 756.865 271.788  16
   9  -1   2 19219.8 1295.78  16
   9   0  -3 14080.0 1007.91  12
   9   0  -1 30241.1 1759.40  16
   9   0   0 5926.52 704.925  16
   9   0   1 38031.6 1967.39  16
   0   0   0    0.00    0.00   0
TITL OFS_35 in P-1
REM P-1 (#2 in standard setting)
CELL 1.54184   7.301931   8.508045  14.770238 101.2869  91.8354  98.1444
ZERR    2.00   0.000317   0.000301   0.000594   0.0032   0.0034   0.0032
LATT  1
SFAC C H N O Cl Ru
UNIT 34.00 20.00 6.00 4.00 4.00 2.00
TREF
HKLF 4
END
;
_shelx_hkl_checksum              92792
_shelx_res_file
;
    ofs35.res created by SHELXL-2014/7
TITL brown plate
CELL 0.71073 7.301931 8.508045 14.770238 101.2869 91.8354 98.1444
ZERR 2 0.000317 0.000301 0.000594 0.0032 0.0034 0.0032
LATT 1
SFAC C H Cl N O Ru
UNIT 34 20 6 6 4 2
LIST 4
SIZE 0.05 0.08 0.3
L.S. 5 0 0
PLAN -10
TEMP -150.15
fmap 2 53
acta
BOND $H
OMIT -2 150
WGHT    0.045300    0.554300
FVAR       7.39578
RU1   6    0.979889    0.305378    0.201653    11.00000    0.01375    0.01423 =
         0.01338    0.00191    0.00123    0.00090
CL2   3    1.193361    0.262753    0.319165    11.00000    0.01971    0.02045 =
         0.02319    0.00228   -0.00334    0.00473
CL3   3    0.539308    0.290150    0.581739    11.00000    0.02657    0.02859 =
         0.01785    0.00688    0.00633    0.00641
CL1   3    0.765453    0.373291    0.096568    11.00000    0.02782    0.02565 =
         0.02231    0.00433   -0.00669    0.00281
O1    5    0.943344   -0.044779    0.101133    11.00000    0.03740    0.02153 =
         0.03095   -0.00311    0.00785    0.00247
O2    5    1.284177    0.355596    0.073235    11.00000    0.03250    0.03971 =
         0.04172    0.00684    0.01667    0.00391
N2    4    0.782675    0.297616    0.306963    11.00000    0.01670    0.01941 =
         0.02046    0.00431    0.00123    0.00356
N1    4    1.006078    0.549192    0.271053    11.00000    0.01722    0.01794 =
         0.01938    0.00423   -0.00123    0.00150
N3    4    0.647783   -0.119188    0.263657    11.00000    0.02285    0.02259 =
         0.02241    0.00444    0.00230    0.00329
C2    1    1.170297    0.336789    0.121731    11.00000    0.02892    0.01923 =
         0.02383    0.00299    0.00077    0.00350
C13   1    0.615053    0.022829    0.244619    11.00000    0.01750    0.02285 =
         0.01908    0.00442    0.00275   -0.00085
C12   1    0.670036    0.166086    0.321271    11.00000    0.01772    0.01971 =
         0.01905    0.00427   -0.00041    0.00099
C10   1    0.632715    0.295524    0.476529    11.00000    0.02049    0.02557 =
         0.01405    0.00426    0.00141    0.00693
C16   1    0.504812   -0.248268    0.114356    11.00000    0.03146    0.02366 =
         0.02240   -0.00325    0.00720   -0.00754
AFIX  43
H16   2    0.469962   -0.345204    0.069311    11.00000   -1.20000
AFIX   0
C9    1    0.741896    0.434614    0.462100    11.00000    0.02097    0.02091 =
         0.01927    0.00278   -0.00179    0.00587
AFIX  43
H9    2    0.766240    0.529300    0.509569    11.00000   -1.20000
AFIX   0
C11   1    0.594528    0.159784    0.405995    11.00000    0.01877    0.02072 =
         0.02254    0.00498   -0.00011    0.00118
AFIX  43
H11   2    0.518585    0.064619    0.415227    11.00000   -1.20000
AFIX   0
C7    1    0.927568    0.574978    0.353289    11.00000    0.01645    0.01928 =
         0.02088    0.00328   -0.00032    0.00263
C8    1    0.814225    0.431164    0.376447    11.00000    0.01590    0.01805 =
         0.01720    0.00044   -0.00319    0.00265
C17   1    0.594881   -0.251741    0.197036    11.00000    0.02792    0.02342 =
         0.02963    0.00431    0.00701    0.00320
AFIX  43
H17   2    0.621060   -0.353130    0.207599    11.00000   -1.20000
AFIX   0
C1    1    0.950598    0.084492    0.141154    11.00000    0.02082    0.02712 =
         0.02084    0.00690    0.00525    0.00365
C14   1    0.522965    0.039116    0.163869    11.00000    0.02482    0.02381 =
         0.02070    0.00489   -0.00131   -0.00080
AFIX  43
H14   2    0.500171    0.142033    0.154315    11.00000   -1.20000
AFIX   0
C6    1    0.944668    0.730259    0.408132    11.00000    0.02370    0.02243 =
         0.02269    0.00170    0.00060    0.00302
AFIX  43
H6    2    0.891695    0.747188    0.466514    11.00000   -1.20000
AFIX   0
C15   1    0.465588   -0.101297    0.097669    11.00000    0.03095    0.03031 =
         0.01947    0.00402   -0.00217   -0.00568
AFIX  43
H15   2    0.400418   -0.096632    0.041779    11.00000   -1.20000
AFIX   0
C3    1    1.095172    0.675990    0.240073    11.00000    0.02043    0.02588 =
         0.02461    0.00736    0.00040    0.00177
AFIX  43
H3    2    1.146148    0.657102    0.181240    11.00000   -1.20000
AFIX   0
C5    1    1.039792    0.859329    0.376398    11.00000    0.02458    0.02103 =
         0.03052    0.00141   -0.00139    0.00219
AFIX  43
H5    2    1.053333    0.965696    0.413166    11.00000   -1.20000
AFIX   0
C4    1    1.115129    0.833023    0.290962    11.00000    0.02107    0.02014 =
         0.03292    0.00778   -0.00150   -0.00077
AFIX  43
H4    2    1.179038    0.920648    0.267773    11.00000   -1.20000
AFIX   0
HKLF 4
REM  brown plate
REM R1 =  0.0329 for    3405 Fo > 4sig(Fo)  and  0.0352 for all    3662 data
REM    235 parameters refined using      0 restraints
END
WGHT      0.0453      0.5543
REM Highest difference peak  0.740,  deepest hole -1.430,  1-sigma level  0.116
Q1    1   0.8053  0.2347  0.2226  11.00000  0.05    0.74
Q2    1   1.1546  0.3677  0.1833  11.00000  0.05    0.55
Q3    1   0.9798  0.4407  0.2798  11.00000  0.05    0.49
Q4    1   0.8177  0.3136  0.1837  11.00000  0.05    0.48
Q5    1   0.9875  0.1757  0.1213  11.00000  0.05    0.46
Q6    1   0.8204  0.2974  0.2647  11.00000  0.05    0.44
Q7    1   1.0396  0.2736  0.1173  11.00000  0.05    0.44
Q8    1   1.1246  0.1177  0.1131  11.00000  0.05    0.43
Q9    1   0.9045  0.1870  0.0672  11.00000  0.05    0.40
Q10   1   1.2671  0.3570  0.1357  11.00000  0.05    0.40
;
_shelx_res_checksum              24665
loop_
_space_group_symop_operation_xyz
'x, y, z'
'-x, -y, -z'
loop_
_atom_site_type_symbol
_atom_site_label
_atom_site_fract_x
_atom_site_fract_y
_atom_site_fract_z
_atom_site_U_iso_or_equiv
_atom_site_adp_type
_atom_site_calc_flag
_atom_site_occupancy
Ru Ru1 0.97989(3) 0.30538(2) 0.20165(2) 0.01402(9) Uani d 1
Cl Cl2 1.19336(10) 0.26275(9) 0.31916(5) 0.02134(16) Uani d 1
Cl Cl3 0.53931(11) 0.29015(9) 0.58174(5) 0.02370(16) Uani d 1
Cl Cl1 0.76545(11) 0.37329(9) 0.09657(5) 0.02563(17) Uani d 1
O O1 0.9433(4) -0.0448(3) 0.10113(17) 0.0312(5) Uani d 1
O O2 1.2842(4) 0.3556(3) 0.07324(19) 0.0380(6) Uani d 1
N N2 0.7827(3) 0.2976(3) 0.30696(17) 0.0187(5) Uani d 1
N N1 1.0061(3) 0.5492(3) 0.27105(17) 0.0183(5) Uani d 1
N N3 0.6478(4) -0.1192(3) 0.26366(18) 0.0226(5) Uani d 1
C C2 1.1703(5) 0.3368(4) 0.1217(2) 0.0242(6) Uani d 1
C C13 0.6151(4) 0.0228(4) 0.2446(2) 0.0201(6) Uani d 1
C C12 0.6700(4) 0.1661(4) 0.3213(2) 0.0190(6) Uani d 1
C C10 0.6327(4) 0.2955(4) 0.4765(2) 0.0197(6) Uani d 1
C C16 0.5048(5) -0.2483(4) 0.1144(2) 0.0280(7) Uani d 1
H H16 0.4700 -0.3452 0.0693 0.034 Uiso calc 1
C C9 0.7419(4) 0.4346(4) 0.4621(2) 0.0204(6) Uani d 1
H H9 0.7662 0.5293 0.5096 0.024 Uiso calc 1
C C11 0.5945(4) 0.1598(4) 0.4060(2) 0.0208(6) Uani d 1
H H11 0.5186 0.0646 0.4152 0.025 Uiso calc 1
C C7 0.9276(4) 0.5750(3) 0.3533(2) 0.0190(6) Uani d 1
C C8 0.8142(4) 0.4312(3) 0.3764(2) 0.0176(5) Uani d 1
C C17 0.5949(5) -0.2517(4) 0.1970(2) 0.0271(7) Uani d 1
H H17 0.6211 -0.3531 0.2076 0.032 Uiso calc 1
C C1 0.9506(4) 0.0845(4) 0.1412(2) 0.0226(6) Uani d 1
C C14 0.5230(4) 0.0391(4) 0.1639(2) 0.0236(6) Uani d 1
H H14 0.5002 0.1420 0.1543 0.028 Uiso calc 1
C C6 0.9447(4) 0.7303(4) 0.4081(2) 0.0234(6) Uani d 1
H H6 0.8917 0.7472 0.4665 0.028 Uiso calc 1
C C15 0.4656(5) -0.1013(4) 0.0977(2) 0.0281(7) Uani d 1
H H15 0.4004 -0.0966 0.0418 0.034 Uiso calc 1
C C3 1.0952(4) 0.6760(4) 0.2401(2) 0.0235(6) Uani d 1
H H3 1.1461 0.6571 0.1812 0.028 Uiso calc 1
C C5 1.0398(5) 0.8593(4) 0.3764(2) 0.0261(6) Uani d 1
H H5 1.0533 0.9657 0.4132 0.031 Uiso calc 1
C C4 1.1151(4) 0.8330(4) 0.2910(2) 0.0248(6) Uani d 1
H H4 1.1790 0.9206 0.2678 0.030 Uiso calc 1
loop_
_atom_site_aniso_label
_atom_site_aniso_U_11
_atom_site_aniso_U_22
_atom_site_aniso_U_33
_atom_site_aniso_U_12
_atom_site_aniso_U_13
_atom_site_aniso_U_23
Ru1 0.01375(13) 0.01423(13) 0.01338(13) 0.00090(9) 0.00123(8) 0.00191(9)
Cl2 0.0197(3) 0.0204(3) 0.0232(3) 0.0047(3) -0.0033(3) 0.0023(3)
Cl3 0.0266(4) 0.0286(4) 0.0179(3) 0.0064(3) 0.0063(3) 0.0069(3)
Cl1 0.0278(4) 0.0256(4) 0.0223(4) 0.0028(3) -0.0067(3) 0.0043(3)
O1 0.0374(14) 0.0215(11) 0.0310(13) 0.0025(10) 0.0078(10) -0.0031(10)
O2 0.0325(14) 0.0397(14) 0.0417(15) 0.0039(11) 0.0167(12) 0.0068(12)
N2 0.0167(11) 0.0194(12) 0.0205(12) 0.0036(9) 0.0012(9) 0.0043(9)
N1 0.0172(12) 0.0179(11) 0.0194(12) 0.0015(9) -0.0012(9) 0.0042(9)
N3 0.0228(13) 0.0226(12) 0.0224(13) 0.0033(10) 0.0023(10) 0.0044(10)
C2 0.0289(16) 0.0192(14) 0.0238(15) 0.0035(12) 0.0008(12) 0.0030(12)
C13 0.0175(13) 0.0229(14) 0.0191(14) -0.0009(11) 0.0027(11) 0.0044(11)
C12 0.0177(13) 0.0197(13) 0.0191(14) 0.0010(11) -0.0004(11) 0.0043(11)
C10 0.0205(14) 0.0256(14) 0.0141(13) 0.0069(11) 0.0014(10) 0.0043(11)
C16 0.0315(17) 0.0237(15) 0.0224(15) -0.0075(13) 0.0072(13) -0.0033(12)
C9 0.0210(14) 0.0209(14) 0.0193(14) 0.0059(11) -0.0018(11) 0.0028(11)
C11 0.0188(14) 0.0207(14) 0.0225(14) 0.0012(11) -0.0001(11) 0.0050(11)
C7 0.0164(13) 0.0193(13) 0.0209(14) 0.0026(11) -0.0003(11) 0.0033(11)
C8 0.0159(13) 0.0180(13) 0.0172(13) 0.0027(10) -0.0032(10) 0.0004(10)
C17 0.0279(16) 0.0234(15) 0.0296(17) 0.0032(13) 0.0070(13) 0.0043(13)
C1 0.0208(14) 0.0271(16) 0.0208(14) 0.0037(12) 0.0052(11) 0.0069(12)
C14 0.0248(15) 0.0238(14) 0.0207(15) -0.0008(12) -0.0013(12) 0.0049(12)
C6 0.0237(15) 0.0224(15) 0.0227(15) 0.0030(12) 0.0006(12) 0.0017(12)
C15 0.0309(17) 0.0303(16) 0.0195(15) -0.0057(14) -0.0022(12) 0.0040(12)
C3 0.0204(14) 0.0259(15) 0.0246(15) 0.0018(12) 0.0004(12) 0.0074(12)
C5 0.0246(15) 0.0210(15) 0.0305(17) 0.0022(12) -0.0014(13) 0.0014(12)
C4 0.0211(14) 0.0201(14) 0.0329(17) -0.0008(12) -0.0015(12) 0.0078(12)
loop_
_atom_type_symbol
_atom_type_description
_atom_type_scat_dispersion_real
_atom_type_scat_dispersion_imag
_atom_type_scat_source
C C 0.0033 0.0016 'International Tables Vol C Tables 4.2.6.8 and 6.1.1.4'
H H 0.0000 0.0000 'International Tables Vol C Tables 4.2.6.8 and 6.1.1.4'
Cl Cl 0.1484 0.1585 'International Tables Vol C Tables 4.2.6.8 and 6.1.1.4'
N N 0.0061 0.0033 'International Tables Vol C Tables 4.2.6.8 and 6.1.1.4'
O O 0.0106 0.0060 'International Tables Vol C Tables 4.2.6.8 and 6.1.1.4'
Ru Ru -1.2594 0.8363 'International Tables Vol C Tables 4.2.6.8 and 6.1.1.4'
loop_
_geom_angle_atom_site_label_1
_geom_angle_atom_site_label_2
_geom_angle_atom_site_label_3
_geom_angle
C2 Ru1 C1 85.52(13)
C2 Ru1 N1 96.08(11)
C1 Ru1 N1 178.40(10)
C2 Ru1 N2 171.98(12)
C1 Ru1 N2 101.47(11)
N1 Ru1 N2 76.94(10)
C2 Ru1 Cl1 90.26(10)
C1 Ru1 Cl1 93.67(10)
N1 Ru1 Cl1 86.24(7)
N2 Ru1 Cl1 93.17(7)
C2 Ru1 Cl2 92.02(10)
C1 Ru1 Cl2 92.10(10)
N1 Ru1 Cl2 87.93(7)
N2 Ru1 Cl2 83.87(7)
Cl1 Ru1 Cl2 173.94(3)
C12 N2 C8 118.4(3)
C12 N2 Ru1 126.9(2)
C8 N2 Ru1 112.57(19)
C3 N1 C7 119.5(3)
C3 N1 Ru1 125.0(2)
C7 N1 Ru1 115.54(19)
C13 N3 C17 116.5(3)
O2 C2 Ru1 179.6(3)
N3 C13 C14 124.5(3)
N3 C13 C12 114.9(3)
C14 C13 C12 120.4(3)
N2 C12 C11 122.1(3)
N2 C12 C13 120.7(3)
C11 C12 C13 117.1(3)
C11 C10 C9 120.4(3)
C11 C10 Cl3 119.0(2)
C9 C10 Cl3 120.6(2)
C17 C16 C15 119.1(3)
C17 C16 H16 120.5
C15 C16 H16 120.5
C8 C9 C10 117.9(3)
C8 C9 H9 121.0
C10 C9 H9 121.0
C10 C11 C12 118.4(3)
C10 C11 H11 120.8
C12 C11 H11 120.8
N1 C7 C6 120.8(3)
N1 C7 C8 115.5(3)
C6 C7 C8 123.5(3)
N2 C8 C9 122.6(3)
N2 C8 C7 115.3(3)
C9 C8 C7 122.0(3)
N3 C17 C16 123.4(3)
N3 C17 H17 118.3
C16 C17 H17 118.3
O1 C1 Ru1 175.0(3)
C15 C14 C13 117.3(3)
C15 C14 H14 121.3
C13 C14 H14 121.3
C5 C6 C7 119.1(3)
C5 C6 H6 120.4
C7 C6 H6 120.4
C16 C15 C14 119.1(3)
C16 C15 H15 120.5
C14 C15 H15 120.5
N1 C3 C4 122.3(3)
N1 C3 H3 118.9
C4 C3 H3 118.9
C4 C5 C6 119.8(3)
C4 C5 H5 120.1
C6 C5 H5 120.1
C5 C4 C3 118.4(3)
C5 C4 H4 120.8
C3 C4 H4 120.8
loop_
_geom_bond_atom_site_label_1
_geom_bond_atom_site_label_2
_geom_bond_distance
_geom_bond_publ_flag
Ru1 C2 1.877(3) yes
Ru1 C1 1.895(3) yes
Ru1 N1 2.105(2) yes
Ru1 N2 2.157(2) yes
Ru1 Cl1 2.3762(8) yes
Ru1 Cl2 2.4098(7) yes
Cl3 C10 1.723(3) ?
O1 C1 1.135(4) ?
O2 C2 1.129(4) ?
N2 C12 1.348(4) ?
N2 C8 1.361(4) ?
N1 C3 1.345(4) ?
N1 C7 1.352(4) ?
N3 C13 1.344(4) ?
N3 C17 1.344(4) ?
C13 C14 1.391(4) ?
C13 C12 1.490(4) ?
C12 C11 1.391(4) ?
C10 C11 1.384(4) ?
C10 C9 1.387(4) ?
C16 C17 1.376(5) ?
C16 C15 1.387(5) ?
C16 H16 0.9500 ?
C9 C8 1.383(4) ?
C9 H9 0.9500 ?
C11 H11 0.9500 ?
C7 C6 1.395(4) ?
C7 C8 1.481(4) ?
C17 H17 0.9500 ?
C14 C15 1.390(4) ?
C14 H14 0.9500 ?
C6 C5 1.384(4) ?
C6 H6 0.9500 ?
C15 H15 0.9500 ?
C3 C4 1.384(4) ?
C3 H3 0.9500 ?
C5 C4 1.383(5) ?
C5 H5 0.9500 ?
C4 H4 0.9500 ?
loop_
_geom_hbond_atom_site_label_D
_geom_hbond_atom_site_label_H
_geom_hbond_atom_site_label_A
_geom_hbond_site_symmetry_A
_geom_hbond_distance_DH
_geom_hbond_distance_HA
_geom_hbond_distance_DA
_geom_hbond_angle_DHA
_geom_hbond_publ_flag
C9 H9 Cl2 2_766 0.95 2.77 3.687(3) 162.6 yes
