#------------------------------------------------------------------------------
#$Date: 2017-07-25 12:55:55 +0300 (Tue, 25 Jul 2017) $
#$Revision: 199215 $
#$URL: file:///home/coder/svn-repositories/cod/cif/2/24/22/2242256.cif $
#------------------------------------------------------------------------------
#
# This file is available in the Crystallography Open Database (COD),
# http://www.crystallography.net/. The original data for this entry
# were provided by IUCr Journals, http://journals.iucr.org/.
#
# The file may be used within the scientific community so long as
# proper attribution is given to the journal article from which the
# data were obtained.
#
data_2242256
loop_
_publ_author_name
'German, Konstantin E.'
'Grigoriev, Mikhail S.'
'Garashchenko, Bogdan L.'
'Kopytin, Alexander V.'
'Tyupina, Ekaterina A.'
_publ_section_title
;
 Redetermination of the crystal structure of NaTcO~4~ at 100 and 296K
 based on single-crystal X-ray data
;
_journal_coeditor_code           WM5391
_journal_issue                   7
_journal_name_full               'Acta Crystallographica Section E'
_journal_page_first              1037
_journal_page_last               1040
_journal_paper_doi               10.1107/S2056989017008362
_journal_volume                  73
_journal_year                    2017
_chemical_formula_iupac          'Na Tc O4'
_chemical_formula_moiety         'O4 Tc, Na'
_chemical_formula_sum            'Na O4 Tc'
_chemical_formula_weight         185.9
_chemical_melting_point_lt       1063
_chemical_name_common            'sodium pertechnetate'
_chemical_name_systematic
;
Sodium pertechnetate
;
_space_group_crystal_system      tetragonal
_space_group_IT_number           88
_space_group_name_Hall           '-I 4ad'
_space_group_name_H-M_alt        'I 41/a'
_symmetry_space_group_name_Hall  '-I 4ad'
_symmetry_space_group_name_H-M   'I 41/a :2'
_cell_angle_alpha                90
_cell_angle_beta                 90
_cell_angle_gamma                90
_cell_formula_units_Z            4
_cell_length_a                   5.2945(2)
_cell_length_b                   5.2945(2)
_cell_length_c                   11.7470(5)
_cell_measurement_reflns_used    5622
_cell_measurement_temperature    100(2)
_cell_measurement_theta_max      45.380
_cell_measurement_theta_min      4.222
_cell_volume                     329.29(2)
_computing_cell_refinement
;
SAINT-Plus (Bruker, 2008)
;
_computing_data_collection
;
APEX2 (Bruker, 2008)
;
_computing_data_reduction
;
SAINT-Plus (Bruker, 2008)
;
_computing_molecular_graphics
;
SHELXTL (Sheldrick, 2008)
;
_computing_publication_material
;
SHELXTL (Sheldrick, 2008)
;
_computing_structure_refinement
;
SHELXL2014 (Sheldrick, 2015b)
;
_computing_structure_solution
;
SHELXS2014 (Sheldrick, 2015a)
;
_diffrn_ambient_temperature      100(2)
_diffrn_measured_fraction_theta_max 0.990
_diffrn_measurement_device_type  'Bruker Kappa APEXII area-detector'
_diffrn_measurement_method       '\w- and \f-scans'
_diffrn_radiation_type           MoK\a
_diffrn_radiation_wavelength     0.71073
_diffrn_reflns_av_R_equivalents  0.0183
_diffrn_reflns_limit_h_max       10
_diffrn_reflns_limit_h_min       -10
_diffrn_reflns_limit_k_max       10
_diffrn_reflns_limit_k_min       -10
_diffrn_reflns_limit_l_max       23
_diffrn_reflns_limit_l_min       -22
_diffrn_reflns_number            6909
_diffrn_reflns_theta_full        25.242
_diffrn_reflns_theta_max         44.992
_diffrn_reflns_theta_min         4.222
_exptl_absorpt_coefficient_mu    4.332
_exptl_absorpt_correction_T_max  0.478
_exptl_absorpt_correction_T_min  0.399
_exptl_absorpt_correction_type   multi-scan
_exptl_absorpt_process_details
;
(<i>SADABS</i>; Bruker, 2008)
;
_exptl_crystal_colour            colourless
_exptl_crystal_density_diffrn    3.750
_exptl_crystal_description       fragment
_exptl_crystal_F_000             344
_exptl_crystal_size_max          0.340
_exptl_crystal_size_mid          0.280
_exptl_crystal_size_min          0.200
_refine_diff_density_max         0.261
_refine_diff_density_min         -0.337
_refine_ls_extinction_coef       0.0489(10)
_refine_ls_extinction_expression Fc^*^=kFc[1+0.001xFc^2^\l^3^/sin(2\q)]^-1/4^
_refine_ls_extinction_method
;
SHELXL2014 (Sheldrick, 2015b)
;
_refine_ls_goodness_of_fit_ref   1.310
_refine_ls_hydrogen_treatment    undef
_refine_ls_matrix_type           full
_refine_ls_number_parameters     15
_refine_ls_number_reflns         678
_refine_ls_number_restraints     0
_refine_ls_restrained_S_all      1.310
_refine_ls_R_factor_all          0.0098
_refine_ls_R_factor_gt           0.0092
_refine_ls_shift/su_max          0.000
_refine_ls_shift/su_mean         0.000
_refine_ls_structure_factor_coef Fsqd
_refine_ls_weighting_details
'w=1/[\s^2^(Fo^2^)+(0.0029P)^2^+0.0769P] where P=(Fo^2^+2Fc^2^)/3'
_refine_ls_weighting_scheme      calc
_refine_ls_wR_factor_gt          0.0166
_refine_ls_wR_factor_ref         0.0168
_reflns_number_gt                661
_reflns_number_total             678
_reflns_threshold_expression     'I > 2\s(I)'
_cod_data_source_file            wm5391sup1.cif
_cod_data_source_block           I
_cod_original_cell_volume        329.29(3)
_cod_database_code               2242256
_shelx_space_group_comment
;
The symmetry employed for this shelxl refinement is uniquely defined
by the following loop, which should always be used as a source of
symmetry information in preference to the above space-group names.
They are only intended as comments.
;
_shelx_estimated_absorpt_t_min   0.321
_shelx_estimated_absorpt_t_max   0.478
_shelx_hkl_file
;
  -1  -1   0   -0.90    0.11
   1   1   0   -0.67    0.15
  -2  -2   0  775.24   22.82
  -1   3   0   -0.37    0.09
  -1   3   0   -0.39    0.09
  -3  -3   0    0.10    0.23
   3  -3   0   -0.10    0.09
  -3   3   0   -0.06    0.09
  -3   3   0   -0.32    0.09
  -3   3   0    0.06    0.14
   3   3   0    1.25    0.23
   3  -3   0    0.29    0.16
   2   4   0  797.11   13.29
   2   4   0  792.11   22.19
   2   4   0  774.61   13.61
   4  -2   0  805.67   14.07
  -4   2   0  781.22   13.91
   2   4   0  799.59   13.58
  -4   2   0  803.07   14.31
  -4   2   0  769.70   13.43
   2   4   0  776.74   14.15
   0   4   0  600.57   10.47
   0   4   0  618.70   14.51
   0   4   0  607.43   16.89
   4   0   0  609.31   10.48
   0   4   0  624.95   11.09
  -4   0   0  629.92   15.61
   0   4   0  616.19   10.66
  -4   0   0  631.54   11.22
  -2   4   0  681.29   11.92
   4   2   0  643.02   11.56
  -4  -2   0  644.84   11.20
   4   2   0  644.56   11.12
   2  -4   0  629.99   12.15
   2  -4   0  661.89   11.26
   4   2   0  654.72   10.83
  -4  -2   0  672.11   17.72
  -2   4   0  675.75   11.30
   4  -4   0  183.40    3.71
  -4   4   0  188.88    4.03
   4   4   0  185.66    3.69
   4   4   0  184.74    3.69
   4  -4   0  186.44    3.95
  -4   4   0  184.46    3.94
   5  -3   0    0.05    0.14
  -5   3   0    0.23    0.18
  -5   3   0   -0.01    0.10
  -5   3   0    0.18    0.15
   3   5   0    0.14    0.14
   3   5   0    0.24    0.15
   1   5   0    0.16    0.12
   1   5   0    0.98    0.24
  -5   1   0    0.50    0.20
   1   5   0    1.51    0.26
   5  -1   0   -0.01    0.13
   1   5   0    0.01    0.13
  -1   5   0    0.36    0.17
  -5  -1   0    0.16    0.11
  -1   5   0   -0.08    0.12
  -1   5   0   -0.03    0.14
   5   1   0   -0.02    0.13
  -5  -1   0   -0.01    0.15
   3  -5   0   -0.03    0.09
   3  -5   0    0.21    0.16
   5   3   0    0.52    0.19
  -3   5   0    0.52    0.22
  -5  -3   0    0.14    0.06
  -3   5   0    0.27    0.19
   5   3   0    0.27    0.16
   5  -5   0    1.80    0.41
  -5   5   0    0.00    0.18
   5   5   0    0.63    0.24
  -5   5   0    0.01    0.17
  -6   4   0  349.95    6.91
   4   6   0  343.91    6.62
  -6   4   0  346.57    6.95
   6  -4   0  339.00    7.01
  -4  -6   0  350.93    6.05
   4   6   0  353.93    6.58
  -6   2   0  235.51    4.77
   2   6   0  235.61    4.66
   6  -2   0  235.49    4.88
   2   6   0  233.56    4.53
  -6   2   0  234.37    4.71
   2   6   0  234.74    4.86
   0   6   0  266.27    5.16
   6   0   0  261.17    5.13
   0   6   0  269.16    4.94
  -6   0   0  270.83    5.11
   0   6   0  264.79    6.18
   0   6   0  269.18    5.02
   0   6   0  270.85    5.55
   6   2   0  368.49    6.41
   2  -6   0  370.02    6.92
  -2   6   0  369.35    7.41
  -2   6   0  362.64    6.88
  -2   6   0  368.31    6.94
  -6  -2   0  364.55    6.55
   6   2   0  360.46    6.59
   4  -6   0  273.15    5.49
  -4   6   0  278.15    5.77
  -6  -4   0  275.93    4.91
   6   4   0  275.22    5.46
   6   4   0  272.69    5.41
  -4   6   0  277.75    6.01
   4  -6   0  274.68    5.72
   6  -6   0  146.31    3.85
   6   6   0  141.48    3.47
  -6  -6   0  145.10    2.81
  -6   6   0  148.85    3.78
  -6   6   0  144.12    3.82
   6   6   0  144.41    3.53
  -5  -7   0   -0.01    0.09
   7  -5   0   -0.22    0.19
  -7   5   0    0.21    0.24
   5   7   0    0.30    0.22
   5   7   0   -0.10    0.18
  -7   3   0    0.14    0.16
   7  -3   0    0.07    0.18
   3   7   0    0.44    0.23
  -3  -7   0    0.18    0.12
   3   7   0    0.17    0.20
   1   7   0    0.18    0.19
  -7   1   0    0.09    0.15
  -1  -7   0    0.09    0.12
   1   7   0    0.43    0.22
   7  -1   0    0.03    0.16
   1   7   0    0.71    0.20
   1   7   0    1.40    0.35
  -1   7   0    0.50    0.28
   7   1   0    1.03    0.28
   7   1   0    0.18    0.14
   3  -7   0    0.18    0.17
  -3   7   0    0.11    0.22
  -7  -3   0    0.41    0.15
  -3   7   0    0.15    0.19
  -3   7   0    1.33    0.36
   7   3   0    0.14    0.19
   5  -7   0    0.13    0.25
  -5   7   0    0.12    0.24
  -5   7   0    0.16    0.25
   7   5   0   -0.07    0.16
   7   5   0    0.09    0.21
  -7  -7   0    0.13    0.14
   7   7   0   -0.07    0.22
  -7   7   0   -0.10    0.23
   7  -7   0    0.46    0.33
   7   7   0    0.22    0.25
  -6  -8   0   59.98    1.50
   6   8   0   62.65    2.15
   8  -6   0   58.28    2.31
  -8   6   0   57.24    2.21
   6   8   0   61.04    2.04
   4   8   0  131.56    3.30
  -4  -8   0  131.92    2.78
   8  -4   0  129.44    3.64
   4   8   0  133.35    3.33
  -2  -8   0  157.01    3.36
   2   8   0  154.93    3.67
  -8   2   0  155.65    3.67
   8  -2   0  158.10    3.89
   2   8   0  160.97    3.60
   8   0   0  288.26    5.74
   0  -8   0  285.98    5.74
  -8   0   0  281.04    5.78
   8   0   0  284.56    5.53
   0   8   0  290.40    5.58
   0   8   0  287.74    5.85
   0   8   0  285.75    6.30
  -8  -2   0   89.86    2.30
  -2   8   0   90.97    2.86
  -2   8   0   95.28    2.59
   2  -8   0   89.41    2.47
  -2   8   0   88.56    2.55
   8   2   0   90.39    2.44
  -4   8   0  151.47    3.86
  -8  -4   0  148.35    3.19
  -4   8   0  148.18    3.72
  -4   8   0  148.85    4.05
   8   4   0  142.26    3.59
   8   6   0   80.69    2.58
  -6   8   0   87.38    2.83
  -6   8   0   85.57    2.67
  -6   8   0   89.33    2.87
  -8  -6   0   87.34    2.07
   5   9   0    0.31    0.31
  -5  -9   0    0.28    0.17
   9  -5   0    0.19    0.26
   5   9   0    0.30    0.25
  -3  -9   0    0.27    0.17
   3   9   0    0.12    0.21
   9  -3   0    0.00    0.21
   3   9   0    0.06    0.23
   1   9   0    0.24    0.27
   9  -1   0    0.14    0.20
   1   9   0    0.04    0.19
  -1  -9   0   -0.04    0.15
  -9   1   0    0.28    0.21
   1  -9   0    0.22    0.19
  -9  -1   0    0.32    0.21
  -1   9   0    0.31    0.28
   9   1   0    0.10    0.21
  -1   9   0    0.05    0.18
  -1   9   0    0.29    0.23
  -3   9   0    0.34    0.27
  -3   9   0   -0.13    0.20
  -3   9   0   -0.02    0.19
  -9  -3   0    0.20    0.19
   9   3   0    0.01    0.20
   3  -9   0    0.86    0.32
  -5   9   0   -0.14    0.26
  -9  -5   0    0.12    0.18
  -5   9   0    0.24    0.25
  -5   9   0    0.54    0.31
   9   5   0    0.09    0.25
 -10   2   0   73.35    2.32
   2  10   0   77.35    2.40
  -2 -10   0   77.36    2.16
  10  -2   0   78.35    2.47
   0  10   0   69.35    2.27
  10   0   0   71.77    2.07
   0 -10   0   66.83    2.11
   0  10   0   65.89    2.40
  -2  10   0  113.24    2.96
  10   2   0  115.72    3.05
 -10  -2   0  110.62    2.94
  -2  10   0  115.53    3.48
   2 -10   0  111.89    3.02
  -2  10   0  110.76    3.09
   1   0   1  342.94    8.95
   0   1   1  325.37    9.91
   0   1  -1  367.48    8.30
  -1   0  -1  343.63    8.78
   0  -1  -1  351.49   10.32
   1   2   1  422.35   13.06
  -1  -2   1  437.33   10.01
   2  -1   1  430.80   10.92
  -1  -2  -1  420.57   12.85
   1   2  -1  410.67   13.13
   1   2  -1  440.46    9.90
  -2  -1   1   17.03    0.75
   3  -2   1  362.63    9.05
  -3   2   1  371.97    6.48
   3  -2   1  368.08    6.46
  -3   2   1  354.78    6.47
  -3   2   1  368.64    6.70
  -3   2  -1  372.47    6.49
   2   3  -1  355.45   10.13
  -3   2  -1  359.48    6.44
   3  -2  -1  367.67    6.50
  -2  -3  -1  373.46   10.30
   0   3   1   94.96    3.28
  -3   0   1  104.10    1.92
  -3   0  -1  101.53    1.89
  -3   0  -1  100.85    2.68
   0   3  -1  100.81    2.52
   2  -3   1   66.09    1.47
   2  -3   1   71.93    1.58
  -2   3   1   64.75    1.62
  -2   3   1   66.67    1.57
   3   2   1   64.22    1.45
  -3  -2  -1   63.29    2.39
  -2   3  -1   67.60    1.57
  -2   3  -1   64.62    1.59
   3   4   1  128.69    2.71
   4  -3   1  135.20    2.95
  -4   3   1  130.59    2.91
  -4   3   1  128.16    2.90
  -4   3   1  131.85    2.73
   3   4   1  133.34    2.76
   3   4  -1  132.18    2.37
   3   4  -1  132.45    2.71
   4  -3  -1  132.17    2.96
   3   4  -1  133.83    2.71
  -4   3  -1  136.33    2.93
  -4   3  -1  135.67    2.94
  -4   3  -1  132.00    2.75
  -4   1   1  145.90    2.85
   1   4   1  141.98    4.70
   1   4   1  146.10    2.78
   4  -1   1  144.22    2.93
   1   4   1  146.07    2.86
   1   4   1  147.88    2.65
   1   4   1  142.36    2.98
   1   4  -1  139.84    4.71
   1   4  -1  143.97    2.98
  -4   1  -1  145.91    2.84
   1   4  -1  143.15    2.80
  -1  -4  -1  143.99    2.51
   4  -1  -1  147.07    2.97
   1   4  -1  143.08    2.69
   1   4  -1  145.48    3.34
   1   4  -1  146.13    2.74
   4   1   1  151.07    2.83
  -4  -1   1  151.95    2.78
  -1   4   1  152.60    3.23
   1  -4   1  151.04    2.95
  -1   4   1  149.25    4.93
   4   1   1  147.85    2.93
  -1   4   1  151.71    2.99
  -4  -1   1  151.78    4.58
   4   1   1  151.25    2.82
  -4  -1  -1  156.60    4.21
   4   1  -1  149.89    2.86
  -1   4  -1  160.25    3.23
  -4  -1  -1  153.10    2.72
  -1   4  -1  148.32    2.99
   4   3   1  104.46    2.26
   4   3   1  106.07    2.29
  -4  -3   1  104.81    1.85
   3  -4   1  105.13    2.29
  -4  -3   1  105.68    3.77
  -3   4   1  104.04    2.53
  -3   4   1  107.41    2.46
   3  -4   1  102.60    2.42
  -3   4  -1  104.49    2.44
   4   3  -1  103.15    2.23
   4   3  -1  103.74    2.25
   3  -4  -1  105.23    2.31
  -4  -3  -1  103.92    3.79
   4   3  -1  106.84    1.95
   3  -4  -1  106.58    2.45
  -3   4  -1  104.99    2.51
  -5   4   1   62.53    1.86
  -5   4   1   63.67    1.94
   4   5   1   64.49    1.79
   4   5   1   62.47    1.75
  -4  -5   1   62.10    1.25
   5  -4   1   60.36    1.93
   5  -4  -1   62.72    1.97
  -5   4  -1   63.43    1.86
   4   5  -1   64.99    1.73
  -5   4  -1   63.07    1.94
   4   5  -1   64.23    1.77
   2   5   1   54.83    1.46
   2   5   1   54.78    1.51
  -5   2   1   52.44    1.42
  -5   2   1   54.90    1.58
   5  -2   1   52.23    1.58
  -5   2   1   56.27    1.47
   2   5   1   54.14    1.49
   2   5  -1   55.80    1.46
   2   5  -1   57.22    1.46
   2   5  -1   54.69    1.23
  -5   2  -1   54.17    1.46
  -5   2  -1   52.73    1.55
   2   5  -1   54.90    1.50
   5  -2  -1   54.71    1.63
  -5   0   1  135.38    2.75
  -5   0   1  138.94    3.57
   0   5   1  133.62    3.31
   0   5   1  137.13    2.74
   5   0   1  134.84    2.82
   0   5   1  135.05    2.73
   0   5   1  137.99    2.88
   0  -5   1  139.38    2.73
   0   5   1  133.23    3.06
   0   5  -1  134.24    3.03
   0   5  -1  137.11    2.82
   0   5  -1  138.15    2.77
   0   5  -1  133.28    2.67
   0   5  -1  134.85    3.44
  -5   0  -1  136.16    2.72
  -5   0  -1  139.21    3.67
   5   0  -1  133.94    2.85
   5   2   1  185.48    3.39
  -5  -2   1  193.29    3.48
   5   2   1  187.99    3.75
  -5  -2   1  194.30    5.93
   2  -5   1  188.79    3.79
   5   2   1  186.35    3.63
  -2   5   1  186.16    4.12
  -2   5   1  193.47    3.89
   2  -5   1  186.50    3.83
   5   2  -1  188.66    3.66
   5   2  -1  187.82    3.70
  -5  -2  -1  190.10    5.41
  -2   5  -1  193.99    3.90
   2  -5  -1  187.39    3.81
  -5  -2  -1  191.98    3.38
  -2   5  -1  186.36    4.09
   5   2  -1  193.76    3.50
   4  -5   1   48.31    1.44
   5   4   1   50.31    1.51
   5   4   1   54.25    1.56
  -4   5   1   49.42    1.68
   4  -5   1   48.94    1.65
  -4   5   1   51.67    1.69
  -5  -4   1   47.94    1.05
   4  -5  -1   51.05    1.48
  -4   5  -1   47.97    1.66
   5   4  -1   49.46    1.51
   5   4  -1   51.38    1.49
  -4   5  -1   47.23    1.64
   4  -5  -1   50.42    1.67
  -6   5   1   42.07    1.69
   5   6   1   43.04    1.53
   5   6   1   41.36    1.54
  -5  -6   1   42.31    1.05
  -6   5   1   42.14    1.59
   6  -5   1   39.95    1.71
  -6   5  -1   42.86    1.71
   6  -5  -1   42.47    1.73
  -6   5  -1   39.95    1.55
   5   6  -1   43.09    1.49
   5   6  -1   42.98    1.56
   3   6   1  128.68    2.95
   3   6   1  127.42    2.90
  -6   3   1  126.82    3.09
  -6   3   1  124.64    2.89
   6  -3   1  127.35    3.19
  -3  -6   1  127.35    2.48
  -6   3  -1  122.62    3.06
   6  -3  -1  125.68    3.18
   3   6  -1  127.04    2.87
   3   6  -1  131.11    2.90
  -6   3  -1  128.27    2.91
  -1  -6   1   33.01    0.98
   6  -1   1   37.06    1.27
   1   6   1   33.39    1.18
  -6   1   1   37.43    1.16
   1   6   1   33.26    1.25
   1   6   1   33.19    0.98
   1   6   1   32.48    1.13
   1   6  -1   32.84    1.09
   1   6  -1   34.27    1.03
   1   6  -1   36.42    1.28
  -6   1  -1   34.67    1.13
   1   6  -1   33.54    1.14
   6  -1  -1   34.24    1.25
  -1   6   1  147.74    3.14
   6   1   1  139.65    2.95
  -1   6   1  145.50    3.21
  -1   6   1  147.64    3.48
  -1   6   1  138.50    3.78
   6   1   1  139.70    2.93
   1  -6   1  147.95    3.11
  -6  -1   1  149.05    2.99
  -1   6  -1  142.51    3.43
   6   1  -1  144.09    3.03
   6   1  -1  144.72    2.99
  -6  -1  -1  147.05    2.94
  -1   6  -1  143.72    3.90
  -1   6  -1  144.88    3.16
  -1   6  -1  145.73    3.15
   3  -6   1   46.85    1.58
   3  -6   1   47.76    1.47
   6   3   1   45.32    1.46
   6   3   1   47.79    1.50
  -3   6   1   46.32    1.71
  -3   6   1   48.42    1.63
  -6  -3   1   47.45    1.16
   3  -6  -1   47.52    1.48
   6   3  -1   48.12    1.50
   6   3  -1   46.92    1.46
  -3   6  -1   46.36    1.63
  -3   6  -1   46.48    1.71
  -6  -3  -1   47.03    1.08
  -5   6   1   91.61    2.75
  -6  -5   1   96.04    1.98
  -5   6   1   96.30    2.80
   6   5   1   92.91    2.53
   5  -6   1   94.64    2.78
   6   5   1   98.84    2.58
   6   5  -1   96.37    2.49
  -5   6  -1   92.06    2.76
   5  -6  -1   97.20    2.77
   6   5  -1   95.23    2.57
  -5   6  -1   93.51    2.76
   7  -6   1   17.48    1.20
   6   7   1   18.52    1.08
  -7   6   1   20.00    1.22
   6   7   1   16.06    1.00
  -6  -7   1   18.73    0.71
   7  -6  -1   17.66    1.19
   6   7  -1   17.90    1.00
  -7   6  -1   21.56    1.26
   6   7  -1   19.16    1.10
  -7   4   1   77.21    2.41
   7  -4   1   79.60    2.55
   4   7   1   78.34    2.26
  -4  -7   1   76.36    1.76
   4   7   1   76.90    2.26
  -7   4  -1   77.47    2.42
  -4  -7  -1   81.42    1.69
   4   7  -1   79.38    2.26
   4   7  -1   78.69    2.21
   7  -4  -1   79.90    2.55
   2   7   1   90.03    2.47
   7  -2   1   89.71    2.55
  -7   2   1   90.90    2.37
  -2  -7   1   94.84    2.11
   2   7   1   91.17    2.35
   2   7   1   90.97    2.41
   2   7  -1   91.04    2.35
   7  -2  -1   88.61    2.54
   2   7  -1   89.71    2.48
  -7   2  -1   91.60    2.37
   2   7  -1   92.39    2.32
  -7   0   1   58.16    1.66
   0   7   1   55.37    1.90
   7   0   1   56.85    1.60
   0   7   1   57.17    1.60
   7   0   1   55.92    1.70
   0  -7   1   58.33    1.63
   0   7   1   60.04    1.81
  -7   0  -1   56.24    1.62
   7   0  -1   57.88    1.73
   0   7  -1   59.30    1.66
   0   7  -1   55.91    1.72
   0   7  -1   57.53    1.93
   0   7  -1   58.21    1.63
   0  -7  -1   58.36    1.60
  -2   7   1   32.84    1.33
   7   2   1   34.45    1.25
   2  -7   1   34.87    1.27
  -2   7   1   35.44    1.35
  -2   7   1   32.07    1.46
  -7  -2   1   34.25    1.11
   7   2  -1   37.26    1.08
  -2   7  -1   33.08    1.48
   2  -7  -1   34.51    1.27
  -2   7  -1   33.80    1.35
   7   2  -1   36.35    1.31
  -7  -2  -1   34.38    1.07
  -2   7  -1   35.24    1.34
  -4   7   1   81.23    2.52
  -7  -4   1   84.37    1.94
   7   4   1   81.23    2.34
  -4   7   1   81.48    2.63
   7   4   1   84.10    2.38
   4  -7  -1   83.85    2.30
   7   4  -1   82.33    2.35
  -4   7  -1   85.13    2.69
  -7  -4  -1   82.50    1.84
  -4   7  -1   83.31    2.56
   6  -7   1   47.57    1.99
  -6   7   1   52.94    2.05
   7   6   1   52.18    1.86
  -7  -6   1   52.83    1.39
   7   6   1   51.21    1.89
  -6   7   1   50.40    2.04
   7   6  -1   51.52    1.90
   7   6  -1   51.12    1.80
   6  -7  -1   50.27    2.01
  -6   7  -1   53.27    2.04
  -6   7  -1   50.80    2.06
  -7  -6  -1   53.21    1.29
   5   8   1   42.21    1.69
   8  -5   1   43.07    1.91
   5   8   1   42.22    1.65
  -8   5   1   43.11    1.82
  -5  -8   1   41.79    1.22
   5   8  -1   41.20    1.57
   8  -5  -1   41.63    1.88
  -5  -8  -1   42.62    1.13
   5   8  -1   40.08    1.64
  -3  -8   1   38.75    1.19
   8  -3   1   33.72    1.56
   3   8   1   35.05    1.45
  -8   3   1   36.71    1.40
   3   8   1   33.79    1.42
  -8   3  -1   34.65    1.38
   3   8  -1   33.35    1.36
   3   8  -1   35.78    1.42
   8  -3  -1   37.96    1.66
  -3  -8  -1   36.69    1.12
   1   8   1   74.32    2.11
   1   8   1   72.96    2.19
   8  -1   1   73.09    2.22
  -8   1   1   70.88    2.10
   1   8   1   68.82    2.26
  -1  -8   1   72.68    1.96
   1   8  -1   74.23    2.34
   8  -1  -1   70.89    2.21
  -8   1  -1   69.38    2.09
   1   8  -1   73.28    2.14
  -1  -8  -1   73.01    1.95
   1   8  -1   72.45    2.04
   1   8  -1   73.74    1.87
   1  -8   1   51.54    1.67
  -1   8   1   52.99    1.99
  -1   8   1   52.54    1.81
   8   1   1   52.83    1.52
  -8  -1   1   50.29    1.62
  -1   8   1   51.52    1.68
   8   1   1   49.16    1.62
   8   1  -1   49.72    1.55
  -1   8  -1   52.64    1.72
  -1   8  -1   49.38    1.94
   1  -8  -1   50.95    1.65
   8   1  -1   51.54    1.70
  -1   8  -1   52.77    1.77
  -8  -1  -1   53.86    1.62
  -3   8   1   39.65    1.61
  -3   8   1   37.84    1.56
   3  -8   1   39.93    1.50
  -8  -3   1   40.62    1.31
  -3   8   1   42.48    1.81
   8   3   1   39.22    1.51
  -8  -3  -1   38.24    1.25
   8   3  -1   36.58    1.49
  -3   8  -1   40.42    1.63
  -3   8  -1   37.95    1.53
   3  -8  -1   39.66    1.49
  -3   8  -1   37.29    1.74
  -5   8   1   41.10    1.86
  -8  -5   1   42.51    1.31
  -5   8   1   40.69    1.70
  -5   8   1   44.08    1.83
   8   5   1   39.10    1.64
  -5   8  -1   41.62    1.86
  -5   8  -1   43.20    1.71
  -8  -5  -1   41.40    1.22
  -5   8  -1   38.19    1.75
   8   5  -1   41.72    1.69
  -4  -9   1   21.96    0.91
   4   9   1   21.93    1.20
   9  -4   1   22.72    1.34
   4   9   1   23.07    1.20
   4   9  -1   21.29    1.15
   9  -4  -1   22.22    1.33
  -4  -9  -1   21.67    0.86
   4   9  -1   22.57    1.13
   2   9   1   22.88    1.16
  -9   2   1   24.38    1.17
  -2  -9   1   23.02    1.00
   2   9   1   22.01    1.17
   9  -2   1   21.55    1.20
   2   9  -1   23.49    1.14
  -9   2  -1   21.43    1.11
   9  -2  -1   25.09    1.30
  -2  -9  -1   24.45    1.00
   2   9  -1   22.02    1.13
   0   9   1   60.78    2.08
   9   0   1   63.21    1.92
  -9   0   1   62.37    2.01
   0   9   1   64.46    2.29
   0  -9   1   61.62    1.95
   0  -9  -1   60.72    1.91
   9   0  -1   61.91    1.95
  -9   0  -1   60.14    1.96
   0   9  -1   63.28    2.06
   9   0  -1   59.37    1.93
   0   9  -1   63.50    2.29
   0   9  -1   64.42    1.85
  -2   9   1   47.27    1.82
   9   2   1   47.60    1.71
  -2   9   1   48.61    2.04
   2  -9   1   47.04    1.72
  -9  -2   1   48.16    1.64
  -2   9   1   50.14    1.76
   2  -9  -1   50.32    1.75
  -9  -2  -1   49.56    1.62
  -2   9  -1   50.00    1.81
   9   2  -1   47.98    1.75
  -2   9  -1   48.93    1.79
  -2   9  -1   47.24    2.03
   9   4   1   22.62    1.20
  -9  -4   1   22.38    0.99
  -4   9   1   25.10    1.44
  -4   9   1   22.81    1.23
  -4   9   1   20.63    1.20
  -4   9  -1   19.88    1.21
  -4   9  -1   23.18    1.40
  -4   9  -1   21.97    1.18
  -9  -4  -1   23.00    0.97
   9   4  -1   22.44    1.22
   3  10   1   17.24    1.03
  -3 -10   1   15.69    0.82
  10  -3   1   15.70    1.06
  -3 -10  -1   15.36    0.80
  10  -3  -1   15.35    1.05
   3  10  -1   14.75    0.96
 -10   1   1   40.74    1.61
  10  -1   1   39.94    1.57
   1  10   1   40.89    1.67
  -1 -10   1   38.57    1.49
 -10   1  -1   42.91    1.64
   1  10  -1   40.58    1.74
  -1 -10  -1   39.83    1.49
   1  10  -1   39.75    1.61
  10  -1  -1   43.50    1.66
  -1  10   1   18.51    1.21
  -1  10   1   16.28    1.05
   1 -10   1   18.24    1.02
 -10  -1   1   17.96    1.01
   1 -10  -1   17.81    1.00
  -1  10  -1   16.68    1.03
  10   1  -1   19.09    1.06
  -1  10  -1   18.04    0.95
  -1  10  -1   16.39    1.16
 -10  -1  -1   16.75    0.96
  -3  10   1   46.98    1.74
  10   3   1   44.08    1.73
 -10  -3   1   45.18    1.60
  -3  10   1   45.07    2.01
  -3  10   1   44.58    1.78
   3 -10  -1   47.21    1.72
 -10  -3  -1   47.20    1.60
  -3  10  -1   44.82    1.75
  -3  10  -1   47.38    2.04
  -3  10  -1   46.12    1.77
  10   3  -1   44.56    1.76
   0   0   2   -0.88    0.02
   0   0  -2   -0.86    0.02
  -1  -1   2  997.68   21.61
   1   1  -2  954.80   21.46
   1   1  -2  935.07   25.92
  -1  -1  -2  868.99   23.52
   0   2   2   68.76    1.71
   2   0   2   71.06    1.96
   0   2   2   67.63    2.26
   0   2  -2   69.48    1.81
  -2   0  -2   68.86    1.94
  -2  -2  -2    6.82    0.58
   2   2  -2    7.82    0.56
   2  -2  -2    7.02    0.32
  -1  -3   2  896.78   15.67
   1   3   2  865.72   25.40
  -3   1   2  930.35   16.17
   3  -1   2  874.31   16.00
   3  -1   2  927.10   22.22
  -3   1  -2  904.45   16.10
   3  -1  -2  915.51   16.23
   1   3  -2  896.07   20.61
  -1  -3  -2  820.20   23.87
   1   3  -2  828.08   24.02
   1  -3   2  523.95    9.29
  -1   3   2  535.55    9.47
  -3  -1   2  531.45    9.59
  -3  -1   2  509.61   15.47
  -1   3   2  493.74   14.16
  -1   3   2  522.84    8.91
   3   1  -2  521.51    9.26
  -3  -1  -2  515.00   13.38
  -1   3  -2  550.35    9.75
  -1   3  -2  548.66    8.95
   3  -3   2  606.64   10.89
   3   3   2  611.06   10.13
   3  -3   2  619.63   10.58
   3   3   2  588.10   10.39
  -3   3   2  615.35   10.59
  -3  -3   2  604.06   10.63
  -3   3   2  615.59   11.06
   3  -3  -2  621.53   10.61
  -3   3  -2  628.99   11.01
   3   3  -2  623.03   10.12
  -3   3  -2  618.20   10.64
   3   3  -2  597.93   10.30
   3   3  -2  595.52   10.68
  -3  -3  -2  605.54   16.71
  -3   3  -2  618.28   10.58
  -4   2   2    6.82    0.42
  -4   2   2    6.08    0.45
   2   4   2    6.17    0.40
  -2  -4   2    6.75    0.27
   2   4   2    6.80    0.43
   4  -2   2    6.35    0.45
  -4   2   2    7.33    0.41
   2   4   2    6.71    0.42
   2   4  -2    6.45    0.32
  -4   2  -2    6.96    0.40
   4  -2  -2    6.36    0.46
  -4   2  -2    6.96    0.40
   2   4  -2    6.58    0.40
   2   4  -2    6.21    0.68
   2   4  -2    6.56    0.40
   2   4  -2    6.93    0.39
  -4   2  -2    6.32    0.45
   0   4   2   77.96    1.76
   0   4   2   75.40    2.90
   0   4   2   75.03    1.68
   0   4   2   77.80    1.65
  -4   0   2   76.51    1.64
   0   4   2   76.23    1.87
   4   0   2   78.29    1.70
   0   4   2   76.12    2.00
   0  -4   2   78.15    1.63
   0   4  -2   75.90    1.84
   0   4  -2   75.38    1.68
  -4   0  -2   78.14    2.28
   0   4  -2   77.13    2.14
  -4   0  -2   78.02    1.60
   0   4  -2   75.90    1.68
   4   0  -2   75.72    1.76
   2  -4   2   32.18    0.94
   4   2   2   31.44    0.96
  -2   4   2   31.11    1.03
   4   2   2   30.79    0.91
  -2   4   2   32.75    1.12
  -4  -2   2   32.70    1.50
   4   2   2   30.47    0.69
   2  -4   2   31.61    1.01
  -4  -2   2   31.57    0.74
   4   2  -2   30.85    0.94
   2  -4  -2   30.62    1.01
  -4  -2  -2   30.78    1.44
  -4  -2  -2   30.55    1.57
   4   2  -2   31.26    0.83
   4   2  -2   32.41    0.91
  -2   4  -2   31.78    1.04
  -2   4  -2   29.15    1.05
   4   4   2    0.36    0.17
   4   4   2    0.16    0.14
   4  -4   2    0.12    0.16
  -4   4   2    0.46    0.20
  -4   4   2    0.02    0.14
  -4  -4   2    0.08    0.06
   4  -4  -2    0.23    0.13
  -4   4  -2    0.94    0.26
   4  -4  -2    0.12    0.15
   4   4  -2    0.16    0.12
   4   4  -2    0.17    0.09
  -4   4  -2   -0.13    0.11
  -5   3   2  355.55    6.58
  -5   3   2  353.44    6.80
   3   5   2  341.45    6.51
  -5   3   2  351.13    6.71
  -3  -5   2  355.05    6.17
   3   5   2  355.94    6.38
   5  -3   2  357.37    6.77
   5  -3  -2  350.87    6.78
  -5   3  -2  351.39    6.70
   3   5  -2  351.59    6.40
   3   5  -2  355.79    6.06
  -5   3  -2  351.75    6.75
   3   5  -2  356.26    6.35
  -5   3  -2  356.01    6.60
  -5   1   2  351.15    6.53
   5  -1   2  356.78    6.55
   1   5   2  356.58    6.83
   1   5   2  359.91    6.51
   1   5   2  354.13    6.30
  -1  -5   2  367.10    6.37
  -5   1   2  360.20    6.56
   1   5   2  357.96    6.18
   1   5  -2  360.44    6.29
   1   5  -2  362.40    6.83
   1   5  -2  354.38    6.19
   1   5  -2  354.70    8.00
   5  -1  -2  354.64    6.61
   1   5  -2  354.62    6.37
  -5   1  -2  356.01    6.54
  -1   5   2  564.48    9.97
  -5  -1   2  571.90    9.91
   5   1   2  561.46    9.68
   5   1   2  550.43    9.48
   1  -5   2  557.98   10.04
  -1   5   2  584.80    9.90
  -1   5   2  572.18   10.58
  -5  -1   2  580.36   15.36
  -5  -1  -2  573.15   13.98
  -5  -1  -2  566.83   10.00
   5   1  -2  573.14    9.78
  -1   5  -2  559.06   12.96
  -1   5  -2  565.86   10.53
  -1   5  -2  593.56    9.96
  -1   5  -2  564.26    9.87
   3  -5   2  334.01    6.30
  -3   5   2  333.24    6.65
   5   3   2  331.31    6.13
   5   3   2  321.05    5.95
  -5  -3   2  331.94    5.81
  -3   5   2  326.22    6.30
   3  -5   2  334.65    6.21
   5   3  -2  329.14    5.71
   3  -5  -2  331.98    6.30
  -3   5  -2  332.17    6.33
  -3   5  -2  330.51    6.60
   3  -5  -2  329.48    6.23
   5   3  -2  322.27    5.97
  -5  -3  -2  319.48    8.92
   5   3  -2  332.11    6.03
  -5  -5   2  221.26    4.05
   5   5   2  219.29    4.58
   5   5   2  218.58    4.53
  -5   5   2  226.06    4.88
   5  -5   2  222.88    4.89
  -5   5   2  219.39    4.90
   5  -5  -2  218.85    4.85
  -5   5  -2  219.38    4.89
  -5   5  -2  221.87    4.86
   5   5  -2  216.78    4.50
   5   5  -2  223.71    4.47
   6  -4   2    1.11    0.34
  -4  -6   2    1.29    0.19
   4   6   2    1.15    0.31
   4   6   2    0.97    0.29
  -6   4   2    1.00    0.32
  -6   4   2    1.21    0.31
   6  -4  -2    0.94    0.33
  -6   4  -2    1.02    0.33
   4   6  -2    1.31    0.32
   4   6  -2    1.03    0.27
   6  -2   2    0.25    0.18
  -6   2   2    0.31    0.19
  -2  -6   2    0.58    0.15
   2   6   2    0.22    0.18
  -6   2   2    0.84    0.22
   2   6   2    0.18    0.18
   2   6   2    0.41    0.20
   2   6  -2    0.31    0.18
   6  -2  -2    0.44    0.22
   2   6  -2    0.46    0.21
  -6   2  -2    0.63    0.20
   2   6  -2    0.48    0.15
   2   6  -2    0.48    0.19
   0   6   2    7.63    0.52
   0   6   2    7.47    0.33
   0   6   2    7.33    0.59
  -6   0   2    6.57    0.45
   0   6   2    8.24    0.56
   0   6   2    7.72    0.47
   0  -6   2    6.79    0.44
   6   0   2    7.38    0.51
   6   0   2    8.29    0.48
   6   0  -2    7.28    0.53
  -6   0  -2    6.90    0.44
   0   6  -2    9.79    0.55
   0   6  -2    7.81    0.53
   0   6  -2    7.15    0.47
   0   6  -2    7.90    0.52
   0   6  -2    8.22    0.59
   6   2   2    2.10    0.33
   2  -6   2    2.19    0.32
  -6  -2   2    1.69    0.24
  -2   6   2    1.85    0.38
  -2   6   2    2.87    0.41
  -2   6   2    2.44    0.39
  -6  -2  -2    2.06    0.23
  -2   6  -2    1.42    0.31
   6   2  -2    1.83    0.33
  -2   6  -2    1.95    0.36
   6   2  -2    2.31    0.29
  -2   6  -2    1.96    0.38
   6   4   2    4.71    0.57
  -4   6   2    3.86    0.56
  -4   6   2    3.63    0.57
  -6  -4   2    4.76    0.32
   6   4   2    5.03    0.57
   4  -6   2    4.84    0.62
   6   4  -2    6.87    0.53
  -4   6  -2    5.01    0.65
  -4   6  -2    4.39    0.60
   4  -6  -2    4.64    0.60
   6   4  -2    4.68    0.56
   4  -6  -2    4.05    0.48
   6  -6   2    3.22    0.59
  -6   6   2    3.80    0.62
  -6  -6   2    2.98    0.32
   6   6   2    3.49    0.54
  -6   6   2    3.63    0.59
   6   6   2    3.57    0.55
  -6   6  -2    2.89    0.56
   6   6  -2    3.83    0.56
   6  -6  -2    2.98    0.55
  -6   6  -2    3.56    0.57
   6   6  -2    2.89    0.46
   7  -5   2  130.53    3.67
   5   7   2  133.40    3.35
   5   7   2  130.29    3.33
  -5  -7   2  130.27    2.76
  -7   5   2  134.83    3.57
  -7   5  -2  134.45    3.60
   5   7  -2  136.81    3.20
   5   7  -2  126.62    3.26
   7  -5  -2  138.40    3.70
  -7   3   2  237.39    5.02
  -7   3   2  249.14    5.24
   7  -3   2  245.21    5.37
   3   7   2  244.39    4.99
  -3  -7   2  244.23    4.65
   3   7   2  243.14    5.10
  -7   3  -2  247.85    5.08
   3   7  -2  242.87    4.93
   7  -3  -2  242.32    5.36
   3   7  -2  238.85    4.89
   7  -1   2  227.17    4.83
   1   7   2  229.64    5.04
  -7   1   2  228.42    4.76
  -1  -7   2  222.79    4.55
   1   7   2  229.05    4.83
   1   7   2  228.26    4.62
   1   7  -2  239.55    4.54
   1   7  -2  234.27    4.51
   7  -1  -2  237.52    4.91
   1   7  -2  231.13    5.06
   1   7  -2  238.98    4.71
  -7   1  -2  228.70    4.74
  -1   7   2  229.62    4.59
  -7  -1   2  225.71    4.52
   7   1   2  223.67    4.34
   1  -7   2  225.04    4.60
  -1   7   2  224.34    5.07
  -1   7   2  222.31    4.73
   7   1   2  219.67    4.38
  -1   7   2  221.36    5.39
  -7  -1  -2  223.63    4.45
   7   1  -2  224.71    4.51
   7   1  -2  223.71    4.45
  -1   7  -2  223.04    5.05
  -1   7  -2  220.26    4.60
  -1   7  -2  227.68    4.64
  -3   7   2  182.57    4.11
   7   3   2  172.87    3.82
  -3   7   2  173.35    4.33
  -3   7   2  174.28    4.03
   3  -7   2  176.15    3.92
  -7  -3   2  178.84    3.61
   3  -7  -2  169.06    3.88
  -3   7  -2  175.72    4.37
  -3   7  -2  177.94    4.13
  -7  -3  -2  177.54    3.45
   7   3  -2  174.03    3.86
  -3   7  -2  177.54    3.97
  -5   7   2  189.49    4.57
   5  -7   2  188.16    4.58
   7   5   2  192.33    4.32
   7   5   2  188.81    4.35
  -5   7   2  191.95    4.76
  -7  -5   2  190.28    3.81
   7   5  -2  191.84    4.35
  -7  -5  -2  192.19    3.56
  -5   7  -2  183.44    4.57
  -5   7  -2  192.78    4.74
  -7   7   2   81.09    2.72
   7   7   2   76.96    2.49
  -7  -7   2   78.26    1.97
  -7   7   2   83.42    2.63
   7  -7   2   77.69    2.73
   7   7   2   82.13    2.52
   7   7  -2   84.05    2.56
  -7   7  -2   80.52    2.72
   7  -7  -2   76.22    2.67
  -6  -8   2    0.46    0.19
   6   8   2    0.23    0.28
   8  -6   2   -0.06    0.25
  -8   6   2    0.13    0.26
   6   8   2   -0.05    0.22
   6   8  -2    0.13    0.27
   8  -6  -2    0.33    0.29
  -8   6  -2    0.21    0.30
  -4  -8   2    7.05    0.48
   4   8   2    6.24    0.72
   8  -4   2    6.55    0.84
   4   8   2    8.65    0.74
   4   8  -2    6.06    0.57
  -4  -8  -2    6.42    0.40
   4   8  -2    5.87    0.69
   8  -4  -2    6.53    0.83
  -8   2   2    7.40    0.61
   2   8   2    6.67    0.72
   2   8   2    8.17    0.68
   8  -2   2    6.72    0.75
  -2  -8   2    7.96    0.54
   2   8  -2    6.90    0.60
   2   8  -2    7.91    0.68
  -8   2  -2    7.17    0.60
   8  -2  -2    7.61    0.70
   2   8  -2    7.16    0.60
  -2  -8  -2    7.11    0.48
  -8   0   2    0.15    0.17
   0  -8   2    0.82    0.25
   0   8   2    0.29    0.24
   0   8   2    0.40    0.24
  -8   0  -2    0.29    0.20
   8   0  -2    1.88    0.39
   8   0  -2    0.42    0.23
   0   8  -2    0.20    0.23
   0   8  -2    0.18    0.21
   0   8  -2    0.30    0.20
   0  -8  -2    0.29    0.18
   8   2   2    0.62    0.26
  -2   8   2    0.15    0.19
  -2   8   2    0.44    0.25
   2  -8   2    0.89    0.27
  -2   8   2    0.20    0.24
  -8  -2   2    0.26    0.18
   2  -8  -2    0.21    0.18
  -2   8  -2    0.19    0.20
  -8  -2  -2    0.90    0.25
  -2   8  -2    0.57    0.29
   8   2  -2    0.35    0.17
  -2   8  -2    0.78    0.29
   8   2  -2    0.29    0.22
  -4   8   2    6.46    0.75
   8   4   2    6.01    0.70
  -4   8   2    5.77    0.79
  -8  -4   2    7.39    0.53
  -4   8   2    6.16    0.76
  -4   8  -2    6.70    0.75
   4  -8  -2    7.31    0.62
  -4   8  -2    5.64    0.79
   8   4  -2    7.46    0.68
  -8  -4  -2    6.49    0.45
  -4   8  -2    6.68    0.79
  -6   8   2    5.02    0.75
  -6   8   2    6.16    0.81
   8   6   2    6.05    0.76
  -8  -6   2    5.30    0.46
  -6   8   2    5.20    0.71
  -6   8  -2    4.00    0.61
  -6   8  -2    4.77    0.73
   8   6  -2    4.74    0.68
  -6   8  -2    5.64    0.80
   5   9   2   93.60    2.80
  -5  -9   2   97.75    2.35
   9  -5   2   98.04    3.12
   5   9   2   99.76    2.84
  -5  -9  -2   97.61    2.16
   3   9   2   78.69    2.41
  -3  -9   2   77.35    2.07
   3   9   2   72.13    2.36
   9  -3   2   79.81    2.59
   3   9  -2   78.93    2.31
  -9   3  -2   75.20    2.30
   3   9  -2   74.90    2.26
   9  -3  -2   77.03    2.57
  -3  -9  -2   78.06    1.98
   1   9   2  134.74    3.57
   9  -1   2  139.50    3.49
  -9   1   2  141.25    3.50
  -1  -9   2  145.81    3.37
   1   9   2  139.27    3.71
   1   9  -2  140.72    3.78
  -1  -9  -2  144.26    3.30
  -9   1  -2  136.70    3.46
   1   9  -2  142.51    3.45
   9  -1  -2  144.10    3.60
   9  -1  -2  140.71    3.35
  -9  -1   2  126.78    3.21
  -1   9   2  132.37    3.43
  -1   9   2  130.91    3.10
   1  -9   2  132.61    3.29
  -1   9   2  126.70    3.64
   9   1  -2  131.51    3.27
  -1   9  -2  131.69    3.26
   1  -9  -2  126.32    3.21
   9   1  -2  125.51    3.01
  -9  -1  -2  130.97    3.22
  -1   9  -2  129.57    3.72
  -1   9  -2  131.36    3.30
  -3   9   2  121.03    3.27
  -9  -3   2  120.58    2.98
  -3   9   2  116.58    3.55
   3  -9   2  119.35    3.13
  -3   9   2  121.16    3.20
   9   3   2  119.24    3.12
  -3   9  -2  120.29    3.60
   9   3  -2  117.81    3.18
   3  -9  -2  119.41    3.11
  -3   9  -2  117.93    3.28
  -9  -3  -2  118.46    2.85
  -3   9  -2  119.10    3.18
  -5   9   2   64.32    2.41
  -9  -5   2   61.61    1.82
  -5   9   2   60.98    2.22
  -5   9   2   60.85    2.17
  -5   9  -2   63.01    2.31
  -5   9  -2   62.94    2.14
  -5   9  -2   64.87    2.41
   9   5  -2   63.27    2.20
  -9  -5  -2   59.56    1.67
  -2 -10   2    2.72    0.44
  10  -2   2    2.43    0.50
   2  10   2    2.28    0.48
  -2 -10  -2    2.57    0.41
 -10   2  -2    2.23    0.45
  10  -2  -2    2.92    0.54
   0  10   2    0.23    0.25
   0  10   2    0.21    0.28
   0 -10   2    0.20    0.20
 -10   0   2    0.35    0.24
   0  10  -2    0.57    0.34
  10   0  -2    0.55    0.27
   0  10  -2    0.32    0.25
   0 -10  -2    0.07    0.19
 -10   0  -2    0.22    0.21
  -2  10   2    0.80    0.37
  -2  10   2    0.86    0.30
  -2  10   2    0.99    0.36
 -10  -2   2    1.44    0.36
   2 -10   2    0.98    0.33
  -2  10  -2    0.51    0.29
 -10  -2  -2    1.01    0.31
   2 -10  -2    1.11    0.33
  -2  10  -2    1.09    0.42
  -2  10  -2    0.76    0.32
  10   2  -2    0.55    0.31
  -1   0   3  391.07    9.14
   0  -1   3  375.85    9.36
   0   1   3  386.81    9.42
   0   1   3  397.51   10.22
   1   0   3  379.26    9.63
   0  -1  -3  377.84    9.82
   0  -1  -3  385.96   11.32
   0  -1  -3  383.84    9.39
   0   1  -3  382.56    9.72
   1   0  -3  393.96    9.78
  -2   1   3    9.79    0.38
  -1  -2  -3   10.67    0.35
   1   2  -3    9.81    0.46
  -1  -2  -3    9.56    0.61
  -1  -2  -3   10.73    0.66
  -2  -1   3  271.93    6.25
  -1   2   3  275.19    7.95
  -2  -1  -3  270.97    6.88
   1  -2  -3  279.78    7.62
  -3   2   3  141.03    2.95
  -3   2   3  144.07    2.79
   3  -2   3  143.18    2.87
  -3   2   3  143.71    2.91
   2   3   3  143.31    2.72
   2   3   3  142.96    2.79
  -2  -3   3  142.41    2.58
   2   3  -3  141.57    3.39
  -2  -3  -3  142.07    4.58
  -3   2  -3  146.05    2.88
   2   3  -3  143.10    2.65
   3  -2  -3  146.46    2.94
   2   3  -3  139.79    4.45
  -3   2  -3  144.68    2.81
  -3   2  -3  142.93    2.87
   3   0   3  113.70    2.18
   0   3   3  112.69    2.40
   0   3   3  110.73    2.71
   0  -3   3  112.54    2.17
   0   3   3  114.41    3.65
  -3   0   3  116.92    2.20
  -3   0  -3  115.29    3.14
   0  -3  -3  113.28    2.06
   0   3  -3  113.28    2.91
  -3   0  -3  114.53    2.12
   0   3  -3  115.68    2.23
   3   0  -3  115.21    2.29
  -3  -2   3  328.11    5.58
   2  -3   3  329.91    5.77
  -2   3   3  326.08    6.11
  -2   3   3  332.54    5.82
   2  -3   3  309.33    5.75
   3   2   3  319.25    5.67
  -3  -2  -3  315.70    9.16
   3   2  -3  333.98    5.57
  -3  -2  -3  308.54    8.31
   2  -3  -3  317.48    8.09
  -2   3  -3  329.10    5.80
  -4   3   3   64.91    1.79
   3   4   3   66.10    1.69
  -3  -4   3   64.27    1.36
  -4   3   3   68.29    1.61
   3   4   3   68.47    1.67
   4  -3   3   69.49    1.82
  -4   3   3   70.54    1.81
  -4   3  -3   64.45    1.62
   3   4  -3   65.94    2.67
  -4   3  -3   64.74    1.71
  -4   3  -3   65.38    1.78
   4  -3  -3   67.31    1.84
   3   4  -3   65.12    1.58
   4  -3  -3   65.32    1.61
   3   4  -3   66.68    1.55
   3   4  -3   66.55    1.45
   3   4  -3   66.81    1.63
  -4   1   3  225.76    4.32
   4  -1   3  223.16    4.25
   1   4   3  225.30    4.12
  -4   1   3  230.05    4.27
   1   4   3  224.42    4.24
  -4   1   3  221.55    4.30
   1   4   3  227.43    6.90
   1   4   3  230.60    4.45
   1   4   3  225.21    3.95
  -1  -4   3  230.67    4.10
   1   4  -3  228.06    4.43
   1   4  -3  227.37    4.11
   1   4  -3  230.73    4.01
   4  -1  -3  226.45    4.36
   1   4  -3  225.18    6.95
   1   4  -3  223.31    5.31
   1   4  -3  230.09    4.10
  -4   1  -3  230.37    4.24
   1  -4   3  163.94    3.17
  -4  -1   3  162.12    3.05
   4   1   3  159.98    2.99
  -1   4   3  163.68    5.14
  -4  -1   3  163.90    4.75
   4   1   3  159.79    3.15
  -1   4   3  164.30    3.25
  -1   4   3  162.59    3.45
  -1   4   3  161.69    3.18
   1  -4   3  164.00    3.15
  -4  -1  -3  164.16    4.53
  -1   4  -3  162.64    4.19
  -4  -1  -3  163.05    2.88
  -1   4  -3  164.51    3.40
   4   1  -3  163.04    3.12
  -1   4  -3  160.65    3.20
   3  -4   3   53.51    1.55
  -3   4   3   53.85    1.57
   4   3   3   55.55    1.47
  -4  -3   3   54.47    1.18
   4   3   3   54.41    1.43
  -3   4   3   54.16    1.62
   3  -4   3   54.51    1.40
  -4  -3  -3   53.97    2.25
   4   3  -3   56.70    1.26
  -3   4  -3   52.89    1.57
   4   3  -3   57.12    1.37
  -3   4  -3   55.79    1.58
   3  -4  -3   55.24    1.57
   4   3  -3   54.97    1.44
  -5   4   3   80.59    2.28
   5  -4   3   81.37    2.32
   4   5   3   83.45    2.16
   4   5   3   79.55    2.10
  -5   4   3   80.84    2.24
  -4  -5   3   82.80    1.74
   4   5  -3   80.97    2.08
  -5   4  -3   82.67    2.23
  -5   4  -3   79.03    2.28
   4   5  -3   82.42    1.99
   5  -4  -3   82.75    2.34
  -2  -5   3  179.81    3.34
   2   5   3  177.05    3.54
   2   5   3  171.86    3.67
  -5   2   3  174.36    3.65
   2   5   3  173.06    3.62
  -5   2   3  173.59    3.71
   5  -2   3  176.71    3.73
  -5   2   3  181.05    3.63
   2   5  -3  178.61    3.70
  -5   2  -3  177.93    3.69
  -5   2  -3  177.20    3.61
   5  -2  -3  179.64    3.81
   2   5  -3  180.47    3.46
   2   5  -3  179.31    3.36
   2   5  -3  180.63    3.45
   0  -5   3   55.66    1.39
   0   5   3   55.98    1.51
   0   5   3   56.77    1.64
   5   0   3   55.70    1.32
  -5   0   3   56.95    1.43
   5   0   3   58.52    1.48
   0   5   3   58.45    1.50
   0   5   3   54.00    1.50
   0   5   3   56.36    1.40
   0   5   3   59.52    1.57
   0   5  -3   56.60    1.43
   0   5  -3   57.31    1.62
  -5   0  -3   57.45    1.38
   0   5  -3   59.27    1.36
   0   5  -3   59.38    1.49
   5   0  -3   59.56    1.57
   0   5  -3   54.92    1.80
   5   2   3   91.27    2.08
   2  -5   3   95.15    2.17
   2  -5   3   94.54    2.25
  -2   5   3   94.78    2.27
  -5  -2   3   93.20    1.96
   5   2   3   93.88    2.20
   5   2   3   91.57    1.79
  -2   5   3   91.53    2.42
   2  -5  -3   97.27    2.92
  -5  -2  -3   96.13    3.19
   5   2  -3   92.99    2.15
   5   2  -3   93.52    2.02
  -2   5  -3   95.86    2.43
  -2   5  -3   92.71    2.28
  -5  -2  -3   94.17    1.74
   5   4   3   70.63    1.90
   4  -5   3   68.98    2.04
  -5  -4   3   67.54    1.51
  -4   5   3   66.40    2.06
  -4   5   3   69.15    2.05
   5   4   3   65.49    1.84
   4  -5  -3   67.79    2.03
   5   4  -3   67.76    1.76
  -4   5  -3   66.86    2.04
   5   4  -3   69.25    1.86
   4  -5  -3   68.81    1.83
  -4   5  -3   71.49    2.08
  -5  -6   3  102.32    2.22
  -6   5   3  103.55    2.83
   6  -5   3  102.03    2.97
   5   6   3  100.52    2.68
   5   6   3   98.50    2.69
  -6   5   3  101.04    2.89
   5   6  -3  102.72    2.54
  -6   5  -3  100.59    2.91
   5   6  -3  105.32    2.69
  -6   5  -3  105.18    2.82
   6  -5  -3  100.57    2.93
  -3  -6   3   61.04    1.44
   6  -3   3   60.69    1.94
  -6   3   3   59.81    1.89
  -6   3   3   60.12    1.69
   3   6   3   60.65    1.78
  -6   3   3   57.90    1.72
   3   6   3   59.57    1.80
  -6   3  -3   58.40    1.71
   6  -3  -3   60.40    1.96
   3   6  -3   59.42    1.40
   3   6  -3   57.70    1.68
  -6   3  -3   60.53    1.89
   3   6  -3   59.63    1.63
  -1  -6   3   84.02    1.92
   6  -1   3   83.19    2.16
   1   6   3   83.05    1.79
   1   6   3   80.73    2.14
   1   6   3   83.05    2.08
   1   6   3   82.79    2.23
  -6   1   3   81.66    2.05
  -6   1  -3   84.45    2.06
   1   6  -3   79.12    2.21
   1   6  -3   85.73    2.01
   1   6  -3   84.64    1.97
   1   6  -3   83.82    1.95
   6  -1  -3   83.35    2.23
   1   6  -3   81.35    2.15
  -1   6   3   50.35    1.64
  -1   6   3   44.61    1.37
  -6  -1   3   44.88    1.28
   1  -6   3   42.95    1.32
  -1   6   3   44.81    1.52
   6   1   3   45.32    1.28
   6   1   3   46.01    1.25
  -1   6   3   46.52    1.48
   1  -6  -3   46.27    1.96
  -1   6  -3   44.81    1.42
  -1   6  -3   43.32    1.53
  -1   6  -3   44.91    1.72
   6   1  -3   44.33    1.33
  -1   6  -3   42.74    1.35
  -6  -1  -3   45.07    1.20
   6   3   3  148.07    3.33
  -6  -3   3  148.31    2.99
   6   3   3  143.40    3.19
   3  -6   3  151.25    3.29
  -3   6   3  148.04    3.46
   3  -6   3  150.16    3.44
  -3   6   3  147.74    3.67
  -3   6  -3  145.04    3.46
  -6  -3  -3  147.21    2.71
   6   3  -3  148.37    2.92
   3  -6  -3  147.12    3.29
  -3   6  -3  149.28    3.64
   6   3  -3  142.94    3.24
   6   5   3   38.59    1.48
   6   5   3   39.04    1.48
   5  -6   3   39.25    1.64
  -6  -5   3   38.98    1.12
  -5   6   3   39.29    1.62
  -5   6   3   38.72    1.62
  -5   6  -3   39.19    1.62
   6   5  -3   39.87    1.51
   5  -6  -3   36.67    1.57
   6   5  -3   39.63    1.38
  -5   6  -3   38.74    1.64
   6   7   3   35.09    1.54
  -7   6   3   36.58    1.69
  -7   6   3   37.11    1.58
   7  -6   3   37.81    1.78
  -6  -7   3   35.95    1.15
   6   7   3   35.56    1.55
   7  -6  -3   38.52    1.77
   6   7  -3   34.75    1.51
  -7   6  -3   35.97    1.70
   4   7   3   59.83    1.96
  -7   4   3   60.28    2.09
   4   7   3   63.71    2.02
  -4  -7   3   59.99    1.58
   7  -4   3   62.85    2.22
   7  -4  -3   61.46    2.20
   4   7  -3   64.09    1.84
   4   7  -3   60.88    1.90
   7  -2   3   24.89    1.20
   2   7   3   25.44    1.12
  -7   2   3   27.93    1.12
  -2  -7   3   26.11    0.94
   2   7   3   27.32    1.19
   2   7   3   23.94    1.10
  -7   2  -3   25.12    1.08
   2   7  -3   26.57    1.07
   7  -2  -3   27.85    1.28
   2   7  -3   29.72    0.96
   2   7  -3   26.80    1.05
   2   7  -3   26.08    1.17
   0  -7   3  117.00    2.71
   0   7   3  116.16    2.91
   0   7   3  114.87    3.06
   7   0   3  119.52    2.76
  -7   0   3  114.06    2.75
   0   7   3  116.00    2.59
   7   0  -3  116.25    2.84
  -7   0  -3  114.18    2.71
   0   7  -3  117.24    3.08
   0   7  -3  118.16    2.58
   0   7  -3  116.69    2.74
   0   7  -3  117.61    2.75
  -2   7   3   66.16    2.20
  -2   7   3   64.97    2.01
  -2   7   3   62.51    1.93
   7   2   3   63.30    1.81
  -7  -2   3   66.66    1.76
   2  -7   3   64.03    1.88
  -2   7  -3   63.24    1.89
  -2   7  -3   66.74    2.02
   7   2  -3   65.26    1.69
  -7  -2  -3   65.78    1.64
   2  -7  -3   64.66    1.86
   7   2  -3   66.77    1.93
  -2   7  -3   61.96    2.14
   7   4   3   51.54    1.79
   7   4   3   52.86    1.75
   4  -7   3   50.98    1.88
  -4   7   3   52.73    1.90
  -7  -4   3   51.66    1.46
  -4   7   3   51.73    1.85
  -4   7   3   50.41    1.98
  -4   7  -3   52.72    2.01
  -4   7  -3   49.77    1.90
   4  -7  -3   50.45    1.68
   7   4  -3   51.37    1.78
  -7  -4  -3   52.24    1.23
  -6   7   3   23.38    1.32
  -7  -6   3   23.51    0.91
  -6   7   3   21.34    1.27
   6  -7   3   23.39    1.37
   7   6   3   23.20    1.22
   7   6   3   23.08    1.22
  -6   7  -3   24.18    1.36
   6  -7  -3   22.04    1.29
  -6   7  -3   23.30    1.30
   7   6  -3   23.63    1.24
   5   8   3   16.07    1.03
  -5  -8   3   17.42    0.78
   5   8   3   15.61    1.00
  -8   5   3   16.73    1.11
   8  -5   3   16.32    1.17
   8  -5  -3   17.75    1.19
   5   8  -3   18.12    1.05
  -3  -8   3   49.21    1.48
   3   8   3   50.93    1.85
   8  -3   3   51.19    1.96
   3   8   3   50.91    1.81
  -8   3  -3   50.50    1.74
   8  -3  -3   49.81    1.96
   3   8  -3   50.79    1.71
   3   8  -3   51.52    1.67
  -1  -8   3   68.84    1.94
   8  -1   3   70.83    2.15
  -8   1   3   70.26    2.09
   1   8   3   67.21    2.17
   1   8   3   69.92    2.25
  -8   1  -3   66.07    2.03
   1   8  -3   70.48    1.89
   8  -1  -3   68.78    2.19
   1   8  -3   73.27    1.97
   1   8  -3   72.75    2.32
   1   8  -3   70.75    2.03
  -1   8   3   54.52    1.91
  -1   8   3   56.24    2.06
   8   1   3   57.06    1.55
  -1   8   3   57.80    1.74
   1  -8   3   56.94    1.79
  -8  -1   3   54.11    1.72
   8   1  -3   55.11    1.70
  -1   8  -3   54.81    1.79
  -8  -1  -3   55.36    1.69
  -1   8  -3   54.93    1.83
  -1   8  -3   53.40    2.06
   8   1  -3   56.92    1.83
   1  -8  -3   59.10    1.78
  -3   8   3   30.38    1.53
  -3   8   3   31.63    1.38
  -8  -3   3   30.60    1.16
   8   3   3   30.27    1.30
  -3   8   3   29.48    1.37
   3  -8   3   31.48    1.31
  -3   8  -3   31.17    1.56
  -3   8  -3   30.42    1.32
   8   3  -3   31.52    1.37
  -3   8  -3   29.94    1.42
   3  -8  -3   27.85    1.23
  -8  -3  -3   29.34    1.04
   8   5   3   31.85    1.43
  -5   8   3   33.29    1.64
  -8  -5   3   30.79    1.16
  -5   8   3   33.79    1.53
  -5   8   3   34.15    1.59
  -8  -5  -3   31.98    0.99
   8   5  -3   30.20    1.45
  -5   8  -3   31.88    1.58
  -5   8  -3   32.50    1.63
  -5   8  -3   33.62    1.47
   4   9   3   42.27    1.72
  -4  -9   3   42.85    1.40
   9  -4   3   43.24    1.89
   4   9   3   43.85    1.76
  -4  -9  -3   42.83    1.24
   9  -4  -3   42.01    1.87
   4   9  -3   42.30    1.63
   9  -2   3   43.54    1.74
  -2  -9   3   42.51    1.47
   2   9   3   43.85    1.74
  -9   2  -3   41.02    1.60
   2   9  -3   44.58    1.57
  -2  -9  -3   41.95    1.39
   9  -2  -3   42.18    1.76
   0   9   3   34.26    1.54
  -9   0   3   37.46    1.48
   9   0   3   36.16    1.35
   0   9   3   39.47    1.72
   0  -9   3   36.15    1.42
   0  -9  -3   34.79    1.36
   0   9  -3   37.63    1.72
   9   0  -3   38.14    1.50
   9   0  -3   36.14    1.47
   0   9  -3   35.67    1.37
   0   9  -3   38.72    1.48
  -9   0  -3   36.99    1.44
  -2   9   3   20.86    1.29
  -2   9   3   20.56    1.06
   2  -9   3   21.00    1.09
  -2   9   3   21.76    1.20
  -9  -2   3   22.41    1.07
  -2   9  -3   21.82    1.34
  -2   9  -3   21.78    1.17
   9   2  -3   22.32    1.18
  -9  -2  -3   22.59    1.03
  -2   9  -3   22.22    1.14
   2  -9  -3   19.78    1.05
   9   4   3   52.12    1.87
  -4   9   3   51.79    1.96
  -9  -4   3   52.27    1.69
  -4   9   3   50.70    2.13
  -4   9   3   50.46    1.93
  -4   9  -3   51.89    2.16
   9   4  -3   52.16    1.95
  -9  -4  -3   52.60    1.54
  -4   9  -3   47.67    1.80
  -4   9  -3   50.58    2.02
  -3 -10   3   36.18    1.34
   3  10   3   32.96    1.53
  10  -3   3   35.89    1.61
  10  -3  -3   35.64    1.64
  -3 -10  -3   34.25    1.21
   1  10   3   11.73    0.90
  10  -1   3   10.21    0.75
  -1 -10   3   10.79    0.75
 -10   1   3   11.42    0.81
  10  -1  -3   10.10    0.82
   1  10  -3   11.28    0.91
 -10   1  -3   11.82    0.83
  -1 -10  -3   10.92    0.73
  -1  10   3   44.52    1.90
   1 -10   3   42.85    1.63
  -1  10   3   40.59    1.72
 -10  -1   3   40.82    1.61
 -10  -1  -3   41.27    1.56
  -1  10  -3   41.52    1.90
  -1  10  -3   39.91    1.53
  10   1  -3   42.62    1.68
   1 -10  -3   39.80    1.56
  -3  10   3   27.99    1.26
 -10  -3   3   25.23    1.18
  -3  10   3   28.86    1.55
  -3  10   3   23.80    1.29
  -3  10  -3   26.71    1.26
  -3  10  -3   26.07    1.49
   3 -10  -3   27.44    1.27
  -3  10  -3   26.70    1.34
 -10  -3  -3   23.81    1.09
  10   3  -3   28.46    1.39
   0   0  -4  580.05   13.80
  -1   1   4  156.50    3.96
  -1   1   4  139.20    3.73
   1   1   4  160.72    4.15
  -1  -1   4  161.05    3.75
   1  -1  -4  157.46    4.62
  -1  -1  -4  160.02    3.59
   1   1  -4  158.87    3.74
  -1  -1  -4  159.81    4.16
   2   0   4  901.78   24.00
  -2   0   4 1000.00   22.73
   0   2   4  958.58   22.51
   0  -2  -4  999.10   25.54
   0  -2  -4  958.44   27.46
   0   2  -4  996.92   23.08
  -2   2   4  747.78   14.06
  -2   2   4  752.78   13.19
  -2  -2   4  741.90   12.96
   2  -2   4  699.82   12.07
  -2   2   4  721.02   20.00
   2   2   4  700.53   13.54
   2   2  -4  730.98   12.86
   2   2  -4  728.38   17.16
   2   2  -4  725.97   20.66
  -2  -2  -4  688.54   18.71
  -2  -2  -4  680.71   20.19
  -2   2  -4  717.61   12.46
   3  -1   4   -0.01    0.12
   1   3   4   -0.12    0.13
  -3   1   4   -0.16    0.12
  -1  -3   4    0.03    0.09
   3  -1   4   -0.12    0.13
   1   3   4    0.08    0.13
  -3   1   4    0.85    0.17
  -3   1  -4   -0.03    0.10
   1   3  -4    0.05    0.11
  -1  -3  -4    0.06    0.20
  -1  -3  -4    0.20    0.25
   3  -1  -4   -0.26    0.10
   1   3  -4    0.20    0.16
  -1   3   4    0.65    0.21
   3   1   4    0.53    0.17
  -1   3   4    1.44    0.23
   3   1   4    1.06    0.20
  -3  -1   4    0.82    0.15
  -1   3   4    0.55    0.19
  -1   3   4    0.97    0.32
   1  -3   4    0.54    0.14
   3   1  -4    1.11    0.19
   1  -3  -4    0.89    0.16
   1  -3  -4    0.81    0.24
  -1   3  -4    0.66    0.23
  -3  -1  -4    0.54    0.24
  -1   3  -4    0.85    0.19
  -3   3   4   23.80    1.18
   3  -3   4   24.23    0.75
   3  -3   4   24.02    0.89
  -3  -3   4   24.42    0.66
   3   3   4   24.97    0.85
  -3   3   4   23.95    0.91
  -3   3   4   24.85    0.94
   3   3   4   24.79    0.83
   3   3  -4   25.15    0.74
   3   3  -4   25.35    1.27
  -3  -3  -4   23.56    1.41
  -3   3  -4   24.62    0.80
   3  -3  -4   26.47    0.96
  -3   3  -4   24.69    0.88
   3   3  -4   24.37    0.80
  -3   3  -4   27.62    0.95
  -3  -3  -4   26.40    1.39
   3   3  -4   24.72    0.72
   2   4   4  388.70    7.19
   2   4   4  389.19    6.79
   4  -2   4  389.98    7.07
  -4   2   4  387.34    7.30
  -4   2   4  390.04    7.12
  -2  -4   4  396.81    6.86
  -4   2   4  401.46    7.08
   2   4   4  389.81    6.98
  -4   2  -4  393.98    7.18
  -2  -4  -4  374.36   10.20
   2   4  -4  407.09    6.82
   4  -2  -4  395.98    7.17
  -4   2  -4  386.74    7.08
   2   4  -4  377.74   11.13
   2   4  -4  398.67    6.76
   2   4  -4  392.13    9.08
  -4   2  -4  392.05    7.04
   2   4  -4  390.64    6.67
   0   4   4  542.85    9.41
  -4   0   4  569.29   10.04
   0   4   4  569.30   10.15
  -4   0   4  561.00   15.39
   0   4   4  537.60   15.23
   0   4   4  545.44   12.96
  -4   0   4  568.26    9.58
   4   0   4  540.27   10.08
   0   4   4  557.10    9.30
   0   4   4  544.02    9.59
   0  -4   4  561.46    9.94
   4   0   4  533.77    9.44
   0  -4  -4  536.97    9.65
   0   4  -4  549.93    9.38
   0  -4  -4  569.84   13.77
   0   4  -4  574.59   10.10
   4   0  -4  562.44    9.61
   0   4  -4  567.57   12.56
  -4   0  -4  544.29    9.60
   0   4  -4  580.98    9.56
   2  -4   4  444.68    7.85
   4   2   4  436.65    7.38
  -2   4   4  453.15   12.30
   4   2   4  440.94    7.49
  -4  -2   4  450.74    7.72
  -2   4   4  446.49    7.88
   2  -4   4  439.14    7.89
  -2   4   4  452.68    8.35
   4   2   4  437.07    7.77
  -2   4  -4  439.08    8.26
   2  -4  -4  429.71    7.84
  -2   4  -4  447.40    7.90
   4   2  -4  446.29    7.65
   2  -4  -4  456.52   11.31
   4   2  -4  421.12    7.57
  -4  -2  -4  437.65   11.28
  -4   4   4  450.60    8.30
  -4   4   4  459.75    8.64
   4   4   4  445.56    7.87
   4   4   4  436.55    8.08
   4  -4   4  456.74    8.31
  -4  -4   4  455.26    7.87
  -4   4  -4  453.33    8.31
   4   4  -4  437.94    7.81
  -4   4  -4  449.18    8.52
   4   4  -4  453.75    7.73
   4   4  -4  458.72    7.87
  -4  -4  -4  425.06   11.86
   4  -4  -4  451.69    8.31
  -5   3   4   23.14    1.03
   3   5   4   22.65    0.94
   3   5   4   22.84    0.96
   5  -3   4   24.10    1.06
  -5   3   4   24.19    0.99
  -3  -5   4   24.63    0.75
  -5   3  -4   23.26    1.02
   3   5  -4   23.03    0.88
   3   5  -4   24.63    0.78
  -5   3  -4   23.82    0.93
   3   5  -4   23.47    0.91
   5  -3  -4   24.06    1.08
   3   5  -4   23.67    0.84
  -5   3  -4   24.77    0.92
   1   5   4    2.38    0.22
  -5   1   4    2.52    0.31
   1   5   4    4.09    0.39
  -5   1   4    3.20    0.40
  -1  -5   4    2.73    0.25
   1   5   4    2.91    0.37
   1   5   4    2.27    0.34
   5  -1   4    2.78    0.36
  -5   1  -4    2.43    0.30
   1   5  -4    2.05    0.31
  -1  -5  -4    2.20    0.47
  -1  -5  -4    2.47    0.17
   1   5  -4    2.41    0.30
   5  -1  -4    2.55    0.37
   1   5  -4    2.90    0.31
   1   5  -4    2.43    0.34
   1   5  -4    2.75    0.31
  -1   5   4    0.70    0.22
  -1   5   4    0.50    0.17
  -1   5   4    0.56    0.19
  -1   5   4    0.47    0.19
  -5  -1   4    0.43    0.14
   5   1   4    0.89    0.20
   5   1   4    0.45    0.14
  -5  -1  -4    1.17    0.32
  -1   5  -4    0.50    0.19
   1  -5  -4    0.84    0.28
  -1   5  -4    0.57    0.19
  -1   5  -4    0.72    0.18
   5   1  -4    1.99    0.28
  -1   5  -4    0.44    0.20
  -3   5   4    6.92    0.59
  -5  -3   4    5.66    0.34
  -3   5   4    5.47    0.49
   3  -5   4    4.69    0.53
   5   3   4    4.89    0.43
   5   3   4    6.11    0.46
   3  -5   4    5.67    0.42
   5   3  -4    6.18    0.47
  -3   5  -4    6.10    0.52
   5   3  -4    5.93    0.42
  -5  -3  -4    5.93    0.71
   5   3  -4    6.00    0.37
  -3   5  -4    5.67    0.51
   3  -5  -4    6.98    0.54
   5   5   4   10.66    0.69
  -5  -5   4    8.92    0.47
  -5   5   4    9.37    0.73
  -5   5   4    9.63    0.73
   5  -5   4    9.15    0.74
   5   5   4    9.12    0.66
   5   5  -4    9.77    0.61
   5  -5  -4    9.73    0.74
  -5   5  -4    8.67    0.69
   5   5  -4   10.14    0.69
  -5   5  -4    8.65    0.73
   4   6   4  177.48    3.88
  -4  -6   4  175.81    3.51
  -6   4   4  175.99    4.11
  -6   4   4  175.63    4.02
   6  -4   4  177.70    4.19
   4   6   4  173.21    3.93
  -6   4  -4  176.98    4.11
   4   6  -4  178.72    3.67
   6  -4  -4  174.19    4.17
   4   6  -4  176.30    3.78
  -6   2   4  318.42    6.19
   2   6   4  329.38    6.06
  -2  -6   4  323.19    5.94
   2   6   4  317.09    6.22
   6  -2   4  321.82    6.30
  -6   2   4  318.30    6.27
   2   6   4  316.12    6.34
   2   6  -4  324.22    6.40
  -2  -6  -4  313.07    5.60
   2   6  -4  325.11    5.92
  -6   2  -4  318.21    6.19
   2   6  -4  326.79    5.86
   2   6  -4  326.26    5.85
   6  -2  -4  319.87    6.38
   6   0   4  355.62    6.46
   0  -6   4  347.41    6.48
   0   6   4  347.20    6.28
   0   6   4  340.96    6.94
   0   6   4  351.07    6.63
  -6   0   4  348.02    6.54
   0   6  -4  348.08    6.08
   0   6  -4  353.16    6.36
   6   0  -4  343.97    6.57
   0   6  -4  344.23    6.45
   0   6  -4  347.85    6.95
   0   6  -4  342.36    8.25
  -6   0  -4  345.14    6.47
   0  -6  -4  357.38    9.41
   6   2   4  251.97    4.83
   2  -6   4  255.61    5.08
  -2   6   4  257.09    5.12
   2  -6   4  257.96    5.12
  -2   6   4  262.75    5.55
   6   2   4  258.82    5.12
  -2   6   4  263.10    5.21
  -6  -2   4  258.60    4.93
  -6  -2  -4  257.92    4.69
  -2   6  -4  260.42    5.04
  -2   6  -4  249.84    5.16
  -2   6  -4  255.38    6.68
   6   2  -4  255.18    4.97
   6   2  -4  249.56    4.84
  -2   6  -4  257.44    5.50
   4  -6   4  203.08    4.50
   6   4   4  195.11    4.18
  -6  -4   4  199.29    3.94
  -4   6   4  201.24    4.48
   6   4   4  204.27    4.35
  -4   6   4  200.83    4.71
   4  -6  -4  198.30    4.43
  -4   6  -4  200.36    4.66
   4  -6  -4  197.87    4.25
   6   4  -4  200.98    4.23
  -4   6  -4  197.36    4.51
   6  -6   4  149.47    3.94
   6   6   4  149.68    3.69
  -6   6   4  141.81    3.81
  -6  -6   4  144.88    3.15
  -6   6   4  149.23    3.85
   6   6   4  147.68    3.60
   6  -6  -4  149.76    3.89
  -6   6  -4  144.38    3.88
   6   6  -4  147.58    3.59
  -6   6  -4  154.04    3.86
  -7   5   4    0.25    0.25
   5   7   4    0.40    0.26
   7  -5   4    0.44    0.30
  -5  -7   4    0.07    0.14
   5   7   4    0.14    0.22
  -7   5  -4    0.62    0.32
   5   7  -4    0.30    0.24
   7  -5  -4    0.59    0.31
   7  -3   4    1.57    0.40
  -7   3   4    2.95    0.51
   3   7   4    2.40    0.44
  -3  -7   4    1.68    0.28
   3   7   4    1.93    0.41
  -7   3  -4    1.78    0.34
   7  -3  -4    1.17    0.36
   3   7  -4    2.31    0.40
   1   7   4    2.43    0.43
   1   7   4    2.87    0.47
  -7   1   4    1.53    0.31
   1   7   4    1.96    0.39
  -1  -7   4    1.80    0.30
   7  -1   4    2.32    0.41
  -7   1  -4    4.34    0.50
   1   7  -4    2.63    0.46
   1   7  -4    2.64    0.38
   7  -1  -4    3.36    0.50
   1   7  -4    2.55    0.38
   1   7  -4    2.18    0.34
   1  -7   4   11.43    0.68
  -7  -1   4   11.11    0.66
   7   1   4   12.62    0.62
   7   1   4   12.19    0.66
  -1   7   4   11.65    0.84
  -1   7   4   11.79    0.78
  -1   7   4   11.92    0.69
   7   1  -4   12.17    0.70
  -7  -1  -4   12.13    0.64
  -1   7  -4   11.59    0.70
  -1   7  -4   11.66    0.83
  -1   7  -4   11.68    0.75
  -3   7   4    2.61    0.52
  -7  -3   4    1.53    0.29
   3  -7   4    2.29    0.38
   7   3   4    1.83    0.37
  -3   7   4    1.35    0.35
  -3   7   4    1.74    0.39
  -3   7  -4    1.34    0.40
  -3   7  -4    1.47    0.38
  -7  -3  -4    1.85    0.25
   7   3  -4    2.08    0.30
  -3   7  -4    1.70    0.36
   7   3  -4    1.99    0.40
   3  -7  -4    1.62    0.34
  -5   7   4    0.64    0.29
  -7  -5   4    0.51    0.20
   7   5   4    0.12    0.20
   7   5   4    0.33    0.24
  -5   7   4   -0.11    0.20
   5  -7   4    0.33    0.28
  -5   7   4   -0.01    0.19
  -5   7  -4    1.48    0.43
  -5   7  -4    0.15    0.26
   7   5  -4    0.03    0.21
   7  -7   4    0.99    0.41
  -7  -7   4    1.75    0.32
  -7   7   4    1.68    0.46
  -7   7   4    1.22    0.41
   7   7   4    1.82    0.46
   7   7   4    2.21    0.49
   7  -7  -4    1.19    0.43
  -7   7  -4    1.67    0.48
   7   7  -4    1.38    0.41
  -6  -8   4  103.47    2.52
   8  -6   4  108.60    3.34
  -8   6   4  102.59    3.13
   6   8   4  102.07    3.01
   6   8   4  103.18    3.00
   8  -6  -4  103.46    3.23
   6   8  -4  108.40    2.95
   8  -4   4  115.31    3.43
   4   8   4  119.69    3.26
  -4  -8   4  119.24    2.79
   4   8   4  123.87    3.24
  -8   4   4  128.10    3.38
   8  -4  -4  121.60    3.49
   4   8  -4  125.12    3.10
   2   8   4  162.89    3.91
  -8   2   4  157.97    3.74
  -2  -8   4  158.76    3.53
   2   8   4  159.35    3.76
   8  -2   4  157.05    3.90
  -8   2  -4  160.83    3.78
   2   8  -4  162.00    3.54
   8  -2  -4  157.32    3.96
   2   8  -4  165.73    3.98
   8   0   4  133.94    3.08
   0  -8   4  129.62    3.12
   0   8   4  127.85    3.31
  -8   0   4  129.53    3.16
   0   8   4  126.76    3.47
   0   8   4  130.76    2.84
   0   8  -4  126.22    3.48
   8   0  -4  132.63    3.24
   0   8  -4  126.77    3.11
  -8   0  -4  130.71    3.13
   0   8  -4  131.21    3.07
  -2   8   4  199.28    4.89
  -2   8   4  194.54    4.51
  -2   8   4  193.31    4.31
  -8  -2   4  200.01    4.29
   8   2   4  197.93    4.19
   2  -8   4  199.08    4.38
  -8  -2  -4  196.65    4.12
   2  -8  -4  194.14    4.34
  -2   8  -4  199.59    4.33
  -2   8  -4  193.34    4.87
   8   2  -4  197.78    4.38
   8   2  -4  196.86    4.05
  -2   8  -4  197.29    4.52
  -4   8   4  117.82    3.46
  -4   8   4  113.08    3.16
   8   4   4  114.17    2.98
  -4   8   4  119.63    3.22
  -8  -4   4  114.14    2.78
  -8  -4  -4  112.41    2.50
  -4   8  -4  113.23    3.28
  -4   8  -4  117.57    3.05
   8   4  -4  110.52    3.07
  -4   8  -4  113.79    3.42
  -8  -6   4   88.29    2.31
  -6   8   4   84.92    2.76
   8   6   4   90.49    2.67
  -6   8   4   89.50    2.89
   8   6  -4   85.80    2.67
  -6   8  -4   84.18    2.84
  -6   8  -4   89.28    2.87
  -6   8  -4   90.82    2.66
   9  -5   4    1.11    0.44
   5   9   4    0.61    0.34
   5   9   4    1.25    0.39
  -5  -9   4    1.25    0.29
   9  -5  -4    1.04    0.42
   5   9  -4    1.01    0.37
  -3  -9   4   -0.01    0.15
   3   9   4    0.61    0.27
   3   9   4    0.58    0.33
   9  -3   4   -0.09    0.21
   3   9  -4    0.05    0.22
  -3  -9  -4    0.37    0.18
  -9   3  -4    0.18    0.20
   9  -3  -4    0.17    0.25
  -1  -9   4    1.43    0.33
   1   9   4    1.86    0.45
  -9   1   4    1.43    0.36
   1   9   4    1.60    0.43
   9  -1   4    2.45    0.46
  -1  -9  -4    2.00    0.36
   9  -1  -4    2.21    0.47
  -9   1  -4    2.06    0.41
   1  -9   4    7.22    0.63
  -1   9   4    7.64    0.59
  -1   9   4    7.95    0.79
  -1   9   4    7.63    0.71
  -9  -1   4    8.54    0.67
  -1   9  -4    6.32    0.82
  -1   9  -4    7.33    0.67
   9   1  -4    7.35    0.60
  -9  -1  -4    7.36    0.61
  -1   9  -4    7.82    0.64
   1  -9  -4    7.16    0.61
   9   1  -4    8.24    0.71
  -3   9   4    1.37    0.44
  -3   9   4    1.16    0.35
  -3   9   4    0.85    0.33
  -9  -3   4    1.25    0.33
   3  -9  -4    0.84    0.30
  -3   9  -4    1.35    0.36
  -3   9  -4    0.94    0.42
   9   3  -4    1.82    0.43
  -9  -3  -4    1.28    0.30
  -3   9  -4    1.04    0.35
  -9  -5   4    0.50    0.25
   9   5   4    1.09    0.38
  -5   9   4    0.07    0.30
  -5   9   4    0.18    0.25
  -5   9   4    0.29    0.26
  -5   9  -4   -0.03    0.25
   9   5  -4    0.02    0.24
  -5   9  -4    0.55    0.30
  -5   9  -4   -0.07    0.23
  -9  -5  -4    0.20    0.18
   2  10   4   82.78    2.65
  -2 -10   4   87.84    2.42
  10  -2   4   85.14    2.56
  10  -2  -4   86.21    2.70
  -2 -10  -4   86.19    2.27
 -10   2  -4   86.16    2.54
   0 -10   4   94.83    2.70
 -10   0   4   97.74    2.75
   0  10   4   95.88    2.89
  10   0  -4   92.04    2.63
   0 -10  -4   94.99    2.61
   0  10  -4   94.91    3.05
 -10   0  -4   97.10    2.71
  10   0  -4   96.84    2.76
 -10  -2   4   69.20    2.19
  -2  10   4   70.15    2.03
  -2  10   4   72.45    2.39
  -2  10   4   71.98    2.58
 -10  -2  -4   69.36    2.09
  10   2  -4   69.31    2.28
  -2  10  -4   65.68    2.54
  -2  10  -4   72.94    2.30
   0  -1   5   69.49    1.88
   0   1   5   67.34    2.03
  -1   0   5   68.03    1.88
   0   1   5   67.45    1.79
   1   0   5   69.28    2.09
   0   1  -5   68.95    1.89
   1   0  -5   69.40    1.87
  -1   0  -5   66.34    1.81
   0  -1  -5   69.18    1.81
   1   2   5  295.91    5.49
  -1  -2   5  296.02    5.12
  -2   1   5  297.29    6.85
  -2   1   5  286.35    5.17
  -1  -2   5  296.17    6.74
   2  -1   5  290.73    5.10
  -1  -2  -5  287.01    6.66
  -1  -2  -5  288.95    7.45
   1   2  -5  293.11    6.72
  -2   1  -5  287.81    5.15
  -1  -2  -5  279.55    8.09
   1   2  -5  290.16    5.09
  -2  -1   5  331.77    7.51
   2   1   5  331.47    8.23
  -2  -1   5  331.40    5.70
  -1   2   5  326.49    7.49
  -1   2   5  326.85    6.04
  -1   2   5  334.12    5.70
   2   1   5  321.56    6.10
   2   1  -5  332.45    5.67
  -2  -1  -5  321.57    8.23
   2   1  -5  329.73    9.58
  -1   2  -5  327.56    7.57
   1  -2  -5  304.64    5.71
   2   1  -5  319.64    7.50
  -3   2   5   40.12    1.04
   2   3   5   40.48    1.10
  -3   2   5   39.56    1.18
  -3   2   5   39.17    1.53
  -3   2   5   39.30    1.34
  -2  -3   5   39.67    0.96
   2   3   5   44.33    1.27
   2   3   5   38.92    1.07
   3  -2   5   39.46    1.14
  -2  -3  -5   39.25    1.83
   2   3  -5   40.20    1.00
  -3   2  -5   39.48    1.07
   2   3  -5   39.56    1.04
   2   3  -5   40.21    1.32
   2   3  -5   39.74    1.72
   3  -2  -5   41.09    1.21
  -2  -3  -5   38.89    1.71
  -3   2  -5   39.29    1.13
   3   0   5  264.22    5.28
   0   3   5  275.42    4.87
   0   3   5  276.64    5.29
   3   0   5  276.75    4.91
   0   3   5  275.92    4.97
   0   3   5  271.32    6.28
   3   0   5  279.85    7.14
   0  -3   5  276.42    4.98
  -3   0   5  277.69    6.66
   3   0   5  280.31    4.89
  -3   0   5  280.62    5.01
   0   3   5  287.03    5.27
   0  -3  -5  272.26    4.99
   0   3  -5  285.07    6.60
   0  -3  -5  282.38    7.21
  -3   0  -5  275.06    4.92
   0   3  -5  286.08    5.01
   0  -3  -5  288.61    7.97
   3   0  -5  278.24    5.04
   3   2   5   93.54    1.91
  -2   3   5   90.97    2.20
  -3  -2   5   93.31    1.88
  -2   3   5   94.14    2.10
   3   2   5   88.16    2.19
  -2   3   5   91.65    2.69
  -2   3   5   94.91    3.01
   3   2   5   93.48    1.99
   2  -3   5   92.03    1.95
   2  -3   5   95.24    2.09
   2  -3  -5   93.10    2.10
  -2   3  -5   95.16    2.10
   3   2  -5   93.33    1.96
  -3  -2  -5   93.26    3.06
  -2   3  -5   93.02    1.98
   4  -3   5  130.23    2.94
   3   4   5  131.54    2.82
  -3  -4   5  129.54    2.57
   3   4   5  128.77    2.74
  -4   3   5  127.54    2.98
  -4   3   5  130.25    2.96
  -4   3  -5  131.11    2.88
   3   4  -5  131.22    2.63
   3   4  -5  131.31    2.67
   3   4  -5  129.92    2.55
  -3  -4  -5  128.85    4.28
  -4   3  -5  129.99    2.77
   3   4  -5  129.59    4.37
   4  -3  -5  128.03    2.98
  -4   3  -5  128.59    2.90
   1   4   5   54.67    1.48
   1   4   5   53.91    1.16
  -4   1   5   53.45    1.37
   4  -1   5   54.05    1.38
  -4   1   5   50.18    1.37
  -1  -4   5   53.70    1.27
   4  -1   5   55.99    1.89
   1   4   5   55.76    1.41
   1   4   5   53.93    1.42
   4  -1   5   55.66    1.43
  -4   1   5   55.16    1.49
   4  -1  -5   54.79    1.52
   1   4  -5   55.39    1.26
  -1  -4  -5   55.36    2.39
   1   4  -5   51.89    1.70
   1   4  -5   55.34    1.38
  -4   1  -5   54.75    1.35
  -1  -4  -5   55.34    1.02
  -1  -4  -5   53.06    2.14
  -1   4   5   90.11    3.16
  -1   4   5   88.42    2.47
  -4  -1   5   87.45    1.89
  -1   4   5   86.38    1.97
   4   1   5   90.14    1.80
   1  -4   5   86.20    1.91
   1  -4   5   86.78    1.99
  -1   4   5   87.58    2.03
   4   1   5   90.46    2.15
  -1   4   5   86.64    2.19
   4   1   5   86.81    1.96
   1  -4  -5   88.36    2.78
   4   1  -5   90.26    1.99
  -4  -1  -5   87.58    1.71
  -4  -1  -5   87.76    2.88
  -1   4  -5   88.19    2.13
  -1   4  -5   89.49    2.66
  -1   4  -5   88.94    2.04
   3  -4   5  166.91    3.36
   4   3   5  169.39    3.44
   4   3   5  167.85    3.31
  -3   4   5  162.72    3.54
  -4  -3   5  169.23    3.22
   3  -4   5  172.79    3.57
  -3   4   5  167.91    3.74
   3  -4  -5  167.24    3.56
   4   3  -5  167.27    3.26
  -3   4  -5  167.47    3.58
  -4  -3  -5  168.58    5.16
  -3   4  -5  169.72    3.65
   4   3  -5  165.25    3.31
   4   3  -5  169.82    3.19
  -5   4   5   92.34    2.53
  -4  -5   5   94.95    2.11
   5  -4   5   95.72    2.59
   4   5   5   92.97    2.42
   4   5   5   95.26    2.38
  -5   4   5   93.72    2.56
   4   5  -5   97.16    2.09
  -5   4  -5   96.49    2.48
  -5   4  -5   94.71    2.55
   4   5  -5   98.55    2.34
   5  -4  -5   93.08    2.59
   5  -2   5   82.92    2.11
   2   5   5   80.05    2.00
  -5   2   5   82.43    1.98
   2   5   5   77.08    1.99
   2   5   5   79.68    2.05
  -5   2   5   76.32    1.99
  -5   2   5   76.49    2.11
  -2  -5   5   79.67    1.80
  -5   2  -5   80.30    2.04
   2   5  -5   78.03    2.03
  -2  -5  -5   81.40    3.11
  -5   2  -5   81.28    1.98
   2   5  -5   82.04    1.88
   5  -2  -5   85.35    2.21
   2   5  -5   79.12    2.19
   2   5  -5   82.63    1.88
   0   5   5  135.90    3.12
   0   5   5  135.25    3.07
   0   5   5  135.73    2.73
   5   0   5  135.42    2.81
  -5   0   5  131.93    2.88
   5   0   5  132.68    2.94
   0  -5   5  135.99    2.80
   0   5   5  134.11    2.94
  -5   0   5  136.17    2.84
  -5   0  -5  134.68    2.76
   0  -5  -5  133.22    2.66
   0   5  -5  134.77    3.68
   0   5  -5  134.18    3.09
   0   5  -5  136.59    2.70
   5   0  -5  132.87    2.95
   0   5  -5  136.59    2.88
   0  -5  -5  135.11    4.19
  -2   5   5   44.57    1.39
  -5  -2   5   44.96    1.21
   2  -5   5   51.18    1.34
   5   2   5   43.25    1.35
   5   2   5   43.73    1.25
  -2   5   5   45.57    1.43
  -2   5   5   42.58    1.51
   2  -5   5   43.72    1.39
  -2   5  -5   45.14    1.49
  -2   5  -5   45.45    1.83
  -5  -2  -5   45.54    2.02
  -5  -2  -5   45.92    0.96
   5   2  -5   44.98    1.27
  -2   5  -5   47.01    1.46
  -4   5   5  124.41    3.04
   4  -5   5  121.52    3.04
   5   4   5  121.67    2.80
  -5  -4   5  120.13    2.57
  -4   5   5  117.49    3.10
   5   4   5  123.90    2.89
   5   4  -5  124.56    2.83
  -4   5  -5  123.29    3.08
  -4   5  -5  122.55    3.08
   5   4  -5  125.46    2.56
   4  -5  -5  120.82    3.01
  -5  -6   5   32.21    1.07
  -6   5   5   30.89    1.44
  -6   5   5   32.84    1.42
   5   6   5   34.37    1.41
   6  -5   5   32.74    1.52
   5   6   5   31.01    1.33
   6  -5  -5   31.99    1.48
  -6   5  -5   32.26    1.37
  -6   5  -5   33.30    1.50
   5   6  -5   31.25    1.31
   3   6   5   51.33    1.67
   6  -3   5   50.80    1.75
  -3  -6   5   49.21    1.35
  -6   3   5   51.26    1.73
   3   6   5   48.64    1.59
  -6   3   5   46.47    1.53
   3   6  -5   48.15    1.54
  -6   3  -5   49.07    1.53
   6  -3  -5   46.33    1.71
   3   6  -5   49.37    1.49
   3   6  -5   47.21    1.33
   6  -1   5  142.88    3.27
   1   6   5  145.50    3.23
   1   6   5  148.93    3.37
  -6   1   5  147.85    3.23
  -6   1   5  146.03    3.32
  -1  -6   5  143.80    3.08
   1   6   5  145.44    3.43
   1   6  -5  145.28    3.43
   1   6  -5  149.53    3.16
   1   6  -5  149.37    3.04
   6  -1  -5  159.49    3.47
  -6   1  -5  148.54    3.22
   1   6  -5  146.89    3.82
   1   6  -5  151.26    3.00
   6   1   5   79.85    1.86
   6   1   5   78.03    1.87
  -1   6   5   79.96    2.27
   1  -6   5   80.87    2.02
  -6  -1   5   80.19    1.99
  -1   6   5   81.40    2.18
  -1   6   5   79.86    2.01
  -1   6   5   80.61    2.32
  -1   6  -5   81.12    2.30
  -1   6  -5   82.78    2.67
  -1   6  -5   79.19    1.96
  -1   6  -5   78.02    2.12
  -6  -1  -5   79.06    1.86
   6   1  -5   78.57    2.04
  -3   6   5   41.70    1.50
   3  -6   5   43.82    1.39
   6   3   5   41.75    1.47
   3  -6   5   42.60    1.53
   6   3   5   40.69    1.36
  -6  -3   5   42.26    1.25
  -3   6   5   41.25    1.63
  -3   6   5   42.56    1.52
  -3   6  -5   43.14    1.61
  -6  -3  -5   43.53    0.97
   6   3  -5   42.07    1.24
   6   3  -5   44.16    1.46
  -3   6  -5   39.37    1.53
   6   5   5   42.51    1.56
  -5   6   5   43.19    1.72
  -5   6   5   44.77    1.78
  -6  -5   5   42.73    1.30
   6   5   5   43.83    1.63
   5  -6   5   43.52    1.75
   5  -6  -5   42.42    1.70
  -5   6  -5   41.94    1.71
   6   5  -5   45.46    1.61
  -5   6  -5   43.27    1.77
   6   7   5   61.39    2.16
   7  -6   5   60.18    2.34
  -7   6   5   62.48    2.30
   6   7   5   57.73    2.07
  -6  -7   5   62.01    1.75
  -7   6   5   63.89    2.19
   7  -6  -5   62.45    2.31
  -7   6  -5   59.45    2.26
   6   7  -5   61.94    2.08
   7  -4   5   26.15    1.37
   4   7   5   24.41    1.20
   4   7   5   24.63    1.22
  -4  -7   5   24.64    0.96
  -7   4   5   23.58    1.25
   4   7  -5   24.15    1.11
   7  -4  -5   24.62    1.32
   2   7   5   91.97    2.45
   2   7   5   88.72    2.50
  -2  -7   5   91.80    2.21
   7  -2   5   86.87    2.51
  -7   2   5   88.23    2.37
   2   7  -5   86.11    2.15
   2   7  -5   88.60    2.21
   7  -2  -5   88.02    2.59
  -7   2  -5   92.01    2.40
   2   7  -5   90.20    2.52
   0   7   5   43.00    1.64
   0  -7   5   41.89    1.38
   7   0   5   45.87    1.46
   0   7   5   45.65    1.31
   0   7   5   43.94    1.59
  -7   0   5   41.38    1.42
   0   7  -5   43.17    1.47
   0   7  -5   44.48    1.38
   0   7  -5   44.47    1.67
  -7   0  -5   46.69    1.44
   7   0  -5   43.82    1.55
   7   2   5   94.55    2.32
  -2   7   5   95.57    2.49
  -2   7   5   95.97    2.60
  -7  -2   5   90.00    2.33
  -2   7   5   91.72    2.77
   2  -7   5   92.55    2.42
  -2   7  -5   92.26    2.39
  -2   7  -5   97.92    2.64
   7   2  -5   93.38    2.48
  -2   7  -5   94.14    2.78
   7   2  -5   94.40    2.32
  -7  -2  -5   94.38    2.17
  -4   7   5   28.29    1.34
  -7  -4   5   31.07    1.13
   7   4   5   31.20    1.37
   4  -7   5   32.06    1.45
  -4   7   5   30.48    1.50
   7   4   5   31.98    1.31
  -4   7   5   31.12    1.41
  -4   7  -5   30.54    1.49
  -4   7  -5   29.94    1.44
  -7  -4  -5   32.26    0.87
   7   4  -5   32.29    1.36
   4  -7  -5   28.69    1.23
  -6   7   5   40.99    1.77
   6  -7   5   41.04    1.84
   7   6   5   41.76    1.71
  -7  -6   5   40.49    1.37
   7   6   5   43.10    1.69
  -6   7   5   40.59    1.79
  -6   7  -5   41.04    1.77
   7   6  -5   39.52    1.66
  -6   7  -5   41.07    1.84
  -8   5   5   51.26    2.01
   8  -5   5   51.78    2.14
   5   8   5   49.87    1.93
  -5  -8   5   50.85    1.57
   5   8   5   50.37    1.90
   8  -5  -5   48.94    2.06
   5   8  -5   49.97    1.79
   3   8   5   46.19    1.78
   8  -3   5   48.41    1.93
   3   8   5   50.25    1.88
  -3  -8   5   47.60    1.53
   8  -3  -5   51.30    1.98
  -8   3  -5   50.61    1.75
   3   8  -5   53.12    1.69
  -8   1   5   23.77    1.11
   8  -1   5   24.72    1.17
   1   8   5   25.44    1.25
  -1  -8   5   24.39    1.05
   1   8   5   23.23    1.20
   1   8  -5   23.50    1.03
   8  -1  -5   24.65    1.23
   1   8  -5   24.58    1.26
  -8   1  -5   24.88    1.12
  -1   8   5   49.43    1.55
  -8  -1   5   47.31    1.62
   1  -8   5   48.21    1.63
  -1   8   5   46.02    1.87
  -1   8   5   47.60    1.78
  -1   8  -5   45.35    1.69
   8   1  -5   47.60    1.62
  -8  -1  -5   50.02    1.58
   8   1  -5   47.26    1.70
  -1   8  -5   47.49    1.91
  -8  -3   5   70.07    2.05
  -3   8   5   69.39    2.48
   8   3   5   71.63    2.11
  -3   8   5   68.94    2.28
  -3   8   5   71.59    2.24
  -8  -3  -5   70.79    1.85
  -3   8  -5   73.84    2.17
  -3   8  -5   69.16    2.51
   3  -8  -5   73.31    2.17
  -3   8  -5   73.70    2.41
   8   3  -5   75.15    2.30
  -8  -5   5   29.74    1.19
  -5   8   5   27.31    1.40
   8   5   5   29.64    1.35
  -5   8   5   30.86    1.46
  -5   8   5   28.82    1.54
  -5   8  -5   30.64    1.57
   8   5  -5   29.85    1.44
  -5   8  -5   27.92    1.50
  -5   8  -5   29.06    1.32
   4   9   5   28.40    1.42
  -4  -9   5   30.43    1.20
   9  -4   5   29.02    1.52
   4   9   5   30.70    1.48
  -4  -9  -5   29.76    0.96
   9  -4  -5   28.20    1.52
   4   9  -5   30.36    1.32
   9  -2   5   43.67    1.75
   2   9   5   42.18    1.78
  -2  -9   5   44.89    1.56
   9  -2  -5   48.25    1.90
  -9   2  -5   45.51    1.70
   0  -9   5   22.37    1.11
  -9   0   5   22.55    1.15
   0   9   5   23.45    1.26
   0   9   5   24.60    1.33
   9   0  -5   23.91    1.19
   0  -9  -5   23.25    1.07
   0   9  -5   26.22    1.43
  -9   0  -5   23.61    1.14
   9   0  -5   26.27    1.27
   0   9  -5   25.83    1.17
  -9  -2   5   45.66    1.66
   2  -9   5   46.47    1.72
  -2   9   5   46.57    1.98
  -2   9   5   45.18    1.82
  -2   9   5   46.27    1.64
   9   2  -5   46.32    1.79
  -9  -2  -5   47.70    1.59
  -2   9  -5   47.13    2.04
   2  -9  -5   44.76    1.66
  -2   9  -5   45.15    1.80
  -4   9   5   20.74    1.20
   9   4   5   22.37    1.14
  -9  -4   5   20.87    1.04
  -4   9   5   20.37    1.16
  -4   9   5   21.59    1.34
  -4   9  -5   20.75    1.27
  -9  -4  -5   21.35    0.91
   9   4  -5   21.51    1.21
  -4   9  -5   21.14    1.35
  -1 -10   5   41.54    1.58
   1  10   5   40.29    1.74
  10  -1   5   40.92    1.52
 -10   1  -5   39.79    1.60
  10  -1  -5   42.17    1.70
  -1 -10  -5   40.52    1.46
   1  10  -5   40.67    1.80
  10  -1  -5   42.28    1.66
  -1  10   5   29.49    1.52
  -1  10   5   28.57    1.44
 -10  -1   5   29.94    1.36
   1 -10   5   29.48    1.35
  10   1  -5   30.25    1.25
   1 -10  -5   32.04    1.34
  -1  10  -5   29.24    1.33
  -1  10  -5   27.58    1.54
 -10  -1  -5   30.33    1.31
  10   1  -5   30.81    1.43
   0   0   6   -0.74    0.11
   0   0  -6   -0.62    0.13
  -1  -1   6  757.30   13.65
  -1   1   6  757.33   19.60
   1   1   6  735.66   18.54
  -1   1   6  730.91   13.92
  -1   1   6  776.22   12.35
   1  -1   6  721.66   12.79
  -1  -1   6  775.12   17.79
  -1   1   6  770.32   17.32
   1   1   6  741.02   14.34
  -1   1  -6  699.78   13.46
   1  -1  -6  711.07   13.13
  -1   1  -6  731.50   18.32
  -1  -1  -6  670.06   13.07
  -1  -1  -6  724.74   17.64
   1  -1  -6  771.33   20.47
   1   1  -6  747.74   16.99
   1  -1  -6  743.93   17.28
   0  -2   6   -0.26    0.07
   2   0   6   -0.07    0.16
   2   0   6   -0.08    0.10
   2   0   6   -0.23    0.11
   0   2   6   -0.24    0.12
  -2   0   6    0.48    0.21
   0   2   6   -0.13    0.11
  -2   0   6   -0.10    0.09
   0  -2  -6   -0.11    0.17
   0  -2  -6   -0.11    0.12
  -2   0  -6   -0.04    0.09
  -2   0  -6   -0.01    0.14
   0   2  -6    0.19    0.18
   0   2  -6   -0.13    0.11
   0  -2  -6   -0.20    0.14
   0  -2  -6   -0.02    0.08
   2   0  -6   -0.27    0.09
  -2   2   6    0.16    0.15
  -2   2   6   -0.01    0.11
   2   2   6    0.47    0.17
  -2   2   6    0.09    0.13
  -2  -2  -6    0.65    0.26
   2  -2  -6    0.08    0.11
   2   2  -6    0.04    0.10
  -3   1   6  380.12    6.77
  -3   1   6  377.68    6.79
  -1  -3   6  379.36    6.71
   1   3   6  378.97    6.65
   3  -1   6  377.87    6.68
  -3   1   6  398.87    7.03
   3  -1   6  374.89    9.54
  -3   1   6  380.08    8.97
   1   3   6  372.71    7.00
   3  -1   6  374.06    7.09
   1   3   6  378.51    7.16
   1   3   6  380.09    6.49
   1   3   6  375.58    6.41
  -1  -3  -6  369.81    6.56
  -1  -3  -6  383.84    9.78
  -1  -3  -6  382.51   10.67
   1   3  -6  392.58    6.70
  -3   1  -6  379.97    6.76
   1   3  -6  373.18    8.78
   3  -1  -6  393.58    6.84
   3   1   6  866.88   16.12
  -1   3   6  915.49   21.91
  -1   3   6  933.88   16.71
   1  -3   6  973.95   16.74
  -1   3   6  869.95   16.05
   3   1   6  877.36   16.82
   1  -3   6  940.68   16.90
  -3  -1   6  935.11   16.98
   3   1   6  878.93   15.75
  -1   3   6  942.44   16.76
   1  -3  -6  921.67   23.60
   3   1  -6  963.96   16.81
  -1   3  -6  949.53   22.37
  -1   3  -6  964.12   16.23
   1  -3  -6  896.92   16.98
  -3  -1  -6  878.04   16.05
  -3  -3   6  400.59    7.05
   3  -3   6  387.63    7.39
  -3   3   6  400.60    7.25
   3  -3   6  403.79    7.22
   3   3   6  399.72    7.09
   3   3   6  394.79    7.71
   3   3   6  383.44    6.84
  -3   3   6  402.22    7.60
  -3   3  -6  401.95    7.45
   3   3  -6  403.09    7.01
   3  -3  -6  398.59    7.26
  -3  -3  -6  383.39   10.43
   3   3  -6  408.59   10.98
  -3   3  -6  399.31    7.22
   3   3  -6  401.93    6.82
  -3   3  -6  391.73    7.19
   2   4   6    0.60    0.19
   4  -2   6    0.13    0.14
  -4   2   6   -0.05    0.12
   2   4   6   -0.06    0.12
  -4   2   6    0.33    0.15
   4  -2   6    0.08    0.12
  -2  -4   6    0.37    0.13
  -4   2   6    0.05    0.14
   2   4   6    0.14    0.15
   2   4  -6    0.07    0.13
   2   4  -6    0.13    0.25
   2   4  -6   -0.13    0.08
  -4   2  -6   -0.05    0.09
  -2  -4  -6   -0.02    0.19
  -4   2  -6   -0.16    0.10
   4  -2  -6    0.09    0.15
   2   4  -6    0.02    0.13
   0   4   6    0.24    0.16
   0   4   6   -0.07    0.12
   0   4   6   -0.09    0.14
   0   4   6    0.00    0.10
  -4   0   6    0.12    0.13
   0  -4   6   -0.11    0.09
  -4   0   6    1.55    0.28
   4   0   6    1.21    0.25
   0   4   6    0.63    0.17
   4   0   6    0.06    0.13
   0   4  -6    0.24    0.19
  -4   0  -6    0.13    0.12
   0   4  -6   -0.21    0.09
   0  -4  -6    0.80    0.32
   4   0  -6    0.19    0.15
   0  -4  -6   -0.01    0.09
  -2   4   6    0.45    0.21
  -2   4   6    0.04    0.13
   4   2   6   -0.07    0.10
  -2   4   6    0.12    0.22
   4   2   6   -0.08    0.12
   4   2   6    0.14    0.09
   4   2   6   -0.09    0.12
  -2   4   6    0.49    0.20
  -4  -2   6    0.41    0.14
   2  -4   6   -0.19    0.09
  -2   4  -6   -0.11    0.10
  -2   4  -6    0.15    0.20
   2  -4  -6    0.13    0.15
  -2   4  -6    0.02    0.15
   4   2  -6   -0.04    0.10
  -4  -2  -6   -0.10    0.15
   4  -4   6    1.33    0.32
  -4   4   6    0.30    0.18
  -4  -4   6    0.43    0.14
  -4   4   6    0.21    0.18
   4   4   6    0.22    0.17
   4   4   6    0.23    0.16
   4   4  -6    0.33    0.14
   4  -4  -6    0.18    0.18
  -4   4  -6    0.64    0.22
  -4   4  -6    1.05    0.29
   4   4  -6   -0.08    0.10
   3   5   6  295.63    5.62
   3   5   6  292.91    5.77
   5  -3   6  292.85    5.91
  -5   3   6  299.12    5.95
  -3  -5   6  299.42    5.54
  -5   3   6  298.04    6.01
  -5   3  -6  302.21    5.89
   5  -3  -6  301.39    6.00
   3   5  -6  298.67    5.85
   3   5  -6  298.53    5.51
   3   5  -6  297.64    5.47
  -5   3  -6  298.13    5.76
  -5   3  -6  297.89    5.85
  -5   1   6  512.89    9.19
   1   5   6  511.55    9.53
   1   5   6  512.67    8.86
  -5   1   6  507.78    9.15
   1   5   6  503.34    8.60
   5  -1   6  503.32    9.04
  -1  -5   6  524.55    9.08
   1   5   6  492.17    9.08
   5  -1  -6  514.14    9.25
  -5   1  -6  504.05    9.14
  -1  -5  -6  504.75   13.13
   1   5  -6  524.70    8.99
   1   5  -6  520.16    8.54
   1   5  -6  503.89   11.68
  -1  -5  -6  505.10    8.92
   5   1   6  187.26    3.59
  -5  -1   6  188.55    3.78
  -1   5   6  189.29    4.18
  -1   5   6  184.76    3.90
   5   1   6  192.93    4.11
  -1   5   6  192.43    4.74
   1  -5   6  190.59    3.81
  -1   5   6  191.42    3.80
   1  -5   6  193.98    3.88
   5   1   6  193.88    3.86
   5   1   6  189.24    3.53
  -1   5  -6  191.07    3.92
  -1   5  -6  191.33    5.09
   5   1  -6  193.01    3.86
  -1   5  -6  187.74    4.13
  -1   5  -6  192.92    3.67
   1  -5  -6  195.10    5.46
  -5  -1  -6  187.90    3.61
   5   3   6  314.73    5.93
   5   3   6  325.48    6.22
  -3   5   6  334.22    6.73
   3  -5   6  331.96    6.37
  -3   5   6  329.42    6.35
  -5  -3   6  333.03    6.07
   5   3  -6  321.46    6.03
  -3   5  -6  327.71    6.62
   5   3  -6  330.24    6.01
  -3   5  -6  326.30    6.39
   5   5   6  236.47    5.00
   5  -5   6  241.64    5.23
  -5   5   6  231.97    5.28
   5   5   6  243.98    4.87
  -5   5   6  239.63    5.16
  -5  -5   6  239.51    4.67
   5  -5  -6  232.53    5.14
   5   5  -6  242.63    4.85
  -5   5  -6  231.48    5.18
   5   5  -6  236.88    4.50
  -5   5  -6  237.91    5.18
  -4  -6   6   -0.01    0.12
  -6   4   6    0.19    0.20
   4   6   6    1.23    0.34
   4   6   6    0.34    0.22
  -6   4   6    0.06    0.20
   6  -4   6    0.11    0.19
  -6   4  -6   -0.04    0.18
   4   6  -6    0.22    0.20
   6  -4  -6    0.03    0.18
   4   6  -6    0.02    0.13
   6  -2   6   -0.17    0.12
  -2  -6   6   -0.02    0.10
  -6   2   6    0.28    0.17
   2   6   6    0.34    0.20
   2   6   6   -0.01    0.16
   2   6   6    0.28    0.22
  -6   2   6    0.82    0.27
   2   6  -6    0.14    0.15
   2   6  -6    0.07    0.15
   2   6  -6    1.62    0.33
  -6   2  -6    0.46    0.18
   6  -2  -6    0.22    0.20
  -2  -6  -6    0.10    0.08
   6   0   6    0.16    0.15
  -6   0   6   -0.08    0.10
   0  -6   6    0.07    0.11
   0   6   6    1.25    0.30
   0   6   6    0.09    0.13
   0   6   6   -0.08    0.15
   0   6  -6    0.00    0.15
  -6   0  -6    0.19    0.14
   6   0  -6    0.16    0.17
   0   6  -6   -0.02    0.15
   2  -6   6   -0.18    0.13
  -2   6   6    0.07    0.16
  -2   6   6    0.44    0.22
  -2   6   6    0.14    0.17
   6   2   6    0.29    0.20
  -6  -2   6   -0.01    0.11
   6   2   6    0.12    0.15
   2  -6   6    0.93    0.24
  -6  -2  -6    0.18    0.11
  -2   6  -6    2.06    0.39
  -2   6  -6    0.37    0.18
   6   2  -6   -0.01    0.12
  -2   6  -6   -0.06    0.16
  -6  -4   6    0.11    0.13
   6   4   6    0.16    0.19
   4  -6   6    0.19    0.23
  -4   6   6    0.76    0.29
   6   4   6   -0.02    0.17
  -4   6   6    0.13    0.19
  -4   6   6   -0.02    0.19
   6   4  -6   -0.20    0.14
  -4   6  -6   -0.09    0.15
  -4   6  -6    0.21    0.22
   6   4  -6    0.07    0.13
  -6  -6   6    0.21    0.17
   6  -6   6    0.22    0.25
  -6   6   6    0.40    0.29
   6   6   6    0.20    0.21
   6   6   6    0.34    0.26
  -6   6   6    0.36    0.30
   6   6  -6    0.93    0.35
   6  -6  -6   -0.10    0.20
  -6   6  -6    0.46    0.31
  -6   6  -6    0.04    0.24
  -7   5   6  144.13    3.64
  -7   5   6  141.83    3.77
  -5  -7   6  145.57    3.25
   5   7   6  145.33    3.61
   5   7   6  142.42    3.67
   7  -5   6  141.03    3.89
   5   7  -6  145.27    3.48
   7  -5  -6  143.99    3.86
   3   7   6  112.53    2.91
  -7   3   6  111.99    3.04
   3   7   6  113.51    3.01
   7  -3   6  107.85    3.06
  -3  -7   6  110.28    2.62
  -7   3  -6  112.94    2.85
   3   7  -6  113.92    2.54
  -3  -7  -6  112.12    2.22
   3   7  -6  111.11    2.68
   7  -3  -6  110.45    3.11
  -7   1   6  220.87    4.70
   1   7   6  219.95    4.96
   1   7   6  221.24    4.85
   7  -1   6  221.55    4.73
  -1  -7   6  225.53    4.60
   7  -1  -6  231.71    4.94
  -7   1  -6  223.79    4.70
   1   7  -6  227.40    4.60
   1   7  -6  226.46    5.03
   7   1   6  233.09    4.42
  -1   7   6  229.80    4.63
  -7  -1   6  228.74    4.75
  -1   7   6  228.51    5.21
   1  -7   6  223.33    4.74
  -1   7   6  228.90    4.93
  -1   7  -6  234.96    5.27
  -7  -1  -6  224.21    4.60
  -1   7  -6  230.56    4.87
   7   1  -6  229.60    4.76
  -3   7   6  220.77    5.20
   7   3   6  220.10    4.50
  -3   7   6  222.99    4.87
  -7  -3   6  225.01    4.57
  -3   7   6  224.30    4.80
   7   3  -6  213.83    4.68
  -7  -3  -6  218.02    4.21
   7   3  -6  217.65    4.38
  -3   7  -6  213.60    5.14
  -3   7  -6  215.98    4.94
  -3   7  -6  222.70    4.60
  -5   7   6   64.19    2.17
   7   5   6   63.61    2.16
  -7  -5   6   61.59    1.83
  -5   7   6   67.70    2.38
   7   5   6   65.40    2.07
  -5   7   6   62.18    2.20
   5  -7   6   61.32    2.25
  -5   7  -6   64.55    2.33
  -5   7  -6   62.79    2.29
   7   5  -6   65.48    2.13
  -7  -7   6  113.25    2.78
  -7   7   6  113.30    3.24
   7   7   6  112.18    3.20
  -7   7   6  111.89    3.29
   7   7   6  112.88    3.11
   7   7  -6  106.98    3.05
   6   8   6    0.68    0.34
  -6  -8   6    0.14    0.20
   6   8   6    0.09    0.24
   8  -6   6    0.17    0.31
  -8   6   6    0.15    0.27
   6   8  -6    0.04    0.22
   8  -6  -6    0.72    0.35
   4   8   6    0.25    0.26
   4   8   6    0.05    0.21
   8  -4   6   -0.05    0.21
  -8   4   6    0.76    0.34
  -4  -8   6    0.20    0.19
   8  -4  -6    0.56    0.33
   4   8  -6    0.21    0.24
   8  -2   6    0.10    0.21
   2   8   6    0.19    0.21
   2   8  -6    2.22    0.36
   2   8  -6    0.14    0.22
   8  -2  -6    0.80    0.34
  -8   2  -6   -0.02    0.16
   0  -8   6    0.03    0.16
   0   8   6    0.43    0.25
  -8   0   6    0.06    0.17
   0   8   6    0.02    0.18
   8   0   6    0.55    0.22
  -8   0  -6    0.92    0.26
   0   8  -6    0.07    0.16
   0   8  -6    0.28    0.24
   8   0  -6    0.21    0.20
   2  -8   6    0.52    0.24
  -8  -2   6    0.11    0.16
  -2   8   6    0.03    0.19
  -2   8   6    0.11    0.21
  -2   8   6    0.11    0.23
   8   2  -6    0.58    0.22
  -2   8  -6    0.22    0.26
  -2   8  -6    0.65    0.30
   8   2  -6    0.11    0.20
  -8  -2  -6    0.19    0.18
  -4   8   6    0.25    0.25
  -4   8   6   -0.09    0.22
  -4   8   6    0.10    0.23
  -8  -4   6    0.80    0.27
   8   4   6    0.39    0.24
  -8  -4  -6    0.54    0.19
   8   4  -6    0.15    0.22
   4  -8  -6    0.76    0.29
  -4   8  -6   -0.03    0.23
  -4   8  -6    0.43    0.25
  -4   8  -6    0.30    0.27
   8   6   6   -0.09    0.21
  -6   8   6    0.45    0.35
   6  -8   6    0.19    0.30
  -6   8   6    0.28    0.28
  -8  -6   6   -0.01    0.17
  -6   8   6    0.22    0.26
  -6   8  -6    0.18    0.23
  -6   8  -6    0.16    0.29
   8   6  -6    0.26    0.27
  -6   8  -6    0.20    0.27
   9  -3   6  156.23    4.07
  -3  -9   6  159.92    3.68
   3   9   6  155.44    4.03
   9  -3  -6  154.21    4.12
  -9   3  -6  164.61    3.87
  -9   1   6   84.20    2.49
  -1  -9   6   83.24    2.38
   1   9   6   78.46    2.58
   9  -1   6   86.17    2.44
   1   9  -6   85.30    2.31
   9  -1  -6   85.56    2.63
  -9   1  -6   85.55    2.50
   1   9  -6   80.98    2.69
  -1   9   6   99.14    3.09
   1  -9   6  100.97    2.81
  -9  -1   6  102.75    2.81
  -1   9   6  101.98    2.97
   1  -9  -6  103.02    2.73
   9   1  -6  101.90    2.88
  -9  -1  -6  102.69    2.71
  -1   9  -6  101.53    3.20
   9   1  -6   99.03    2.71
  -1   9  -6  103.59    2.86
  -3   9   6   78.33    2.74
  -3   9   6   80.96    2.57
  -9  -3   6   81.42    2.36
  -3   9   6   77.97    2.36
  -9  -3  -6   77.28    2.11
  -3   9  -6   77.47    2.78
   9   3  -6   79.39    2.51
  -3   9  -6   79.48    2.60
   3  -9  -6   81.95    2.40
  -2 -10   6    0.25    0.23
  10  -2   6    0.34    0.27
   2  10   6    0.17    0.26
  -2 -10  -6    0.35    0.21
 -10   2  -6   -0.07    0.20
  10  -2  -6    0.08    0.24
   0  10   6    0.09    0.26
   0 -10   6    0.06    0.19
   0  10   6    0.15    0.26
 -10   0   6    0.17    0.24
   0  10  -6    0.45    0.25
 -10   0  -6    0.06    0.19
  10   0  -6    0.08    0.23
  10   0  -6    0.20    0.26
   0 -10  -6   -0.11    0.16
 -10  -2   6    0.57    0.27
  -2  10   6    0.15    0.29
  -2  10   6    0.06    0.23
  -2  10  -6    0.20    0.29
 -10  -2  -6   -0.03    0.19
   2 -10  -6   -0.01    0.19
  10   2  -6    0.09    0.25
  -2  10  -6    0.19    0.25
   0   1   7   70.03    1.66
   0  -1   7   70.72    2.05
   0   1   7   69.98    1.96
   0   1   7   72.24    2.27
   1   0   7   71.02    1.50
   1   0   7   72.61    2.32
   1   0   7   73.69    1.72
   0   1   7   69.55    1.50
  -1   0   7   69.49    1.55
   0  -1   7   70.10    1.53
  -1   0   7   71.30    2.07
   0  -1  -7   69.80    1.99
  -1   0  -7   71.87    1.47
   1   0  -7   71.99    1.51
   0   1  -7   71.29    2.08
   1   0  -7   70.62    2.06
  -1   0  -7   69.50    2.00
   0   1  -7   69.80    1.50
   0  -1  -7   71.48    1.47
  -1  -2   7  212.28    3.90
   2  -1   7  212.96    3.93
   1   2   7  214.59    3.75
   2  -1   7  205.24    4.20
  -1  -2   7  217.36    5.22
  -1  -2   7  206.95    3.89
  -2   1   7  206.04    3.98
   1   2   7  210.10    4.22
  -2   1   7  218.31    5.48
  -2   1   7  209.88    5.27
   2  -1  -7  215.41    3.96
  -2   1  -7  210.63    5.20
   1   2  -7  215.92    5.22
  -1  -2  -7  209.09    4.97
  -1  -2  -7  201.58    5.77
  -2   1  -7  210.62    3.92
  -1  -2  -7  208.03    3.73
   2  -1  -7  217.34    4.01
   1   2  -7  214.51    3.95
  -1  -2  -7  218.83    6.23
  -2  -1   7  279.71    6.51
  -2  -1   7  272.03    4.88
  -1   2   7  270.09    5.20
   2   1   7  271.27    4.71
   1  -2   7  266.05    4.89
  -1   2   7  268.29    5.10
  -2  -1   7  275.93    4.89
  -1   2   7  275.97    4.90
  -1   2   7  262.43    6.39
  -1   2   7  269.08    6.91
   2   1   7  259.81    5.26
   2   1  -7  278.98    7.68
   2   1  -7  272.80    6.48
   1  -2  -7  267.17    4.88
  -2  -1  -7  265.09    4.73
  -2  -1  -7  271.79    6.25
  -1   2  -7  262.72    4.91
   1  -2  -7  271.39    7.44
   2   1  -7  276.86    4.92
  -1   2  -7  272.64    4.93
  -1   2  -7  275.24    6.53
   2   3   7   37.27    1.08
   2   3   7   37.16    1.23
   2   3   7   38.96    1.09
   3  -2   7   37.52    1.14
  -3   2   7   37.16    1.20
  -2  -3   7   37.45    1.01
  -3   2   7   38.60    1.22
   3  -2   7   36.16    1.13
   2   3   7   37.69    0.82
  -2  -3   7   38.65    1.06
  -3   2  -7   38.41    1.08
  -2  -3  -7   36.47    1.75
   3  -2  -7   37.55    1.21
   2   3  -7   39.61    1.74
   2   3  -7   38.16    1.10
   2   3  -7   37.10    0.98
   2   3  -7   36.62    1.37
  -3   2  -7   36.93    1.14
  -2  -3  -7   35.93    1.80
   3   0   7  227.94    4.12
   3   0   7  226.59    4.14
   0   3   7  227.02    4.46
   0   3   7  220.68    4.17
  -3   0   7  231.99    5.72
  -3   0   7  228.07    4.23
   0  -3   7  229.15    4.21
  -3   0   7  222.35    4.28
   0   3   7  219.54    4.49
   3   0   7  226.49    4.55
   0  -3   7  227.07    4.23
   0   3   7  226.34    5.28
   0   3   7  228.09    4.12
   0  -3  -7  225.03    6.16
   3   0  -7  223.10    4.30
  -3   0  -7  226.48    4.15
   0  -3  -7  227.09    4.09
   0  -3  -7  233.74    6.67
   0   3  -7  227.46    4.28
   0   3  -7  223.86    5.62
   3   2   7   92.68    1.74
   3   2   7   92.54    2.01
  -2   3   7   92.15    2.73
   3   2   7   90.47    1.91
  -2   3   7   88.64    2.25
   2  -3   7   91.06    2.11
  -3  -2   7   91.63    1.98
   3   2   7   91.15    2.27
  -3  -2   7   91.56    1.95
   2  -3   7   90.40    1.95
  -2   3   7   86.67    2.10
  -2   3  -7   93.60    2.81
  -3  -2  -7   88.75    3.12
  -2   3  -7   89.22    1.98
   3   2  -7   93.88    2.82
  -2   3  -7   89.76    2.12
   2  -3  -7   90.07    2.11
   3   2  -7   91.04    2.04
   3   4   7  117.53    2.57
  -4   3   7  112.66    2.80
  -3  -4   7  115.84    2.46
   4  -3   7  110.81    2.70
   3   4   7  114.67    2.61
  -4   3   7  116.96    2.77
   4  -3  -7  117.97    2.81
  -3  -4  -7  115.78    4.04
   3   4  -7  112.95    2.44
  -4   3  -7  117.01    2.66
  -4   3  -7  112.35    2.57
   3   4  -7  112.77    2.50
  -4   3  -7  116.54    2.73
   1   4   7   53.38    1.56
   1   4   7   54.71    1.46
   1   4   7   54.11    1.53
  -4   1   7   53.33    1.55
   1   4   7   54.46    1.21
  -1  -4   7   55.27    1.36
   4  -1   7   54.25    1.49
   1   4   7   55.41    1.48
   4  -1   7   53.91    1.45
  -1  -4   7   53.48    1.40
  -4   1   7   54.83    1.42
   1   4  -7   53.07    1.83
  -4   1  -7   55.14    1.40
   1   4  -7   53.06    1.45
  -1  -4  -7   53.30    1.13
   1   4  -7   53.72    1.24
   4  -1  -7   54.27    1.57
  -1  -4  -7   53.68    2.24
   4   1   7   78.78    1.68
   1  -4   7   79.94    1.93
  -1   4   7   79.59    2.31
  -1   4   7   81.46    1.89
   1  -4   7   77.42    1.81
  -4  -1   7   78.55    1.81
  -1   4   7   79.74    1.87
  -1   4   7   78.43    1.91
   4   1   7   76.32    1.83
  -1   4   7   77.34    2.08
   4   1   7   77.04    2.04
  -4  -1   7   77.26    1.87
   1  -4  -7   78.24    1.78
  -1   4  -7   77.24    2.52
  -4  -1  -7   78.22    1.64
   1  -4  -7   80.00    2.68
   4   1  -7   77.57    1.91
  -1   4  -7   79.80    1.96
   4   3   7  148.85    3.52
   3  -4   7  147.51    3.27
   4   3   7  146.63    3.02
  -4  -3   7  149.15    3.01
  -3   4   7  145.07    3.29
   4   3   7  146.82    3.15
  -3   4   7  149.83    3.48
   3  -4  -7  145.74    3.26
  -3   4  -7  146.63    3.29
  -3   4  -7  150.40    3.36
   4   3  -7  149.21    3.08
  -4  -3  -7  152.37    4.85
   4   3  -7  142.84    3.03
  -4  -5   7   79.83    1.96
   4   5   7   78.86    2.21
   4   5   7   82.11    2.18
  -5   4   7   75.32    2.29
  -5   4   7   79.71    2.33
   5  -4   7   80.12    2.35
  -5   4  -7   79.03    2.21
   4   5  -7   80.38    1.97
   4   5  -7   82.30    2.09
   5  -4  -7   80.43    2.36
  -5   4  -7   80.55    2.34
   2   5   7   75.67    1.98
  -5   2   7   73.75    2.09
   2   5   7   74.56    2.01
  -5   2   7   76.29    1.91
  -2  -5   7   78.73    1.84
   2   5   7   75.08    1.97
   5  -2   7   76.93    2.07
  -5   2  -7   75.73    1.95
   2   5  -7   77.39    1.80
   2   5  -7   75.55    2.30
   5  -2  -7   74.33    2.14
  -2  -5  -7   75.66    1.43
   2   5  -7   74.46    1.90
  -5   0   7  120.42    2.76
   0   5   7  119.70    2.91
   5   0   7  123.45    2.83
   5   0   7  120.25    2.60
   0   5   7  119.94    2.76
   0  -5   7  120.00    2.62
   0   5   7  117.32    2.51
  -5   0   7  120.53    2.66
   0   5  -7  117.86    2.72
   5   0  -7  119.83    2.81
   0  -5  -7  120.06    3.95
   0  -5  -7  120.06    2.47
   0   5  -7  124.31    3.51
  -5   0  -7  120.03    2.57
   5   2   7   40.34    1.30
  -2   5   7   39.71    1.34
  -2   5   7   37.15    1.44
   5   2   7   39.52    1.16
   2  -5   7   38.83    1.33
  -5  -2   7   39.72    1.19
   2  -5   7   40.11    1.23
   5   2   7   42.07    1.47
  -2   5   7   40.81    1.35
  -2   5  -7   39.96    1.42
  -2   5  -7   38.34    1.36
  -5  -2  -7   39.02    1.97
   5   2  -7   39.00    1.26
  -5  -2  -7   40.47    0.97
  -4   5   7  111.58    3.02
  -5  -4   7  113.42    2.53
   5   4   7  113.29    2.66
   4  -5   7  112.59    2.92
  -4   5   7  112.65    2.90
   5   4   7  109.32    2.75
   4  -5  -7  109.80    2.86
   5   4  -7  112.57    2.53
  -4   5  -7  109.09    2.89
  -4   5  -7  115.48    2.95
   5   4  -7  110.76    2.66
   5   6   7   31.55    1.40
   5   6   7   31.61    1.35
   6  -5   7   31.86    1.52
  -5  -6   7   31.17    1.15
  -6   5   7   33.10    1.49
  -6   5   7   33.06    1.45
  -6   5  -7   31.74    1.50
   6  -5  -7   30.20    1.46
   5   6  -7   31.63    1.31
  -3  -6   7   43.56    1.35
   3   6   7   43.03    1.57
   6  -3   7   42.51    1.63
  -6   3   7   43.20    1.52
  -6   3   7   46.10    1.68
   3   6   7   46.07    1.57
   3   6  -7   45.10    1.40
  -6   3  -7   43.27    1.45
   3   6  -7   42.76    1.48
   3   6  -7   45.60    1.37
   6  -3  -7   44.92    1.70
   1   6   7  138.66    3.22
  -6   1   7  135.47    3.21
   1   6   7  133.97    3.27
   6  -1   7  133.43    3.12
  -6   1   7  135.49    3.08
  -1  -6   7  135.68    2.99
   1   6  -7  139.18    3.34
  -1  -6  -7  136.26    2.74
   1   6  -7  135.57    3.76
  -6   1  -7  134.22    3.06
   1   6  -7  140.30    3.09
   6  -1  -7  135.49    3.29
  -6  -1   7   66.01    1.83
  -1   6   7   67.92    2.14
  -1   6   7   68.65    1.83
  -1   6   7   69.53    1.97
   1  -6   7   68.70    1.85
   6   1   7   69.48    1.69
  -1   6   7   65.70    1.97
  -1   6  -7   68.03    1.98
  -1   6  -7   68.83    2.11
  -1   6  -7   66.81    2.46
   6   1  -7   72.51    1.97
  -6  -1  -7   68.57    1.71
  -3   6   7   41.81    1.52
   3  -6   7   42.21    1.56
  -3   6   7   40.43    1.50
   6   3   7   40.03    1.33
   6   3   7   40.61    1.47
  -6  -3   7   41.22    1.32
  -3   6   7   44.00    1.69
   6   3  -7   39.81    1.44
  -6  -3  -7   41.96    1.03
   6   3  -7   40.02    1.32
  -3   6  -7   40.29    1.57
  -3   6  -7   40.73    1.61
   6   5   7   37.84    1.54
  -6  -5   7   37.76    1.29
  -5   6   7   38.72    1.67
  -5   6   7   35.45    1.57
   6   5   7   37.01    1.44
   5  -6   7   37.79    1.65
   6   5  -7   37.13    1.48
  -5   6  -7   36.45    1.61
  -5   6  -7   38.97    1.62
   7  -6   7   58.16    2.29
   6   7   7   58.68    2.14
  -7   6   7   55.70    2.06
  -7   6   7   58.97    2.21
  -6  -7   7   59.93    1.81
   6   7   7   56.05    2.02
  -7   6  -7   60.95    2.27
   7  -6  -7   58.20    2.21
   6   7  -7   57.08    1.99
   7  -4   7   23.74    1.32
   4   7   7   21.82    1.15
  -7   4   7   25.89    1.32
  -4  -7   7   23.42    1.00
   4   7   7   24.19    1.24
   4   7  -7   24.43    1.10
   7  -4  -7   26.01    1.37
  -7   2   7   72.13    2.26
   7  -2   7   75.67    2.28
  -2  -7   7   73.92    1.99
   2   7   7   73.49    2.27
   2   7  -7   71.83    2.24
   2   7  -7   73.29    2.00
  -7   2  -7   74.59    2.14
   7  -2  -7   73.87    2.36
  -7   0   7   39.45    1.39
   0   7   7   39.09    1.56
   0  -7   7   38.16    1.34
   0   7   7   39.27    1.20
   7   0   7   39.39    1.35
   0   7   7   36.83    1.47
  -7   0  -7   38.09    1.33
   0   7  -7   37.32    1.55
   7   0  -7   37.43    1.47
   0   7  -7   37.86    1.41
  -2   7   7   89.57    2.73
  -2   7   7   91.03    2.41
   2  -7   7   86.32    2.35
  -7  -2   7   88.26    2.33
  -2   7   7   88.05    2.53
   7   2  -7   92.33    2.36
  -7  -2  -7   88.71    2.13
   7   2  -7   88.51    2.47
  -2   7  -7   87.20    2.70
  -2   7  -7   84.55    2.53
   7   4   7   29.30    1.36
   7   4   7   29.11    1.24
  -7  -4   7   29.00    1.17
   4  -7   7   29.36    1.42
  -4   7   7   28.55    1.36
  -4   7   7   28.18    1.46
  -4   7   7   29.19    1.35
  -4   7  -7   29.70    1.45
   7   4  -7   28.72    1.06
   7   4  -7   30.19    1.34
  -7  -4  -7   29.63    0.87
   4  -7  -7   29.78    1.25
  -4   7  -7   28.43    1.44
   7   6   7   33.85    1.57
   7   6   7   35.26    1.52
  -6   7   7   37.01    1.68
  -6   7   7   35.90    1.58
  -6   7   7   37.63    1.71
  -7  -6   7   35.52    1.35
   6  -7   7   36.91    1.75
  -6   7  -7   34.37    1.68
   7   6  -7   36.55    1.58
  -6   7  -7   37.90    1.69
   5   8   7   43.72    1.82
   5   8   7   45.67    1.81
  -8   5   7   44.09    1.86
  -5  -8   7   45.14    1.53
   8  -5   7   43.95    1.97
   5   8  -7   42.99    1.63
   8  -5  -7   41.91    1.89
  -3  -8   7   45.98    1.56
   8  -3   7   44.65    1.85
   3   8   7   48.36    1.86
  -8   3  -7   45.69    1.67
   8  -3  -7   44.41    1.88
  -8   1   7   21.15    1.06
   1   8   7   21.67    1.20
  -1  -8   7   20.72    1.00
   1   8   7   22.53    1.18
   8  -1   7   22.11    1.11
   1   8  -7   24.05    1.25
   8  -1  -7   22.39    1.22
   1   8  -7   21.77    1.04
  -8   1  -7   21.08    1.06
   1  -8   7   47.34    1.64
  -1   8   7   46.18    1.87
  -8  -1   7   44.45    1.62
  -1   8   7   46.05    1.78
  -1   8   7   46.01    1.50
  -1   8  -7   45.27    1.88
  -8  -1  -7   47.22    1.56
  -1   8  -7   47.89    1.75
   8   1  -7   46.36    1.66
  -3   8   7   62.11    2.13
  -3   8   7   62.12    2.03
  -8  -3   7   60.18    1.92
  -3   8   7   62.02    2.32
  -3   8  -7   58.43    2.15
   3  -8  -7   60.15    1.95
  -3   8  -7   62.30    2.32
   8   3  -7   63.83    2.12
  -8  -3  -7   59.87    1.68
   8   3  -7   60.49    1.76
   8   5   7   28.42    1.31
  -5   8   7   30.04    1.43
  -8  -5   7   27.94    1.21
  -5   8   7   27.88    1.53
  -5   8   7   29.18    1.44
   8   5  -7   27.99    1.39
  -5   8  -7   29.91    1.54
  -5   8  -7   28.10    1.52
   9  -4   7   26.12    1.43
  -4  -9   7   24.77    1.12
   4   9   7   25.18    1.35
   9  -4  -7   23.94    1.39
   9  -2   7   45.62    1.77
   2   9   7   41.98    1.80
  -2  -9   7   41.17    1.56
   9  -2  -7   45.47    1.89
  -9   2  -7   46.10    1.72
   2   9  -7   44.68    1.81
   0  -9   7   27.00    1.21
   0   9   7   22.18    1.28
  -9   0   7   22.10    1.14
   0   9   7   22.88    1.27
   9   0  -7   24.17    1.24
  -9   0  -7   23.87    1.16
   0   9  -7   22.70    1.15
   0   9  -7   24.06    1.36
  -2   9   7   40.61    1.47
  -2   9   7   39.16    1.80
  -2   9   7   37.32    1.65
  -9  -2   7   39.94    1.56
  -2   9  -7   36.59    1.63
  -9  -2  -7   39.49    1.43
  -2   9  -7   39.88    1.86
   9   2  -7   40.20    1.44
   2  -9  -7   39.54    1.53
  -4   9   7   18.23    1.08
  -9  -4   7   19.10    1.02
  -4   9   7   20.15    1.17
  -4   9   7   18.58    1.26
   9   4  -7   19.53    1.17
  -9  -4  -7   19.55    0.85
  -4   9  -7   18.88    1.21
  -4   9  -7   20.60    1.32
   1  10   7   32.47    1.56
  -1 -10   7   37.46    1.49
 -10   1  -7   35.66    1.50
  10  -1  -7   35.60    1.58
  -1 -10  -7   35.43    1.34
   1  10  -7   35.15    1.67
  10  -1  -7   35.39    1.55
  -1  10   7   25.49    1.41
   1 -10   7   27.69    1.29
 -10  -1   7   26.47    1.28
  -1  10   7   26.72    1.38
  10   1  -7   27.35    1.38
  10   1  -7   26.47    1.20
   1 -10  -7   25.84    1.21
  -1  10  -7   26.28    1.50
 -10  -1  -7   25.88    1.21
  -1  10  -7   28.14    1.31
   0   0   8  423.25    9.72
   0   0   8  433.48    7.34
   0   0  -8  431.45    9.76
   0   0  -8  417.60    7.73
   1  -1   8   46.34    1.20
  -1   1   8   48.15    1.23
  -1   1   8   49.27    1.74
  -1  -1   8   47.22    1.62
  -1   1   8   46.67    1.59
   1   1   8   46.53    1.12
   1   1   8   48.30    1.35
  -1  -1   8   48.55    1.14
  -1  -1   8   46.66    1.20
  -1   1   8   46.84    1.27
   1  -1  -8   46.15    1.21
  -1   1  -8   49.96    1.18
   1  -1  -8   47.00    1.16
   1   1  -8   48.34    1.64
  -1   1  -8   47.64    1.23
   1   1  -8   46.26    1.23
   1  -1  -8   49.41    1.60
   1  -1  -8   47.96    1.61
  -1  -1  -8   48.61    1.08
  -1  -1  -8   47.56    1.51
   0  -2   8  714.00   12.06
   0   2   8  725.49   12.86
  -2   0   8  749.10   16.08
  -2   0   8  718.55   12.52
   2   0   8  713.28   12.95
   2   0   8  689.70   12.58
  -2   0   8  720.71   12.28
   0   2   8  717.33   12.63
   0   2   8  676.85   17.33
   0  -2   8  723.68   12.26
  -2   0  -8  684.85   16.24
   2   0  -8  733.19   12.13
   0   2  -8  708.92   16.61
  -2   0  -8  688.85   12.73
   2   0  -8  680.24   12.53
   0   2  -8  718.70   12.12
   0  -2  -8  724.75   16.55
   0  -2  -8  742.42   18.89
   0  -2  -8  691.76   12.99
   2   0  -8  734.54   16.74
  -2   2   8  512.60    8.92
  -2   2   8  528.93   12.41
  -2  -2   8  501.16    8.91
  -2   2   8  516.53    9.39
   2   2   8  476.10    8.51
  -2   2   8  521.11   11.76
  -2   2   8  513.35    9.22
  -2  -2   8  511.29    8.78
   2   2   8  487.99    8.68
   2   2   8  506.05    9.51
   2   2   8  494.93    8.44
   2  -2   8  503.72    8.85
   2   2  -8  527.34    8.87
  -2  -2  -8  497.58    8.98
  -2   2  -8  521.55    8.98
   2  -2  -8  496.67    8.97
   2   2  -8  512.91   11.66
  -2   2  -8  502.34    8.86
  -2   2  -8  504.26   11.76
   2  -2  -8  521.91    8.93
   1   3   8    0.02    0.12
  -3   1   8    0.02    0.14
   3  -1   8    0.21    0.14
  -3   1   8    0.03    0.13
  -1  -3   8    0.01    0.10
   1   3   8    0.01    0.13
  -1  -3   8    0.47    0.17
   1   3   8    0.10    0.10
   3  -1   8   -0.06    0.13
  -3   1   8   -0.11    0.09
  -1  -3  -8   -0.04    0.07
  -1  -3  -8    0.00    0.21
   3  -1  -8    0.45    0.19
   1   3  -8    0.24    0.19
  -3   1  -8    0.12    0.12
  -1  -3  -8    1.18    0.37
  -3   1  -8   -0.04    0.11
   1   3  -8    0.54    0.19
  -1   3   8    0.35    0.16
   3   1   8    1.10    0.18
   3   1   8    0.22    0.16
  -1   3   8    0.68    0.19
   1  -3   8    0.44    0.17
   1  -3   8    0.38    0.14
   3   1   8    0.45    0.16
  -1   3   8    0.40    0.16
  -3  -1   8    0.44    0.14
  -3  -1   8    0.63    0.19
  -1   3   8    0.51    0.19
  -1   3   8    0.54    0.20
  -1   3  -8    0.09    0.13
  -1   3  -8    1.43    0.33
   3   1  -8    0.85    0.21
  -3  -1  -8    0.51    0.13
   3  -3   8   12.23    0.65
   3   3   8   13.38    0.64
  -3   3   8   13.98    0.74
  -3   3   8   11.80    0.70
   3   3   8   13.44    0.63
  -3  -3   8   12.78    0.57
   3   3   8   13.05    0.75
   3  -3   8   13.43    0.70
   3  -3  -8   12.77    0.70
   3   3  -8   13.13    0.64
  -3   3  -8   13.23    0.62
  -3   3  -8   13.90    0.71
  -3  -3  -8   13.18    1.06
   4  -2   8  295.48    5.56
  -4   2   8  294.36    5.65
   4  -2   8  291.50    5.70
   2   4   8  288.89    5.57
   2   4   8  287.35    5.44
   2   4   8  290.62    5.34
   2   4   8  282.34    5.89
  -4   2   8  270.47    5.72
  -2  -4   8  295.04    5.41
  -2  -4  -8  285.69    8.12
   4  -2  -8  296.83    5.69
   2   4  -8  274.85    6.99
   2   4  -8  292.35    5.09
  -2  -4  -8  289.09    4.98
  -4   2  -8  296.57    5.53
  -4   2  -8  285.69    5.50
   2   4  -8  294.97    5.46
   0  -4   8  422.00    7.35
  -4   0   8  416.25    7.43
   0   4   8  414.72    7.84
  -4   0   8  407.99    7.42
   0   4   8  405.12    7.17
   0   4   8  399.23    7.31
   0   4   8  398.55    9.13
   0   4   8  412.68    7.77
   4   0   8  401.07    7.84
   4   0   8  404.21    7.22
   0  -4   8  419.42    7.41
   4   0  -8  406.97    7.46
   0  -4  -8  407.28   10.64
   0   4  -8  408.96    7.41
   0   4  -8  408.22    9.72
   0  -4  -8  409.15    7.24
  -4   0  -8  405.87    7.32
   2  -4   8  314.61    5.98
  -2   4   8  326.48    6.11
   2  -4   8  317.28    6.08
  -4  -2   8  320.48    5.99
   4   2   8  317.68    6.55
   4   2   8  325.06    5.57
   4   2   8  319.33    5.66
  -2   4   8  324.71    6.03
   4   2   8  324.21    5.97
  -2   4   8  328.79    6.53
  -2   4  -8  329.82    6.17
   4   2  -8  331.68    6.04
  -4  -2  -8  325.72    5.66
   4   4   8  355.97    6.52
  -4  -4   8  363.11    6.65
   4   4   8  352.32    6.72
  -4   4   8  359.97    6.94
  -4   4   8  358.03    7.24
   4  -4   8  358.63    6.92
   4   4  -8  359.88    6.61
   4  -4  -8  346.51    6.89
  -4   4  -8  352.57    6.91
  -4   4  -8  356.12    7.05
   4   4  -8  358.70    6.46
  -5   3   8   16.40    0.89
   3   5   8   17.15    0.86
  -5   3   8   17.56    0.95
   3   5   8   18.58    0.90
   5  -3   8   16.21    0.91
  -3  -5   8   17.19    0.75
  -5   3  -8   17.65    0.83
   5  -3  -8   17.37    0.96
  -5   3  -8   17.88    0.83
   3   5  -8   16.77    0.76
   3   5  -8   16.91    0.79
  -5   3  -8   16.26    0.89
   5  -1   8    1.33    0.28
   1   5   8    1.98    0.23
   1   5   8    1.27    0.29
  -5   1   8    1.37    0.30
   5  -1   8    2.18    0.34
   1   5   8    1.58    0.32
  -1  -5   8    1.62    0.26
   1   5  -8    1.72    0.31
   5  -1  -8    0.97    0.28
  -5   1  -8    1.31    0.25
   1   5  -8    1.32    0.32
  -1  -5  -8    1.84    0.21
   5   1   8    0.64    0.17
   1  -5   8    0.46    0.20
  -1   5   8    0.20    0.17
   1  -5   8    0.96    0.21
   5   1   8    0.97    0.26
  -1   5   8    0.63    0.25
  -1   5   8    1.33    0.26
  -1   5   8    0.41    0.18
  -1   5  -8    0.45    0.26
  -1   5  -8    0.82    0.25
   1  -5  -8    0.70    0.31
  -5  -1  -8    0.46    0.15
   5   1  -8    0.45    0.19
   5   3   8    3.91    0.49
  -3   5   8    3.21    0.46
   3  -5   8    4.01    0.52
   5   3   8    3.65    0.44
  -5  -3   8    4.23    0.37
  -3   5   8    3.49    0.53
  -3   5   8    3.94    0.50
   5   3  -8    3.36    0.45
  -3   5  -8    2.71    0.44
   5   3  -8    3.54    0.44
  -3   5  -8    3.78    0.51
  -5  -3  -8    3.48    0.22
   5  -5   8    5.62    0.70
   5   5   8    5.28    0.62
  -5   5   8    6.00    0.72
  -5  -5   8    6.37    0.49
  -5   5   8    5.91    0.71
   5   5   8    6.28    0.69
   5  -5  -8    5.09    0.66
   5   5  -8    5.73    0.47
   5   5  -8    6.81    0.58
  -5   5  -8    6.35    0.75
  -5   5  -8    7.00    0.63
  -6   4   8  135.95    3.51
  -6   4   8  139.05    3.48
   4   6   8  138.10    3.31
  -4  -6   8  132.89    3.09
   6  -4   8  138.58    3.57
   4   6   8  134.95    3.39
   6  -4  -8  136.59    3.56
   4   6  -8  136.43    3.14
   4   6  -8  135.67    3.02
  -6   2   8  250.84    5.31
   2   6   8  249.20    5.21
   6  -2   8  246.37    5.20
  -2  -6   8  250.52    5.00
   2   6   8  252.11    5.10
  -2  -6  -8  256.08    4.59
   2   6  -8  249.20    5.00
  -6   2  -8  245.08    5.12
   6  -2  -8  255.01    5.41
   2   6  -8  260.62    5.39
   0   6   8  273.99    5.14
   0  -6   8  270.58    5.38
   0   6   8  279.89    5.86
   6   0   8  273.19    5.30
   0   6   8  268.90    5.52
  -6   0   8  275.53    5.46
   6   0   8  274.07    5.67
   6   0  -8  277.64    5.60
  -6   0  -8  278.14    5.38
   0   6  -8  277.35    5.50
   0   6  -8  276.79    5.85
   0   6  -8  270.57    7.01
  -2   6   8  200.34    4.33
  -2   6   8  207.10    4.78
   2  -6   8  207.08    4.29
   6   2   8  208.23    4.39
   2  -6   8  211.02    4.45
  -2   6   8  210.04    4.46
  -6  -2   8  199.31    4.26
   6   2  -8  204.46    4.31
  -2   6  -8  208.84    4.74
  -6  -2  -8  205.63    3.99
  -2   6  -8  203.71    4.50
  -4   6   8  157.13    3.69
   6   4   8  155.76    3.67
  -4   6   8  157.81    4.01
   4  -6   8  151.73    3.80
  -6  -4   8  152.22    3.42
   6   4   8  151.38    3.42
  -4   6   8  146.16    3.69
   6   4  -8  148.87    3.33
   6   4  -8  156.28    3.57
  -4   6  -8  154.95    3.89
  -4   6  -8  157.55    3.87
  -6   6   8  123.22    3.47
   6   6   8  122.53    3.21
   6   6   8  126.25    3.40
  -6  -6   8  122.49    3.03
  -6   6   8  128.35    3.53
   6  -6   8  130.29    3.62
  -6   6  -8  134.75    3.51
  -6   6  -8  127.85    3.59
   6   6  -8  126.87    3.23
   6  -6  -8  122.27    3.44
  -7   5   8    1.23    0.41
   5   7   8    1.93    0.46
  -5  -7   8    0.18    0.18
  -7   5   8   -0.06    0.22
   7  -5   8    0.83    0.36
   5   7   8    0.00    0.23
   5   7  -8    0.11    0.23
   7  -5  -8    0.18    0.26
  -7   3   8    1.61    0.40
   3   7   8    1.00    0.34
  -3  -7   8    1.38    0.30
   3   7   8    1.63    0.41
   7  -3   8    1.73    0.41
  -3  -7  -8    1.24    0.20
  -7   3  -8    3.30    0.47
   3   7  -8    1.35    0.30
   7  -3  -8    1.55    0.41
   3   7  -8    1.21    0.34
  -7   1   8    1.31    0.31
  -1  -7   8    1.28    0.28
   1   7   8    1.57    0.38
   7  -1   8    1.93    0.38
   1   7   8    2.21    0.44
   7  -1  -8    1.83    0.41
   1   7  -8    3.68    0.56
  -7   1  -8    1.40    0.32
   1   7  -8    1.74    0.36
  -1   7   8    7.72    0.72
  -7  -1   8    8.72    0.63
  -1   7   8   10.70    0.65
  -1   7   8    9.84    0.75
   1  -7   8    9.05    0.63
  -1   7  -8    9.27    0.78
  -1   7  -8    8.80    0.70
   7   1  -8    9.23    0.69
  -7  -1  -8    9.24    0.60
  -3   7   8    1.93    0.42
   3  -7   8    2.24    0.45
  -7  -3   8    1.79    0.35
  -3   7   8    1.82    0.40
  -3   7   8    1.62    0.43
  -7  -3  -8    2.14    0.30
  -3   7  -8    2.14    0.48
   7   3  -8    1.67    0.39
  -3   7  -8    1.87    0.44
   7   3  -8    1.74    0.35
   5  -7   8    1.17    0.41
  -5   7   8    0.69    0.29
  -5   7   8    0.12    0.22
   7   5   8    0.14    0.23
   7   5   8    0.49    0.29
  -5   7   8   -0.08    0.22
  -7  -5   8    0.43    0.22
   7   5  -8    0.13    0.24
  -5   7  -8    0.43    0.29
  -5   7  -8    0.08    0.25
   7  -7   8    0.95    0.41
   7   7   8    1.12    0.39
  -7   7   8    1.34    0.43
   7   7   8    1.13    0.39
  -7   7   8    1.08    0.39
  -7   7   8    1.32    0.42
  -7  -7   8    1.28    0.33
  -7   7  -8    0.64    0.36
   7   7  -8    1.75    0.45
  -8   4   8  105.19    3.08
   4   8   8   99.48    3.01
  -4  -8   8  103.43    2.69
   8  -4   8  106.02    3.19
   8  -4  -8  103.03    3.16
  -2  -8   8  134.62    3.29
   8  -2   8  135.39    3.52
   2   8   8  136.06    3.60
  -8   2  -8  136.35    3.42
   2   8  -8  138.96    3.23
   2   8  -8  139.62    3.64
   8  -2  -8  134.66    3.68
  -8   0   8   97.01    2.67
   0  -8   8  100.04    2.64
   8   0   8   99.88    2.51
   0   8   8   97.83    2.86
   0   8   8   98.12    2.94
   0   8  -8   97.85    2.99
   0   8  -8  100.68    2.74
  -8   0  -8   96.98    2.63
   8   0  -8   99.66    2.84
  -2   8   8  168.50    4.35
  -2   8   8  165.62    3.76
  -2   8   8  161.51    4.02
  -8  -2   8  160.57    3.83
  -8  -2  -8  162.14    3.61
   8   2  -8  164.47    3.76
  -2   8  -8  162.25    4.31
   8   2  -8  165.09    3.95
  -2   8  -8  162.69    4.06
  -4   8   8   97.33    3.13
  -4   8   8  102.18    2.90
  -4   8   8   92.44    2.78
  -8  -4   8   97.20    2.65
  -8  -4  -8   96.12    2.23
  -4   8  -8   96.89    3.10
   4  -8  -8  101.09    2.71
   8   4  -8   96.09    2.80
  -4   8  -8   91.84    2.95
   9  -3   8    0.29    0.29
  -3  -9   8    0.25    0.21
   3   9   8   -0.15    0.20
  -9   3  -8    0.20    0.22
   9  -3  -8    0.96    0.38
   9  -1   8    1.09    0.32
   1   9   8    1.39    0.42
  -1  -9   8    1.78    0.39
   1   9  -8    1.46    0.36
  -9   1  -8    1.40    0.36
   1   9  -8    1.38    0.42
   9  -1  -8    1.65    0.43
  -9  -1   8    5.88    0.68
  -1   9   8    5.42    0.78
   1  -9   8    4.80    0.60
  -1   9   8    6.22    0.78
  -1   9  -8    4.91    0.73
  -9  -1  -8    6.00    0.66
   9   1  -8    6.35    0.78
   9   1  -8    5.80    0.69
  -1   9  -8    6.61    0.76
  -3   9   8    1.07    0.32
  -3   9   8    0.98    0.36
  -3   9   8    0.74    0.34
  -9  -3   8    0.58    0.28
   3  -9  -8    1.00    0.31
  -3   9  -8    0.60    0.31
   9   3  -8    1.22    0.40
  -9  -3  -8    0.99    0.27
  -3   9  -8    0.85    0.39
   1   0   9  180.06    3.81
   0   1   9  181.11    3.76
   0  -1   9  178.55    3.49
   0   1   9  177.18    3.45
  -1   0   9  185.64    3.54
   1   0   9  184.26    3.45
   0   1   9  179.83    4.52
   0   1  -9  181.35    3.53
   0   1  -9  182.28    4.66
   0   1  -9  180.58    3.47
   0  -1  -9  182.99    3.45
   1   0  -9  187.17    3.54
   1   0  -9  187.96    4.68
   1   0  -9  180.44    3.48
   0  -1  -9  184.80    4.58
  -1   0  -9  183.35    3.46
  -1   0  -9  181.32    4.58
   2  -1   9   27.57    0.91
  -2   1   9   28.96    0.95
  -1  -2   9   27.16    0.84
   2  -1   9   27.89    1.02
   1   2   9   30.24    0.83
  -2   1   9   28.45    0.97
   1   2   9   27.81    1.02
   1   2   9   28.01    0.80
  -1  -2   9   28.88    0.94
  -2   1  -9   29.86    0.88
   1   2  -9   29.19    1.25
   2  -1  -9   26.76    0.95
   2  -1  -9   29.01    0.89
  -1  -2  -9   28.63    0.77
   1   2  -9   29.12    0.97
   1  -2   9  160.00    3.22
  -1   2   9  158.63    3.20
  -1   2   9  159.00    4.16
  -2  -1   9  161.90    3.14
  -1   2   9  160.27    3.34
   2   1   9  157.72    3.00
   2   1   9  159.31    3.04
   2   1   9  162.07    3.51
  -1   2  -9  162.59    3.16
  -2  -1  -9  159.20    3.03
  -1   2  -9  154.53    3.23
   2   1  -9  159.93    4.25
  -1   2  -9  162.66    4.31
   2   1  -9  162.42    3.25
   1  -2  -9  165.82    4.69
   1  -2  -9  154.20    3.16
   1  -2  -9  160.32    3.14
   3  -2   9   90.29    2.19
  -2  -3   9   90.50    2.05
  -2  -3   9   92.93    2.11
   2   3   9   90.16    1.82
   2   3   9   89.84    2.07
   2   3   9   92.38    2.07
   2   3   9   87.31    2.34
   3  -2   9   90.49    2.29
  -3   2   9   90.89    2.27
  -3   2  -9   90.48    2.11
   2   3  -9   92.45    1.92
   3  -2  -9   88.94    2.27
   2   3  -9   89.01    2.16
  -2  -3  -9   91.47    1.79
   2   3  -9   97.72    3.31
  -3   2  -9   90.12    2.18
   2   3  -9  102.41    2.87
  -2  -3  -9   88.16    3.32
   3   0   9   84.91    2.18
   0   3   9   85.54    1.89
   0  -3   9   84.81    2.01
  -3   0   9   85.02    1.92
   0   3   9   85.97    2.34
   3   0   9   86.05    1.91
   0   3   9   83.60    1.89
   0   3   9   83.10    2.08
   0   3   9   80.30    2.10
  -3   0   9   84.33    2.05
   0  -3   9   85.41    1.90
   0  -3  -9   85.16    1.82
   0   3  -9   85.91    2.68
   0  -3  -9   85.61    3.03
   0   3  -9   88.03    2.07
   3   0  -9   84.81    2.08
  -3   0  -9   84.19    1.86
  -3  -2   9  193.62    3.76
  -2   3   9  183.54    4.11
  -3  -2   9  196.37    3.79
   3   2   9  190.94    3.70
   2  -3   9  189.66    3.88
   3   2   9  187.63    3.55
  -2   3   9  189.86    3.90
   3   2   9  193.82    4.21
  -2   3   9  188.74    3.72
   3   2   9  189.29    3.48
   2  -3  -9  190.55    3.89
   3   2  -9  198.59    3.88
  -3  -2  -9  191.35    3.49
   2  -3  -9  191.43    3.81
  -2   3  -9  191.52    3.80
  -2   3  -9  191.77    3.92
   4  -3   9   56.17    1.72
   3   4   9   52.53    1.79
  -3  -4   9   51.92    1.47
   3   4   9   53.16    1.58
  -4   3   9   55.13    1.76
  -4   3   9   54.44    1.73
   3   4   9   52.75    1.55
  -4   3  -9   50.34    1.57
  -4   3  -9   54.82    1.68
   3   4  -9   53.41    1.44
  -3  -4  -9   53.39    1.07
   4  -3  -9   53.22    1.73
  -4   3  -9   54.08    1.56
   3   4  -9   54.08    1.58
  -1  -4   9  143.42    3.01
   1   4   9  147.56    3.25
   1   4   9  142.34    3.05
   4  -1   9  145.41    3.30
  -1  -4   9  139.52    3.04
   4  -1   9  145.50    3.10
  -4   1   9  145.62    3.05
   1   4   9  147.48    2.81
  -4   1   9  144.55    3.24
   1   4   9  144.86    3.33
  -1  -4  -9  145.72    2.78
  -1  -4  -9  143.11    4.65
   1   4  -9  140.13    4.03
   4  -1  -9  145.66    3.27
   1   4  -9  144.54    3.15
  -4   1  -9  147.54    3.05
  -1   4   9  102.87    2.39
   1  -4   9  104.62    2.35
   4   1   9  105.90    2.22
  -1   4   9  107.25    2.44
   4   1   9  103.42    2.34
  -1   4   9  103.55    2.96
  -4  -1   9  107.07    2.48
  -1   4   9  110.10    2.70
  -1   4   9  104.17    2.44
  -4  -1   9  108.11    2.39
   4   1   9  104.72    2.68
   1  -4   9  103.10    2.47
  -4  -1  -9  107.27    2.21
   4   1  -9  108.14    2.53
  -1   4  -9  104.44    2.52
   1  -4  -9  106.23    2.33
   4   3   9   48.46    1.39
  -4  -3   9   48.85    1.39
  -3   4   9   47.33    1.66
   3  -4   9   50.22    1.61
  -3   4   9   50.18    1.50
   3  -4   9   48.05    1.55
  -3   4   9   47.17    1.57
   4   3   9   46.24    1.44
   4   3   9   50.53    1.74
   4   3  -9   47.09    1.48
  -4  -3  -9   49.01    1.04
   3  -4  -9   46.61    1.55
  -3   4  -9   47.46    1.58
  -3   4  -9   49.91    1.59
  -5   4   9   60.31    2.01
  -4  -5   9   60.54    1.73
  -5   4   9   61.93    2.04
   4   5   9   62.06    1.92
   5  -4   9   58.64    2.00
   4   5   9   58.16    1.82
   4   5  -9   62.22    1.79
   5  -4  -9   61.13    2.04
   4   5  -9   62.19    1.76
  -5   4  -9   60.97    1.90
  -5   4  -9   62.19    2.01
  -2  -5   9  130.97    2.87
   5  -2   9  132.69    3.07
   2   5   9  128.60    2.99
  -5   2   9  124.49    3.12
   2   5   9  128.92    2.97
   2   5  -9  125.77    3.65
  -5   2  -9  123.18    2.92
  -2  -5  -9  130.20    2.48
   5  -2  -9  127.50    3.19
   2   5  -9  131.16    2.97
  -5   0   9   47.67    1.43
   0   5   9   50.88    1.67
   0   5   9   50.58    1.54
   0  -5   9   48.87    1.50
   0  -5   9   47.89    1.41
   5   0   9   49.21    1.60
  -5   0   9   47.85    1.56
   0   5   9   47.96    1.52
   5   0   9   50.22    1.42
   0   5   9   49.13    1.36
  -5   0  -9   49.24    1.38
   5   0  -9   49.43    1.62
   0   5  -9   47.50    1.54
   0   5  -9   46.58    1.93
   0  -5  -9   49.17    2.24
   0  -5  -9   49.14    1.32
   2  -5   9   65.18    1.95
   5   2   9   71.13    1.90
   5   2   9   67.28    2.11
  -5  -2   9   67.98    1.81
  -2   5   9   69.96    1.93
  -2   5   9   66.59    2.12
  -2   5   9   67.73    1.92
  -2   5  -9   66.67    2.05
   5   2  -9   67.51    1.90
  -5  -2  -9   66.87    1.55
  -2   5  -9   63.97    1.97
   4  -5   9   48.99    1.78
   5   4   9   51.84    1.60
  -5  -4   9   51.43    1.54
   5   4   9   51.58    1.70
  -4   5   9   46.55    1.62
  -4   5   9   48.83    1.76
  -4   5   9   50.47    1.85
   5   4  -9   48.56    1.54
  -4   5  -9   52.56    1.79
   5   4  -9   52.08    1.63
  -4   5  -9   49.68    1.79
  -6   5   9   76.57    2.46
   5   6   9   75.74    2.39
  -6   5   9   75.48    2.48
   5   6   9   80.51    2.35
   6  -5   9   77.00    2.57
  -5  -6   9   74.14    2.13
   5   6  -9   80.21    2.25
  -6   5  -9   75.45    2.49
   5   6  -9   79.58    2.06
   6  -5  -9   74.90    2.48
   3   6   9   40.07    1.51
  -3  -6   9   41.28    1.37
   6  -3   9   39.39    1.59
   3   6   9   42.69    1.57
  -6   3   9   39.55    1.60
   6  -3  -9   38.52    1.62
   3   6  -9   40.50    1.39
  -3  -6  -9   40.50    0.97
   3   6  -9   41.13    1.33
  -6   3  -9   40.45    1.45
   3   6  -9   41.94    1.52
   6  -1   9   63.92    1.89
  -6   1   9   65.19    2.02
  -6   1   9   64.94    1.84
  -1  -6   9   64.47    1.81
   1   6   9   60.99    1.95
   1   6   9   63.66    1.97
   1   6  -9   65.17    2.05
  -1  -6  -9   65.85    1.61
   1   6  -9   64.79    1.91
  -6   1  -9   63.57    1.84
   6  -1  -9   61.93    2.04
   1  -6   9   36.91    1.28
  -1   6   9   38.63    1.30
   6   1   9   36.40    1.44
   6   1   9   36.98    1.15
  -6  -1   9   39.72    1.33
  -1   6   9   38.23    1.43
  -1   6   9   39.35    1.56
   6   1  -9   35.76    1.39
  -6  -1  -9   36.20    1.18
  -1   6  -9   37.14    1.51
  -1   6  -9   35.44    1.40
  -3   6   9  114.17    2.90
  -3   6   9  116.11    2.93
   3  -6   9  110.89    2.96
  -3   6   9  111.43    3.16
  -6  -3   9  106.80    2.69
   6   3   9  111.34    2.85
  -6  -3  -9  111.43    2.32
   6   3  -9  108.56    2.72
  -3   6  -9  107.02    2.98
  -3   6  -9  111.13    3.07
   6   3  -9  110.38    2.79
  -5   6   9   28.47    1.43
   5  -6   9   28.73    1.44
   6   5   9   28.42    1.25
   6   5   9   25.41    1.29
  -5   6   9   28.84    1.40
  -5   6   9   27.70    1.29
  -6  -5   9   27.95    1.15
   6   5  -9   28.70    1.11
  -5   6  -9   24.98    1.36
   6   5  -9   28.45    1.27
  -5   6  -9   31.13    1.43
   7  -6   9   31.18    1.63
   6   7   9   30.87    1.51
  -7   6   9   29.47    1.39
   6   7   9   29.40    1.40
  -7   6   9   30.01    1.54
  -6  -7   9   30.70    1.27
   7  -6  -9   30.29    1.53
   6   7  -9   31.36    1.38
  -4  -7   9   45.89    1.58
   4   7   9   45.54    1.76
   4   7   9   48.17    1.85
  -7   4   9   49.86    1.93
   7  -4   9   43.11    1.85
   4   7  -9   47.18    1.49
   4   7  -9   48.14    1.61
   7  -4  -9   47.51    1.93
   7  -2   9   18.81    1.06
   2   7   9   20.52    1.12
  -7   2   9   23.16    1.20
  -2  -7   9   21.17    0.99
   7  -2  -9   22.12    1.24
   2   7  -9   20.27    0.99
  -7   2  -9   20.13    1.01
  -2  -7  -9   21.25    0.79
   2   7  -9   21.50    1.13
  -7   0   9   80.44    2.28
   0   7   9   85.20    2.04
   0   7   9   88.51    2.61
   0  -7   9   81.97    2.27
   0   7   9   88.11    2.52
   7   0   9   82.11    2.20
   0   7  -9   84.21    2.60
  -7   0  -9   82.30    2.25
   0   7  -9   84.76    2.41
   7   0  -9   79.36    2.45
  -2   7   9   54.90    1.77
  -7  -2   9   54.09    1.75
  -2   7   9   54.23    2.05
  -2   7   9   54.21    1.89
  -2   7  -9   53.73    1.95
   7   2  -9   55.05    1.79
  -7  -2  -9   54.93    1.55
  -2   7  -9   53.04    2.02
   7   4   9   38.50    1.60
  -4   7   9   35.93    1.71
   4  -7   9   38.53    1.66
  -7  -4   9   37.26    1.42
  -4   7   9   37.24    1.55
  -4   7   9   37.58    1.58
   7   4  -9   40.04    1.37
  -4   7  -9   37.71    1.70
  -4   7  -9   36.44    1.67
  -7  -4  -9   37.99    1.08
   7   4  -9   35.54    1.51
   7   6   9   19.08    1.07
  -6   7   9   16.89    1.14
  -7  -6   9   17.91    0.97
   7   6   9   18.06    1.13
  -6   7   9   18.86    1.10
  -6   7   9   16.94    1.11
   6  -7   9   18.92    1.24
  -6   7  -9   19.31    1.18
  -6   7  -9   19.00    1.23
   7   6  -9   19.61    1.12
  -8   5   9   13.09    1.01
   5   8   9   12.76    0.98
  -5  -8   9   13.45    0.82
   8  -5   9   12.64    1.03
   8  -5  -9   12.37    1.02
   3   8   9   43.46    1.80
  -3  -8   9   43.42    1.55
   8  -3   9   41.51    1.77
   3   8  -9   40.66    1.42
  -8   3  -9   42.63    1.63
   8  -3  -9   41.23    1.84
   8  -1   9   50.42    1.77
  -1  -8   9   50.32    1.73
   1   8   9   55.37    1.95
   1   8   9   52.51    1.95
   1   8  -9   48.70    1.95
  -8   1  -9   50.90    1.77
   8  -1  -9   51.09    1.97
   1   8  -9   49.53    1.75
  -1   8   9   42.23    1.81
   1  -8   9   42.34    1.57
  -1   8   9   42.45    1.42
  -8  -1   9   43.46    1.61
  -1   8   9   41.22    1.69
  -1   8  -9   39.37    1.79
  -1   8  -9   46.10    1.76
  -8  -1  -9   44.48    1.52
   8   1  -9   43.01    1.67
  -3   8   9   20.75    1.18
  -8  -3   9   21.71    1.10
  -3   8   9   22.99    1.16
  -3   8   9   21.73    1.32
  -3   8  -9   26.07    1.43
   8   3  -9   23.46    1.08
   8   3  -9   23.82    1.26
  -3   8  -9   22.09    1.28
  -8  -3  -9   23.55    0.94
  -5   8   9   27.14    1.37
  -8  -5   9   26.69    1.23
  -5   8   9   26.34    1.33
  -5   8   9   29.30    1.54
   8   5  -9   25.78    1.33
  -5   8  -9   28.13    1.51
  -5   8  -9   26.13    1.47
   2   9   9   37.31    1.68
   9  -2   9   33.89    1.49
  -2  -9   9   34.37    1.42
   2   9  -9   36.07    1.35
   9  -2  -9   32.24    1.60
   2   9  -9   34.22    1.59
  -9   2  -9   36.08    1.51
  -9   0   9   28.04    1.30
   0   9   9   31.90    1.52
   0   9   9   27.90    1.43
   0  -9   9   29.25    1.31
   9   0  -9   29.34    1.42
  -9   0  -9   27.73    1.28
   0   9  -9   27.01    1.30
   0   9  -9   26.47    1.46
  -9  -2   9   17.91    1.02
  -2   9   9   16.40    1.06
  -2   9   9   13.70    1.06
  -2   9   9   15.97    0.87
  -9  -2  -9   15.53    0.86
  -2   9  -9   14.88    1.11
   9   2  -9   16.19    0.93
  -2   9  -9   15.48    1.04
   9   2  -9   15.50    1.03
   0   0  10    0.09    0.14
   0   0  10    0.14    0.16
   0   0 -10    0.08    0.12
   0   0 -10    0.17    0.11
   0   0 -10   -0.06    0.12
  -1   1  10  494.87    9.42
   1   1  10  496.97    8.70
  -1   1  10  524.15    8.89
  -1  -1  10  511.11    8.85
  -1   1  10  504.27   11.68
   1  -1  10  498.34    8.83
   1   1  10  518.14    9.55
  -1  -1  10  510.93    8.91
   1  -1  10  508.30    9.58
   1   1 -10  520.38    8.93
   1  -1 -10  499.88    8.96
   1  -1 -10  508.12    8.86
  -1   1 -10  502.69    8.96
  -1  -1 -10  479.13    9.19
   1  -1 -10  530.22   14.00
  -1   1 -10  494.29    8.86
   1   1 -10  517.45   11.77
   0   2  10   10.84    0.60
   0   2  10   11.98    0.48
  -2   0  10   11.34    0.51
   2   0  10   11.17    0.65
   0   2  10   11.69    0.56
   2   0  10   12.11    0.57
   0  -2  10   11.58    0.59
   0  -2  10   10.98    0.50
  -2   0  10   10.31    0.58
   0   2  10   12.34    0.69
   0   2 -10   11.51    0.78
   0  -2 -10   11.87    0.80
   0   2 -10   10.89    0.50
   2   0 -10   11.39    0.79
  -2   0 -10   10.83    0.50
   0  -2 -10   11.76    0.50
   2   0 -10   11.61    0.53
   0   2 -10   11.37    0.61
   2   0 -10   11.86    0.62
  -2  -2  10    0.96    0.20
   2   2  10    1.46    0.30
   2  -2  10    1.73    0.32
   2  -2  10    1.07    0.23
  -2  -2  10    1.70    0.27
  -2   2  10    0.98    0.21
  -2   2  10    1.59    0.29
   2   2  10    1.14    0.22
   2   2  10    1.57    0.22
  -2   2 -10    1.68    0.30
   2   2 -10    1.64    0.29
   2   2 -10    2.58    0.44
   2  -2 -10    1.64    0.29
   2  -2 -10    2.04    0.28
   1   3  10  444.89    7.90
  -3   1  10  458.07    8.45
   3  -1  10  441.77    8.67
  -1  -3  10  460.03    8.14
   3  -1  10  447.09    8.06
   1   3  10  457.29    8.68
  -3   1  10  448.80    8.21
  -1  -3  10  454.02    8.07
  -1  -3 -10  444.92    7.94
   3  -1 -10  465.64    8.26
   1   3 -10  455.22   10.71
  -3   1 -10  444.87    8.14
   1   3 -10  448.58    8.16
  -1   3  10  294.03    6.00
   3   1  10  295.80    5.43
  -3  -1  10  308.67    5.66
   3   1  10  300.98    5.44
  -1   3  10  307.78    5.66
  -1   3  10  296.48    5.46
  -1   3  10  294.09    5.87
   3   1  10  298.52    6.13
  -3  -1  10  305.61    5.71
   1  -3  10  302.59    5.71
  -1   3 -10  312.00    5.78
  -3  -1 -10  301.00    5.48
   3   1 -10  300.27    5.73
   1  -3 -10  303.59    5.62
  -3   3  10  333.24    6.16
   3   3  10  333.12    6.20
   3  -3  10  338.66    6.42
   3  -3  10  327.74    6.71
  -3   3  10  332.69    6.48
  -3   3  10  354.01    6.81
   3   3  10  338.13    6.91
   3   3  10  334.51    6.02
  -3  -3  10  337.07    6.30
   3  -3 -10  330.23    6.45
   3   3 -10  337.61    8.31
  -3   3 -10  324.46    6.31
  -3  -3 -10  341.36    5.93
   3   3 -10  334.55    6.35
  -3   3 -10  343.69    6.44
   4  -2  10    4.51    0.44
   2   4  10    3.62    0.44
   2   4  10    4.80    0.48
   4  -2  10    3.48    0.46
  -4   2  10    3.78    0.49
  -2  -4  10    3.70    0.35
   4  -2 -10    3.64    0.51
   2   4 -10    2.92    0.41
  -2  -4 -10    3.94    0.26
   2   4 -10    3.92    0.56
  -4   2 -10    3.87    0.37
   0  -4  10   26.80    1.05
   4   0  10   29.94    1.00
   4   0  10   28.97    1.17
  -4   0  10   28.27    1.10
   0   4  10   28.58    1.01
   0   4  10   26.05    1.11
  -4   0  10   27.74    0.98
   0   4  10   28.29    0.96
   0   4  10   28.17    1.07
   0  -4  10   28.46    0.97
   0   4  10   29.72    1.02
   0   4 -10   27.46    1.39
   4   0 -10   27.96    1.13
  -4   0 -10   28.09    0.94
   0  -4 -10   28.81    0.91
   0   4 -10   29.15    1.12
  -2   4  10   13.14    0.68
   2  -4  10   12.80    0.74
  -2   4  10   12.63    0.73
  -4  -2  10   12.93    0.65
   4   2  10   13.41    0.82
  -2   4  10   12.79    0.80
   4   2  10   12.52    0.51
   4   2  10   12.41    0.66
  -2   4 -10   13.44    0.77
  -4  -2 -10   12.35    0.50
   4   2 -10   12.42    0.71
  -4   4  10    0.74    0.26
   4   4  10    0.20    0.20
   4   4  10    0.16    0.19
   4   4  10    0.31    0.20
  -4  -4  10    0.39    0.19
  -4   4  10   -0.11    0.18
   4  -4  10    0.15    0.20
  -4   4  10   -0.01    0.18
  -4  -4 -10    0.35    0.10
   4   4 -10    0.20    0.18
  -4   4 -10   -0.07    0.16
   4   4 -10    0.30    0.19
   4  -4 -10    0.23    0.21
  -4   4 -10    0.17    0.19
   3   5  10  213.66    4.47
  -5   3  10  218.51    4.80
  -3  -5  10  213.39    4.45
   5  -3  10  211.22    4.69
   3   5  10  225.40    4.62
   5  -3 -10  216.97    4.82
   3   5 -10  219.21    4.22
  -3  -5 -10  215.72    3.93
  -5   3 -10  215.38    4.56
   3   5 -10  215.39    4.51
   5  -1  10  223.13    4.52
  -1  -5  10  222.68    4.49
   1   5  10  224.18    4.85
  -5   1  10  217.00    4.69
   1   5  10  218.74    4.75
   1   5  10  223.91    4.12
   5  -1  10  222.94    4.78
   1   5  10  214.40    4.52
  -5   1 -10  223.04    4.51
   1   5 -10  220.59    4.59
   5  -1 -10  223.39    4.77
   1   5 -10  217.71    5.86
  -1  -5 -10  221.25    4.21
  -1   5  10  318.93    6.62
  -1   5  10  320.08    7.55
   1  -5  10  320.85    6.12
  -1   5  10  319.08    6.08
  -5  -1  10  323.43    6.18
   5   1  10  319.91    6.66
  -1   5  10  318.02    6.15
   1  -5  10  324.06    6.22
   5   1  10  318.67    5.83
   5   1 -10  315.74    6.28
   1  -5 -10  320.74    6.11
  -1   5 -10  318.92    6.29
  -5  -1 -10  320.01    5.96
  -3   5  10  205.18    4.51
  -3   5  10  210.80    4.40
  -3   5  10  210.99    4.82
  -5  -3  10  207.72    4.32
   5   3  10  202.29    4.35
   5   3  10  202.41    4.87
   3  -5  10  209.99    4.56
   5   3 -10  206.04    4.26
  -5  -3 -10  208.80    3.88
  -3   5 -10  206.92    4.70
   5   3 -10  205.60    4.39
  -3   5 -10  208.11    4.59
   5  -5  10  136.41    3.65
  -5   5  10  137.15    3.59
   5   5  10  142.14    3.32
  -5  -5  10  140.86    3.29
  -5   5  10  139.66    3.71
   5   5  10  135.87    3.43
  -5   5  10  140.47    3.40
   5   5 -10  143.05    3.27
  -5   5 -10  141.79    3.59
   5  -5 -10  141.96    3.60
  -5   5 -10  139.42    3.64
   5   5 -10  145.24    3.29
  -6   4  10    1.08    0.36
   6  -4  10    0.53    0.29
   4   6  10    0.93    0.33
  -4  -6  10    0.86    0.25
   4   6  10    1.17    0.34
   4   6 -10    0.68    0.25
   4   6 -10    0.41    0.23
   6  -4 -10    1.02    0.35
  -2  -6  10    0.29    0.18
  -6   2  10    0.58    0.28
   6  -2  10    0.09    0.17
   2   6 -10    0.93    0.28
   6  -2 -10    0.21    0.22
  -6   2 -10    0.05    0.14
   0   6  10    4.95    0.42
   0  -6  10    4.69    0.45
   0   6  10    5.08    0.61
   6   0  10    4.90    0.52
  -6   0  10    5.14    0.47
   6   0  10    5.96    0.55
   0   6  10    5.02    0.63
   0   6 -10    4.83    0.58
   0  -6 -10    5.48    0.44
  -6   0 -10    5.06    0.45
   6   0 -10    5.93    0.67
   0   6 -10    4.54    0.60
  -2   6  10    0.94    0.29
  -6  -2  10    1.34    0.30
  -2   6  10    0.97    0.30
   2  -6  10    2.34    0.43
   6   2  10    1.14    0.34
  -2   6  10    0.94    0.33
  -2   6 -10    0.96    0.32
  -2   6 -10    1.07    0.33
   6   2 -10    2.07    0.39
  -4   6  10    2.92    0.55
   6   4  10    3.13    0.48
  -4   6  10    2.50    0.47
   6   4  10    5.33    0.67
   4  -6  10    4.17    0.62
  -4   6  10    2.72    0.48
  -6  -4  10    4.06    0.51
   6   4 -10    2.53    0.46
  -4   6 -10    3.23    0.55
   6   4 -10    3.13    0.45
  -6  -4 -10    3.27    0.28
  -4   6 -10    2.65    0.51
   6   6  10    1.71    0.45
   6   6  10    1.64    0.42
  -6   6  10    2.36    0.47
   6  -6  10    2.27    0.52
  -6  -6  10    1.95    0.38
  -6   6  10    1.52    0.43
  -6   6  10    2.32    0.52
  -6   6 -10    2.84    0.58
   6   6 -10    1.81    0.43
   7  -5  10   98.96    3.09
  -5  -7  10   98.55    2.66
   5   7  10   97.75    2.92
  -7   5  10   94.89    2.98
   7  -5 -10   99.38    3.06
   5   7 -10  100.64    2.66
  -7   3  10  155.12    3.98
   3   7  10  153.55    3.90
  -3  -7  10  161.96    3.69
   7  -3  10  161.87    4.01
   7  -3 -10  153.04    4.06
   3   7 -10  154.46    3.59
   3   7 -10  158.99    3.92
  -3  -7 -10  160.04    3.18
  -7   3 -10  165.27    3.83
   7  -1  10  138.06    3.37
  -1  -7  10  138.22    3.32
   1   7  10  143.94    3.60
   1   7  10  141.84    3.55
   7  -1 -10  139.26    3.65
  -7   1 -10  142.70    3.38
   1   7 -10  141.88    3.67
   1   7 -10  138.72    3.41
   1  -7  10  147.79    3.49
  -1   7  10  148.83    3.65
  -1   7  10  149.21    3.89
  -1   7  10  151.61    3.37
  -7  -1  10  147.41    3.53
   7   1 -10  152.93    3.71
  -1   7 -10  146.31    3.90
  -1   7 -10  150.10    3.71
  -7  -1 -10  149.28    3.36
  -3   7  10  120.58    3.13
  -7  -3  10  112.29    2.97
  -3   7  10  122.22    3.46
  -3   7  10  120.94    3.16
   3  -7  10  119.57    3.24
  -7  -3 -10  118.99    2.64
  -3   7 -10  119.42    3.43
  -3   7 -10  118.01    3.31
   7   3 -10  117.23    3.09
   7   3 -10  118.16    3.00
  -7  -5  10  120.57    3.18
  -5   7  10  129.07    3.35
  -5   7  10  127.49    3.66
   7   5  10  128.28    3.42
  -5   7  10  124.30    3.45
   7   5 -10  129.98    3.34
  -5   7 -10  128.46    3.60
  -5   7 -10  127.13    3.58
  -8   4  10    5.59    0.76
  -4  -8  10    5.14    0.60
   8  -4  10    5.44    0.77
   4   8  10    7.73    0.88
   8  -4 -10    5.62    0.80
   8  -2  10    4.77    0.66
  -2  -8  10    3.98    0.54
   2   8  10    5.26    0.73
   2   8 -10    4.06    0.63
   2   8 -10    4.66    0.58
   8  -2 -10    4.84    0.71
  -8   2 -10    4.64    0.60
   0   8  10    0.12    0.22
   0  -8  10    0.20    0.22
   0   8  10   -0.10    0.20
  -8   0  10    0.22    0.21
   0   8 -10    0.02    0.21
   0   8 -10    0.71    0.30
  -8   0 -10    0.04    0.17
   8   0 -10    0.13    0.20
  -2   8  10    0.31    0.23
  -2   8  10    0.73    0.33
  -8  -2  10    0.24    0.23
  -2   8  10    0.48    0.27
  -8  -2 -10    0.47    0.21
  -2   8 -10    0.15    0.26
  -2   8 -10    0.39    0.27
   8   2 -10    0.47    0.25
   8   2 -10    0.22    0.25
  -4   8  10    5.65    0.81
  -8  -4  10    4.77    0.61
  -4   8  10    6.09    0.73
  -4   8  10    5.27    0.70
  -4   8 -10    5.95    0.83
   4  -8 -10    5.03    0.60
   8   4 -10    5.37    0.70
  -8  -4 -10    5.04    0.41
  -4   8 -10    4.92    0.74
  -3  -9  10   52.63    1.84
   3   9  10   57.42    2.14
   9  -3  10   55.24    2.07
   9  -3 -10   57.08    2.21
   1   9  10  102.53    3.01
   1   9 -10   96.15    3.04
  -9   1 -10   97.91    2.80
   1   9 -10   97.19    2.70
   9  -1 -10  102.17    3.05
  -1   9  10   90.89    2.90
  -1   9  10   94.75    2.83
  -9  -1 -10   84.83    2.47
  -1   9 -10   91.41    3.00
   9   1 -10   93.24    2.78
  -1   9 -10   88.86    2.72
   9   1 -10   90.74    2.67
  -9  -3  10   78.83    2.41
  -3   9  10   79.40    2.52
  -3   9  10   72.69    2.64
  -3   9  10   79.56    2.31
   9   3 -10   82.36    2.58
   3  -9 -10   80.08    2.38
  -3   9 -10   77.80    2.60
  -3   9 -10   78.56    2.77
  -9  -3 -10   79.55    2.13
   0   1  11  125.22    3.46
   0   1  11  126.09    2.64
   0   1  11  123.42    2.91
   0  -1  11  124.45    2.70
   1   0  11  126.41    2.99
   1   0  11  125.22    2.65
   1   0 -11  127.87    2.65
   0   1 -11  125.32    2.63
   1   0 -11  124.23    2.73
  -1   0 -11  127.64    2.63
  -1   0 -11  125.07    2.67
   0  -1 -11  124.42    2.65
   0  -1 -11  126.96    2.62
   0   1 -11  128.11    2.76
  -2   1  11  160.02    3.41
   1   2  11  156.53    3.14
  -1  -2  11  160.12    3.22
   1   2  11  160.73    3.06
   2  -1  11  162.77    3.33
  -2   1  11  158.77    3.48
  -1  -2  11  157.39    3.32
   1   2  11  160.91    3.63
   2  -1  11  162.22    3.66
   2  -1 -11  160.76    3.41
  -2   1 -11  159.16    3.27
  -1  -2 -11  160.98    3.16
   1   2 -11  159.34    4.43
  -2   1 -11  160.69    3.33
   2  -1 -11  158.25    3.28
   1   2 -11  160.27    3.39
  -2  -1  11   35.97    1.18
   1  -2  11   37.78    1.23
   2   1  11   38.80    1.11
   2   1  11   38.68    1.02
  -1   2  11   38.34    1.25
   2   1  11   37.43    1.34
  -1   2  11   35.85    1.20
  -2  -1  11   38.77    1.12
   1  -2 -11   38.05    1.20
   2   1 -11   37.49    1.25
  -1   2 -11   38.36    1.13
  -1   2 -11   39.20    1.26
   1  -2 -11   40.55    1.14
  -2  -1 -11   37.02    1.05
  -3   2  11  156.73    3.50
  -2  -3  11  156.05    3.33
   2   3  11  160.06    3.22
   2   3  11  154.42    2.99
  -2  -3  11  155.68    3.27
   2   3  11  155.42    3.67
   3  -2  11  152.42    3.38
   3  -2  11  155.51    3.62
  -3   2 -11  154.88    3.29
   2   3 -11  159.50    3.44
  -3   2 -11  154.39    3.38
   3  -2 -11  154.64    3.49
   2   3 -11  151.10    4.36
  -2  -3 -11  154.16    3.03
   3   0  11   68.75    2.01
  -3   0  11   68.38    1.88
   0   3  11   67.69    1.64
   0  -3  11   72.70    1.88
   0  -3  11   68.47    1.68
   3   0  11   67.99    1.73
   0   3  11   67.64    1.72
   0   3  11   67.60    2.07
  -3   0  11   67.58    1.69
   0   3  11   70.02    1.91
   0  -3 -11   67.51    1.65
  -3   0 -11   67.64    1.69
   3   0 -11   66.98    1.90
   0   3 -11   68.84    1.89
  -3  -2  11   46.41    1.34
   3   2  11   46.33    1.20
  -2   3  11   44.41    1.47
  -2   3  11   45.57    1.28
   3   2  11   44.29    1.59
  -2   3  11   46.83    1.36
   2  -3  11   42.81    1.44
  -3  -2  11   46.89    1.42
   3   2  11   44.10    1.28
   3   2 -11   46.87    1.48
  -2   3 -11   45.12    1.47
   2  -3 -11   43.60    1.43
   2  -3 -11   45.10    1.36
  -3  -2 -11   46.22    1.18
  -2   3 -11   45.32    1.33
   3   4  11   79.81    2.45
  -3  -4  11   79.77    2.07
   4  -3  11   83.11    2.29
   4  -3  11   80.79    2.30
   3   4  11   80.69    2.13
  -4   3  11   79.23    2.33
   4  -3 -11   80.33    2.34
  -4   3 -11   78.58    2.25
  -4   3 -11   79.93    2.12
   3   4 -11   84.59    2.25
   3   4 -11   81.38    1.95
  -3  -4 -11   85.01    1.75
   1   4  11   80.80    2.25
   4  -1  11   80.77    2.28
   1   4  11   81.34    2.02
   4  -1  11   79.74    2.07
  -4   1  11   78.70    2.22
  -1  -4  11   79.65    2.09
  -1  -4  11   79.96    2.00
  -1  -4 -11   79.73    1.82
   4  -1 -11   79.34    2.24
   1   4 -11   79.50    2.75
  -4   1 -11   80.83    2.01
   1   4 -11   80.73    2.18
   4   1  11   81.77    1.91
   4   1  11   82.23    1.99
  -4  -1  11   79.11    2.17
  -1   4  11   83.01    2.13
   1  -4  11   82.50    2.18
  -1   4  11   81.10    2.32
  -1   4  11   81.48    2.03
   4   1  11   83.73    2.40
  -4  -1  11   80.81    2.04
  -1   4  11   82.64    2.11
   4   1 -11   80.30    2.21
   1  -4 -11   83.09    2.02
  -1   4 -11   81.70    2.22
  -4  -1 -11   79.76    1.90
  -4  -3  11   64.55    1.79
   4   3  11   62.68    1.81
   4   3  11   65.97    1.73
   4   3  11   63.51    2.15
  -3   4  11   68.68    1.84
  -3   4  11   64.89    2.00
   3  -4  11   67.15    2.04
   3  -4  11   65.15    2.00
  -3   4  11   61.90    2.08
  -4  -3 -11   67.86    1.51
   4   3 -11   64.48    1.92
  -3   4 -11   66.64    2.02
   5  -4  11   40.98    1.67
  -5   4  11   41.66    1.67
   4   5  11   42.09    1.51
  -4  -5  11   41.60    1.45
  -5   4  11   40.65    1.45
   4   5  11   40.70    1.53
  -4  -5 -11   41.69    1.03
   5  -4 -11   42.00    1.69
  -5   4 -11   43.57    1.56
   4   5 -11   41.28    1.39
  -5   4 -11   41.03    1.63
   4   5 -11   40.27    1.49
   2   5  11   35.19    1.32
  -5   2  11   35.29    1.45
   2   5  11   33.73    1.43
   5  -2  11   33.29    1.34
  -2  -5  11   36.01    1.25
   5  -2  11   37.72    1.37
   2   5 -11   35.20    1.35
  -2  -5 -11   35.81    1.00
  -5   2 -11   35.29    1.28
   5  -2 -11   37.42    1.51
   5   0  11   79.04    2.32
  -5   0  11   76.36    2.05
   0   5  11   76.17    2.18
   0  -5  11   78.60    2.03
   0  -5  11   79.13    2.16
   0   5  11   79.19    1.96
   5   0  11   81.22    2.03
   0   5  11   76.39    2.10
  -5   0  11   81.85    2.29
   0   5  11   79.13    2.32
   0   5 -11   77.59    2.21
  -5   0 -11   77.97    2.00
   5   0 -11   77.36    2.27
   0  -5 -11   77.51    1.94
  -2   5  11  108.78    2.67
  -2   5  11  112.44    3.03
   5   2  11  101.77    2.98
   2  -5  11  112.08    2.84
  -2   5  11  104.94    2.71
  -5  -2  11  109.76    2.64
   5   2  11  110.82    2.64
   5   2 -11  106.07    2.75
  -2   5 -11  105.75    2.83
  -5  -2 -11  106.33    2.35
  -4   5  11   34.38    1.47
   5   4  11   33.61    1.36
  -4   5  11   32.92    1.31
   4  -5  11   33.70    1.47
   5   4  11   32.63    1.25
  -5  -4  11   33.27    1.27
  -4   5  11   34.92    1.55
  -4   5 -11   33.91    1.49
  -5  -4 -11   32.42    0.91
  -4   5 -11   33.92    1.45
   5   4 -11   34.93    1.31
   5   4 -11   31.54    1.30
  -6   5  11   27.31    1.41
  -5  -6  11   25.83    1.17
   6  -5  11   25.25    1.40
   5   6  11   28.04    1.35
  -6   5  11   25.67    1.20
   6  -5 -11   26.10    1.39
   5   6 -11   27.71    1.21
   5   6 -11   25.96    1.14
  -3  -6  11   74.98    2.13
   3   6  11   75.86    2.30
   6  -3  11   73.39    2.36
  -6   3  11   70.31    2.36
   3   6 -11   78.58    2.20
  -6   3 -11   71.07    2.17
  -3  -6 -11   75.32    1.69
   6  -3 -11   74.02    2.44
   1   6  11   23.87    1.13
  -6   1  11   24.09    1.21
  -1  -6  11   25.01    1.05
   1   6  11   25.89    1.18
   6  -1  11   23.69    1.09
  -6   1 -11   23.88    1.05
   6  -1 -11   23.49    1.23
   1   6 -11   24.90    1.15
  -1  -6 -11   24.27    0.91
  -6  -1  11   90.85    2.42
   1  -6  11   90.00    2.37
  -1   6  11   93.91    2.39
   1  -6  11   92.53    2.54
  -1   6  11   90.02    2.49
   6   1  11   94.24    2.73
   6   1  11   93.38    2.18
  -1   6  11   95.01    2.76
  -1   6 -11   92.89    2.73
  -1   6 -11   90.19    2.60
  -6  -1 -11   91.37    2.26
   6   1 -11   87.42    2.56
  -6  -3  11   28.42    1.19
  -3   6  11   28.41    1.26
  -3   6  11   29.69    1.44
   6   3  11   28.38    1.26
   3  -6  11   28.94    1.36
  -3   6  11   28.68    1.30
   6   3 -11   28.31    1.24
  -6  -3 -11   32.42    0.98
  -3   6 -11   28.97    1.39
  -3   6 -11   26.87    1.36
   6   3 -11   28.59    1.26
   5  -6  11   58.88    2.21
  -6  -5  11   59.44    1.90
  -5   6  11   57.12    2.10
   6   5  11   58.02    2.03
  -5   6  11   59.14    2.21
  -5   6  11   61.23    2.00
   6   5  11   56.19    1.86
   6   5 -11   55.33    1.88
  -5   6 -11   57.80    2.18
   6   5 -11   59.32    1.84
  -5   6 -11   56.87    2.08
  -7   6  11   11.96    0.96
  -6  -7  11   12.99    0.84
   7  -6  11   11.48    0.99
   6   7  11   11.44    0.93
   6   7 -11   11.89    0.84
  -4  -7  11   50.46    1.72
  -7   4  11   48.60    1.96
   4   7  11   47.87    1.88
   7  -4  11   48.41    1.97
   7  -4 -11   48.30    1.99
   4   7 -11   46.02    1.59
  -4  -7 -11   48.98    1.24
  -2  -7  11   59.58    1.89
   2   7  11   58.28    2.05
   7  -2  11   59.45    2.04
  -7   2  11   61.34    2.15
  -2  -7 -11   60.48    1.62
   7  -2 -11   57.66    2.16
   2   7 -11   58.98    2.08
   2   7 -11   57.46    1.92
  -7   2 -11   63.38    2.00
   0   7  11   35.45    1.56
   7   0  11   35.85    1.30
  -7   0  11   34.66    1.36
   0  -7  11   34.09    1.34
   0   7  11   33.01    1.45
   0   7 -11   33.06    1.53
  -7   0 -11   34.28    1.31
   0   7 -11   36.01    1.49
   7   0 -11   32.90    1.51
  -2   7  11   25.28    1.23
  -2   7  11   25.05    1.35
  -2   7  11   23.57    1.13
  -7  -2  11   23.81    1.13
  -7  -2 -11   24.67    0.99
   7   2 -11   26.20    1.23
  -2   7 -11   25.41    1.32
  -2   7 -11   24.19    1.32
  -7  -4  11   47.53    1.70
  -4   7  11   44.69    1.96
  -4   7  11   48.53    1.79
   4  -7  11   49.03    1.96
  -4   7  11   50.80    1.88
   7   4 -11   47.28    1.65
  -7  -4 -11   47.85    1.31
  -4   7 -11   49.21    1.99
  -4   7 -11   48.48    1.98
   7   4 -11   47.86    1.79
  -7  -6  11   35.75    1.47
  -6   7  11   38.63    1.71
   6  -7  11   35.62    1.73
   7   6  11   35.31    1.60
   7   6 -11   35.14    1.52
  -3  -8  11   24.72    1.18
   8  -3  11   24.81    1.34
   3   8  11   24.45    1.32
   8  -3 -11   23.48    1.38
  -8   3 -11   28.02    1.30
   3   8 -11   25.11    1.13
   8  -1  11   45.82    1.65
  -1  -8  11   42.34    1.59
   1   8  11   42.06    1.77
   8  -1 -11   42.94    1.84
  -8   1 -11   45.74    1.68
   1   8 -11   42.72    1.83
   1   8 -11   43.77    1.68
  -1   8  11   31.40    1.47
  -1   8  11   30.55    1.52
  -8  -1  11   31.62    1.36
   8   1 -11   30.15    1.42
  -1   8 -11   30.43    1.57
  -8  -1 -11   31.41    1.26
  -1   8 -11   29.00    1.43
  -8  -3  11   25.85    1.24
  -3   8  11   26.28    1.32
  -3   8  11   27.70    1.48
  -3   8  11   26.30    1.25
  -3   8 -11   26.64    1.44
  -8  -3 -11   27.16    1.04
   8   3 -11   28.55    1.25
  -3   8 -11   28.30    1.52
   8   3 -11   25.38    1.32
  -2  -9  11   16.46    0.96
   2   9  11   16.21    1.08
   9  -2  11   15.58    0.98
   2   9 -11   13.97    0.86
  -9   2 -11   13.67    0.91
   2   9 -11   14.64    1.03
   9  -2 -11   14.54    1.07
   0   9  11   38.72    1.71
   0   9  11   44.54    1.80
   0   9 -11   39.45    1.81
   9   0 -11   38.62    1.71
   0   9 -11   41.85    1.66
  -9   0 -11   42.53    1.61
  -2   9  11   32.50    1.52
  -9  -2  11   32.65    1.43
  -2   9  11   31.62    1.60
  -9  -2 -11   32.52    1.28
  -2   9 -11   33.10    1.57
   9   2 -11   31.60    1.38
  -2   9 -11   31.66    1.64
   9   2 -11   36.45    1.59
   0   0  12  682.99   11.63
   0   0 -12  655.33   11.81
   0   0 -12  682.41   11.67
  -1   1  12    0.10    0.15
   1   1  12    0.21    0.17
  -1   1  12    0.63    0.20
   1  -1  12    1.86    0.35
   1   1  12    0.31    0.15
   1  -1  12    0.49    0.18
  -1  -1  12    0.34    0.17
   1  -1 -12    0.43    0.15
  -1  -1 -12    0.72    0.18
  -1   1 -12    0.28    0.16
  -1   1 -12    0.07    0.11
   1   1 -12    0.29    0.14
   1   1 -12    0.07    0.14
   1  -1 -12    0.16    0.14
   0  -2  12  250.41    4.87
   2   0  12  251.65    5.31
   0   2  12  247.14    5.17
   2   0  12  251.37    4.79
  -2   0 -12  247.11    4.79
   2   0 -12  254.61    4.82
   0   2 -12  244.52    4.91
   0   2 -12  240.20    4.74
   2   0 -12  248.96    4.93
   0  -2 -12  245.65    4.75
  -2   2  12  327.71    6.50
   2   2  12  335.16    6.81
  -2  -2  12  329.52    6.24
  -2   2  12  331.68    6.36
   2  -2  12  330.74    6.81
   2   2  12  326.05    5.93
  -2  -2  12  332.40    6.21
   2  -2  12  329.59    6.30
   2   2  12  333.99    5.99
  -2   2 -12  328.95    6.25
   2  -2 -12  333.60    6.27
  -2   2 -12  337.36    6.31
   2  -2 -12  334.08    6.33
   2   2 -12  333.25    6.36
  -2  -2 -12  323.85    6.08
  -1  -3  12    0.22    0.17
   3  -1  12    0.05    0.16
  -3   1  12    0.69    0.25
   3  -1  12    0.07    0.13
   1   3  12    0.31    0.15
  -1  -3  12    0.03    0.12
   1   3  12    0.37    0.19
  -3   1  12    0.33    0.18
   1   3  12    0.37    0.16
  -1  -3 -12    0.91    0.19
   1   3 -12    0.29    0.18
   3  -1 -12   -0.01    0.15
  -1   3  12    0.90    0.24
  -3  -1  12    0.17    0.13
  -3  -1  12    0.31    0.17
   3   1  12    1.14    0.30
   3   1  12    0.92    0.21
  -1   3  12    0.48    0.19
   3   1  12    1.26    0.25
   1  -3  12    0.12    0.15
  -1   3 -12    0.40    0.20
   1  -3 -12   -0.02    0.09
  -3  -1 -12    0.29    0.14
   3   1 -12    0.40    0.19
   3  -3  12    0.27    0.19
  -3   3  12    0.14    0.17
  -3  -3  12    0.00    0.13
   3   3  12    0.30    0.18
  -3  -3  12    0.12    0.18
   3   3  12    0.29    0.13
   3  -3  12    0.07    0.18
   3   3  12    0.01    0.14
  -3   3 -12    0.15    0.19
  -3  -3 -12    0.98    0.19
   3   3 -12    0.13    0.20
  -3   3 -12    1.78    0.31
   3   3 -12    0.59    0.23
   3  -3 -12    0.36    0.21
  -2  -4  12  333.91    6.47
   4  -2  12  342.95    6.97
   2   4  12  340.05    6.38
  -4   2  12  338.60    6.76
   2   4  12  341.21    5.99
   2   4  12  339.36    7.07
   4  -2  12  341.28    6.61
   2   4 -12  327.99    8.48
  -2  -4 -12  337.62    6.19
   2   4 -12  337.71    6.62
  -4   2 -12  343.32    6.57
   4  -2 -12  339.34    6.77
   0  -4  12  263.52    5.12
   4   0  12  262.70    5.08
   0   4  12  261.85    5.48
  -4   0  12  263.13    5.37
   4   0  12  259.51    5.65
   0   4  12  259.35    5.03
   0  -4  12  258.29    5.25
   0   4  12  263.56    5.06
   0   4 -12  262.18    5.35
   4   0 -12  259.43    5.40
   0  -4 -12  259.46    5.04
  -4   0 -12  260.96    5.11
   4   2  12  286.33    5.20
  -2   4  12  286.54    5.74
   2  -4  12  284.40    5.78
  -4  -2  12  287.71    5.66
   4   2  12  285.07    5.47
  -2   4  12  284.81    5.47
   4   2  12  282.30    6.22
  -4  -2  12  290.58    5.65
  -2   4 -12  290.16    5.83
   4   2 -12  284.43    5.77
  -4  -2 -12  284.09    5.36
  -4  -4  12   89.93    2.42
   4   4  12   97.62    2.51
   4   4  12   97.05    2.92
   4  -4  12   94.42    2.69
  -4   4  12   96.66    2.74
   4  -4 -12   92.26    2.65
  -4   4 -12   94.85    2.64
  -4  -4 -12   97.06    2.05
  -4   4 -12   96.84    2.69
   4   4 -12   93.46    2.57
   4   4 -12   97.25    2.36
  -3  -5  12    0.01    0.14
   3   5  12    0.06    0.17
  -5   3  12    0.48    0.26
   5  -3  12    0.23    0.19
   5  -3 -12    0.06    0.19
  -3  -5 -12    0.12    0.11
  -5   3 -12    0.60    0.24
   3   5 -12    1.79    0.37
   5  -1  12    0.10    0.16
   1   5  12    0.24    0.13
  -5   1  12   -0.11    0.16
  -1  -5  12    0.22    0.16
   5  -1  12    0.27    0.20
   1   5  12    0.34    0.22
   1   5  12    0.54    0.23
   5  -1 -12    0.24    0.21
   1   5 -12    0.57    0.25
  -1  -5 -12    0.39    0.16
  -5   1 -12    0.03    0.13
   5   1  12    0.29    0.16
   5   1  12    0.18    0.20
  -1   5  12    0.19    0.18
  -1   5  12   -0.16    0.18
  -5  -1  12    0.12    0.16
  -5  -1  12    0.17    0.20
  -1   5  12    0.46    0.21
   1  -5  12    0.17    0.19
  -5  -1 -12    0.34    0.16
   5   1 -12    0.15    0.18
   1  -5 -12   -0.01    0.12
  -1   5 -12   -0.09    0.15
  -3   5  12    0.11    0.18
   5   3  12    0.31    0.24
  -3   5  12    0.35    0.26
   5   3  12    2.70    0.45
   3  -5  12   -0.16    0.14
  -5  -3  12    0.31    0.19
  -3   5  12    0.14    0.21
  -3   5 -12    0.37    0.23
   5   3 -12    0.59    0.24
   5   3 -12    0.77    0.27
  -5  -3 -12    1.05    0.21
  -3   5 -12    0.38    0.23
   5  -5  12    0.27    0.27
  -5   5  12    1.12    0.34
  -5  -5  12    0.06    0.17
  -5   5  12    0.91    0.33
   5   5  12    0.77    0.33
  -5   5 -12    0.36    0.26
   5   5 -12    0.10    0.19
   5   5 -12    0.02    0.18
  -5  -5 -12    1.10    0.19
  -5   5 -12    0.23    0.24
   6  -4  12  191.03    4.58
   4   6  12  184.88    4.33
  -6   4  12  180.41    4.51
  -4  -6  12  189.29    4.23
   4   6 -12  179.73    4.16
  -4  -6 -12  185.55    3.59
   6  -4 -12  185.13    4.54
   2   6  12  117.51    3.08
  -2  -6  12  124.37    3.01
   6  -2  12  123.66    3.16
  -6   2  12  122.75    3.31
  -2  -6 -12  117.82    2.62
  -6   2 -12  121.75    3.06
   2   6 -12  119.41    3.09
   6  -2 -12  119.02    3.33
   0   6  12  138.07    3.00
   6   0  12  134.93    3.50
   6   0  12  134.25    3.12
   0  -6  12  134.90    3.18
   0   6  12  135.15    3.31
  -6   0 -12  134.76    3.17
   6   0 -12  135.93    3.52
   0   6 -12  135.81    3.42
   0  -6 -12  135.92    3.10
  -2   6  12  189.60    4.20
  -2   6  12  185.93    4.60
   2  -6  12  186.74    4.34
  -2   6  12  185.48    4.19
   6   2  12  189.30    4.67
  -6  -2  12  185.72    4.17
  -2   6 -12  187.99    4.42
   6   2 -12  186.90    4.31
  -2   6 -12  182.52    4.55
  -6  -2 -12  185.00    3.86
  -4   6  12  153.84    4.01
  -4   6  12  149.52    3.76
  -6  -4  12  147.35    3.57
  -4   6  12  143.03    3.53
   4  -6  12  147.23    3.86
   6   4  12  145.54    3.62
  -4   6 -12  152.86    3.93
  -6  -4 -12  146.48    3.02
   6   4 -12  147.30    3.56
  -4   6 -12  144.01    3.85
   6   4 -12  144.43    3.49
  -6  -6  12   79.76    2.39
   6   6  12   83.54    2.60
   6  -6  12   79.63    2.74
  -6   6  12   81.77    2.68
   6   6 -12   82.37    2.39
  -6   6 -12   84.66    2.74
   6   6 -12   79.29    2.22
  -5  -7  12    0.29    0.22
   5   7  12    0.24    0.27
   7  -5  12    0.38    0.29
  -7   5  12    0.66    0.37
   7  -5 -12    0.28    0.29
   7  -3  12    0.40    0.27
  -7   3  12    0.50    0.31
   3   7  12    0.08    0.22
  -3  -7  12    0.14    0.20
  -7   3 -12   -0.02    0.18
  -3  -7 -12   -0.05    0.11
   3   7 -12    0.23    0.20
   7  -3 -12   -0.09    0.21
   3   7 -12    0.02    0.21
   7  -1  12    0.14    0.19
   1   7  12    0.16    0.22
  -1  -7  12    0.52    0.24
   1   7 -12    0.18    0.21
   7  -1 -12    0.65    0.31
   1   7 -12    0.19    0.23
  -7   1 -12    0.29    0.21
  -1  -7 -12    0.07    0.15
  -7  -1  12    0.08    0.18
  -1   7  12    0.22    0.25
  -1   7  12    0.04    0.21
  -1   7  12    0.26    0.20
  -1   7 -12    0.07    0.22
  -1   7 -12    0.12    0.23
   7   1 -12    0.00    0.18
  -7  -1 -12    0.37    0.20
  -3   7  12    0.06    0.22
  -3   7  12    0.01    0.21
   3  -7  12    0.23    0.26
  -7  -3  12    0.24    0.22
  -3   7  12    0.10    0.24
  -3   7 -12    0.39    0.31
  -3   7 -12    0.04    0.24
  -7  -3 -12    0.27    0.17
   7   3 -12    0.21    0.21
   7   3 -12    0.22    0.24
  -5   7  12    0.96    0.33
  -5   7  12    0.06    0.23
   7   5  12    0.49    0.29
  -7  -5  12    0.19    0.21
   5  -7  12   -0.01    0.25
  -5   7 -12   -0.01    0.24
   7   5 -12    0.06    0.20
  -5   7 -12   -0.19    0.23
   7   5 -12    0.28    0.27
  -7  -5 -12    0.04    0.14
   4   8  12   80.17    2.58
  -8   4  12   77.55    2.60
  -4  -8  12   74.55    2.31
   8  -4  12   77.14    2.63
   8  -4 -12   77.15    2.66
   8  -2  12   84.42    2.61
   2   8  12   86.01    2.69
  -2  -8  12   88.17    2.53
   2   8 -12   84.91    2.50
  -8   2 -12   89.20    2.61
   8  -2 -12   89.94    2.89
   2   8 -12   86.45    2.76
   0   8  12  157.14    3.94
   0   8 -12  147.52    4.12
   8   0 -12  160.56    4.08
   0   8 -12  158.12    3.92
  -8   0 -12  153.85    3.73
  -8  -2  12   49.41    1.79
  -2   8  12   48.62    1.87
  -2   8  12   50.25    1.69
  -2   8  12   51.22    2.06
  -8  -2 -12   51.27    1.62
  -2   8 -12   46.73    2.04
  -2   8 -12   45.08    1.91
   8   2 -12   50.06    1.86
   8   2 -12   50.04    1.90
  -4   8  12   85.99    2.58
  -4   8  12   87.55    2.59
  -8  -4  12   84.86    2.54
   8   4 -12   85.66    2.36
  -4   8 -12   84.25    2.81
  -8  -4 -12   84.81    2.09
   8   4 -12   82.33    2.56
  -4   8 -12   87.48    2.89
   1   9  12   -0.03    0.24
  -1  -9  12   -0.05    0.20
   9  -1 -12    0.13    0.26
   1   9 -12    0.40    0.26
   1   9 -12    0.09    0.25
  -9   1 -12    0.25    0.24
  -1   9  12    0.15    0.23
  -1   9  12    0.30    0.31
   9   1 -12    0.40    0.29
   9   1 -12    0.14    0.27
  -1   9 -12    0.08    0.25
  -9  -1 -12    0.19    0.21
  -1   9 -12    0.03    0.22
   1   0  13  103.57    2.43
   0  -1  13  104.76    2.48
  -1   0  13  102.40    2.47
   0   1  13  102.28    2.41
   0   1  13  103.20    2.68
  -1   0  13  103.46    2.71
   0  -1  13  104.32    2.78
   1   0  13   99.64    2.72
  -1   0 -13  105.66    2.40
   1   0 -13  106.35    2.41
   0  -1 -13  106.08    2.38
   0   1 -13  107.24    2.53
   0   1 -13  103.94    2.37
  -1   0 -13  103.83    2.45
   1   0 -13  106.67    2.54
  -2   1  13  119.22    2.89
   1   2  13  116.55    2.60
  -1  -2  13  118.18    2.78
   2  -1  13  115.81    2.75
   1   2  13  116.02    3.02
  -2   1  13  119.14    2.86
   2  -1  13  123.94    3.11
  -2   1 -13  116.83    2.67
   1   2 -13  117.65    2.84
  -1  -2 -13  121.24    2.62
  -2   1 -13  118.01    2.76
   2  -1 -13  117.52    2.83
   2  -1 -13  117.65    2.69
  -1   2  13   32.50    1.24
   2   1  13   31.73    1.10
  -2  -1  13   35.40    1.24
  -1   2  13   32.15    1.20
   1  -2  13   32.19    1.37
   1  -2  13   34.31    1.24
   2   1  13   32.66    1.34
  -1   2 -13   33.85    1.11
  -2  -1 -13   34.64    1.09
  -1   2 -13   32.73    1.23
   2   1 -13   30.34    1.21
   1  -2 -13   32.31    1.11
  -2  -3  13  129.42    2.93
   2   3  13  132.67    2.74
  -2  -3  13  133.25    3.09
   2   3  13  129.16    2.82
   3  -2  13  132.01    3.11
   3  -2  13  131.61    3.34
   2   3  13  129.18    3.36
  -3   2  13  127.04    3.19
  -3   2 -13  131.78    3.01
  -3   2 -13  128.10    3.07
  -2  -3 -13  129.30    2.78
   3  -2 -13  128.63    3.19
   2   3 -13  132.18    3.17
   3   0  13   58.29    1.62
  -3   0  13   53.68    1.73
   0   3  13   53.87    1.74
   3   0  13   50.50    1.80
   0  -3  13   54.12    1.69
  -3   0 -13   52.40    1.50
   0  -3 -13   53.02    1.49
   0   3 -13   50.02    1.67
   3   0 -13   50.67    1.70
   3   2  13   44.45    1.70
   3   2  13   45.54    1.30
   2  -3  13   44.33    1.71
  -2   3  13   44.14    1.44
  -3  -2  13   45.75    1.41
  -2   3  13   45.81    1.57
   3   2  13   46.10    1.33
  -3  -2  13   45.29    1.51
   2  -3  13   47.09    1.58
  -2   3 -13   43.09    1.53
  -3  -2 -13   44.29    1.28
   3   2 -13   43.98    1.56
   2  -3 -13   45.21    1.44
  -3  -4  13   56.67    1.75
   3   4  13   59.45    2.13
   3   4  13   60.48    1.79
   4  -3  13   59.84    2.00
  -4   3  13   59.86    2.04
   4  -3  13   61.22    2.00
  -4   3 -13   57.87    1.80
  -3  -4 -13   58.95    1.51
   4  -3 -13   64.82    2.07
   3   4 -13   57.69    1.93
  -4   1  13   66.16    2.11
   1   4  13   70.87    1.87
   1   4  13   68.82    1.73
  -1  -4  13   68.78    2.01
   4  -1  13   67.51    1.95
   1   4  13   67.31    2.11
  -1  -4  13   67.74    1.85
   4  -1  13   69.59    2.20
   1   4 -13   65.63    2.05
  -4   1 -13   67.90    1.89
  -1  -4 -13   69.15    1.75
   4  -1 -13   66.15    2.12
   1  -4  13   73.34    2.13
   4   1  13   72.54    1.87
   4   1  13   71.28    2.32
  -4  -1  13   71.09    1.95
  -1   4  13   73.80    2.07
  -4  -1  13   73.54    2.10
  -1   4  13   72.09    2.05
   1  -4 -13   73.62    1.97
   4   1 -13   73.69    2.20
  -4  -1 -13   74.89    1.90
  -1   4 -13   71.55    2.17
  -4  -3  13   54.63    1.69
   4   3  13   54.14    1.67
   3  -4  13   57.20    1.96
   4   3  13   55.06    2.05
   3  -4  13   55.51    1.89
  -3   4  13   53.17    1.86
  -4  -3 -13   54.14    1.44
   4   3 -13   52.94    1.83
  -3   4 -13   53.96    1.87
   5  -4  13   29.68    1.44
   4   5  13   33.52    1.39
  -4  -5  13   30.96    1.29
  -5   4  13   31.21    1.49
   4   5 -13   33.14    1.41
   5  -4 -13   33.21    1.52
  -4  -5 -13   33.64    1.00
   5  -2  13   35.08    1.43
   2   5  13   31.96    1.46
  -5   2  13   32.90    1.47
   2   5  13   34.64    1.32
  -2  -5  13   32.79    1.25
   5  -2  13   32.04    1.36
   5  -2 -13   32.50    1.49
  -2  -5 -13   33.75    1.07
  -5   2 -13   33.19    1.30
   2   5 -13   32.35    1.39
   0   5  13   68.74    1.95
   5   0  13   65.08    1.87
   5   0  13   66.32    2.21
   0  -5  13   68.20    2.06
   0   5  13   69.80    1.86
   0   5  13   63.95    2.03
  -5   0  13   65.37    2.12
   0   5 -13   63.17    2.07
   0  -5 -13   66.27    1.83
  -5   0 -13   64.32    1.86
   5   0 -13   63.90    2.15
  -5  -2  13   87.24    2.34
  -2   5  13   89.08    2.33
   5   2  13   89.78    2.78
  -2   5  13   85.30    2.44
   2  -5  13   85.86    2.51
  -5  -2 -13   86.03    2.12
   5   2 -13   87.98    2.54
  -2   5 -13   86.31    2.57
  -5  -4  13   28.35    1.21
   4  -5  13   26.08    1.34
   5   4  13   27.15    1.23
  -4   5  13   25.48    1.31
   5   4 -13   25.17    1.23
   5   4 -13   26.77    1.16
  -5  -4 -13   29.20    0.93
  -4   5 -13   27.51    1.38
  -4   5 -13   27.32    1.32
  -5  -6  13   23.79    1.17
  -6   5  13   24.98    1.37
   5   6  13   25.68    1.32
   6  -5  13   25.30    1.40
  -5  -6 -13   25.52    0.83
   5   6 -13   21.55    1.11
  -3  -6  13   65.52    2.05
   6  -3  13   69.18    2.29
  -6   3  13   67.87    2.35
   3   6  13   67.97    2.17
   6  -3 -13   64.68    2.33
   3   6 -13   66.41    2.14
  -3  -6 -13   67.75    1.70
  -6   3 -13   68.25    2.10
   6  -1  13   18.72    1.00
   6  -1  13   20.36    1.10
   1   6  13   19.46    1.03
  -6   1  13   22.39    1.21
  -1  -6  13   21.47    1.01
   1   6 -13   19.58    1.09
  -6   1 -13   19.58    0.99
  -1  -6 -13   19.58    0.87
   6  -1 -13   20.10    1.19
  -1   6  13   67.50    2.09
  -1   6  13   69.87    2.03
  -6  -1  13   70.54    2.07
   6   1  13   69.55    2.37
   1  -6  13   67.41    2.18
  -1   6 -13   66.21    2.29
   6   1 -13   67.96    2.26
  -6  -1 -13   70.51    1.95
  -1   6 -13   68.39    2.26
  -3   6  13   27.10    1.30
  -3   6  13   28.85    1.26
  -6  -3  13   26.66    1.20
   3  -6  13   26.31    1.34
  -3   6 -13   25.60    1.36
   6   3 -13   26.41    1.28
  -6  -3 -13   28.20    0.99
   6   3 -13   26.89    1.23
  -3   6 -13   27.23    1.39
  -5   6  13   52.23    2.00
   5  -6  13   48.84    2.03
  -6  -5  13   49.86    1.79
   6   5  13   50.97    1.89
  -5   6 -13   51.01    2.04
  -6  -5 -13   51.04    1.34
   6   5 -13   49.12    1.74
   6   5 -13   47.89    1.75
  -5   6 -13   50.46    1.96
  -4  -7  13   44.31    1.68
   7  -4  13   44.74    1.92
   4   7  13   47.48    1.85
  -7   4  13   45.20    1.91
   4   7 -13   44.11    1.63
   7  -4 -13   48.27    1.99
  -4  -7 -13   45.63    1.29
   2   7  13   44.47    1.76
   7  -2  13   44.85    1.75
  -2  -7  13   44.05    1.64
  -7   2  13   48.48    1.93
   7  -2 -13   46.45    1.95
   2   7 -13   49.15    1.92
  -2  -7 -13   48.04    1.46
   2   7 -13   45.90    1.75
  -7   2 -13   45.58    1.72
   0   7  13   33.14    1.44
   7   0  13   33.05    1.26
   7   0 -13   31.83    1.54
   0   7 -13   31.40    1.46
  -7   0 -13   32.73    1.32
   0   7 -13   28.69    1.48
  -7  -2  13   19.24    1.03
  -2   7  13   18.64    1.00
  -2   7  13   18.48    1.06
  -2   7 -13   18.32    1.15
   7   2 -13   20.62    1.15
  -7  -2 -13   18.86    0.89
  -2   7 -13   18.80    1.20
  -7  -4  13   45.33    1.71
   4  -7  13   45.11    1.93
  -4   7  13   47.32    1.74
  -4   7  13   46.29    1.82
  -4   7 -13   46.68    1.96
   7   4 -13   44.44    1.73
   7   4 -13   45.21    1.69
  -4   7 -13   48.00    1.98
  -7  -4 -13   47.27    1.38
   8  -3  13   16.99    1.10
   3   8  13   18.56    1.15
  -3  -8  13   18.90    1.03
   8  -3 -13   16.15    1.15
   3   8 -13   18.88    1.01
   8  -1  13   40.84    1.53
  -1  -8  13   36.48    1.50
   1   8  13   38.88    1.67
   1   8 -13   38.33    1.61
  -8   1 -13   39.70    1.58
   8  -1 -13   35.19    1.72
   1   8 -13   39.25    1.75
  -1   8  13   30.74    1.45
   8   1 -13   29.05    1.44
  -1   8 -13   28.53    1.45
  -8  -1 -13   32.01    1.30
  -3   8  13   22.93    1.14
  -3   8  13   18.45    1.08
  -8  -3  13   18.91    1.07
  -8  -3 -13   19.92    0.90
  -3   8 -13   18.89    1.24
   8   3 -13   19.39    1.15
   8   3 -13   18.36    1.05
  -3   8 -13   18.94    1.22
   0   0  14    0.71    0.22
   0   0  14    0.40    0.23
   0   0 -14   -0.01    0.09
   0   0 -14    0.18    0.17
   1  -1  14  288.71    6.20
  -1   1  14  290.51    6.04
   1  -1  14  290.99    5.68
   1   1  14  283.28    5.52
   1   1  14  287.48    6.16
  -1  -1  14  291.24    5.68
  -1   1  14  291.21    5.64
   1  -1 -14  286.86    5.65
   1   1 -14  287.58    5.73
   1  -1 -14  290.85    5.61
  -1  -1 -14  285.71    5.57
  -1   1 -14  291.46    5.69
  -1   1 -14  288.41    5.60
   2   0  14    3.71    0.46
   0   2  14    4.65    0.44
   0  -2  14    4.36    0.52
  -2   0  14    4.56    0.58
   0   2  14    3.91    0.53
   2   0  14    4.54    0.60
  -2   0  14    5.10    0.56
   2   0 -14    4.43    0.54
   0  -2 -14    5.27    0.42
  -2   0 -14    5.10    0.42
  -2   2  14    0.83    0.28
  -2   2  14    0.87    0.27
   2  -2  14    1.24    0.31
  -2  -2  14    0.70    0.26
   2  -2  14    1.17    0.36
   2   2  14    0.74    0.29
   2   2  14    0.81    0.22
   2  -2 -14    0.63    0.20
   2  -2 -14    0.85    0.28
  -2   2 -14    0.77    0.26
  -2   2 -14    1.36    0.28
   1   3  14  291.64    6.17
   3  -1  14  287.61    5.68
   3  -1  14  289.05    6.27
  -3   1  14  292.61    5.93
  -3   1  14  286.48    5.88
  -1  -3  14  283.00    5.75
   1   3  14  288.94    5.44
  -1  -3 -14  276.63    5.50
   3  -1 -14  282.85    5.87
  -3   1 -14  288.47    5.67
   1   3 -14  281.05    5.83
   3   1  14  178.37    4.32
  -3  -1  14  171.89    3.91
  -1   3  14  178.37    3.90
   1  -3  14  178.71    3.98
   3   1  14  178.04    3.72
  -1   3  14  177.83    4.03
   3   1 -14  176.11    4.02
  -1   3 -14  181.77    4.04
   1  -3 -14  175.68    3.80
  -3  -1 -14  176.05    3.73
   3   3  14  213.41    4.05
   3  -3  14  209.22    4.63
   3   3  14  211.62    5.01
  -3  -3  14  208.02    4.41
   3  -3  14  203.60    4.89
   3   3  14  208.61    4.25
  -3  -3  14  209.35    4.53
  -3   3  14  207.92    4.69
  -3  -3 -14  209.49    4.20
   3   3 -14  211.48    4.67
  -3   3 -14  211.64    4.63
   3  -3 -14  211.41    4.65
  -2  -4  14    2.52    0.40
  -4   2  14    1.60    0.40
  -2  -4  14    1.25    0.35
   2   4  14    1.23    0.30
   4  -2  14    1.10    0.34
   4  -2  14    1.82    0.38
   2   4  14    1.31    0.37
   2   4  14    1.16    0.24
  -2  -4 -14    0.99    0.22
  -4   2 -14    1.42    0.32
   4  -2 -14    0.60    0.27
   2   4 -14    0.91    0.31
   0  -4  14   12.57    0.82
  -4   0  14   12.47    0.85
   4   0  14   14.16    0.94
   4   0  14   12.63    0.75
   0   4  14   13.08    0.83
   0  -4 -14   13.52    0.72
   0   4 -14   13.80    0.88
   4   0 -14   13.39    0.89
  -4   0 -14   14.07    0.74
  -2   4  14    6.74    0.62
  -4  -2  14    7.38    0.64
   2  -4  14    6.82    0.81
   2  -4  14    6.34    0.71
  -4  -2  14    6.23    0.52
   4   2  14    7.41    0.72
   4   2  14    7.70    0.49
  -4  -2 -14    8.91    0.54
  -2   4 -14    8.13    0.69
   4   2 -14    6.22    0.71
  -4   4  14    0.04    0.18
   4   4  14    0.05    0.19
   4   4  14    0.46    0.30
   4  -4  14    0.38    0.27
  -4   4 -14    0.19    0.23
  -4  -4 -14    0.63    0.18
   4   4 -14    0.06    0.19
  -4   4 -14    0.24    0.24
   3   5  14  143.48    3.91
  -5   3  14  142.73    3.75
   3   5  14  147.47    3.44
   5  -3  14  145.41    3.66
  -3  -5  14  138.50    3.39
  -5   3 -14  142.00    3.46
  -3  -5 -14  142.25    3.04
   3   5 -14  141.42    3.59
   5  -3 -14  142.01    3.73
   5  -1  14  128.54    3.18
   1   5  14  125.05    3.40
   1   5  14  131.91    2.80
   5  -1  14  131.96    3.50
   1   5  14  131.91    3.10
  -5   1  14  126.88    3.41
  -5   1 -14  128.59    3.14
   5  -1 -14  132.05    3.51
  -1  -5 -14  128.32    2.94
   1   5 -14  135.09    3.41
   5   1  14  223.26    4.42
  -5  -1  14  222.39    4.83
  -1   5  14  223.14    4.69
   5   1  14  222.07    5.27
   1  -5  14  218.21    4.87
  -5  -1 -14  214.70    4.55
   5   1 -14  217.69    4.96
  -1   5 -14  215.59    4.93
   1  -5 -14  222.77    4.68
   5   3  14  131.78    3.77
   3  -5  14  132.41    3.52
  -3   5  14  132.62    3.44
   3  -5  14  133.60    3.58
   5   3  14  137.13    3.23
  -3   5 -14  129.86    3.50
  -5  -3 -14  131.60    2.92
  -3   5 -14  132.04    3.56
   5   3 -14  136.03    3.47
   5   3 -14  134.76    3.16
   5   5  14  102.67    2.85
   5  -5  14  103.06    3.10
  -5  -5  14   96.87    2.75
  -5   5  14  103.53    3.05
  -5  -5 -14  102.05    2.29
   5   5 -14   99.28    2.83
  -5   5 -14  101.50    2.95
   4   6  14    0.65    0.30
  -4  -6  14    0.58    0.27
  -6   4  14    0.39    0.28
   6  -4  14    0.39    0.28
  -4  -6 -14    0.46    0.17
   6  -4 -14    0.93    0.37
   4   6 -14    0.34    0.24
   2   6  14    0.02    0.20
  -2  -6  14    0.13    0.20
  -6   2  14    0.07    0.23
   6  -2  14    0.05    0.19
   2   6 -14    0.24    0.21
  -2  -6 -14    0.12    0.14
   6  -2 -14    0.60    0.32
  -6   2 -14    0.77    0.28
   0   6  14    2.57    0.47
   6   0  14    1.94    0.45
   6   0  14    2.49    0.42
  -6   0  14    2.17    0.47
  -6   0 -14    2.02    0.38
   0   6 -14    2.67    0.51
   0  -6 -14    1.97    0.36
   6   0 -14    1.69    0.43
  -6  -2  14    0.35    0.24
  -2   6  14    0.99    0.32
  -2   6  14    0.75    0.29
   2  -6  14    1.13    0.36
   6   2  14    0.74    0.33
   2  -6  14    0.75    0.40
   6   2 -14    0.53    0.27
  -2   6 -14    0.89    0.35
  -6  -2 -14    0.56    0.22
  -2   6 -14    0.27    0.23
  -4   6  14    1.94    0.45
  -6  -4  14    1.64    0.38
   6   4  14    1.89    0.43
   4  -6  14    1.78    0.47
   6   4 -14    2.55    0.48
   6   4 -14    1.76    0.41
  -4   6 -14    1.46    0.43
  -6  -4 -14    2.31    0.32
  -4   6 -14    1.76    0.45
  -6   6  14    1.27    0.42
  -6  -6  14    1.91    0.43
   6   6  14    2.24    0.51
   6  -6  14    1.80    0.49
  -6  -6 -14    1.91    0.28
   6   6 -14    1.62    0.36
   7  -3  14  115.53    3.25
  -7   3  14  115.39    3.33
  -3  -7  14  108.84    2.99
   3   7  14  112.27    3.12
   7  -3 -14  117.10    3.39
  -7   3 -14  110.52    3.02
   3   7 -14  113.02    3.05
  -3  -7 -14  111.81    2.62
   1   7  14  106.43    2.94
   7  -1  14  108.73    2.86
  -1  -7 -14  106.54    2.65
   1   7 -14  100.49    2.96
  -7   1 -14  103.23    2.86
   7  -1 -14  102.45    3.17
   1   7 -14  103.69    3.15
  -1   7  14   99.45    2.56
   7   1  14  100.00    3.05
  -1   7  14  101.81    2.82
  -1   7 -14   98.87    2.97
  -7  -1 -14   98.31    2.62
  -1   7 -14   95.91    3.04
   7   1 -14  100.97    3.00
  -7  -3  14   76.05    2.37
  -3   7  14   79.74    2.43
   3  -7  14   76.64    2.58
  -3   7  14   84.18    2.41
  -3   7 -14   78.90    2.70
   7   3 -14   77.36    2.38
  -7  -3 -14   77.75    2.08
  -3   7 -14   77.64    2.63
   7   3 -14   76.46    2.44
   8  -2  14    3.91    0.60
   2   8  14    4.24    0.65
   8  -2 -14    2.87    0.58
  -8   2 -14    4.15    0.59
   2   8 -14    3.31    0.54
   2   8 -14    3.10    0.59
   0   8  14    0.62    0.32
   8   0 -14    0.23    0.27
  -8   0 -14    0.45    0.25
   0   8 -14    0.18    0.25
   0   8 -14    0.51    0.32
  -2   8  14    0.25    0.22
  -2   8  14   -0.13    0.21
  -2   8 -14    0.05    0.28
  -2   8 -14    0.46    0.32
  -8  -2 -14    0.16    0.18
   8   2 -14    0.13    0.26
   8   2 -14    0.33    0.27
   1   0  15   86.39    2.59
  -1   0  15   88.43    2.35
  -1   0  15   91.40    2.59
   0  -1  15   88.29    2.64
   1   0  15   89.95    2.33
   0   1  15   88.21    2.57
   0  -1  15   89.78    2.37
   0   1  15   89.11    2.31
   0   1 -15   88.99    2.40
   0  -1 -15   89.28    2.25
  -1   0 -15   90.21    2.26
   1   0 -15   91.65    2.25
   0   1 -15   85.90    2.21
   1   0 -15   90.81    2.41
  -2   1  15   24.76    1.12
   1   2  15   26.68    1.06
  -1  -2  15   25.41    1.14
   1   2  15   25.82    1.25
  -2   1  15   27.05    1.19
   2  -1  15   30.45    1.37
   2  -1  15   25.18    1.11
  -2   1 -15   25.26    1.04
   2  -1 -15   24.85    1.16
  -1  -2 -15   25.64    1.00
   2  -1 -15   26.26    1.04
   1   2 -15   26.30    1.19
  -2  -1  15   71.74    2.11
   2   1  15   72.53    2.36
  -1   2  15   72.27    2.07
   1  -2  15   74.68    2.16
   2   1  15   71.24    1.99
  -1   2  15   74.80    2.21
   1  -2  15   76.25    2.43
  -1   2 -15   74.90    2.17
   1  -2 -15   74.25    2.01
   2   1 -15   71.79    2.18
  -2  -1 -15   75.57    1.99
  -3   2  15   54.06    1.95
   3  -2  15   57.04    2.08
   2   3  15   58.45    2.08
   3  -2  15   59.76    1.92
  -2  -3  15   59.55    1.91
   2   3  15   57.04    1.61
   3  -2 -15   58.48    1.98
   2   3 -15   57.53    1.96
  -2  -3 -15   55.79    1.63
  -3   2 -15   59.18    1.78
   0   3  15   47.19    1.52
   3   0  15   48.61    1.86
   3   0  15   46.81    1.55
  -3   0  15   47.37    1.72
   0   3  15   45.97    1.70
   0  -3  15   47.33    1.67
  -3   0  15   45.52    1.65
   0   3 -15   48.29    1.72
   0  -3 -15   45.78    1.48
  -3   0 -15   51.15    1.55
   3   0 -15   47.52    1.73
   2  -3  15   98.90    2.98
   2  -3  15   96.53    2.70
  -2   3  15  101.37    2.77
  -3  -2  15  100.97    2.70
   3   2  15  102.54    3.02
   3   2  15   98.39    2.38
  -3  -2 -15   96.07    2.40
   2  -3 -15  101.08    2.58
   3   2 -15  101.86    2.80
  -2   3 -15   99.45    2.73
  -4   3  15   31.76    1.49
   4  -3  15   30.78    1.46
   4  -3  15   31.80    1.44
   3   4  15   35.42    1.63
  -3  -4  15   30.51    1.25
   3   4  15   30.61    1.22
   3   4 -15   31.05    1.43
  -3  -4 -15   31.51    1.10
   4  -3 -15   30.73    1.45
  -4   1  15   77.47    2.44
   4  -1  15   79.53    2.56
   1   4  15   82.19    2.04
  -1  -4  15   79.04    2.33
   4  -1  15   77.41    2.25
   1   4  15   79.52    2.46
   1   4 -15   78.91    2.41
  -4   1 -15   79.89    2.22
  -1  -4 -15   76.93    2.05
   4  -1 -15   76.42    2.44
  -1   4  15   66.10    2.03
   4   1  15   67.15    1.86
  -4  -1  15   66.07    2.10
  -1   4  15   63.48    1.99
   4   1  15   65.29    2.31
   1  -4  15   63.57    2.07
   1  -4 -15   69.51    1.96
   4   1 -15   61.07    2.12
  -4  -1 -15   62.18    1.83
  -1   4 -15   65.48    2.14
   4   3  15   26.35    1.43
   3  -4  15   27.63    1.39
  -3   4  15   24.01    1.26
   3  -4  15   26.03    1.29
   4   3 -15   25.76    1.29
  -3   4 -15   26.65    1.32
  -4  -3 -15   26.62    1.00
   4   3 -15   27.37    1.10
   4   5  15   36.43    1.48
   5  -4  15   36.85    1.65
  -4  -5  15   38.62    1.49
  -5   4  15   35.94    1.66
  -4  -5 -15   36.49    1.20
   4   5 -15   36.66    1.58
   2   5  15   71.35    2.06
   5  -2  15   70.51    2.34
   2   5  15   67.10    2.35
  -5   2  15   65.94    2.33
   5  -2  15   68.71    2.20
  -5   2 -15   68.34    2.10
   5  -2 -15   64.97    2.33
  -2  -5 -15   67.03    1.85
   2   5 -15   66.38    2.25
   0   5  15   27.38    1.28
   0  -5  15   27.10    1.30
   5   0  15   28.17    1.43
   0   5  15   29.76    1.13
   5   0  15   28.84    1.19
   0   5 -15   29.16    1.38
   0  -5 -15   28.16    1.15
  -5   0 -15   28.15    1.16
   5   0 -15   26.94    1.38
   2  -5  15   43.67    1.88
   2  -5  15   42.89    1.72
   5   2  15   42.81    1.88
  -2   5  15   43.43    1.67
  -2   5 -15   40.41    1.72
  -5  -2 -15   46.39    1.44
   5   2 -15   42.14    1.74
   5   4  15   32.84    1.68
   4  -5  15   30.22    1.50
  -5  -4  15   28.98    1.30
  -4   5  15   30.50    1.48
   5   4  15   32.11    1.35
  -4   5 -15   33.22    1.51
   5   4 -15   31.43    1.27
   5   4 -15   32.12    1.47
  -5  -4 -15   31.86    1.10
  -4   5 -15   32.68    1.55
   5   6  15   46.69    1.79
  -6   5  15   45.06    1.91
   6  -5  15   42.90    1.91
  -5  -6 -15   48.32    1.35
   5   6 -15   44.84    1.71
   3   6  15   28.88    1.33
  -3  -6  15   30.34    1.32
  -6   3  15   28.64    1.50
   6  -3  15   28.21    1.42
   3   6 -15   29.89    1.40
  -3  -6 -15   30.33    1.10
   6  -3 -15   29.79    1.54
   6  -1  15   35.79    1.46
  -6   1  15   35.50    1.63
   1   6  15   35.18    1.43
   6  -1  15   37.64    1.63
  -6   1 -15   35.54    1.42
   1   6 -15   37.61    1.62
   6  -1 -15   35.80    1.68
  -1  -6 -15   32.98    1.27
  -1   6  15   21.51    1.06
   1  -6  15   22.40    1.22
   6   1  15   23.70    1.33
  -6  -1 -15   22.10    1.03
  -1   6 -15   22.07    1.26
   6   1 -15   20.45    1.22
   3  -6  15   62.48    2.23
  -3   6  15   62.04    2.12
  -3   6 -15   62.21    2.27
   6   3 -15   60.98    2.16
  -3   6 -15   63.01    2.28
  -6  -3 -15   58.44    1.72
   6   3 -15   61.59    1.98
   6   5  15   19.58    1.12
  -5   6  15   18.90    1.17
   5  -6  15   22.45    1.34
  -6  -5 -15   19.30    0.80
  -5   6 -15   19.50    1.24
  -5   6 -15   19.33    1.18
   6   5 -15   19.10    1.08
   4   7  15   30.01    1.41
  -7   4  15   29.00    1.51
  -4  -7  15   27.95    1.29
   7  -4  15   25.83    1.42
   4   7 -15   27.48    1.29
   7  -4 -15   27.51    1.48
  -4  -7 -15   28.32    1.03
   7  -2  15   12.28    0.90
  -7   2  15   13.97    1.04
   2   7  15   14.55    0.96
   7  -2 -15   14.55    1.09
   2   7 -15   13.72    1.01
   2   7 -15   14.38    0.98
  -7   2 -15   14.55    0.92
  -2  -7 -15   13.69    0.77
   0   7  15   54.62    1.90
   7   0 -15   50.49    2.06
   0   7 -15   52.11    2.01
  -7   0 -15   52.17    1.80
   0   7 -15   50.19    2.07
  -2   7  15   25.03    1.20
   7   2 -15   25.48    1.36
  -2   7 -15   28.17    1.50
  -2   7 -15   28.53    1.47
  -7  -2 -15   26.73    1.13
  -4   7  15   24.60    1.27
  -4   7 -15   21.41    1.31
  -7  -4 -15   24.85    0.98
   7   4 -15   23.44    1.19
   7   4 -15   23.77    1.22
  -4   7 -15   25.35    1.41
   1   8  15   36.41    1.56
  -8   1 -15   37.63    1.52
   1   8 -15   35.03    1.56
   8  -1 -15   34.55    1.70
  -1   8  15   25.32    1.27
  -1   8 -15   24.40    1.36
  -8  -1 -15   26.47    1.19
  -1   8 -15   25.47    1.45
   8   1 -15   27.31    1.43
   0   0  16  168.63    4.16
   0   0  16  164.27    3.75
   0   0 -16  169.44    3.68
   0   0 -16  167.10    3.78
  -1   1  16   10.38    0.72
   1   1  16   10.48    0.69
  -1  -1  16    9.06    0.69
  -1  -1  16    9.71    0.81
   1  -1  16    9.17    0.70
   1  -1  16   10.18    0.82
   1   1  16    9.29    0.77
  -1   1  16    8.98    0.73
   1   1 -16    7.98    0.67
  -1   1 -16   10.15    0.72
   1  -1 -16    8.33    0.59
  -1  -1 -16    9.85    0.62
  -1   1 -16    9.34    0.61
  -2   0  16  231.42    4.96
   0  -2  16  227.05    4.94
   2   0  16  228.20    4.81
  -2   0  16  231.82    5.23
   2   0  16  232.26    5.41
   0  -2  16  228.12    5.46
   0   2  16  230.58    4.77
   0   2  16  233.50    5.26
  -2   0 -16  229.79    4.80
   0  -2 -16  235.05    4.80
   0   2 -16  224.07    4.98
   2   0 -16  230.69    5.02
   2   2  16  192.94    4.02
   2   2  16  194.56    4.70
  -2   2  16  198.45    4.29
   2  -2  16  186.07    4.68
  -2   2  16  192.05    4.36
  -2  -2  16  181.82    4.23
   2  -2  16  183.21    4.25
  -2  -2 -16  185.62    4.03
  -2   2 -16  185.87    4.09
  -2   2 -16  182.97    4.23
   2   2 -16  189.47    4.37
   2  -2 -16  187.96    4.13
   1   3  16    0.28    0.17
   1   3  16   -0.02    0.18
   3  -1  16    0.53    0.25
   3  -1  16   -0.05    0.20
  -3   1  16   -0.11    0.17
  -3   1  16    0.25    0.21
  -1  -3  16    0.09    0.20
   3  -1 -16    0.36    0.24
  -1  -3 -16    0.19    0.16
   1   3 -16    0.16    0.21
  -3   1 -16    0.20    0.17
  -3  -1  16    0.22    0.21
   1  -3  16    0.50    0.26
   3   1  16    0.70    0.25
   1  -3  16    0.26    0.26
  -1   3  16    0.56    0.24
   3   1  16   -0.08    0.20
  -1   3  16    0.45    0.23
  -1   3 -16    0.19    0.23
   1  -3 -16    0.22    0.17
   3   1 -16    0.47    0.25
  -3  -1 -16    0.15    0.15
   3   3  16    4.09    0.66
   3  -3  16    4.62    0.70
   3  -3  16    4.38    0.62
  -3  -3  16    4.11    0.60
  -3   3  16    5.17    0.70
   3   3 -16    5.27    0.69
  -3  -3 -16    4.72    0.44
   2   4  16  118.72    3.42
  -2  -4  16  124.93    3.22
   4  -2  16  124.18    3.20
  -4   2  16  115.51    3.30
   4  -2  16  119.74    3.44
  -4   2 -16  119.33    3.04
   4  -2 -16  124.50    3.37
  -2  -4 -16  117.17    2.83
   2   4 -16  121.99    3.30
   4   0  16  161.16    3.68
  -4   0  16  160.36    3.92
   0  -4  16  159.75    3.90
   4   0  16  150.35    4.17
   0   4  16  164.13    4.01
   0   4  16  160.92    3.60
  -4   0  16  158.50    3.89
  -4   0 -16  158.37    3.67
   0  -4 -16  165.90    3.67
   0   4 -16  159.59    3.98
   4   0 -16  160.16    4.03
   4   2  16  135.68    3.87
   4   2  16  145.66    3.08
   2  -4  16  137.46    3.59
  -2   4  16  137.74    3.51
   2  -4  16  136.32    3.86
  -4  -2  16  143.49    3.55
   4   2 -16  138.53    3.64
  -2   4 -16  133.42    3.56
  -4  -2 -16  138.96    3.20
  -4   4  16  147.38    3.85
   4   4  16  148.19    4.12
   4  -4  16  143.58    3.79
   4   4 -16  139.93    3.73
  -4   4 -16  144.02    3.74
  -4  -4 -16  143.56    3.22
   5  -3  16    7.68    0.73
   3   5  16    8.91    0.84
  -5   3  16    8.00    0.91
   3   5 -16    6.39    0.77
   5  -3 -16    8.86    0.82
  -3  -5 -16    7.52    0.54
   1   5  16    0.49    0.28
   5  -1  16    0.57    0.33
  -5   1  16    1.03    0.37
   5  -1  16    1.44    0.37
  -1  -5 -16    0.75    0.24
   1   5 -16    0.44    0.28
   5  -1 -16    0.24    0.25
  -5   1 -16    1.62    0.37
   1  -5  16    0.41    0.27
   5   1  16    0.24    0.25
   5   1  16    0.13    0.18
  -5  -1  16    0.22    0.23
   1  -5 -16    0.54    0.23
  -5  -1 -16    0.63    0.24
   5   1 -16    0.30    0.25
  -1   5 -16    0.13    0.22
   3  -5  16    2.09    0.48
   5   3  16    2.46    0.55
   3  -5  16    2.09    0.48
  -3   5  16    2.22    0.48
  -3   5 -16    1.96    0.48
  -3   5 -16    2.41    0.52
   5   3 -16    2.40    0.43
   5   3 -16    1.95    0.46
  -5  -3 -16    2.25    0.36
   5   5  16    2.81    0.50
   5  -5  16    4.58    0.72
  -5   5  16    3.16    0.57
  -5  -5 -16    4.05    0.45
   5   5 -16    4.95    0.67
   4   6  16   70.15    2.24
   6  -4  16   69.38    2.45
  -6   4  16   68.57    2.45
   4   6 -16   64.34    2.23
  -4  -6 -16   71.23    1.87
  -6   2  16  113.80    3.37
   6  -2  16  113.56    3.16
   2   6 -16  114.76    3.23
   6  -2 -16  116.53    3.42
  -2  -6 -16  114.62    2.81
   6   0  16  116.71    3.43
  -6   0  16  117.90    3.26
   6   0  16  118.12    2.95
   6   0 -16  115.32    3.39
   0  -6 -16  117.78    2.99
   0   6 -16  117.61    3.33
  -6   0 -16  115.51    3.00
   6   2  16   86.12    2.94
   2  -6  16   90.14    2.79
   2  -6  16   89.14    2.91
  -2   6  16   92.89    2.62
   6   2 -16   89.79    2.80
  -6  -2 -16   82.03    2.32
  -2   6 -16   87.24    2.86
  -2   6 -16   89.30    2.83
   4  -6  16   76.29    2.63
  -4   6  16   79.72    2.55
  -4   6 -16   78.94    2.63
   6   4 -16   76.91    2.50
  -6  -4 -16   79.14    2.06
  -4   6 -16   79.35    2.66
  -7   3  16    0.76    0.36
   3   7  16    1.29    0.39
   7  -3  16    0.72    0.32
  -3  -7 -16    1.16    0.28
   3   7 -16    0.40    0.31
   3   7 -16    0.53    0.29
   7  -3 -16    0.72    0.37
   7  -1  16    1.10    0.35
  -7   1 -16    1.38    0.35
   1   7 -16    0.90    0.37
   7  -1 -16    0.72    0.36
   1   7 -16    1.11    0.38
   7   1  16    4.45    0.69
  -1   7 -16    3.68    0.64
  -7  -1 -16    5.62    0.53
   7   1 -16    4.63    0.70
  -1   7 -16    4.65    0.72
   3  -7  16    0.90    0.37
  -3   7  16    0.60    0.28
   7   3 -16    0.75    0.33
   7   3 -16    0.88    0.35
  -3   7 -16    0.66    0.36
  -7  -3 -16    0.90    0.27
  -3   7 -16    0.42    0.31
   1   0  17   33.78    1.37
   0   1  17   34.00    1.36
   0   1  17   34.39    1.54
   0  -1  17   31.70    1.54
  -1   0  17   32.37    1.39
  -1   0  17   33.68    1.53
   1   0  17   33.93    1.57
   0  -1  17   34.35    1.41
   0   1 -17   35.64    1.45
   0  -1 -17   33.73    1.28
  -1   0 -17   34.65    1.29
   1   0 -17   35.31    1.44
   1   2  17   70.39    2.40
  -2   1  17   70.24    2.23
  -1  -2  17   69.68    2.49
  -1  -2  17   70.82    2.23
   2  -1  17   71.08    2.48
  -2   1  17   70.51    2.27
   2  -1  17   72.59    2.20
   1   2  17   71.16    2.06
  -1  -2 -17   71.78    2.03
   1   2 -17   70.06    2.27
  -2   1 -17   73.27    2.10
   2  -1 -17   72.86    2.29
   2   1  17   73.49    2.13
  -1   2  17   74.26    2.23
  -2  -1  17   72.93    2.47
  -1   2  17   72.28    2.32
   1  -2  17   74.41    2.28
   1  -2  17   72.14    2.54
  -2  -1  17   74.61    2.31
   2   1  17   76.33    2.55
  -1   2 -17   73.47    2.29
   1  -2 -17   72.90    2.12
  -2  -1 -17   73.44    2.11
   2   1 -17   75.17    2.35
  -2  -3  17   24.07    1.24
   3  -2  17   24.73    1.23
   2   3  17   22.77    1.01
   2   3  17   23.36    1.32
   3  -2  17   23.62    1.36
  -2  -3 -17   24.51    1.05
   2   3 -17   23.96    1.28
  -3   2 -17   25.10    1.13
   3  -2 -17   23.33    1.25
  -3   0  17   71.52    2.33
   0  -3  17   79.19    2.39
   0  -3  17   75.46    2.67
   0   3  17   73.34    2.40
   3   0  17   77.36    2.62
  -3   0  17   76.48    2.41
   3   0  17   71.11    2.17
   0   3  17   80.09    2.21
   0   3 -17   75.29    2.39
   3   0 -17   71.64    2.41
   0  -3 -17   75.31    2.15
  -3   0 -17   72.14    2.14
  -3  -2  17   36.36    1.52
   3   2  17   35.87    1.28
   2  -3  17   33.61    1.66
   3   2  17   32.95    1.63
   2  -3  17   32.71    1.47
  -2   3  17   33.78    1.44
   2  -3 -17   31.42    1.31
   3   2 -17   31.00    1.49
  -3  -2 -17   32.24    1.26
  -2   3 -17   32.54    1.47
   4  -3  17   46.44    1.92
  -4   3  17   44.93    1.87
   3   4  17   43.18    1.93
   4  -3  17   45.48    1.82
  -3  -4 -17   44.67    1.47
   3   4 -17   43.55    1.84
  -1  -4  17   23.27    1.22
   4  -1  17   24.88    1.19
   4  -1  17   23.41    1.35
   1   4  17   25.10    1.05
   1   4  17   24.24    1.29
  -4   1  17   21.64    1.22
   4  -1 -17   22.85    1.28
  -1  -4 -17   23.15    1.05
  -4   1 -17   23.71    1.12
   1   4 -17   21.77    1.24
  -1   4  17   33.58    1.38
  -1   4  17   33.00    1.43
  -4  -1  17   35.27    1.57
   1  -4  17   33.50    1.71
  -4  -1  17   34.57    1.52
   1  -4  17   31.25    1.46
   4   1  17   32.93    1.65
   4   1  17   33.87    1.30
   4   1 -17   36.07    1.62
   1  -4 -17   34.03    1.36
  -1   4 -17   33.37    1.53
  -4  -1 -17   32.16    1.29
  -3   4  17   53.59    2.02
   3  -4  17   54.60    2.05
   4   3  17   55.47    2.25
   3  -4  17   52.80    2.11
  -4  -3 -17   53.63    1.68
  -3   4 -17   54.63    2.03
   4   3 -17   53.53    2.05
   5  -4  17   39.18    1.72
  -5   4  17   35.36    1.68
  -4  -5 -17   34.97    1.25
   4   5 -17   34.56    1.60
  -5   2  17   27.99    1.49
   5  -2  17   30.44    1.50
   5  -2  17   27.08    1.34
   2   5  17   29.20    1.51
   2   5 -17   25.53    1.38
  -2  -5 -17   28.29    1.15
   5  -2 -17   27.39    1.47
  -5   2 -17   30.32    1.32
   0   5  17   43.99    1.52
   0   5  17   46.20    1.78
   5   0  17   43.64    1.93
   0  -5  17   47.05    1.84
   5   0  17   45.63    1.63
  -5   0  17   44.85    1.83
   0  -5 -17   45.82    1.60
   0   5 -17   44.79    1.85
   5   0 -17   43.93    1.90
  -5   0 -17   46.08    1.64
   2  -5  17   21.70    1.24
   2  -5  17   21.65    1.34
   5   2  17   21.03    1.33
   5   2 -17   19.80    1.22
  -5  -2 -17   19.88    0.98
  -2   5 -17   19.76    1.21
   4  -5  17   42.88    1.85
   5   4  17   43.36    2.02
  -4   5  17   44.25    1.85
   5   4 -17   45.64    1.87
  -4   5 -17   44.48    1.84
  -5  -4 -17   45.41    1.47
   6  -3  17   18.92    1.16
  -6   3  17   19.35    1.24
   3   6 -17   20.26    1.19
   6  -3 -17   20.17    1.26
  -3  -6 -17   19.34    0.92
   6  -1  17   50.97    1.84
   6  -1  17   50.33    2.01
  -6   1  17   50.54    1.98
  -1  -6 -17   49.97    1.69
   1   6 -17   49.46    1.99
  -6   1 -17   52.83    1.84
   6  -1 -17   51.49    2.11
   1  -6  17   31.81    1.70
   6   1  17   33.32    1.67
   1  -6  17   31.62    1.53
  -1   6  17   30.19    1.26
   6   1 -17   29.07    1.55
  -6  -1 -17   32.30    1.33
  -1   6 -17   34.68    1.63
   3  -6  17   14.74    1.06
  -3   6  17   15.52    1.00
   6   3 -17   15.96    1.08
  -3   6 -17   15.62    1.10
  -3   6 -17   15.27    1.08
   6   3 -17   17.06    0.97
  -6  -3 -17   16.07    0.85
   7  -2  17   34.01    1.51
   2   7 -17   35.63    1.60
   2   7 -17   36.13    1.68
   7  -2 -17   35.29    1.72
  -7   2 -17   35.23    1.50
  -2  -7 -17   34.86    1.33
   7   0 -17   17.53    1.20
  -7   0 -17   17.51    0.99
   0   7 -17   17.25    1.14
   0   7 -17   17.79    1.19
  -2   7  17   34.63    1.35
   7   2 -17   34.29    1.48
   7   2 -17   36.80    1.68
  -2   7 -17   32.93    1.66
  -2   7 -17   34.36    1.66
  -7  -2 -17   33.39    1.34
   0   0  18    0.12    0.21
   0   0  18   -0.12    0.20
   0   0 -18    0.04    0.16
  -1  -1  18  148.81    3.73
   1   1  18  153.13    3.62
   1  -1  18  145.68    4.06
  -1  -1  18  153.63    4.09
  -1   1  18  153.09    3.97
   1   1  18  150.48    4.05
   1  -1  18  147.76    3.70
  -1   1  18  150.51    3.71
   1   1 -18  149.10    3.77
  -1  -1 -18  156.86    3.58
  -1   1 -18  154.37    3.54
   1  -1 -18  153.20    3.58
   2   0  18   -0.24    0.18
   0   2  18    0.67    0.32
   0   2  18    0.04    0.19
   2   0  18    0.26    0.21
   0  -2  18   -0.33    0.15
  -2   0  18    0.21    0.27
  -2   0  18    0.53    0.30
   0  -2  18    0.01    0.20
   0  -2 -18    0.08    0.16
   2   0 -18    0.06    0.21
  -2   0 -18   -0.04    0.15
   0   2 -18    0.80    0.32
   2  -2  18   -0.15    0.19
   2   2  18    0.14    0.19
  -2  -2  18   -0.14    0.18
  -2   2  18    0.28    0.24
  -2  -2  18    0.51    0.33
  -2   2  18    0.34    0.24
   2   2  18    1.29    0.41
   2  -2  18    0.02    0.20
   2   2 -18    0.16    0.25
  -2  -2 -18    0.16    0.17
  -3   1  18   96.48    2.85
  -1  -3  18   92.14    2.78
  -3   1  18   97.90    2.79
   1   3  18   94.32    2.51
  -1  -3  18   93.01    3.13
   3  -1  18   96.30    2.72
   3  -1  18   94.36    3.06
   1   3  18   93.52    2.95
  -3   1 -18   94.05    2.60
   3  -1 -18   94.02    2.87
  -1  -3 -18   94.37    2.54
   1   3 -18   93.41    2.85
  -3  -1  18  211.44    5.08
  -1   3  18  203.15    4.63
  -3  -1  18  210.08    4.84
   1  -3  18  200.35    5.24
   3   1  18  207.12    5.21
  -1   3  18  213.31    4.89
   3   1  18  211.70    4.51
   1  -3  18  194.46    4.72
  -1   3 -18  203.79    4.78
   3   1 -18  204.78    4.90
  -3  -1 -18  207.09    4.54
   1  -3 -18  206.60    4.58
   3   3  18  102.31    3.21
  -3   3  18   94.74    2.86
  -3  -3  18  101.84    2.95
   3  -3  18   97.91    3.18
   3  -3  18   98.11    2.92
   3   3 -18  101.61    3.05
  -3  -3 -18  102.06    2.61
   2   4  18    0.45    0.30
  -2  -4  18    0.80    0.34
   4  -2  18    1.06    0.41
  -4   2  18    0.42    0.30
   4  -2  18    0.16    0.23
   2   4 -18    0.04    0.22
  -4   2 -18    0.09    0.18
   4  -2 -18    0.19    0.25
  -4   0  18    0.02    0.24
   0   4  18    0.12    0.23
   0  -4  18   -0.10    0.19
   0  -4  18    0.11    0.27
   0   4  18    0.20    0.21
   4   0  18    0.16    0.21
   4   0  18    0.28    0.26
  -4   0 -18    0.37    0.22
   0  -4 -18    0.45    0.22
   0   4 -18    0.24    0.26
   4   0 -18    0.29    0.29
  -4  -2  18    0.28    0.27
  -2   4  18   -0.08    0.18
   2  -4  18    0.01    0.26
   2  -4  18   -0.13    0.18
   4   2  18    0.10    0.21
  -2   4 -18   -0.08    0.22
   4   2 -18    0.06    0.25
  -4  -2 -18   -0.03    0.15
   4  -4  18    0.03    0.23
   4   4  18    0.03    0.25
  -4   4  18    0.12    0.26
  -4  -4 -18    0.07    0.16
  -4   4 -18    0.23    0.28
   4   4 -18    0.12    0.26
   3   5  18   84.62    2.92
   5  -3  18   88.72    2.75
  -5   3  18   90.67    2.90
  -3  -5 -18   87.77    2.34
   3   5 -18   85.06    2.78
  -5   1  18  146.03    3.82
   5  -1  18  137.81    3.97
   5  -1  18  133.61    3.50
   1   5  18  137.67    3.79
   5  -1 -18  141.28    3.90
   1   5 -18  139.28    3.79
  -5   1 -18  139.07    3.50
  -1  -5 -18  144.71    3.42
   5   1  18   54.57    2.23
  -1   5  18   54.32    1.84
   1  -5  18   56.27    2.34
   5   1  18   54.13    1.70
  -5  -1  18   54.74    2.07
   1  -5  18   52.68    2.05
   5   1 -18   53.13    2.14
  -5  -1 -18   52.19    1.79
  -1   5 -18   60.10    2.20
   3  -5  18   93.14    2.96
   3  -5  18   96.35    3.07
   5   3  18   98.99    3.25
   5   3 -18   99.75    3.03
  -3   5 -18   94.32    2.99
  -5  -3 -18   97.00    2.54
   6  -2  18    0.06    0.23
  -2  -6 -18    0.16    0.20
  -6   2 -18    0.78    0.29
   6  -2 -18    0.29    0.28
   2   6 -18   -0.15    0.21
   6   0  18    0.41    0.25
   6   0  18    0.27    0.28
  -6   0  18    0.72    0.35
   0   6 -18    0.13    0.25
  -6   0 -18    0.46    0.24
   6   0 -18    0.23    0.28
  -2   6  18    0.35    0.25
   2  -6  18    0.27    0.27
   6   2  18   -0.02    0.21
   2  -6  18    0.48    0.34
  -2   6 -18    0.22    0.26
   6   2 -18    0.22    0.27
  -2   6 -18    0.08    0.27
   0  -1  19   28.06    1.37
   1   0  19   26.92    1.31
   0   1  19   28.25    1.46
  -1   0  19   27.09    1.43
   1   0  19   32.72    1.61
   0   1  19   28.39    1.32
  -1   0  19   28.80    1.38
   0  -1  19   27.87    1.50
   0  -1 -19   28.20    1.23
  -1   0 -19   28.55    1.24
  -1  -2  19   51.74    1.95
  -1  -2  19   47.89    2.08
   1   2  19   47.14    2.00
   2  -1  19   44.95    2.03
  -2   1  19   49.62    1.93
   1   2  19   50.65    1.76
  -2   1  19   49.26    1.90
   2  -1  19   49.84    1.86
  -2   1 -19   49.52    1.71
  -1  -2 -19   47.06    1.67
   1   2 -19   49.16    1.95
  -1   2  19   61.37    2.20
  -2  -1  19   62.73    2.32
   2   1  19   59.76    2.33
   1  -2  19   59.61    2.12
   2   1  19   61.42    1.99
  -1   2  19   60.22    2.08
  -2  -1  19   61.99    2.18
   1  -2  19   58.83    2.36
  -2  -1 -19   60.64    1.94
   1  -2 -19   59.62    1.96
   2   1 -19   61.44    2.21
   3  -2  19   15.59    1.02
  -3   2  19   16.29    1.08
  -2  -3  19   15.91    1.20
   2   3  19   16.40    1.15
   3  -2  19   13.52    1.08
   2   3  19   15.10    0.85
  -2  -3  19   16.10    1.07
   2   3 -19   17.00    1.14
  -2  -3 -19   15.13    0.87
   0   3  19   53.23    2.06
   0   3  19   55.23    1.87
   3   0  19   54.12    1.88
  -3   0  19   52.39    2.00
   0  -3  19   50.35    2.22
   0  -3  19   51.87    1.99
  -3   0  19   54.57    2.05
   3   0  19   52.20    2.19
  -3   0 -19   52.58    1.82
   0  -3 -19   54.77    1.84
   0   3 -19   51.85    2.02
   3   0 -19   52.95    2.07
   2  -3  19   31.81    1.66
  -3  -2  19   31.05    1.50
   3   2  19   31.03    1.64
  -3  -2  19   30.31    1.61
   3   2  19   32.45    1.27
  -2   3  19   31.24    1.46
   2  -3  19   30.73    1.49
  -3  -2 -19   29.60    1.27
   3   2 -19   29.25    1.51
   4  -3  19   29.78    1.50
   4  -3  19   31.30    1.64
   3   4  19   31.60    1.67
  -4   3  19   34.65    1.59
   3   4 -19   32.55    1.61
  -3  -4 -19   33.15    1.30
  -1  -4  19   17.93    1.32
   4  -1  19   21.27    1.15
   1   4  19   20.36    1.23
   4  -1  19   20.04    1.30
  -4   1  19   19.43    1.20
  -1  -4  19   17.90    1.15
   1   4  19   20.81    1.00
   4  -1 -19   21.22    1.30
  -1  -4 -19   19.93    1.03
  -4   1 -19   19.97    1.07
   1   4 -19   19.41    1.22
   4   1  19   28.30    1.57
   4   1  19   25.28    1.15
   1  -4  19   24.60    1.35
  -4  -1  19   29.11    1.46
  -1   4  19   25.79    1.25
   1  -4  19   23.26    1.48
  -4  -1  19   24.81    1.37
   4   1 -19   27.93    1.49
   1  -4 -19   25.33    1.21
  -1   4 -19   28.75    1.46
  -4  -1 -19   26.05    1.21
   3  -4  19   41.96    1.84
   4   3  19   44.60    2.05
   3  -4  19   45.05    2.01
  -3   4  19   44.91    1.81
   4   3 -19   47.57    1.98
  -4  -3 -19   46.57    1.59
   2   5  19   27.58    1.49
  -5   2  19   25.70    1.41
   5  -2  19   26.50    1.34
   5  -2  19   27.33    1.49
   2   5 -19   24.50    1.39
   5  -2 -19   28.29    1.51
  -2  -5 -19   26.24    1.17
   0   5  19   39.83    1.44
   5   0  19   36.92    1.47
   0  -5  19   36.29    1.66
  -5   0  19   35.93    1.68
   5   0  19   37.99    1.83
   0  -5  19   36.49    1.92
   0  -5 -19   36.34    1.47
   0   5 -19   34.47    1.67
  -5   0 -19   36.68    1.49
   5   0 -19   37.72    1.79
   2  -5  19   14.73    1.12
  -5  -2  19   13.71    1.04
   5   2  19   12.83    1.08
  -2   5  19   12.31    0.87
   2  -5  19   12.29    0.97
  -2   5 -19   13.27    1.01
   5   2 -19   12.23    1.00
  -5  -2 -19   13.70    0.84
   6  -1  19   40.41    1.83
   6  -1  19   43.37    1.67
  -6   1  19   44.63    1.89
   1   6 -19   42.23    1.85
   6  -1 -19   44.08    1.95
  -1  -6 -19   42.84    1.58
   6   1  19   20.70    1.33
  -1   6  19   21.25    1.03
   1  -6  19   21.78    1.40
   6   1 -19   21.56    1.33
  -1   6 -19   20.82    1.28
  -6  -1 -19   20.99    1.07
  -1   6 -19   21.00    1.31
   0   0  20   78.22    2.48
   0   0  20   74.45    2.68
  -1  -1  20    3.54    0.61
   1  -1  20    3.34    0.65
   1  -1  20    2.74    0.51
   1   1  20    3.58    0.57
   1   1  20    3.30    0.64
  -1   1  20    3.43    0.60
  -1  -1  20    3.94    0.68
  -1   1  20    4.54    0.66
   1   1 -20    3.57    0.62
  -1  -1 -20    4.04    0.54
  -2   0  20  129.46    3.56
   0   2  20  132.14    3.41
   0   2  20  132.54    3.72
   2   0  20  123.81    3.83
  -2   0  20  134.05    3.72
   0  -2  20  126.24    3.52
   2   0  20  132.72    3.44
   0   2 -20  131.84    3.57
  -2   0 -20  130.69    3.32
   2   0 -20  131.83    3.60
   0  -2 -20  133.59    3.35
  -2   2  20   96.73    2.93
  -2  -2  20  101.87    3.26
  -2  -2  20   98.38    3.00
   2   2  20   94.74    3.17
   2   2  20  104.71    2.73
   2  -2  20  100.44    3.32
  -2   2  20  102.23    2.98
   2  -2  20   94.17    2.89
  -2  -2 -20   94.43    2.68
   2   2 -20   98.95    3.06
   3  -1  20    0.26    0.24
  -1  -3  20    0.90    0.36
  -1  -3  20   -0.02    0.27
   3  -1  20    1.52    0.49
  -3   1  20    0.72    0.35
   1   3  20    0.58    0.32
   1   3  20    0.05    0.20
  -1  -3 -20   -0.10    0.15
  -3   1 -20    0.04    0.18
   1   3 -20    0.43    0.30
   3   1  20    0.09    0.25
  -3  -1  20    0.52    0.31
   1  -3  20    0.10    0.28
  -1   3  20    1.04    0.36
   3   1  20    0.13    0.20
  -1   3  20    0.20    0.24
   1  -3  20   -0.08    0.20
  -3  -1  20   -0.09    0.20
  -3  -1 -20    0.58    0.25
   1  -3 -20    0.22    0.22
   3   1 -20    0.22    0.29
  -1   3 -20    0.62    0.32
   3   3  20    2.23    0.55
  -3  -3  20    2.49    0.60
   3  -3  20    2.37    0.57
   3  -3  20    1.90    0.46
  -3  -3  20    3.43    0.63
  -3   3  20    2.59    0.55
   3   3 -20    2.21    0.53
  -3  -3 -20    2.03    0.39
   4  -2  20   66.28    2.55
  -4   2  20   67.27    2.41
   2   4  20   67.22    2.51
   4  -2  20   68.13    2.32
  -2  -4  20   68.88    2.71
  -2  -4 -20   69.32    2.10
   2   4 -20   65.78    2.43
   0  -4  20   90.42    2.82
   4   0  20   91.90    3.11
   0   4  20   88.49    2.79
   0  -4  20   88.11    3.15
   0   4  20   92.30    2.55
  -4   0  20   89.26    2.85
   4   0  20   89.48    2.58
   0   4 -20   87.71    2.84
   0  -4 -20   88.35    2.55
  -4   0 -20   88.24    2.58
   4   0 -20   84.73    2.88
   2  -4  20   69.28    2.65
  -4  -2  20   67.64    2.42
  -2   4  20   69.90    2.33
   2  -4  20   71.21    2.46
  -4  -2  20   72.05    2.57
   4   2  20   72.76    2.69
  -4  -2 -20   72.42    2.17
   4   2 -20   70.82    2.55
  -2   4 -20   71.06    2.46
   5  -1  20    0.27    0.31
   1   5  20    0.99    0.39
  -1  -5  20    0.45    0.36
   5  -1  20    0.33    0.26
  -5   1  20    0.55    0.37
  -1  -5 -20    0.52    0.26
   5  -1 -20    0.21    0.32
   1   5 -20    0.27    0.30
  -5   1 -20    0.47    0.27
   5   1  20    0.25    0.29
   1  -5  20    0.25    0.27
  -1   5  20    0.26    0.23
   1  -5  20    0.30    0.33
  -5  -1  20    0.50    0.33
  -5  -1 -20    0.05    0.20
   5   1 -20    0.27    0.29
  -1   5 -20    0.16    0.29
   1   0  21   39.20    1.66
   1   0  21   39.30    1.87
  -1   0  21   36.32    1.67
   0  -1  21   39.56    1.90
   0  -1  21   36.88    1.67
  -1   0  21   36.70    1.77
   0   1  21   38.64    1.82
   0   1  21   36.44    1.62
   2  -1  21   11.11    0.87
  -1  -2  21   12.19    1.06
  -2   1  21   11.80    0.94
   1   2  21   12.07    1.01
  -1  -2  21   11.88    0.95
   1   2  21   12.02    0.86
   2  -1  21   14.02    1.12
  -2   1  21   12.18    0.96
   1   2 -21   12.00    0.97
  -1  -2 -21   11.92    0.82
   1  -2  21   36.67    1.88
  -2  -1  21   37.49    1.72
  -1   2  21   37.50    1.64
   2   1  21   36.87    1.85
  -2  -1  21   39.94    1.84
  -1   2  21   38.52    1.72
   2   1  21   40.00    1.61
   1  -2  21   34.97    1.64
   2   1 -21   38.52    1.76
  -2  -1 -21   37.78    1.52
   3  -2  21   21.54    1.41
   3  -2  21   21.99    1.24
   2   3  21   22.32    1.37
  -2  -3  21   21.14    1.40
  -3   2  21   20.62    1.25
   2   3  21   21.23    1.04
  -2  -3  21   22.13    1.30
   2   3 -21   22.96    1.36
  -2  -3 -21   21.24    1.10
  -3   0  21   22.82    1.34
   0   3  21   23.34    1.21
   3   0  21   23.05    1.46
   0   3  21   24.69    1.38
   0  -3  21   21.64    1.45
  -3   0  21   23.51    1.32
   3   0  21   23.63    1.23
   0  -3  21   25.61    1.40
   0  -3 -21   26.08    1.24
   0   3 -21   24.31    1.36
  -3   0 -21   24.17    1.19
   3   0 -21   24.65    1.42
  -3  -2  21   45.69    2.00
   2  -3  21   42.76    1.84
   2  -3  21   41.89    2.04
   3   2  21   44.29    1.57
  -2   3  21   42.94    1.79
  -3  -2  21   43.70    1.88
   3   2  21   41.45    1.98
   3   2 -21   45.42    1.97
  -3  -2 -21   43.80    1.63
   4  -1  21   33.43    1.52
  -1  -4  21   35.14    1.86
   4  -1  21   34.87    1.78
  -4   1  21   33.73    1.65
  -1  -4  21   32.71    1.60
   1   4  21   35.72    1.70
  -1  -4 -21   36.11    1.46
   4  -1 -21   36.50    1.74
   1   4 -21   34.75    1.67
  -4  -1  21   28.13    1.44
   1  -4  21   24.23    1.37
  -4  -1  21   24.11    1.39
  -1   4  21   24.92    1.26
   4   1  21   24.50    1.16
   4   1  21   24.23    1.49
   1  -4  21   26.73    1.59
  -1   4 -21   28.14    1.47
   4   1 -21   26.94    1.50
  -4  -1 -21   28.54    1.27
   0   0  22   -0.03    0.23
   0   0  22    0.21    0.28
   1  -1  22   82.64    2.68
  -1   1  22   84.36    2.71
   1   1  22   82.69    2.58
  -1  -1  22   83.28    2.77
   1  -1  22   83.54    2.98
  -1   1  22   83.05    2.82
   1   1  22   83.04    2.90
   0   2  22    1.48    0.44
   0  -2  22    1.35    0.42
   0   2  22    1.16    0.37
   2   0  22    2.13    0.57
   2   0  22    2.18    0.47
  -2   0  22    1.26    0.43
  -2   0  22    1.50    0.46
   0  -2  22    2.26    0.57
   2   2  22    2.04    0.54
  -2   2  22    0.19    0.26
  -2  -2  22   -0.10    0.26
   2   2  22    0.04    0.21
   2  -2  22    0.04    0.23
   2  -2  22    0.23    0.31
  -2  -2  22    0.98    0.42
   2   2 -22    0.59    0.35
  -2  -2 -22    0.24    0.24
  -3   1  22   78.79    2.68
   1   3  22   81.16    2.37
   1   3  22   78.14    2.75
  -1  -3  22   79.23    2.94
   3  -1  22   81.39    2.56
  -1  -3  22   79.81    2.68
   1   3 -22   80.68    2.73
   1  -3  22   54.71    2.15
   3   1  22   58.78    1.96
   3   1  22   54.76    2.35
   1  -3  22   54.98    2.39
  -1   3  22   57.29    2.06
  -3  -1  22   62.11    2.29
   3   1 -22   53.05    2.20
  -3  -1 -22   57.39    1.96
  -1   0  23   26.37    1.48
  -1   0  23   25.39    1.42
   1   0  23   24.38    1.50
   1   0  23   24.21    1.33
   0  -1  23   25.27    1.38
   0  -1  23   23.98    1.48
   0   1  23   26.06    1.48
   0   1  23   23.79    1.33
   1   2  23   32.71    1.44
   2  -1  23   31.58    1.52
   2  -1  23   32.03    1.75
  -2   1  23   30.44    1.56
  -1  -2  23   31.73    1.72
  -1  -2  23   32.44    1.60
  -2   1  23   30.76    1.55
   1   2  23   34.08    1.72
  -1  -2 -23   30.77    1.39
  -1   2  23   10.41    0.89
   2   1  23   11.01    0.84
  -1   2  23   10.01    0.86
   1  -2  23    9.82    0.97
  -2  -1  23   12.90    1.03
  -2  -1  23   10.66    0.95
   1  -2  23   10.75    0.90
   0   0   0    0.00    0.00
;
_shelx_hkl_checksum              45403
_shelx_res_file
;
TITL NT_LT_0m in I4(1)/a
CELL 0.71073 5.2945 5.2945 11.7470 90.000 90.000 90.000
ZERR 4.00 0.0002 0.0002 0.0005 0.000 0.000 0.000
LATT 2
SYMM -y+1/4, x+3/4, z+3/4
SYMM y+1/4, -x+1/4, z+1/4
SYMM -x, -y+1/2, z
SFAC O NA TC
UNIT 16 4 4
TEMP -173
SIZE 0.34 0.28 0.20
ACTA
L.S. 8
FMAP 2
PLAN 20
SHEL 5 0.5
OMIT -2 90
OMIT     1   2   3
OMIT     0   1   5
OMIT    -1   2   1
OMIT     1   1   4
OMIT     2   4  10
OMIT    -1   3  12
WGHT    0.002900    0.076900
EXTI    0.048863
FVAR       0.23941
TC1   3    0.500000    0.750000    0.125000    10.25000    0.00489    0.00489 =
         0.00574    0.00000    0.00000    0.00000
NA1   2    0.000000    0.250000    0.125000    10.25000    0.00988    0.00988 =
         0.00965    0.00000    0.00000    0.00000
O1    1    0.735651    0.620810    0.042615    11.00000    0.00795    0.00901 =
         0.00942   -0.00104    0.00202    0.00054
HKLF 4
REM  NT_LT_0m in I4(1)/a
REM R1 =  0.0092 for     661 Fo > 4sig(Fo)  and  0.0098 for all     678 data
REM     15 parameters refined using      0 restraints
END
WGHT      0.0029      0.0769
REM Highest difference peak  0.261,  deepest hole -0.337,  1-sigma level  0.075
Q1    1   0.7800  0.3802  0.0415  11.00000  0.05    0.26
Q2    1   0.6811  0.6783  0.0900  11.00000  0.05    0.23
Q3    1   0.5000  0.7500  0.0650  10.50000  0.05    0.21
Q4    1   0.5147  0.5207  0.0286  11.00000  0.05    0.20
Q5    1   0.7530  0.7794 -0.0127  11.00000  0.05    0.20
Q6    1   0.6866  0.7584  0.0463  11.00000  0.05    0.19
Q7    1  -0.2272  0.2733  0.1257  11.00000  0.05    0.18
Q8    1   0.0228  0.5554  0.1117  11.00000  0.05    0.18
Q9    1   0.7814  0.7903  0.0366  11.00000  0.05    0.18
Q10   1   0.9619  0.4510  0.0078  11.00000  0.05    0.17
Q11   1   0.7411  0.7168 -0.0559  11.00000  0.05    0.17
Q12   1   1.0656  0.5832  0.0476  11.00000  0.05    0.17
Q13   1   0.8199  0.7551 -0.0392  11.00000  0.05    0.17
Q14   1   0.5749  0.6439  0.0513  11.00000  0.05    0.17
Q15   1   0.8789  0.7837  0.0388  11.00000  0.05    0.17
Q16   1   1.0182  0.5012  0.0372  11.00000  0.05    0.16
Q17   1   0.2132  0.3252  0.1014  11.00000  0.05    0.16
Q18   1   0.6390  0.5588 -0.0353  11.00000  0.05    0.15
Q19   1   0.8192  0.7034 -0.0009  11.00000  0.05    0.15
Q20   1   0.5276  0.5639 -0.0361  11.00000  0.05    0.15
;
loop_
_space_group_symop_operation_xyz
'x, y, z'
'-y+1/4, x+3/4, z+3/4'
'y+1/4, -x+1/4, z+1/4'
'-x, -y+1/2, z'
'x+1/2, y+1/2, z+1/2'
'-y+3/4, x+5/4, z+5/4'
'y+3/4, -x+3/4, z+3/4'
'-x+1/2, -y+1, z+1/2'
'-x, -y, -z'
'y-1/4, -x-3/4, -z-3/4'
'-y-1/4, x-1/4, -z-1/4'
'x, y-1/2, -z'
'-x+1/2, -y+1/2, -z+1/2'
'y+1/4, -x-1/4, -z-1/4'
'-y+1/4, x+1/4, -z+1/4'
'x+1/2, y, -z+1/2'
loop_
_atom_site_type_symbol
_atom_site_label
_atom_site_fract_x
_atom_site_fract_y
_atom_site_fract_z
_atom_site_U_iso_or_equiv
_atom_site_adp_type
_atom_site_calc_flag
_atom_site_occupancy
Tc Tc1 0.5000 0.7500 0.1250 0.00517(2) Uani d 1
Na Na1 0.0000 0.2500 0.1250 0.00980(7) Uani d 1
O O1 0.73565(6) 0.62081(7) 0.04262(3) 0.00879(5) Uani d 1
loop_
_atom_site_aniso_label
_atom_site_aniso_U_11
_atom_site_aniso_U_22
_atom_site_aniso_U_33
_atom_site_aniso_U_12
_atom_site_aniso_U_13
_atom_site_aniso_U_23
Tc1 0.00489(2) 0.00489(2) 0.00574(3) 0.000 0.000 0.000
Na1 0.00988(10) 0.00988(10) 0.00965(16) 0.000 0.000 0.000
O1 0.00795(11) 0.00901(11) 0.00942(11) 0.00054(9) 0.00202(10) -0.00104(10)
loop_
_atom_type_symbol
_atom_type_description
_atom_type_scat_dispersion_real
_atom_type_scat_dispersion_imag
_atom_type_scat_source
O O 0.0106 0.0060 'International Tables Vol C Tables 4.2.6.8 and 6.1.1.4'
Na Na 0.0362 0.0249 'International Tables Vol C Tables 4.2.6.8 and 6.1.1.4'
Tc Tc -1.4390 0.7593 'International Tables Vol C Tables 4.2.6.8 and 6.1.1.4'
loop_
_geom_angle_atom_site_label_1
_geom_angle_atom_site_label_2
_geom_angle_atom_site_label_3
_geom_angle_site_symmetry_1
_geom_angle_site_symmetry_3
_geom_angle
_geom_angle_publ_flag
O1 Tc1 O1 15_655 4_665 108.439(12) ?
O1 Tc1 O1 15_655 10_576 111.56(3) ?
O1 Tc1 O1 4_665 10_576 108.439(12) ?
O1 Tc1 O1 15_655 . 108.439(12) y
O1 Tc1 O1 4_665 . 111.56(3) y
O1 Tc1 O1 10_576 . 108.439(12) ?
O1 Na1 O1 12_455 3_465 127.954(10) ?
O1 Na1 O1 12_455 6_534 127.954(10) ?
O1 Na1 O1 3_465 6_534 76.700(17) ?
O1 Na1 O1 12_455 9_665 76.700(17) ?
O1 Na1 O1 3_465 9_665 127.954(10) ?
O1 Na1 O1 6_534 9_665 127.954(10) ?
O1 Na1 O1 12_455 10_576 149.332(14) ?
O1 Na1 O1 3_465 10_576 67.259(8) ?
O1 Na1 O1 6_534 10_576 78.599(12) ?
O1 Na1 O1 9_665 10_576 73.985(7) ?
O1 Na1 O1 12_455 15_545 73.985(7) ?
O1 Na1 O1 3_465 15_545 78.599(12) ?
O1 Na1 O1 6_534 15_545 67.259(8) ?
O1 Na1 O1 9_665 15_545 149.332(14) ?
O1 Na1 O1 10_576 15_545 136.261(16) ?
O1 Na1 O1 12_455 4_655 78.599(12) ?
O1 Na1 O1 3_465 4_655 149.332(14) ?
O1 Na1 O1 6_534 4_655 73.985(7) ?
O1 Na1 O1 9_665 4_655 67.259(8) ?
O1 Na1 O1 10_576 4_655 97.976(6) ?
O1 Na1 O1 15_545 4_655 97.976(6) ?
O1 Na1 O1 12_455 1_455 67.259(8) ?
O1 Na1 O1 3_465 1_455 73.985(7) ?
O1 Na1 O1 6_534 1_455 149.332(14) ?
O1 Na1 O1 9_665 1_455 78.599(12) ?
O1 Na1 O1 10_576 1_455 97.976(6) ?
O1 Na1 O1 15_545 1_455 97.976(6) ?
O1 Na1 O1 4_655 1_455 136.261(16) ?
O1 Na1 Na1 12_455 9 40.101(8) ?
O1 Na1 Na1 3_465 9 162.891(8) ?
O1 Na1 Na1 6_534 9 102.079(9) ?
O1 Na1 Na1 9_665 9 66.415(8) ?
O1 Na1 Na1 10_576 9 129.596(8) ?
O1 Na1 Na1 15_545 9 85.180(8) ?
O1 Na1 Na1 4_655 9 38.498(8) ?
O1 Na1 Na1 1_455 9 103.255(8) ?
O1 Na1 Na1 12_455 13 162.891(8) ?
O1 Na1 Na1 3_465 13 66.415(8) ?
O1 Na1 Na1 6_534 13 40.101(8) ?
O1 Na1 Na1 9_665 13 102.079(9) ?
O1 Na1 Na1 10_576 13 38.498(8) ?
O1 Na1 Na1 15_545 13 103.255(8) ?
O1 Na1 Na1 4_655 13 85.180(8) ?
O1 Na1 Na1 1_455 13 129.596(8) ?
Na1 Na1 Na1 9 13 123.484(2) ?
O1 Na1 Na1 12_455 9_565 66.415(8) ?
O1 Na1 Na1 3_465 9_565 102.079(9) ?
O1 Na1 Na1 6_534 9_565 162.891(8) ?
O1 Na1 Na1 9_665 9_565 40.101(8) ?
O1 Na1 Na1 10_576 9_565 85.180(8) ?
O1 Na1 Na1 15_545 9_565 129.596(8) ?
O1 Na1 Na1 4_655 9_565 103.255(8) ?
O1 Na1 Na1 1_455 9_565 38.498(8) ?
Na1 Na1 Na1 9 9_565 84.064(3) ?
Na1 Na1 Na1 13 9_565 123.484(2) ?
O1 Na1 Na1 12_455 13_455 102.079(9) ?
O1 Na1 Na1 3_465 13_455 40.101(8) ?
O1 Na1 Na1 6_534 13_455 66.415(8) ?
O1 Na1 Na1 9_665 13_455 162.891(8) ?
O1 Na1 Na1 10_576 13_455 103.255(8) ?
O1 Na1 Na1 15_545 13_455 38.498(8) ?
O1 Na1 Na1 4_655 13_455 129.596(8) ?
O1 Na1 Na1 1_455 13_455 85.180(8) ?
Na1 Na1 Na1 9 13_455 123.484(2) ?
Na1 Na1 Na1 13 13_455 84.064(4) ?
Na1 Na1 Na1 9_565 13_455 123.484(2) ?
Tc1 O1 Na1 . 9_665 137.472(19) ?
Tc1 O1 Na1 . 1_655 118.781(18) ?
Na1 O1 Na1 9_665 1_655 101.402(12) ?
loop_
_geom_bond_atom_site_label_1
_geom_bond_atom_site_label_2
_geom_bond_site_symmetry_2
_geom_bond_distance
_geom_bond_publ_flag
Tc1 O1 15_655 1.7208(3) ?
Tc1 O1 4_665 1.7208(3) ?
Tc1 O1 10_576 1.7208(3) ?
Tc1 O1 . 1.7208(3) y
Na1 O1 12_455 2.5107(4) ?
Na1 O1 3_465 2.5107(4) ?
Na1 O1 6_534 2.5107(4) ?
Na1 O1 9_665 2.5107(4) y
Na1 O1 10_576 2.5980(4) ?
Na1 O1 15_545 2.5980(4) ?
Na1 O1 4_655 2.5980(4) ?
Na1 O1 1_455 2.5980(4) y
Na1 Na1 9 3.95379(12) ?
Na1 Na1 13 3.95379(12) ?
Na1 Na1 9_565 3.95379(12) ?
Na1 Na1 13_455 3.95379(12) ?
O1 Na1 9_665 2.5107(4) ?
O1 Na1 1_655 2.5980(4) ?

_cod_database_fobs_code 2242256
