#------------------------------------------------------------------------------
#$Date: 2019-06-26 07:19:52 +0300 (Wed, 26 Jun 2019) $
#$Revision: 216560 $
#$URL: file:///home/coder/svn-repositories/cod/cif/2/24/29/2242994.cif $
#------------------------------------------------------------------------------
#
# This file is available in the Crystallography Open Database (COD),
# http://www.crystallography.net/. The original data for this entry
# were provided by IUCr Journals, http://journals.iucr.org/.
#
# The file may be used within the scientific community so long as
# proper attribution is given to the journal article from which the
# data were obtained.
#
data_2242994
loop_
_publ_author_name
'Merkelbach, Johannes'
'Frank, Walter'
_publ_section_title
;
 Synthesis, detailed geometric analysis and bond-valence method evaluation
 of the strength of \p-arene bonding of two isotypic cationic prehnitene
 tin(II) complexes:
 [{1,2,3,4-(CH~3~)~4~C~6~H~2~}~2~Sn~2~Cl~2~][<i>M</i>Cl~4~]~2~ (<i>M</i> =
 Al and Ga)
;
_journal_coeditor_code           WM5510
_journal_issue                   7
_journal_name_full               'Acta Crystallographica Section E'
_journal_page_first              1051
_journal_page_last               1056
_journal_paper_doi               10.1107/S2056989019008508
_journal_volume                  75
_journal_year                    2019
_chemical_formula_iupac          '[Ga2 Sn2 Cl10 (C10 H14)2]'
_chemical_formula_moiety         '2(C10 H14), Sn2 Cl2 2+, 2(Ga Cl4 -)'
_chemical_formula_sum            'C20 H28 Cl10 Ga2 Sn2'
_chemical_formula_weight         999.78
_chemical_name_systematic
<i>catena</i>-Poly[[chloridogallate(III)]-tri-\m-chlorido-4':1\k^2^<i>Cl</i>,1:2\k^4^<i>Cl</i>-[(\h^6^-1,2,3,4-tetramethylbenzene)tin(II)]-di-\m-chlorido-2:3\k^4^<i>Cl</i>-[(\h^6^-1,2,3,4-tetramethylbenzene)tin(II)]-di-\m-chlorido-3:4\k^4^<i>Cl</i>-[chloridogallate(III)]-\m-chlorido-4:1'\k^2^<i>Cl</i>]
_space_group_crystal_system      triclinic
_space_group_IT_number           2
_space_group_name_Hall           '-P 1'
_space_group_name_H-M_alt        'P -1'
_symmetry_space_group_name_Hall  '-P 1'
_symmetry_space_group_name_H-M   'P -1'
_atom_sites_solution_hydrogens   geom
_atom_sites_solution_primary     direct
_audit_creation_method           SHELXL-2018/3
_cell_angle_alpha                85.424(3)
_cell_angle_beta                 72.805(3)
_cell_angle_gamma                86.886(4)
_cell_formula_units_Z            1
_cell_length_a                   8.7572(4)
_cell_length_b                   9.1310(4)
_cell_length_c                   11.2966(5)
_cell_measurement_reflns_used    21911
_cell_measurement_temperature    213(2)
_cell_measurement_theta_max      59.31
_cell_measurement_theta_min      4.48
_cell_volume                     859.73(7)
_computing_cell_refinement
;
X-Area (Stoe & Cie, 2009)
;
_computing_data_collection
;
X-Area (Stoe & Cie, 2009)
;
_computing_data_reduction
;
X-Area (Stoe & Cie, 2009)
;
_computing_molecular_graphics
;
DIAMOND (Brandenburg, 2018)
;
_computing_publication_material
;
publCIF (Westrip, 2010)
;
_computing_structure_refinement
;
SHELXL-2018/3 (Sheldrick, 2015b)
;
_computing_structure_solution
;
SHELXT 2014/5 (Sheldrick, 2015a)
;
_diffrn_ambient_temperature      213(2)
_diffrn_measured_fraction_theta_full 0.999
_diffrn_measured_fraction_theta_max 0.996
_diffrn_measurement_device_type  'Stoe IPDS 2'
_diffrn_measurement_method       \w
_diffrn_radiation_type           MoK\a
_diffrn_radiation_wavelength     0.71073
_diffrn_reflns_av_R_equivalents  0.0483
_diffrn_reflns_av_unetI/netI     0.0296
_diffrn_reflns_limit_h_max       11
_diffrn_reflns_limit_h_min       -11
_diffrn_reflns_limit_k_max       11
_diffrn_reflns_limit_k_min       -12
_diffrn_reflns_limit_l_max       15
_diffrn_reflns_limit_l_min       -15
_diffrn_reflns_number            17522
_diffrn_reflns_theta_full        25.242
_diffrn_reflns_theta_max         29.165
_diffrn_reflns_theta_min         2.239
_exptl_absorpt_coefficient_mu    3.774
_exptl_absorpt_correction_T_max  0.65574
_exptl_absorpt_correction_T_min  0.37624
_exptl_absorpt_correction_type   multi-scan
_exptl_absorpt_process_details
;
(Blessing, 1995)
;
_exptl_crystal_colour            colourless
_exptl_crystal_density_diffrn    1.931
_exptl_crystal_description       needle
_exptl_crystal_F_000             480
_exptl_crystal_size_max          0.610
_exptl_crystal_size_mid          0.130
_exptl_crystal_size_min          0.030
_refine_diff_density_max         0.712
_refine_diff_density_min         -0.502
_refine_ls_extinction_method     none
_refine_ls_goodness_of_fit_ref   1.224
_refine_ls_hydrogen_treatment    constr
_refine_ls_matrix_type           full
_refine_ls_number_parameters     158
_refine_ls_number_reflns         4638
_refine_ls_number_restraints     0
_refine_ls_restrained_S_all      1.224
_refine_ls_R_factor_all          0.0393
_refine_ls_R_factor_gt           0.0333
_refine_ls_shift/su_max          0.001
_refine_ls_shift/su_mean         0.000
_refine_ls_structure_factor_coef Fsqd
_refine_ls_weighting_details
'w=1/[\s^2^(Fo^2^)+(0.0176P)^2^+0.9105P] where P=(Fo^2^+2Fc^2^)/3'
_refine_ls_weighting_scheme      calc
_refine_ls_wR_factor_gt          0.0666
_refine_ls_wR_factor_ref         0.0685
_reflns_number_gt                4242
_reflns_number_total             4638
_reflns_threshold_expression     'I > 2\s(I)'
_cod_data_source_file            wm5510sup1.cif
_cod_data_source_block           II
_cod_database_code               2242994
_shelx_space_group_comment
;
The symmetry employed for this shelxl refinement is uniquely defined
by the following loop, which should always be used as a source of
symmetry information in preference to the above space-group names.
They are only intended as comments.
;
_shelx_estimated_absorpt_t_min   0.207
_shelx_estimated_absorpt_t_max   0.895
_shelx_hkl_file
;
  11   2  -1   30.78    5.91
 -11  -2   1   14.80    3.93
 -11  -2   1   22.58    4.10
  11   2  -1    7.11    4.04
  11   1  -1   40.25    5.71
 -11  -1   1   60.63    4.42
 -11  -1   1   27.10    3.98
  11   1  -1   45.58    4.79
 -11   0   1    5.10    3.57
  11   0  -1   -3.17    4.91
  11   0  -1    3.64    3.19
 -11   0   1   -4.20    3.85
  11  -1   0    6.98    5.40
  11  -1   0   22.81    4.14
 -11   1   0   16.34    3.87
 -11   1   0   34.64    5.30
 -11   1   1  188.42    5.84
  11  -1  -1  237.44    4.70
 -11   1   1  218.59    5.02
  11  -1  -1  290.20    6.40
  11  -2   0    9.22    4.05
 -11   2   0   22.05    5.13
  11  -2   0   40.09    4.65
 -11   2   0   19.56    3.76
  11  -2  -1   14.34    3.44
  11  -2  -1   10.52    3.91
  11  -3   0    9.99    4.26
  11  -3   0    7.79    3.56
 -11   3   0    6.56    3.56
 -11   3   0    9.56    5.23
 -10  -5   1  335.49    5.41
 -10  -5   1  365.46    7.35
  10   5  -1  367.67    5.87
  10   5  -1  386.86   10.05
 -10  -5   2   11.93    3.45
  10   5  -2   21.11    4.56
  10   5  -2   15.46    8.45
  10   4  -1   50.40    6.53
 -10  -4   1   71.98    4.98
  10   4  -1   67.96    3.77
 -10  -4   1   84.31    4.61
  10   4  -2   26.14    4.51
  10   4  -2   34.80    7.13
 -10  -4   2   28.47    3.79
 -10  -3   1   27.06    4.34
  10   3  -1   26.28    4.46
 -10  -3   1   14.05    4.89
  10   3  -1   18.90    6.29
  10   3  -2  337.03    8.26
 -10  -3   2  353.47    6.31
 -10  -3   2  347.50    5.95
  10   3  -2  361.99    6.07
  10   3  -3  174.72    7.48
 -10  -3   3  179.86    4.45
 -10  -3   3  172.31    4.95
  10   3  -3  185.99    5.57
 -10  -2   1   13.11    4.22
 -10  -2   1    9.31    5.09
  10   2  -1   10.45    4.86
  10   2  -1    8.32    6.47
 -10  -2   2    0.59    4.54
  10   2  -2   -0.53    3.61
 -10  -2   2   -7.42    4.40
  10   2  -2   13.28    5.98
 -10  -2   3    4.32    4.68
  10   2  -3   16.19    3.78
  10   2  -3   36.82    6.42
 -10  -2   3   24.80    3.81
  10   2  -4   -0.62    5.61
 -10  -2   4   18.46    5.11
 -10  -2   4    6.97    4.06
  10   1  -1   11.29    4.88
  10   1  -1    4.83    5.35
 -10  -1   1   11.41    4.79
 -10  -1   1    9.74    3.75
 -10  -1   2   97.53    4.09
  10   1  -2   91.41    3.83
 -10  -1   2   80.38    5.24
  10   1  -2   98.84    6.21
  10   1  -3  141.06    6.65
  10   1  -3  127.38    3.87
 -10  -1   3  111.80    4.84
  10   1  -4  187.94    5.03
 -10  -1   4  168.34    4.50
  10   1  -4  217.07    7.11
 -10  -1   4  166.77    5.38
 -10   0   1  214.42    5.10
  10   0  -1  260.28    6.08
 -10   0   1  188.44    5.33
  10   0  -1  214.16    5.11
  10   0  -2  161.64    4.77
  10   0  -2  154.50    6.26
 -10   0   2  148.61    4.55
 -10   0   2  122.17    5.59
 -10   0   3    0.27    4.49
  10   0  -3   14.84    3.34
  10   0  -3    6.48    5.48
  10   0  -4   -9.84    4.79
 -10   0   4  -13.87    3.69
  10   0  -4   -0.38    5.57
 -10   1   0  119.36    4.41
  10  -1   0  109.40    4.86
 -10   1   0  102.71    4.34
  10  -1   0  110.12    5.92
 -10   1   1  117.30    4.38
 -10   1   1   91.18    4.35
  10  -1  -1   95.11    5.80
  10  -1  -1  112.99    4.67
 -10   1   2   65.98    4.03
 -10   1   2   60.40    4.33
  10  -1  -2   50.56    5.63
  10  -1  -2   70.19    5.05
 -10   1   3   35.60    4.03
  10  -1  -3   40.24    4.96
  10  -1  -3   41.95    4.85
 -10   1   3   22.55    3.83
  10  -1  -4    5.40    4.29
 -10   1   4   12.50    3.83
 -10   1   4   -4.84    3.66
  10  -1  -4    0.33    5.13
  10  -2   0  277.22    4.79
  10  -2   0  273.78    5.04
 -10   2   0  270.69    5.33
 -10   2   0  242.74    6.39
 -10   2   1  100.47    4.60
 -10   2   1  111.57    5.31
  10  -2  -1  102.43    4.47
  10  -2  -1  131.62    5.19
  10  -2  -2    6.81    4.85
 -10   2   2    5.86    4.72
  10  -2  -2   -0.79    3.96
 -10   2   2   10.98    4.14
 -10   2   3  168.92    5.85
  10  -2  -3  163.71    3.98
  10  -2  -3  161.92    5.37
 -10   2   3  144.07    4.79
  10  -3   0   17.97    4.60
  10  -3   0   -0.58    4.44
 -10   3   0   35.73    5.51
 -10   3   0   -0.42    3.85
  10  -3  -1   78.33    4.98
 -10   3   1   96.28    5.46
  10  -3  -1   78.01    4.28
 -10   3   1   59.89    4.40
  10  -3  -2   36.44    3.85
  10  -3  -2   44.34    4.33
 -10   3   2   36.49    6.00
 -10   3   3   46.01    5.23
 -10   3   3   49.65    4.22
  10  -3  -3   32.94    3.42
  10  -3  -3   40.02    4.99
  10  -4   0   13.78    4.04
 -10   4   0   22.29    6.08
 -10   4   0   27.37    3.67
  10  -4   0   30.50    3.61
  10  -4  -1  107.25    4.78
 -10   4   1   85.96    6.31
  10  -4  -1  126.00    4.75
 -10   4   1  126.67    4.39
 -10   4   2   50.40    4.75
  10  -4  -2   55.15    4.60
 -10   4   2   85.52    5.68
  10  -4  -2   61.69    4.73
 -10   5   0   77.82    5.53
 -10   5   0   81.57    3.71
  10  -5   0   50.63    4.04
  10  -5   0   53.81    4.69
 -10   5   1   37.05    5.60
  10  -5  -1   30.71    4.23
  10  -5  -1   25.78    3.98
 -10   5   1   15.86    3.67
   9   7  -1   16.65    4.63
  -9  -7   1   22.11    4.16
  -9  -7   2   35.12    4.37
   9   7  -2   47.66    4.51
  -9  -7   2   33.92    4.13
   9   6  -1  175.80    9.56
  -9  -6   1  151.37    7.28
   9   6  -1  151.17    4.94
  -9  -6   1  106.22    4.84
   9   6  -2   91.66    4.97
  -9  -6   2  107.98    3.86
  -9  -6   2  107.73    4.88
   9   6  -3   37.27    5.10
  -9  -6   3   11.52    4.55
  -9  -6   3   31.26    4.51
  -9  -5   1  258.82    5.43
   9   5  -1  304.56    5.26
  -9  -5   1  296.12    6.95
   9   5  -1  316.32   10.13
  -9  -5   2  129.43    4.79
   9   5  -2  176.50    5.01
   9   5  -2  184.58   10.18
   9   5  -3    2.17    5.11
  -9  -5   3    6.20    4.37
   9   5  -3    1.10   12.98
  -9  -5   3    5.80    3.60
   9   5  -4   38.30    4.78
  -9  -5   4   20.42    4.46
  -9  -5   4   29.98    3.18
  -9  -4   1   24.29    5.14
   9   4  -1   32.43    7.90
  -9  -4   1   13.06    4.68
   9   4  -1   14.57    4.91
  -9  -4   2  201.73    5.73
   9   4  -2  213.38    5.05
   9   4  -2  180.20    8.49
  -9  -4   2  166.07    4.95
   9   4  -3   17.10    7.84
  -9  -4   3   28.76    3.96
   9   4  -3   24.07    5.03
  -9  -4   3   17.91    3.32
   9   4  -4   14.73    8.08
   9   4  -4   19.84    4.67
  -9  -4   4    6.49    3.64
  -9  -4   4  -12.56    3.61
   9   4  -4   11.74    9.31
  -9  -3   1   -2.86    4.60
   9   3  -1   23.10    6.47
  -9  -3   1    5.03    4.11
   9   3  -1    1.93    4.78
  -9  -3   2   45.52    5.30
  -9  -3   2   55.56    5.04
   9   3  -2   69.87    3.55
   9   3  -2   57.22    6.79
   9   3  -3   50.97    7.25
  -9  -3   3   32.52    4.79
   9   3  -3   57.09    4.53
  -9  -3   4   19.75    4.89
  -9  -3   4   18.72    4.00
   9   3  -4   26.93    6.75
   9   3  -4   23.03    3.82
  -9  -3   5   15.35    4.90
   9   3  -5    0.64    7.46
   9   3  -5   15.25    5.21
  -9  -3   5    3.79    3.02
   9   3  -5   12.18    7.10
  -9  -2   1  192.63    5.63
   9   2  -1  191.33    4.30
   9   2  -1  210.52    6.42
  -9  -2   1  172.49    4.72
  -9  -2   2   23.48    5.23
   9   2  -2   26.71    6.14
   9   2  -2   13.96    5.03
  -9  -2   2   18.43    4.30
   9   2  -3   82.97    6.58
  -9  -2   3   86.10    5.33
   9   2  -3  104.37    3.99
   9   2  -4  261.90    5.55
  -9  -2   4  221.96    4.64
  -9  -2   4  222.74    5.22
   9   2  -4  268.37    7.96
   9   2  -5  313.67    8.02
   9   2  -5  324.20    5.81
  -9  -2   5  258.01    4.81
  -9  -2   5  259.76    4.64
  -9  -2   6   30.60    4.69
  -9  -2   6   43.00    4.20
   9   2  -6   45.47    6.70
   9   2  -6   58.80    4.45
   9   2  -6   40.10    6.15
  -9  -1   1   -2.80    4.94
  -9  -1   1   12.07    4.17
   9   1  -1  -14.69    5.02
   9   1  -1   18.14    6.31
   9   1  -2   65.60    4.84
  -9  -1   2   36.81    3.96
   9   1  -2   52.97    6.49
  -9  -1   2   39.32    4.77
   9   1  -3  313.18    6.00
  -9  -1   3  267.68    5.67
   9   1  -3  325.39    7.24
  -9  -1   4  147.85    4.29
   9   1  -4  216.93    7.10
   9   1  -4  191.83    5.08
  -9  -1   4  118.85    5.69
   9   1  -5  148.44    6.50
  -9  -1   5  112.56    4.09
  -9  -1   5  131.54    4.15
   9   1  -5  138.47    5.53
  -9  -1   6   -0.27    4.72
   9   1  -6   16.40    6.44
   9   1  -6    5.76    5.10
  -9  -1   6    7.25    3.47
   9   1  -6    7.52    6.09
  -9   0   1  213.36    6.16
   9   0  -1  225.26    5.55
  -9   0   1  228.06    5.34
   9   0  -1  245.22    6.77
   9   0  -2  462.94    5.94
   9   0  -2  432.41    6.18
  -9   0   2  385.45    5.58
  -9   0   2  418.76    6.17
   9   0  -3  333.99    7.39
   9   0  -3  331.73    6.02
  -9   0   3  266.66    5.67
  -9   0   4   39.94    4.89
   9   0  -4   28.85    5.25
   9   0  -4   30.79    5.76
  -9   0   5   35.44    5.09
   9   0  -5   50.55    6.14
   9   0  -5   68.95    4.73
   9   0  -6  136.09    4.89
  -9   0   6  104.19    4.22
   9   0  -6  121.95    5.54
   9   0  -6  107.91    5.29
  -9   0   6  126.38    4.64
  -9   1   0  846.57    8.26
   9  -1   0 1021.76    8.42
  -9   1   0  915.27    7.51
   9  -1   0  916.28    7.57
   9  -1  -1  255.33    5.74
  -9   1   1  279.57    5.03
   9  -1  -1  317.40    6.63
  -9   1   1  250.72    6.42
  -9   1   2   35.62    4.25
  -9   1   2   44.21    4.21
   9  -1  -2   51.91    5.16
   9  -1  -2   47.78    5.07
   9  -1  -3    9.65    4.08
  -9   1   3   38.68    5.03
   9  -1  -3    3.98    5.13
   9  -1  -4   -7.11    5.55
  -9   1   4   10.46    5.27
   9  -1  -4    0.10    5.05
  -9   1   4   14.33    4.12
  -9   1   5    3.34    4.46
   9  -1  -5   -5.38    4.85
   9  -1  -5  -14.89    4.51
  -9   1   5    3.69    4.88
   9  -1  -6   51.23    4.78
   9  -1  -6   34.27    5.66
  -9   1   6   38.23    4.83
  -9   1   6   25.26    4.58
   9  -2   0   20.61    4.77
   9  -2   0   12.93    4.94
  -9   2   0   11.89    6.40
  -9   2   0   20.57    4.27
  -9   2   1    6.76    4.09
   9  -2  -1   25.87    5.29
  -9   2   1    8.67    6.00
   9  -2  -1   26.99    4.84
  -9   2   2   16.53    4.57
   9  -2  -2   48.82    4.93
   9  -2  -2   23.12    4.58
  -9   2   2   48.65    5.41
   9  -2  -3    9.41    4.69
   9  -2  -3   15.43    4.97
  -9   2   3   16.33    4.91
  -9   2   4  129.87    4.25
   9  -2  -4  152.25    3.93
  -9   2   4  142.47    4.84
   9  -2  -4  161.03    5.58
  -9   2   5   60.22    5.30
   9  -2  -5   70.24    5.03
  -9   2   5   56.05    4.50
   9  -2  -5   78.51    4.88
  -9   2   6    6.36    4.50
  -9   2   6   16.57    4.66
   9  -2  -6    3.96    4.20
   9  -3   0   -2.67    3.51
  -9   3   0    8.37    6.48
   9  -3   0   20.10    4.91
  -9   3   0   -7.13    4.51
   9  -3  -1  120.27    5.47
   9  -3  -1   99.38    5.04
  -9   3   1   89.53    5.99
  -9   3   1  119.01    4.66
   9  -3  -2  151.64    5.62
  -9   3   2  133.38    5.93
  -9   3   2  162.44    4.82
   9  -3  -2  141.23    5.22
   9  -3  -3   38.11    4.66
  -9   3   3   33.63    4.47
   9  -3  -3   47.46    5.39
  -9   3   3   44.12    5.83
   9  -3  -4   -3.03    4.86
  -9   3   4   -1.06    4.00
   9  -3  -4    7.04    5.11
  -9   3   4  -12.64    3.90
   9  -3  -5   39.24    5.02
  -9   3   5   45.09    4.87
   9  -3  -5   58.40    4.67
  -9   3   5   19.03    5.08
   9  -4   0   16.07    3.71
  -9   4   0   21.83    5.70
  -9   4   0   -2.53    4.53
   9  -4   0    3.61    4.20
   9  -4  -1    6.99    4.79
  -9   4   1   13.73    5.96
   9  -4  -1    4.20    5.00
  -9   4   2   46.12    5.83
   9  -4  -2   47.09    4.61
   9  -4  -2   41.32    4.65
   9  -4  -3   -0.61    5.09
   9  -4  -3    1.71    4.40
  -9   4   3   14.76    5.58
  -9   4   3    9.76    4.76
   9  -4  -4   20.99    4.47
   9  -4  -4   36.29    4.72
  -9   4   4   46.22    5.58
  -9   4   4   30.57    5.73
   9  -4  -5  178.31    5.26
   9  -4  -5  206.43    5.55
  -9   4   5  190.61    5.76
   9  -5   0  251.72    5.36
  -9   5   0  223.83    6.74
  -9   5   0  255.73    4.94
   9  -5   0  293.55    5.83
   9  -5  -1   66.74    3.70
  -9   5   1   61.87    4.47
  -9   5   1   52.43    5.51
   9  -5  -1   57.90    4.43
  -9   5   2  154.36    6.46
  -9   5   2  149.08    6.30
   9  -5  -2  174.74    4.88
   9  -5  -2  194.96    4.92
   9  -5  -3  397.05    5.96
  -9   5   3  380.97    7.19
   9  -5  -3  437.80    5.10
  -9   5   3   89.11    6.41
   9  -5  -4  160.02    4.26
  -9   5   4  167.05    4.70
   9  -5  -4  196.26    5.34
  -9   6   0  134.95    8.32
  -9   6   0  130.23    5.99
   9  -6   0  162.85    5.25
   9  -6   0  157.77    5.36
  -9   6   0  151.74    4.31
   9  -6  -1  283.33    5.17
  -9   6   1  272.29   10.31
   9  -6  -1  297.21    4.56
  -9   6   1  201.93    5.59
   9  -6  -2   63.54    4.25
   9  -6  -2   79.54    3.83
  -9   6   2   60.11    5.51
   9  -6  -3    6.72    4.50
  -9   6   3   -0.22    4.61
  -9   7   0   10.03    5.11
   9  -7   0   51.26    3.50
   9  -7   0   29.11    4.60
  -9   7   0   43.25    5.83
   9  -7  -1  160.77    5.20
   9  -7  -1  154.84    4.94
  -9   7   1  155.90    5.94
  -8  -8   1   83.73    3.52
  -8  -8   1  123.85    5.44
   8   8  -1  107.22    4.76
  -8  -8   2   13.01    4.85
  -8  -8   2    9.80    4.17
   8   8  -2   -8.04    4.27
   8   7  -1   24.92    4.76
  -8  -7   1   15.93    4.69
  -8  -7   2    0.40    3.42
  -8  -7   2   11.82    4.25
   8   7  -2    5.77    4.58
   8   7  -3   28.15    3.77
  -8  -7   3   39.06    3.51
  -8  -7   3   10.86    4.51
  -8  -7   4  121.74    4.37
   8   7  -4  156.81    4.37
  -8  -7   4  121.08    3.95
  -8  -6   1   58.12    4.89
  -8  -6   1   61.46    7.03
   8   6  -1   72.42    8.81
   8   6  -1   50.99    5.19
  -8  -6   2  211.61    4.28
   8   6  -2  238.98    5.60
  -8  -6   3   96.64    5.22
  -8  -6   3  153.59    5.06
   8   6  -3  108.49    5.84
  -8  -6   4   31.07    4.30
   8   6  -4   13.03    5.23
  -8  -6   4    1.24    4.09
   8   6  -5   11.68    4.70
  -8  -6   5   18.94    4.69
  -8  -6   5   36.20    4.43
   8   5  -1   23.23    8.09
   8   5  -1   25.80    4.65
  -8  -5   1    8.87    3.45
  -8  -5   1    9.48    5.19
  -8  -5   2   -0.58    4.82
   8   5  -2    8.31    9.10
   8   5  -2   17.91    5.14
  -8  -5   2    4.55    6.55
  -8  -5   3   24.74    4.95
   8   5  -3   39.13    4.00
  -8  -5   3   41.41    4.73
  -8  -5   4   87.29    5.12
   8   5  -4   56.94    4.01
  -8  -5   4   53.90    4.50
   8   5  -5  226.59    5.31
  -8  -5   5  184.90    4.84
  -8  -5   5  173.57    4.56
  -8  -5   6   66.19    4.04
  -8  -5   6   77.98    4.74
   8   5  -6   80.58    3.99
  -8  -4   1   50.35    3.66
   8   4  -1   41.96    3.76
  -8  -4   1   55.39    5.67
   8   4  -1   42.43    8.85
   8   4  -2   93.97    4.03
  -8  -4   2  118.24    6.05
   8   4  -2  109.18    8.81
  -8  -4   2  127.53    4.94
  -8  -4   3  456.17    5.88
   8   4  -3  517.16    6.58
   8   4  -3  475.75   11.30
   8   4  -4  152.12    5.50
   8   4  -4  176.36   11.30
   8   4  -4  182.48   10.13
  -8  -4   4  142.54    3.69
  -8  -4   4  154.83    5.26
  -8  -4   5    2.00    3.47
   8   4  -5   10.52    4.74
  -8  -4   5    4.09    3.38
   8   4  -6   55.80    5.70
  -8  -4   6   61.45    3.31
  -8  -4   6   49.46    4.81
   8   3  -1 1174.72    8.54
   8   3  -1 1184.01   12.64
  -8  -3   1 1065.73   10.06
  -8  -3   1 1043.47    8.11
   8   3  -2  153.91    5.09
  -8  -3   2  157.58    5.43
   8   3  -2  127.90    7.42
  -8  -3   2  147.87    6.00
  -8  -3   3   18.16    4.59
   8   3  -3   14.45    7.77
   8   3  -3   -0.48    4.71
   8   3  -4   29.12    7.37
  -8  -3   4   47.67    4.61
   8   3  -4   51.47    4.83
  -8  -3   4   55.34    4.05
   8   3  -5   64.36    5.30
   8   3  -5   66.61    8.13
  -8  -3   5   55.94    5.05
  -8  -3   5   43.32    4.51
   8   3  -5   78.75    7.53
   8   3  -6   95.83    8.91
   8   3  -6  105.27    9.10
  -8  -3   6   71.12    4.56
  -8  -3   6   51.72    5.15
   8   3  -6   87.73    5.60
   8   3  -7   65.12    9.37
   8   3  -7  160.56    5.44
  -8  -3   7  119.78    4.06
  -8  -3   7   99.07    5.33
   8   3  -7    4.56    4.64
   8   2  -1  161.17    5.64
   8   2  -1  166.19    7.39
  -8  -2   1  137.43    5.38
  -8  -2   1  149.88    5.43
  -8  -2   2  172.06    5.74
   8   2  -2  217.32    8.07
  -8  -2   2  177.26    5.42
   8   2  -2  183.87    5.60
   8   2  -3   45.21    4.78
   8   2  -3   47.38    7.65
  -8  -2   3   36.24    3.72
  -8  -2   4   33.55    4.00
   8   2  -4   26.85    3.82
  -8  -2   4   30.61    4.77
   8   2  -4   42.11    6.97
  -8  -2   5  154.99    4.75
   8   2  -5  243.34    5.60
  -8  -2   5  171.84    3.68
   8   2  -5  202.02    7.92
  -8  -2   6  356.68    5.49
   8   2  -6  479.57    9.61
  -8  -2   6  354.33    5.51
   8   2  -6  413.96    8.63
   8   2  -6  404.00    6.32
   8   2  -7   60.56    7.93
  -8  -2   7   50.51    3.58
  -8  -2   7   49.31    3.91
   8   2  -7   42.76    7.00
   8   2  -7   48.95    5.34
   8   1  -1   58.95    4.86
  -8  -1   1   28.28    5.35
  -8  -1   1   45.24    5.08
   8   1  -1   17.68    6.35
  -8  -1   2  227.56    5.88
   8   1  -2  219.37    5.69
   8   1  -2  262.41    7.29
  -8  -1   2  240.93    5.23
   8   1  -3  375.18    5.88
   8   1  -3  396.28    7.57
  -8  -1   3  322.24    6.06
  -8  -1   3  367.50    6.15
  -8  -1   4  258.50    4.91
  -8  -1   4  234.44    5.71
   8   1  -4  341.30    7.28
   8   1  -4  285.75    5.60
   8   1  -5   19.96    6.40
  -8  -1   5   22.43    4.29
   8   1  -5   11.44    4.69
  -8  -1   5   17.84    5.01
  -8  -1   6   -1.28    4.24
   8   1  -6   -0.71    4.92
  -8  -1   6   -8.43    4.30
   8   1  -6    4.66    6.46
   8   1  -6   13.74    6.66
   8   1  -7   17.06    6.46
  -8  -1   7    7.50    4.19
   8   1  -7   26.96    6.46
  -8  -1   7   17.09    4.17
   8   1  -7    6.53    3.62
  -8   0   1   23.15    4.94
   8   0  -1    9.11    4.01
  -8   0   1   21.69    5.68
   8   0  -1   18.09    6.38
  -8   0   2   82.81    4.36
   8   0  -2   74.48    4.06
   8   0  -2   98.07    6.51
  -8   0   2   80.17    4.56
   8   0  -3  276.91    6.50
  -8   0   3  242.80    5.23
  -8   0   3  221.94    4.56
   8   0  -3  247.51    6.19
   8   0  -4  124.46    6.40
   8   0  -4  103.40    5.45
  -8   0   4  119.96    4.53
  -8   0   4   99.61    5.58
   8   0  -5   47.48    6.29
   8   0  -5   42.74    5.04
  -8   0   5   38.42    4.73
   8   0  -6   55.25    5.83
  -8   0   6   59.61    5.14
   8   0  -6   34.92    4.82
   8   0  -7  139.97    5.98
  -8   0   7  122.16    4.30
   8   0  -7  135.12    6.20
  -8   0   7   89.51    3.95
   8   0  -7  143.31    5.24
   8  -1   0  536.56    6.78
   8  -1   0  631.41    7.66
  -8   1   0  485.04    6.28
  -8   1   0  540.36    6.59
  -8   1   1  621.56    7.77
   8  -1  -1  733.68    7.28
  -8   1   1  689.31    6.89
   8  -1  -1  783.22    8.13
  -8   1   2  180.77    6.31
  -8   1   2  154.00    5.35
   8  -1  -2  190.42    6.39
   8  -1  -2  196.74    5.75
  -8   1   3   65.10    4.50
   8  -1  -3   76.32    5.51
  -8   1   3   51.97    5.65
   8  -1  -3   86.34    4.11
  -8   1   4  496.66    5.81
   8  -1  -4  628.49    6.58
   8  -1  -4  652.50    7.71
  -8   1   4  505.95    6.32
  -8   1   5  242.60    5.04
   8  -1  -5  302.67    5.78
  -8   1   5  242.33    6.14
   8  -1  -5  286.63    5.97
   8  -1  -6    4.64    5.36
  -8   1   6   -6.47    5.16
   8  -1  -6   19.16    3.71
  -8   1   6   12.56    4.34
   8  -1  -7   26.56    5.24
  -8   1   7   26.22    4.83
   8  -1  -7   41.47    4.96
   8  -1  -7   23.02    4.56
  -8   1   7   18.23    4.38
   8  -2   0   57.00    5.17
  -8   2   0   54.22    6.33
   8  -2   0   66.71    5.67
  -8   2   0   69.31    4.86
  -8   2   1  129.98    5.05
   8  -2  -1  151.46    5.42
  -8   2   1  143.80    4.74
   8  -2  -1  144.52    5.64
  -8   2   2  206.85    5.11
   8  -2  -2  240.32    5.70
  -8   2   2  237.88    4.26
   8  -2  -2  264.98    5.98
  -8   2   3   13.81    4.26
   8  -2  -3   35.84    4.03
   8  -2  -3   27.43    3.87
   8  -2  -4   38.93    4.84
  -8   2   4   15.43    4.07
   8  -2  -4   18.53    4.98
  -8   2   4   22.70    4.68
   8  -2  -5    2.93    4.78
  -8   2   5    1.67    4.58
  -8   2   5    9.19    3.84
   8  -2  -5   -1.67    5.19
   8  -2  -6   -0.51    3.71
   8  -2  -6    7.61    3.81
  -8   2   6   -8.66    4.87
  -8   2   6    6.30    4.25
  -8   2   7   14.25    4.77
  -8   2   7   -2.25    4.77
   8  -2  -7   19.82    4.83
   8  -2  -7   17.21    5.01
   8  -2  -7   13.87    4.47
   8  -3   0   -9.57    5.39
   8  -3   0    9.29    5.22
  -8   3   0   18.42    7.17
  -8   3   0   -3.91    4.70
  -8   3   1  167.43    6.65
   8  -3  -1  182.51    5.66
  -8   3   1  163.03    4.75
   8  -3  -1  168.88    5.45
   8  -3  -2  228.70    5.55
   8  -3  -2  259.31    6.12
  -8   3   2  212.38    6.72
  -8   3   2  225.20    4.22
   8  -3  -3  230.37    5.61
  -8   3   3  186.80    5.70
  -8   3   3  224.57    6.24
   8  -3  -3  201.51    5.17
  -8   3   4   26.25    4.44
   8  -3  -4   16.65    5.49
   8  -3  -4   18.98    5.18
  -8   3   4   47.79    5.45
   8  -3  -5  381.56    6.25
  -8   3   5  330.34    6.62
   8  -3  -5  400.53    5.66
  -8   3   5  326.39    5.92
   8  -3  -6  325.34    5.96
  -8   3   6  250.25    6.35
  -8   3   6  258.48    5.84
   8  -3  -6  278.83    5.66
  -8   3   7  182.45    4.95
   8  -3  -7  193.58    5.53
   8  -3  -7  207.30    5.61
   8  -3  -7  184.98    4.85
  -8   3   7  170.67    6.36
   8  -4   0  422.31    6.03
   8  -4   0  468.04    5.17
  -8   4   0  442.79    5.50
   8  -4  -1   64.94    4.66
  -8   4   1   64.87    4.77
   8  -4  -1   92.80    4.86
  -8   4   1   70.39    6.45
  -8   4   2   52.79    6.50
  -8   4   2   50.14    4.26
   8  -4  -2   68.90    5.31
   8  -4  -2   64.97    3.88
  -8   4   3  144.12    5.83
  -8   4   3  117.36    5.63
   8  -4  -3  144.79    5.43
   8  -4  -3  137.28    4.89
  -8   4   4   31.19    4.40
   8  -4  -4   40.08    5.26
   8  -4  -4   48.62    4.75
  -8   4   4   43.53    5.82
   8  -4  -5   77.94    3.82
  -8   4   5   70.20    6.90
   8  -4  -5   91.12    3.92
  -8   4   5   85.92    4.21
   8  -4  -6   81.05    4.68
  -8   4   6   55.11    6.19
   8  -4  -6   84.85    5.02
  -8   4   6   87.78    4.95
  -8   5   0   53.36    3.32
   8  -5   0   47.47    4.88
  -8   5   0   51.35    5.95
   8  -5   0   65.71    4.92
   8  -5  -1   39.69    4.80
   8  -5  -1   47.69    4.70
  -8   5   1   52.95    4.35
  -8   5   1   49.89    6.12
   8  -5  -2   55.07    4.60
   8  -5  -2   37.72    4.43
  -8   5   2   31.37    6.26
  -8   5   2   32.16    5.73
   8  -5  -3   89.66    4.77
   8  -5  -3   81.13    4.70
  -8   5   3   80.36    5.92
  -8   5   3   72.58    8.91
  -8   5   4  585.88    7.48
   8  -5  -4  576.97    6.85
   8  -5  -4  674.91    7.11
   8  -5  -5  320.22    5.42
  -8   5   5  336.04    6.58
   8  -5  -5  377.91    5.63
   8  -5  -6   20.15    4.74
  -8   5   6   12.60    4.94
   8  -5  -6   -1.25    4.37
  -8   6   0   20.09    3.88
  -8   6   0   27.94    6.63
   8  -6   0   38.11    4.60
  -8   6   0   21.84    5.51
   8  -6   0   28.87    4.87
  -8   6   1  322.70    4.27
   8  -6  -1  328.07    5.88
   8  -6  -1  344.24    4.70
  -8   6   1  353.06   11.44
  -8   6   2  386.24    6.78
   8  -6  -2  480.66    6.50
   8  -6  -2  534.99    6.50
   8  -6  -3   71.56    4.89
  -8   6   3   40.53    5.53
   8  -6  -3   49.65    5.07
   8  -6  -4   38.14    4.28
  -8   6   4   11.08    5.39
   8  -6  -4   14.16    4.37
   8  -6  -5   24.09    4.16
   8  -6  -5   27.14    4.87
  -8   6   5   30.62    5.31
  -8   7   0   25.88    4.20
   8  -7   0   40.42    4.58
  -8   7   0   53.37    8.04
  -8   7   0   47.69    5.68
   8  -7   0   70.30    4.27
   8  -7  -1   31.55    4.59
  -8   7   1   39.78    4.91
   8  -7  -1   15.87    4.52
   8  -7  -2   29.24    5.00
   8  -7  -2   31.73    4.77
   8  -7  -3   27.00    4.56
   8  -7  -3   38.92    4.88
  -8   7   3   39.39    4.75
   8  -7  -4   12.43    4.27
   8  -7  -4   13.50    4.54
  -8   7   4   -3.56    4.52
  -8   8   0  103.07    6.87
   8  -8   0   68.22    4.33
   8  -8   0   72.63    4.80
   8  -8  -1   12.34    4.48
  -8   8   1   20.86    5.58
   8  -8  -1   19.80    4.17
   8  -8  -2  118.17    5.14
  -8   8   2  112.85    5.22
   8  -8  -2  111.90    4.90
  -7  -9   1   66.51    4.68
  -7  -9   1   70.96    4.76
  -7  -9   2   88.30    5.28
  -7  -9   2   89.89    4.17
  -7  -8   1  328.18    6.51
   7   8  -1  246.50    5.69
  -7  -8   1  286.91    5.48
   7   8  -2  108.12    4.15
  -7  -8   2  137.28    5.27
  -7  -8   2   95.94    4.46
  -7  -8   3  -17.32    4.66
   7   8  -3   38.14    5.51
  -7  -8   3   11.18    4.20
  -7  -8   4  227.57    5.49
   7   8  -4  178.11    6.20
  -7  -8   4  158.00    3.91
   7   7  -1  225.15    4.54
  -7  -7   1  200.10    5.01
  -7  -7   2  311.48    6.01
   7   7  -2  238.86    4.87
  -7  -7   2  203.50    5.12
   7   7  -3   79.59    5.77
  -7  -7   3   85.46    3.55
  -7  -7   3   70.17    4.80
   7   7  -4    2.39    5.26
  -7  -7   4    1.93    4.23
  -7  -7   4   20.68    4.47
  -7  -7   5   -0.75    4.60
  -7  -7   5   13.55    4.46
   7   7  -5  -12.39    5.40
  -7  -6   1    6.65    4.44
   7   6  -1    5.92    8.20
   7   6  -1   15.75    5.38
  -7  -6   1    1.18    6.47
   7   6  -2    3.44    5.15
  -7  -6   2    6.00    4.36
   7   6  -3   44.79    5.65
  -7  -6   3   26.26    4.63
  -7  -6   3   24.85    4.74
   7   6  -4   -0.21    5.56
  -7  -6   4    8.90    4.25
  -7  -6   4    3.22    4.87
  -7  -6   5   61.10    4.98
   7   6  -5   72.51    5.75
  -7  -6   5   59.27    4.93
  -7  -6   6  219.28    4.20
  -7  -6   6  217.79    5.40
   7   6  -6  267.75    4.99
  -7  -5   1  118.90    5.21
   7   5  -1  134.74    5.55
   7   5  -1  148.08    9.73
  -7  -5   1  116.29    6.49
  -7  -5   2   32.58    5.22
   7   5  -2   30.97    9.51
  -7  -5   2   36.80    7.24
   7   5  -2   24.16    5.54
   7   5  -3  423.41    6.61
  -7  -5   3  374.96    6.45
  -7  -5   3  396.44    6.12
  -7  -5   4  281.56    5.79
  -7  -5   4  272.96    5.68
   7   5  -4  317.16    6.35
   7   5  -5  153.56    5.88
  -7  -5   5  134.34    3.90
  -7  -5   5  154.06    4.63
  -7  -5   6   53.75    4.13
   7   5  -6   53.83    4.00
  -7  -5   6   74.34    4.48
  -7  -5   7   10.32    4.25
   7   5  -7    7.06    3.74
  -7  -5   7    9.90    4.55
   7   4  -1   26.09    9.18
  -7  -4   1   14.22    5.35
  -7  -4   1   10.82    6.31
   7   4  -1    8.66    3.92
   7   4  -2    9.38    9.77
  -7  -4   2   18.00    5.27
   7   4  -2   30.25    5.25
  -7  -4   2   16.24    6.18
  -7  -4   3   57.15    5.34
   7   4  -3   59.88   10.50
   7   4  -3   78.71    5.34
   7   4  -4  536.49    6.96
  -7  -4   4  456.96    6.33
  -7  -4   4  493.11    6.39
   7   4  -4  593.65   17.55
   7   4  -4  597.02   14.73
  -7  -4   5  189.21    3.95
  -7  -4   5  159.67    4.25
   7   4  -5  165.76    6.00
  -7  -4   6    2.04    3.09
   7   4  -6   11.88    5.04
  -7  -4   6   19.10    5.02
   7   4  -7  146.35    5.26
  -7  -4   7  105.96    3.62
  -7  -4   7  116.16    4.02
  -7  -4   8  204.27    5.06
   7   4  -8  235.85    5.85
  -7  -4   8  198.77    5.22
  -7  -3   1 1556.17   13.05
  -7  -3   1 1578.84   10.18
   7   3  -1 1640.79   10.22
   7   3  -1 1664.79   15.18
   7   3  -2 2641.34   13.93
  -7  -3   2 2505.70   13.56
   7   3  -2 2572.11   20.64
  -7  -3   2 2520.96   18.31
   7   3  -3  657.91    6.10
  -7  -3   3  568.96    6.74
   7   3  -3  564.55   11.07
   7   3  -4   29.89    8.13
   7   3  -4   31.77    5.45
  -7  -3   4   10.39    4.53
  -7  -3   4   32.28    3.69
  -7  -3   5  300.57    5.68
   7   3  -5  365.41    5.85
   7   3  -5  367.50    9.52
  -7  -3   5  267.72    5.04
   7   3  -5  302.20    9.94
   7   3  -6  290.47   10.73
   7   3  -6  241.31   10.06
  -7  -3   6  211.58    4.47
   7   3  -6  244.83    6.17
  -7  -3   6  241.52    5.14
  -7  -3   7   -2.53    5.26
  -7  -3   7   13.92    4.07
   7   3  -7   31.57    5.59
   7   3  -7   28.71   10.22
   7   3  -7   33.54   12.10
  -7  -3   8   -2.05    4.67
   7   3  -8   13.86    3.81
  -7  -3   8   13.22    3.92
   7   2  -1   33.74    7.63
  -7  -2   1   42.78    5.37
  -7  -2   1   31.04    4.18
   7   2  -1   35.26    5.74
  -7  -2   2   10.51    4.04
   7   2  -2   27.09    4.02
  -7  -2   2   22.06    5.80
   7   2  -2   10.34    8.24
   7   2  -3   -7.20    5.67
   7   2  -3    7.25    7.91
  -7  -2   3    8.54    5.24
  -7  -2   3   15.12    5.84
   7   2  -4   13.17    3.94
   7   2  -4   -7.12    7.50
  -7  -2   4    7.82    4.45
  -7  -2   4   52.75    5.22
   7   2  -5    4.57    7.39
  -7  -2   5   -6.84    4.04
   7   2  -5    1.27    5.30
  -7  -2   5    0.87    4.97
  -7  -2   6   31.90    4.50
   7   2  -6   32.50    7.06
   7   2  -6   44.35    3.90
  -7  -2   6   19.92    3.76
   7   2  -6   36.60    7.17
   7   2  -7  149.72    8.13
  -7  -2   7  118.60    4.00
   7   2  -7  119.95    5.33
  -7  -2   7  124.61    4.57
   7   2  -7  139.39    8.88
  -7  -2   8    1.34    4.33
   7   2  -8    6.34    8.10
  -7  -2   8   14.93    3.54
   7   2  -8    5.83    6.90
   7   2  -8   -1.36    4.97
  -7  -2   9   25.01    3.88
   7   2  -9   65.69    4.89
  -7  -2   9   39.78    4.15
   7   2  -9   38.26    6.97
   7   1  -1  340.97    7.61
  -7  -1   1  271.28    6.61
   7   1  -1  300.18    4.92
  -7  -1   1  303.21    6.28
  -7  -1   2  220.62    6.05
  -7  -1   2  236.99    6.14
   7   1  -2  230.96    6.15
   7   1  -2  289.65    7.82
  -7  -1   3  867.17    7.68
  -7  -1   3 1040.56    9.40
   7   1  -3 1103.32   10.00
   7   1  -3 1057.64    8.24
   7   1  -4  292.84    6.09
   7   1  -4  349.06    8.03
  -7  -1   4  277.18    5.54
  -7  -1   4  285.85    4.66
  -7  -1   5   72.57    4.46
  -7  -1   5   73.58    4.94
   7   1  -5   92.94    4.01
   7   1  -5   78.90    6.39
  -7  -1   6   36.97    4.80
   7   1  -6   57.38    6.17
  -7  -1   6   43.23    4.57
   7   1  -6   39.99    4.00
   7   1  -6   48.55    5.80
   7   1  -7  337.56    7.46
   7   1  -7  350.50    7.25
  -7  -1   7  231.28    4.35
  -7  -1   7  255.74    5.46
   7   1  -7  281.79    5.53
  -7  -1   8   45.02    4.08
  -7  -1   8   65.91    4.58
   7   1  -8   84.95    6.68
   7   1  -8   88.57    6.38
   7   1  -8   70.97    4.81
  -7  -1   9   15.93    4.45
  -7  -1   9   -1.07    4.09
   7   1  -9    8.51    5.96
   7   1  -9   12.11    6.86
   7   1  -9  -11.89    4.59
  -7   0   1  120.24    5.25
   7   0  -1  120.21    6.00
   7   0  -1  109.17    6.69
  -7   0   1  127.20    6.05
   7   0  -2   70.06    6.16
   7   0  -2   71.49    5.25
  -7   0   2   66.65    4.87
  -7   0   2   56.07    6.09
  -7   0   3  100.80    6.12
   7   0  -3  122.12    6.82
   7   0  -3   95.84    5.87
  -7   0   3   96.40    5.00
   7   0  -4  162.44    5.82
  -7   0   4  122.87    5.87
   7   0  -4  155.57    6.69
  -7   0   4  136.12    5.04
   7   0  -5   24.54    5.94
  -7   0   5   21.88    4.84
   7   0  -5   12.09    3.87
   7   0  -6   -8.22    5.31
   7   0  -6   -0.69    5.68
   7   0  -6    1.40    3.67
  -7   0   6    4.21    3.56
  -7   0   7   56.63    4.81
   7   0  -7   75.90    5.25
   7   0  -7   66.47    5.69
   7   0  -7   65.72    5.21
   7   0  -8   90.98    3.78
   7   0  -8   91.11    5.96
  -7   0   8   95.55    3.58
   7   0  -8  109.48    6.28
   7   0  -9    2.63    5.86
   7   0  -9   10.46    4.49
  -7   0   9    5.57    4.00
   7   0  -9    5.40    5.02
  -7   0   9   16.50    4.03
   7  -1   0   10.37    6.18
  -7   1   0    6.13    6.52
  -7   1   0   15.33    4.14
   7  -1   0    1.84    4.28
   7  -1  -1   62.04    4.84
  -7   1   1   51.14    4.83
  -7   1   1   70.56    5.31
   7  -1  -1   59.93    5.85
  -7   1   2  375.40    5.54
   7  -1  -2  440.95    7.27
  -7   1   2  390.29    6.03
   7  -1  -2  395.44    6.28
   7  -1  -3   15.78    5.94
  -7   1   3    8.43    6.14
  -7   1   3    4.40    3.58
   7  -1  -3    4.30    5.57
   7  -1  -4  264.19    6.85
  -7   1   4  214.64    5.68
   7  -1  -4  227.64    6.26
  -7   1   4  214.22    6.07
  -7   1   5  985.57    8.31
  -7   1   5  973.33    8.81
   7  -1  -5 1183.00    9.59
   7  -1  -5 1090.25    8.21
  -7   1   6  512.71    5.52
  -7   1   6  548.98    6.71
   7  -1  -6  667.75    6.94
   7  -1  -6  685.70    7.38
   7  -1  -7   -7.16    5.37
  -7   1   7    7.17    4.37
  -7   1   7   15.58    4.38
   7  -1  -7   20.24    3.64
  -7   1   8  266.07    5.47
   7  -1  -8  278.25    5.41
   7  -1  -8  326.50    6.32
   7  -1  -8  337.24    6.86
  -7   1   8  243.21    5.54
   7  -1  -9  382.83    7.56
   7  -1  -9  368.30    6.43
   7  -1  -9  332.14    4.75
  -7   1   9  303.47    5.83
  -7   1   9  281.54    5.34
   7  -2   0  133.77    5.54
  -7   2   0  124.51    5.53
   7  -2   0  155.84    6.25
  -7   2   0  139.63    7.39
  -7   2   1  303.43    6.11
   7  -2  -1  345.13    6.31
   7  -2  -1  308.88    6.46
  -7   2   1  339.58    6.05
   7  -2  -2  682.79    7.68
  -7   2   2  633.64    6.84
  -7   2   2  626.82    8.53
   7  -2  -2  724.90    7.84
   7  -2  -3  813.15    7.97
  -7   2   3  678.15    8.02
   7  -2  -3  775.77    6.52
  -7   2   4  157.81    5.27
   7  -2  -4  161.76    4.61
   7  -2  -4  166.72    5.70
  -7   2   4  148.96    6.31
   7  -2  -5  112.00    5.53
  -7   2   5   90.63    5.02
   7  -2  -5  104.95    5.27
  -7   2   5  101.02    6.03
   7  -2  -6  198.77    5.88
  -7   2   6  156.49    5.97
   7  -2  -6  184.10    5.36
  -7   2   6  169.78    5.81
  -7   2   7   10.21    5.14
   7  -2  -7   37.05    5.25
  -7   2   7   17.85    5.06
   7  -2  -7   12.74    4.67
   7  -2  -7   21.95    5.40
   7  -2  -8  122.12    5.50
  -7   2   8  106.15    4.76
   7  -2  -8  118.34    4.73
   7  -2  -8  119.99    4.96
  -7   2   8   92.36    5.58
  -7   2   9   33.96    5.03
   7  -2  -9   31.18    4.67
  -7   2   9   32.64    3.49
   7  -2  -9   47.10    3.52
   7  -3   0  132.31    5.68
  -7   3   0  138.23    4.02
  -7   3   0  155.11    7.39
   7  -3   0  143.11    5.86
   7  -3  -1  361.78    6.00
  -7   3   1  318.61    5.62
   7  -3  -1  321.37    6.41
  -7   3   1  314.43    8.10
  -7   3   2  618.71    5.80
   7  -3  -2  641.86    6.22
   7  -3  -2  688.75    7.33
  -7   3   2  606.98    8.50
   7  -3  -3  232.76    4.61
   7  -3  -3  220.38    5.96
  -7   3   3  217.35    6.40
   7  -3  -4  162.21    5.67
   7  -3  -4  174.71    4.48
  -7   3   4  168.44    6.45
  -7   3   4  134.75    5.12
   7  -3  -5   -3.47    4.94
   7  -3  -5   11.95    5.38
  -7   3   5    0.86    5.00
  -7   3   5   18.26    5.23
   7  -3  -6  315.32    6.00
   7  -3  -6  290.03    5.64
  -7   3   6  253.52    6.53
  -7   3   6  277.60    6.42
   7  -3  -7  337.92    5.90
  -7   3   7  303.63    5.80
  -7   3   7  285.78    6.93
   7  -3  -7  327.52    5.93
   7  -3  -7  294.76    4.87
  -7   3   8  207.53    6.51
   7  -3  -8  255.12    5.69
   7  -3  -8  233.14    5.35
   7  -3  -8  243.69    5.27
  -7   3   8  191.54    5.54
   7  -4   0 1190.97    9.45
  -7   4   0 1176.59    8.20
   7  -4   0 1195.90    7.78
  -7   4   1  669.72    8.75
  -7   4   1  738.11    6.93
   7  -4  -1  723.77    7.69
   7  -4  -1  782.76    7.46
  -7   4   2   57.05    6.63
   7  -4  -2   49.80    5.55
  -7   4   2   46.04    4.76
   7  -4  -2   72.24    5.11
  -7   4   3  120.56    6.23
   7  -4  -3  138.56    5.56
  -7   4   3  140.98    6.45
   7  -4  -3  154.81    5.32
  -7   4   4  589.99    7.85
  -7   4   4  564.30    9.16
   7  -4  -4  629.51    7.16
   7  -4  -4  636.18    6.00
  -7   4   5  127.68    5.81
  -7   4   5  103.00    7.19
   7  -4  -5   92.93    4.96
   7  -4  -5  110.45    5.42
   7  -4  -6    0.21    4.83
  -7   4   6    7.53    7.24
  -7   4   6    0.12    5.42
   7  -4  -6   -6.41    4.75
   7  -4  -7    6.06    4.81
  -7   4   7   17.58    5.31
   7  -4  -7  -10.43    4.34
   7  -4  -7   -4.34    4.73
   7  -4  -8    9.02    4.83
   7  -4  -8   -3.24    3.31
   7  -4  -8    3.87    4.58
  -7   4   8   16.66    4.62
   7  -5   0    5.02    5.52
  -7   5   0   13.78    6.40
  -7   5   0    3.54    3.21
   7  -5   0   -0.27    4.87
   7  -5  -1   25.76    5.39
   7  -5  -1   20.03    5.08
  -7   5   1   41.22    4.69
   7  -5  -2   56.66    5.21
  -7   5   2   82.03    6.31
   7  -5  -2   86.67    5.46
   7  -5  -3  -20.59    5.47
   7  -5  -3   19.31    4.83
  -7   5   3  -10.70    6.07
   7  -5  -4   15.70    4.87
  -7   5   4   18.91    5.17
   7  -5  -4   13.34    3.72
  -7   5   5  190.77    5.70
   7  -5  -5  206.91    5.55
   7  -5  -5  170.54    5.37
   7  -5  -6   95.04    4.93
  -7   5   6   98.24    5.08
   7  -5  -6   98.88    4.78
   7  -5  -7    0.78    4.46
   7  -5  -7   27.37    4.17
   7  -5  -7    5.29    4.17
  -7   5   7   -5.22    5.23
  -7   6   0    2.15    6.76
  -7   6   0    3.43    4.34
  -7   6   0   11.63    5.76
   7  -6   0   -6.35    4.32
   7  -6   0    9.27    5.26
   7  -6  -1    3.90    4.72
  -7   6   1    4.69    5.67
   7  -6  -1   17.81    4.48
  -7   6   1    9.67    8.39
  -7   6   1   20.55    4.37
  -7   6   2   57.13    5.54
   7  -6  -2   64.36    4.81
   7  -6  -2   61.18    3.72
  -7   6   3  189.96    5.79
   7  -6  -3  229.26    5.22
   7  -6  -3  229.31    5.51
   7  -6  -4    0.65    4.69
  -7   6   4   10.42    5.32
   7  -6  -4   -2.87    5.10
  -7   6   5  134.86    5.79
   7  -6  -5  135.87    4.82
   7  -6  -5  109.12    5.33
  -7   6   6  175.15    5.96
   7  -6  -6  203.75    4.00
   7  -6  -6  180.78    5.43
  -7   6   7   54.82    5.20
   7  -6  -7   82.73    4.73
   7  -6  -7   64.59    4.97
   7  -6  -7   78.94    3.58
   7  -7   0   70.61    4.85
  -7   7   0   68.74    5.71
  -7   7   0   67.27    3.28
   7  -7   0   71.36    5.28
  -7   7   0   63.47    7.71
  -7   7   1   82.13    5.33
   7  -7  -1   76.87    4.85
   7  -7  -1   74.61    5.37
   7  -7  -2   13.11    4.99
   7  -7  -2    5.75    3.34
   7  -7  -3  102.50    4.65
  -7   7   3   80.45    5.62
   7  -7  -3  114.26    5.46
   7  -7  -4    2.89    3.69
  -7   7   4   31.56    4.81
   7  -7  -4    9.84    5.02
  -7   7   5   66.19    5.50
   7  -7  -5   73.53    4.84
   7  -7  -5   52.52    5.10
   7  -7  -6   38.79    4.15
  -7   7   6   14.96    4.54
   7  -7  -6   23.88    4.51
  -7   8   0   -8.82    5.68
   7  -8   0    5.94    4.61
   7  -8   0   17.00    4.21
   7  -8  -1   18.59    5.01
   7  -8  -1   16.27    3.15
  -7   8   1   -5.52    5.36
  -7   8   2   21.20    5.07
   7  -8  -2   22.40    5.08
   7  -8  -2   29.32    4.82
   7  -8  -3  171.96    4.82
   7  -8  -3  162.07    5.57
   7  -8  -4  134.89    5.13
   7  -8  -4  145.99    5.16
  -7   8   4  129.21    4.91
  -7   9   0   44.43    6.71
   7  -9   0   30.57    4.70
   7  -9   0   20.15    5.05
   7  -9  -1  212.32    5.78
   7  -9  -1  259.37    5.40
  -7   9   1  266.37    7.66
  -7   9   2  328.73    7.22
   7  -9  -2  291.97    5.04
   7  -9  -2  310.99    6.19
  -6 -10   1    9.34    4.39
  -6 -10   1   -3.90    3.81
  -6 -10   2   30.46    4.30
  -6 -10   2   28.40    4.34
  -6  -9   1  212.04    5.07
  -6  -9   1  234.50    5.72
  -6  -9   2   24.18    4.75
  -6  -9   2   19.40    3.49
  -6  -9   3   -4.19    3.40
  -6  -9   3   12.86    3.90
  -6  -9   4   53.35    4.79
   6   9  -4   60.20    5.05
  -6  -9   4   55.07    4.61
  -6  -8   1  -12.11    4.78
  -6  -8   1   -8.27    4.55
   6   8  -2   37.46    5.17
  -6  -8   2   45.54    3.58
  -6  -8   2   29.45    4.54
   6   8  -3   25.87    4.22
  -6  -8   3   20.88    4.87
  -6  -8   3   24.78    4.25
  -6  -8   4   22.70    4.84
   6   8  -4   59.43    5.77
  -6  -8   4   47.55    4.28
  -6  -8   5  177.65    4.69
  -6  -8   5  215.06    4.80
   6   8  -5  204.63    6.30
  -6  -8   6  133.67    4.39
  -6  -8   6  132.16    3.79
   6   8  -6  142.64    4.69
   6   7  -1   16.43    5.13
  -6  -7   1   17.58    3.64
  -6  -7   1   13.13   11.28
   6   7  -2  465.04    7.12
  -6  -7   2  506.29    6.70
  -6  -7   2  487.35    6.72
  -6  -7   3  509.26    6.32
   6   7  -3  518.86    7.38
  -6  -7   3  551.14    7.00
   6   7  -4  127.76    5.60
  -6  -7   4  130.80    4.50
  -6  -7   4  113.09    4.65
  -6  -7   5  119.52    5.27
  -6  -7   5  155.06    3.81
   6   7  -5  158.10    4.93
  -6  -7   6  345.67    5.55
   6   7  -6  386.30    6.97
  -6  -7   6  308.58    5.70
  -6  -7   7  146.92    4.71
  -6  -7   7  171.43    4.63
   6   7  -7  182.80    4.71
  -6  -6   1  212.61    9.11
  -6  -6   1  212.24    4.29
   6   6  -1  219.88   10.28
   6   6  -1  214.90    5.89
  -6  -6   2  144.90    5.62
   6   6  -2  141.85    5.64
  -6  -6   3    1.01    3.37
  -6  -6   3   -2.35    3.73
   6   6  -3   -8.98    5.65
  -6  -6   4   -4.42    5.26
  -6  -6   4    3.67    4.22
   6   6  -4   -8.44    5.84
  -6  -6   5  -12.37    4.23
  -6  -6   5   -5.16    4.82
   6   6  -5    3.59    5.68
   6   6  -6  112.79    5.78
  -6  -6   6   83.49    4.52
  -6  -6   6   87.29    4.76
   6   6  -7  219.01    5.86
  -6  -6   7  159.60    3.90
  -6  -6   7  161.05    4.82
  -6  -6   8  109.86    4.95
  -6  -6   8  111.08    4.21
   6   6  -8   70.78    5.77
   6   5  -1  643.97    7.51
   6   5  -1  768.32   14.15
  -6  -5   1  705.87   10.42
  -6  -5   1  723.53    7.35
   6   5  -2  226.19   11.49
  -6  -5   2  205.30    4.30
  -6  -5   2  233.68   10.06
   6   5  -2  220.09    4.69
  -6  -5   3  238.72    5.92
  -6  -5   3  257.33    5.43
   6   5  -3  295.58    6.29
  -6  -5   4  925.64    7.33
   6   5  -4 1106.07    8.31
  -6  -5   4  970.83    8.35
  -6  -5   5  413.01    5.94
   6   5  -5  484.32    5.92
  -6  -5   5  427.78    6.43
  -6  -5   6   38.53    4.84
  -6  -5   6   25.50    5.00
   6   5  -6   32.77    5.31
   6   5  -7    1.63    3.70
  -6  -5   7    1.55    4.19
  -6  -5   7   15.88    4.37
   6   5  -8  104.72    4.19
  -6  -5   8  130.77    4.63
  -6  -5   8   95.07    3.92
   6   4  -1  660.84   12.03
   6   4  -1  796.20    7.94
  -6  -4   1  710.73    7.48
  -6  -4   1  804.98   10.55
  -6  -4   2  339.07    9.02
   6   4  -2  341.88    6.83
   6   4  -2  295.91   11.83
  -6  -4   2  326.27    6.46
  -6  -4   3  126.79    4.12
   6   4  -3  148.06   12.75
   6   4  -3  158.81    5.71
  -6  -4   4   12.82    5.53
  -6  -4   4   15.83    4.63
   6   4  -4   14.08    5.95
   6   4  -5  163.76    6.29
  -6  -4   5  129.15    5.39
  -6  -4   5  120.12    5.74
   6   4  -6  141.59    5.78
  -6  -4   6  128.20    5.11
  -6  -4   6  122.61    5.54
   6   4  -7   20.36    5.61
  -6  -4   7   13.70    4.39
  -6  -4   7    5.18    4.66
  -6  -4   8   35.78    4.53
   6   4  -8   60.97    4.84
  -6  -4   8   37.93    4.90
   6   4  -9  109.95    5.50
  -6  -4   9   96.46    4.21
  -6  -4   9  110.36    4.43
  -6  -3   1    3.66    5.68
  -6  -3   1    5.49    5.64
   6   3  -1   -6.54    4.53
   6   3  -1    8.43   10.12
   6   3  -2  378.92   10.59
   6   3  -2  359.64    5.43
  -6  -3   2  358.14    6.65
  -6  -3   2  340.46    8.31
   6   3  -3 1341.07    9.51
   6   3  -3 1229.49   15.06
  -6  -3   3 1136.51    7.81
  -6  -3   4  202.46    5.46
   6   3  -4  227.59    5.92
  -6  -3   4  181.93    4.13
   6   3  -4  177.53   10.41
  -6  -3   5  176.22    5.42
   6   3  -5  227.50    5.96
  -6  -3   5  173.83    5.30
   6   3  -5  183.77   10.37
   6   3  -5  219.45    9.68
   6   3  -6  634.28   13.27
   6   3  -6  798.31   15.70
   6   3  -6  708.56    7.74
  -6  -3   6  638.42    6.38
  -6  -3   6  598.95    5.87
   6   3  -7  498.74   15.56
   6   3  -7  393.26    6.92
   6   3  -7  390.49   13.15
  -6  -3   7  380.13    6.37
  -6  -3   7  377.28    5.64
   6   3  -8   -1.03    3.99
  -6  -3   8    6.82    3.46
  -6  -3   8   -0.20    4.33
  -6  -3   9  194.87    5.02
  -6  -3   9  169.33    4.68
   6   3  -9  210.49    5.64
  -6  -2   1  237.35    7.15
   6   2  -1  257.25    8.63
   6   2  -1  246.12    6.57
  -6  -2   1  238.23    6.23
  -6  -2   2   53.31    6.25
  -6  -2   2   57.30    6.47
   6   2  -2   69.03    9.08
   6   2  -2   72.06    6.29
  -6  -2   3  705.97    7.58
  -6  -2   3  808.52    9.18
   6   2  -3  903.23   12.00
   6   2  -3  763.45    7.84
   6   2  -4  147.71    4.60
  -6  -2   4  145.26    3.99
   6   2  -4  201.25    8.85
  -6  -2   4  138.26    5.55
  -6  -2   5   33.73    4.65
   6   2  -5   40.67    4.23
   6   2  -5   26.27    6.99
  -6  -2   5   23.18    5.34
   6   2  -5   38.79    7.66
  -6  -2   6  -12.37    3.79
  -6  -2   6  -12.93    4.53
   6   2  -6    3.28    6.95
   6   2  -6   -3.81    7.88
   6   2  -6   28.06    5.68
   6   2  -7  119.46    7.50
   6   2  -7  110.51    7.74
  -6  -2   7   80.22    5.32
  -6  -2   7  101.10    3.63
   6   2  -7  114.90    5.23
   6   2  -8   -1.99    7.79
  -6  -2   8   -4.69    4.22
  -6  -2   8   27.35    4.92
   6   2  -8   -3.53    6.82
   6   2  -8    9.03    5.00
   6   2  -9    1.00    8.67
   6   2  -9    8.82    3.51
   6   2  -9    1.34    7.08
  -6  -2   9    6.50    4.25
  -6  -2   9  -18.34    4.87
   6   2 -10   59.70    4.39
   6   2 -10    2.25    6.73
  -6  -2  10   41.40    4.41
   6   2 -10   52.76    6.82
  -6  -2  10   26.70    4.44
  -6  -1   1   14.71    5.36
  -6  -1   1   24.24    5.83
   6   1  -1   21.48    7.22
   6   1  -1   46.84    5.93
   6   1  -2   -0.02    7.90
  -6  -1   2   12.09    4.33
   6   1  -2    7.62    6.05
  -6  -1   2   -0.11    5.33
  -6  -1   3  360.78    6.62
   6   1  -3  406.52    8.08
   6   1  -3  374.19    6.82
  -6  -1   3  324.85    6.30
   6   1  -4  272.50    7.80
   6   1  -4  232.49    4.85
  -6  -1   4  226.44    5.67
  -6  -1   4  189.68    4.60
  -6  -1   5    6.65    4.82
   6   1  -5   20.52    4.22
   6   1  -5   13.92    6.47
  -6  -1   5   13.94    5.44
   6   1  -6   35.97    4.10
   6   1  -6   39.12    6.19
  -6  -1   6   37.39    4.52
  -6  -1   6   30.49    5.31
   6   1  -6   30.10    6.92
   6   1  -7  630.52    9.25
   6   1  -7  672.72    9.57
   6   1  -7  614.82    6.79
  -6  -1   7  535.83    6.47
  -6  -1   7  501.30    6.32
  -6  -1   8  568.48    6.66
   6   1  -8  689.89    9.10
   6   1  -8  785.35   10.86
  -6  -1   8  616.07    6.40
   6   1  -8  745.22    7.35
  -6  -1   9  128.00    4.83
   6   1  -9  177.30    6.26
   6   1  -9  190.78    6.82
   6   1  -9  175.24    5.27
  -6  -1   9  159.65    4.67
   6   1 -10    7.82    5.87
  -6  -1  10    3.58    3.22
  -6  -1  10   13.01    4.20
   6   1 -10   -8.47    4.43
   6   1 -10   10.94    7.00
  -6   0   1 1796.95   11.41
   6   0  -1 2261.47   13.22
   6   0  -1 2050.93   11.97
  -6   0   1 1887.90   11.63
   6   0  -2 1493.23    9.89
   6   0  -2 1544.91   10.89
  -6   0   2 1403.34   10.04
  -6   0   2 1284.72    9.59
   6   0  -3    6.41    6.52
  -6   0   3   21.39    5.09
  -6   0   3   44.56    6.14
   6   0  -3   22.75    6.04
   6   0  -4  949.57    7.26
  -6   0   4  845.49    7.32
   6   0  -4 1031.01    9.61
  -6   0   4  770.53    8.03
   6   0  -5  627.64    7.17
  -6   0   5  567.49    6.73
   6   0  -5  703.99    8.45
  -6   0   6  331.75    6.32
   6   0  -6  432.64    7.03
   6   0  -6  406.91    6.71
   6   0  -6  455.41    7.69
   6   0  -7   19.18    5.67
   6   0  -7    6.42    3.88
   6   0  -7   12.00    5.76
  -6   0   7   33.00    5.10
   6   0  -8   24.92    4.74
   6   0  -8   -3.14    5.56
   6   0  -8    2.58    5.09
  -6   0   8    7.66    3.41
   6   0  -9   17.61    5.40
   6   0  -9   24.99    3.79
   6   0  -9   14.12    5.95
  -6   0   9   -0.58    4.68
   6   0 -10   15.15    6.11
   6   0 -10    3.96    5.15
   6   0 -10   11.40    4.94
  -6   0  10    1.54    4.18
   6  -1   0 1561.05   10.25
  -6   1   0 1390.06    9.66
  -6   1   0 1511.11    9.89
   6  -1   0 1632.23    9.82
   6  -1  -1   19.94    6.00
   6  -1  -1    2.56    5.86
  -6   1   1   10.52    4.90
  -6   1   1    9.52    6.33
   6  -1  -2   40.11    4.69
  -6   1   2   43.09    4.08
   6  -1  -2   49.01    6.26
  -6   1   2   43.83    6.61
  -6   1   3   42.48    6.28
  -6   1   3   19.49    5.46
   6  -1  -3   26.88    6.32
   6  -1  -3   38.15    6.55
   6  -1  -4  240.54    6.39
  -6   1   4  213.71    5.08
   6  -1  -4  221.44    6.58
  -6   1   4  193.84    5.55
  -6   1   5  134.39    5.85
  -6   1   5  143.71    5.78
   6  -1  -5  142.66    5.91
   6  -1  -5  164.75    6.35
  -6   1   6  412.89    5.36
   6  -1  -6  454.93    6.81
  -6   1   6  406.67    6.41
   6  -1  -6  500.92    7.33
  -6   1   7  355.85    5.93
   6  -1  -7  421.13    6.41
   6  -1  -7  375.24    5.10
  -6   1   7  312.28    6.29
  -6   1   8   19.79    4.44
   6  -1  -8   30.19    5.24
   6  -1  -8   36.96    3.76
  -6   1   8   24.10    4.78
   6  -1  -9  431.18    6.20
  -6   1   9  370.62    6.22
   6  -1  -9  466.02    7.71
  -6   1   9  381.36    5.36
   6  -1  -9  428.35    6.17
  -6   1  10  255.32    4.87
   6  -1 -10  290.47    6.09
  -6   1  10  238.97    5.48
   6  -1 -10  323.35    7.27
   6  -1 -10  285.53    4.58
   6  -2   0   34.18    6.14
   6  -2   0   20.88    5.86
  -6   2   0   20.01    6.92
  -6   2   0   49.32    5.26
  -6   2   1   18.92    7.25
   6  -2  -1   23.47    4.31
  -6   2   1   22.30    5.32
   6  -2  -1   32.09    6.03
  -6   2   2  668.46    7.27
   6  -2  -2  652.05    6.61
  -6   2   2  654.68    8.71
   6  -2  -2  713.46    6.80
  -6   2   3  900.61    9.13
  -6   2   3 1038.45    7.68
   6  -2  -3 1116.31    9.45
   6  -2  -3 1078.61    9.10
  -6   2   4  880.95    8.40
  -6   2   4  838.99    8.39
   6  -2  -4  906.26    8.29
   6  -2  -4  999.11    8.75
  -6   2   5  341.26    6.88
  -6   2   5  322.10    5.29
   6  -2  -5  374.44    6.51
   6  -2  -5  385.28    6.81
  -6   2   6  138.03    4.45
   6  -2  -6  177.80    6.02
   6  -2  -6  155.97    5.45
  -6   2   6  128.04    6.11
   6  -2  -7  280.77    5.91
   6  -2  -7  329.35    6.24
  -6   2   7  294.35    5.93
   6  -2  -7  342.63    6.54
  -6   2   7  312.46    5.46
  -6   2   8   83.33    5.57
   6  -2  -8  100.93    4.87
  -6   2   8   74.49    4.91
   6  -2  -8   82.07    5.37
   6  -2  -8   90.83    5.73
  -6   2   9   18.75    4.57
   6  -2  -9    1.41    4.39
   6  -2  -9   22.47    5.35
  -6   2   9   12.95    4.46
   6  -2  -9   13.85    4.43
   6  -2 -10   13.59    3.53
  -6   2  10   21.78    3.98
   6  -2 -10   19.95    4.07
   6  -3   0  399.89    5.57
  -6   3   0  426.64    6.03
   6  -3   0  433.87    6.46
  -6   3   0  430.89    8.79
  -6   3   1  516.55    9.12
   6  -3  -1  489.94    7.47
   6  -3  -1  472.73    5.53
  -6   3   1  474.29    6.14
   6  -3  -2  583.02    7.18
  -6   3   2  549.10    7.23
  -6   3   2  531.39    6.36
   6  -3  -2  554.29    6.40
   6  -3  -3  231.92    6.65
  -6   3   3  242.23    7.32
   6  -3  -3  267.90    5.92
   6  -3  -4   20.28    4.16
  -6   3   4    8.24    5.56
   6  -3  -4   -6.36    5.76
  -6   3   4   30.25    4.54
  -6   3   5    0.07    5.68
   6  -3  -5   -2.91    4.31
  -6   3   5   18.77    5.85
   6  -3  -5   30.58    5.47
   6  -3  -6    2.49    5.64
  -6   3   6    4.52    4.08
   6  -3  -6   -2.75    5.23
  -6   3   6   -1.96    5.51
   6  -3  -7  183.52    5.63
   6  -3  -7  158.21    5.72
  -6   3   7  198.64    5.82
  -6   3   7  167.86    6.31
   6  -3  -7  184.02    5.70
  -6   3   8   73.09    6.16
   6  -3  -8   90.11    5.06
   6  -3  -8   88.33    3.92
   6  -3  -8   90.39    4.84
  -6   3   8   57.41    3.88
   6  -3  -9  -14.23    5.09
  -6   3   9    8.44    4.83
   6  -3  -9   -1.50    5.26
   6  -3  -9  -10.29    4.66
   6  -3 -10    9.77    5.18
  -6   3  10    5.33    3.43
   6  -3 -10   19.98    4.18
   6  -3 -10    2.74    4.54
   6  -4   0   42.37    3.95
   6  -4   0   26.80    5.42
  -6   4   0   23.65    4.74
  -6   4   1  408.70    8.31
  -6   4   1  437.34    4.87
   6  -4  -1  441.21    6.97
   6  -4  -1  428.28    5.14
   6  -4  -2  195.10    5.84
   6  -4  -2  190.55    6.70
  -6   4   2  192.33    6.92
  -6   4   2  195.15    5.46
  -6   4   3    8.85    5.99
  -6   4   3   13.52    6.68
   6  -4  -3   24.22    5.43
   6  -4  -3   28.77    5.92
   6  -4  -4  124.84    4.44
  -6   4   4  124.36    6.43
  -6   4   4  135.37    8.00
   6  -4  -4  162.38    5.49
  -6   4   5  543.59   11.82
   6  -4  -5  584.79    6.82
   6  -4  -5  575.80    6.61
  -6   4   5  516.47    7.45
   6  -4  -6  106.17    4.33
   6  -4  -6  102.03    5.49
  -6   4   6   81.79    6.20
   6  -4  -7   89.90    5.17
   6  -4  -7   75.71    4.91
  -6   4   7   64.91    5.86
   6  -4  -7   83.27    4.20
   6  -4  -8  122.73    4.98
   6  -4  -8  120.58    5.62
   6  -4  -8  132.01    4.85
  -6   4   8  127.45    5.60
   6  -4  -9  148.19    4.77
   6  -4  -9  132.41    5.14
   6  -4  -9  105.57    5.54
  -6   4   9  141.98    5.20
   6  -5   0  243.35    6.49
  -6   5   0  237.15    8.43
   6  -5   0  273.32    5.80
  -6   5   0  220.03    7.48
  -6   5   0  253.74    5.35
   6  -5  -1   30.94    5.84
  -6   5   1   33.68    4.87
  -6   5   1   12.27    8.67
   6  -5  -1    8.68    3.79
   6  -5  -2  303.77    5.89
  -6   5   2  282.82   12.34
   6  -5  -2  285.39    6.86
  -6   5   2  240.76    7.24
   6  -5  -3  504.81    5.45
   6  -5  -3  520.32    7.21
  -6   5   3  452.45    7.64
   6  -5  -4   17.68    5.41
   6  -5  -4   18.39    5.51
  -6   5   4   17.62    5.66
  -6   5   5  165.38    6.40
   6  -5  -5  227.68    5.84
   6  -5  -5  197.67    5.71
   6  -5  -6   67.37    4.73
  -6   5   6   74.54    4.18
   6  -5  -6   57.21    5.13
   6  -5  -7   47.06    3.76
   6  -5  -7   60.11    4.82
   6  -5  -7   41.12    4.40
  -6   5   7   36.70    5.44
   6  -5  -8   35.33    4.78
  -6   5   8   56.83    4.58
   6  -5  -8   33.27    5.03
   6  -5  -8   42.42    4.41
   6  -5  -9   40.78    4.38
  -6   5   9   47.17    3.55
   6  -5  -9   36.17    4.14
   6  -5  -9   23.04    4.08
  -6   6   0  414.94    5.68
   6  -6   0  426.04    7.04
   6  -6   0  439.99    5.07
  -6   6   0  467.62   10.15
  -6   6   0  454.67    7.91
  -6   6   1  165.62   11.38
   6  -6  -1  191.55    5.29
   6  -6  -1  182.51    5.67
  -6   6   1  167.19    5.99
  -6   6   1  187.39    4.85
   6  -6  -2    1.97    5.02
   6  -6  -2   15.20    5.74
  -6   6   2   18.49    5.29
   6  -6  -3   78.30    4.77
  -6   6   3   65.85    5.57
   6  -6  -3   67.24    5.82
   6  -6  -4  -15.68    4.92
  -6   6   4    1.40    5.23
   6  -6  -4    3.15    5.52
  -6   6   5   34.69    5.16
   6  -6  -5   17.98    4.08
   6  -6  -5   42.58    4.81
  -6   6   6  284.08    6.56
   6  -6  -6  298.43    4.90
   6  -6  -6  312.02    5.76
   6  -6  -7  121.51    5.40
  -6   6   7  103.32    5.09
   6  -6  -7  139.09    4.94
   6  -6  -7  118.06    4.70
   6  -6  -8  104.57    4.59
   6  -6  -8   84.25    4.86
  -6   6   8   63.47    4.90
   6  -6  -8   92.70    4.43
  -6   7   0  287.32    6.95
   6  -7   0  242.72    5.15
  -6   7   0  246.34    8.57
  -6   7   0  275.57    5.17
   6  -7   0  249.39    6.25
   6  -7  -1  107.25    5.80
  -6   7   1  110.82    5.91
   6  -7  -1  113.92    4.97
   6  -7  -2   32.59    5.29
   6  -7  -2   32.44    4.62
  -6   7   3  106.38    5.52
   6  -7  -3  114.16    5.24
   6  -7  -3  117.62    3.74
  -6   7   4  256.24    5.74
   6  -7  -4  298.24    5.75
   6  -7  -4  288.24    4.32
   6  -7  -5  214.45    5.41
   6  -7  -5  222.93    5.46
  -6   7   5  203.49    5.58
   6  -7  -6   86.45    4.75
   6  -7  -6   93.86    4.53
   6  -7  -6   85.94    3.84
  -6   7   6   87.27    5.38
  -6   7   7   -2.21    4.57
   6  -7  -7   15.94    3.18
   6  -7  -7    8.15    4.07
   6  -7  -7    3.15    4.31
   6  -8   0   26.72    4.98
   6  -8   0   24.13    4.52
  -6   8   0   26.76    5.53
  -6   8   1  216.82    6.70
   6  -8  -1  198.15    4.03
   6  -8  -1  204.58    5.71
  -6   8   2  320.57    6.68
   6  -8  -2  322.45    6.61
   6  -8  -2  345.66    5.19
   6  -8  -3   66.29    5.53
   6  -8  -3   83.20    4.40
   6  -8  -4   26.31    5.21
  -6   8   4   31.88    5.15
   6  -8  -4   40.29    4.32
   6  -8  -5  102.25    4.91
   6  -8  -5  104.75    4.42
  -6   8   5   83.67    5.57
   6  -8  -6   -2.93    4.21
  -6   8   6    5.08    4.97
   6  -8  -6   14.56    4.36
   6  -8  -6   -2.91    4.12
   6  -9   0    6.55    3.45
   6  -9   0   18.36    5.51
  -6   9   0    0.70    5.94
   6  -9  -1    2.92    3.61
  -6   9   1   16.50    5.38
   6  -9  -1   14.85    4.84
   6  -9  -2  301.32    6.56
   6  -9  -2  316.67    5.38
  -6   9   2  352.90    7.09
   6  -9  -3  309.13    5.79
   6  -9  -3  328.29    4.66
  -6   9   3  332.22    6.82
   6  -9  -4    8.21    3.41
  -6   9   4   11.11    4.84
   6  -9  -4   17.28    4.88
   6 -10   0  303.65    5.07
   6 -10   0  292.69    6.74
   6 -10  -1  202.46    4.60
   6 -10  -1  172.61    5.42
  -6  10   1  203.97    6.75
   6 -10  -2   -4.63    4.67
  -6  10   2   18.45    5.49
   6 -10  -2  -10.72    4.41
  -5 -11   1  129.49    4.88
  -5 -11   1  128.74    5.35
  -5 -11   1  112.99    4.45
  -5 -10   1   -4.99    3.31
  -5 -10   1   -2.81    3.85
  -5 -10   1   33.28    4.47
  -5 -10   2   -1.56    4.44
  -5 -10   2   -5.31    3.74
  -5 -10   3   -8.71    3.97
  -5 -10   3   -0.73    4.21
  -5 -10   4   15.51    3.93
  -5 -10   4   15.92    3.78
  -5  -9   1  291.44    4.98
  -5  -9   1  289.60    5.41
  -5  -9   2  317.63    5.52
  -5  -9   2  302.64    5.62
  -5  -9   3  -12.88    4.61
  -5  -9   3    3.13    4.70
  -5  -9   4  165.15    5.20
   5   9  -4  177.83    6.23
  -5  -9   4  173.60    4.90
  -5  -9   5  309.40    5.21
   5   9  -5  317.54    6.78
  -5  -9   5  289.04    5.19
  -5  -8   1   59.64    5.03
  -5  -8   1   79.19    4.72
  -5  -8   2  193.23    5.47
   5   8  -2  211.03    5.95
  -5  -8   2  203.44    5.37
   5   8  -3   23.54    5.93
  -5  -8   3   29.94    4.61
  -5  -8   3   36.40    4.93
  -5  -8   4  -16.71    4.82
   5   8  -4   17.85    5.85
  -5  -8   4    3.15    4.42
  -5  -8   5   -0.18    4.61
   5   8  -5   11.87    5.21
  -5  -8   5    4.84    4.32
  -5  -8   6   31.83    4.01
  -5  -8   6   13.45    4.08
   5   8  -6    9.34    5.37
   5   8  -7   43.62    6.02
  -5  -8   7   42.43    4.83
  -5  -8   7   34.76    3.38
  -5  -7   1   32.82    3.75
  -5  -7   1   42.07    9.48
  -5  -7   1   38.54    9.68
   5   7  -1   53.94    5.82
  -5  -7   2  319.90    4.97
   5   7  -2  354.21    6.84
  -5  -7   2  359.04    6.03
  -5  -7   3  618.03    6.51
  -5  -7   3  594.38    6.07
   5   7  -3  612.21    7.61
  -5  -7   4  519.13    5.58
  -5  -7   4  545.60    6.57
   5   7  -4  581.00    7.77
  -5  -7   5  218.29    5.05
   5   7  -5  177.73    5.09
  -5  -7   5  169.44    4.91
  -5  -7   6  119.55    5.19
  -5  -7   6  144.36    4.85
   5   7  -6  145.17    5.00
  -5  -7   7  540.84    6.58
   5   7  -7  561.06    8.04
  -5  -7   7  508.44    6.22
  -5  -7   8  189.22    5.13
  -5  -7   8  219.93    4.96
   5   7  -8  194.82    5.98
  -5  -6   1  753.02    7.32
   5   6  -1  785.37    6.75
  -5  -6   1  883.20   13.79
   5   6  -2  466.28    5.87
  -5  -6   2  498.27    6.86
  -5  -6   2  492.07    5.60
  -5  -6   3   49.06    4.88
   5   6  -3   49.08    6.02
  -5  -6   3   60.35    4.90
  -5  -6   4  141.30    5.23
  -5  -6   4  136.07    3.82
   5   6  -4  161.41    6.42
  -5  -6   5   16.17    3.73
   5   6  -5   21.90    5.59
  -5  -6   5   34.37    4.69
   5   6  -6    8.62    5.45
  -5  -6   6   28.71    3.30
  -5  -6   6   27.61    4.98
  -5  -6   7   34.06    3.68
  -5  -6   7   27.97    4.32
   5   6  -7   45.31    5.45
  -5  -6   8    7.16    4.68
   5   6  -8    7.36    5.11
  -5  -6   8   12.69    4.35
  -5  -6   9  -12.16    4.25
  -5  -6   9   -3.81    4.14
  -5  -5   1  322.09    9.98
  -5  -5   1  289.35    6.34
   5   5  -1  307.00    6.94
   5   5  -1  322.98   11.21
  -5  -5   2  320.56    6.42
   5   5  -2  337.93    5.55
   5   5  -3  232.48    6.66
  -5  -5   3  203.18    4.47
  -5  -5   3  223.70    4.42
  -5  -5   4  541.15    5.69
  -5  -5   4  493.43    5.63
   5   5  -4  649.11    7.51
  -5  -5   5  477.71    6.55
  -5  -5   5  546.25    5.75
   5   5  -5  604.71    7.90
  -5  -5   6  479.12    6.86
   5   5  -6  532.73    7.77
  -5  -5   6  474.12    5.89
   5   5  -7    9.42    5.26
  -5  -5   7   -0.12    5.15
  -5  -5   7    5.45    4.64
  -5  -5   8  100.29    5.26
  -5  -5   8   84.78    4.38
   5   5  -8  117.16    5.40
  -5  -5   9  135.66    5.14
   5   5  -9  170.08    5.90
  -5  -5   9  166.98    3.65
   5   4  -1    1.93    6.31
  -5  -4   1    9.78    7.09
   5   4  -1   22.63    9.72
  -5  -4   1   12.65    5.62
  -5  -4   2  305.30    9.90
   5   4  -2  302.76    5.31
  -5  -4   2  259.51    6.11
   5   4  -2  310.66   13.16
  -5  -4   3 1435.29   11.55
   5   4  -3 1610.62   10.81
  -5  -4   3 1485.78   10.13
  -5  -4   4   -1.42    4.94
  -5  -4   4   21.72    5.51
   5   4  -4    5.70    4.33
   5   4  -5  499.89    7.36
  -5  -4   5  477.09    6.09
  -5  -4   5  456.09    6.40
   5   4  -6  130.97    6.32
  -5  -4   6  107.26    5.79
  -5  -4   6  127.86    3.93
   5   4  -7   20.20    5.94
  -5  -4   7   44.35    5.37
  -5  -4   7   32.00    3.37
   5   4  -8   -7.18    5.55
  -5  -4   8  -16.72    5.03
  -5  -4   8    3.92    4.40
   5   4  -9   12.41    4.87
  -5  -4   9   26.47    4.43
  -5  -4   9    6.42    3.01
  -5  -4  10   18.83    4.20
  -5  -4  10   -6.32    4.72
   5   4 -10   19.18    4.69
  -5  -3   1  221.11    4.66
   5   3  -1  228.88   10.09
  -5  -3   1  223.00    8.33
   5   3  -1  231.62    6.46
   5   3  -2   -8.15    6.33
  -5  -3   2    0.62    5.37
   5   3  -2   -5.29    8.62
  -5  -3   2    4.58    6.07
   5   3  -3   54.94    4.60
   5   3  -3   52.57   10.85
  -5  -3   3   35.36    5.63
  -5  -3   4   18.26    3.66
   5   3  -4   31.78   12.03
   5   3  -4   23.60    4.44
   5   3  -4   18.18    9.10
  -5  -3   4   28.61    5.87
   5   3  -5   19.14   12.15
  -5  -3   5    7.24    3.64
   5   3  -5   21.13    6.09
  -5  -3   5   32.82    5.27
   5   3  -5   29.05    8.93
  -5  -3   6  368.57    5.87
  -5  -3   6  357.02    6.43
   5   3  -6  458.22   13.94
   5   3  -6  402.32    6.74
   5   3  -6  387.65   13.98
  -5  -3   7  343.35    5.87
   5   3  -7  393.82   16.01
  -5  -3   7  291.85    4.45
   5   3  -7  318.17   13.50
   5   3  -7  327.60    6.92
   5   3  -8  150.48    4.49
   5   3  -8  174.78   15.68
  -5  -3   8  150.30    5.05
   5   3  -8  142.63   13.77
  -5  -3   8  120.74    4.55
  -5  -3   9   34.38    4.45
   5   3  -9   19.84    5.23
  -5  -3   9   -8.66    4.55
  -5  -3  10  374.98    5.94
   5   3 -10  412.42    6.63
  -5  -3  10  399.03    5.31
   5   2  -1   32.96    4.40
  -5  -2   1   21.50    6.31
  -5  -2   1   33.46    6.07
   5   2  -1   42.45   10.08
  -5  -2   2   57.55    6.93
   5   2  -2   85.07    5.97
   5   2  -2   71.41    8.25
  -5  -2   2   55.70    4.27
   5   2  -3  100.09    6.56
  -5  -2   3   70.87    4.59
   5   2  -3  101.65    7.94
  -5  -2   4  805.66    7.75
   5   2  -4  922.61    7.36
   5   2  -4  981.73   12.72
  -5  -2   4  722.18    7.73
   5   2  -5  396.59   10.03
  -5  -2   5  338.43    6.26
  -5  -2   5  331.14    5.74
   5   2  -5  386.26    9.50
   5   2  -5  355.72    7.01
   5   2  -6   38.98    5.69
  -5  -2   6   10.92    4.56
  -5  -2   6   40.86    5.22
   5   2  -6   31.96    7.16
   5   2  -6   24.69    8.18
   5   2  -7  293.54    6.24
  -5  -2   7  268.63    5.40
   5   2  -7  298.92    9.13
  -5  -2   7  267.43    6.01
   5   2  -7  310.57    8.67
  -5  -2   8  550.49    6.84
   5   2  -8  644.17   10.10
   5   2  -8  599.39    7.56
  -5  -2   8  533.04    6.07
   5   2  -8  679.64   12.24
  -5  -2   9  112.76    4.45
   5   2  -9  153.93    8.62
  -5  -2   9  134.84    5.00
   5   2  -9  149.23    7.55
   5   2  -9  164.91    5.93
  -5  -2  10   50.86    4.18
  -5  -2  10   40.30    4.52
   5   2 -10   46.64    9.31
   5   2 -10   48.94    6.74
   5   2 -10   37.60    4.64
  -5  -2  11   15.67    4.34
   5   2 -11   10.17    7.79
   5   2 -11   15.97    6.77
  -5  -2  11   -3.92    3.71
   5   2 -11    8.45    4.35
   5   1  -1 1195.50    8.22
   5   1  -1 1300.59   11.28
  -5  -1   1 1174.71   10.16
  -5  -1   1 1055.72    7.81
   5   1  -2 1973.43   11.49
  -5  -1   2 1931.85   12.61
  -5  -1   2 1832.92   11.06
   5   1  -2 2203.13   14.35
  -5  -1   3  351.12    5.23
   5   1  -3  436.50    8.15
  -5  -1   3  417.67    6.95
   5   1  -3  395.40    6.86
   5   1  -4  283.95    7.89
  -5  -1   4  247.02    4.65
  -5  -1   4  222.14    6.93
   5   1  -4  273.60    5.45
   5   1  -5   90.14    4.84
  -5  -1   5  103.35    4.49
  -5  -1   5   98.39    5.11
   5   1  -5  100.67    7.13
   5   1  -6   69.69    5.86
  -5  -1   6   59.02    4.99
   5   1  -6   79.38    7.47
   5   1  -6   72.37    7.62
  -5  -1   6   52.12    5.83
   5   1  -7  463.55    5.55
  -5  -1   7  424.86    5.83
   5   1  -7  474.71    8.51
   5   1  -7  501.03    7.79
  -5  -1   7  422.53    6.07
   5   1  -8  370.09    8.83
   5   1  -8  366.09    7.64
   5   1  -8  348.97    6.20
  -5  -1   8  295.25    4.76
  -5  -1   8  317.84    5.71
   5   1  -9  470.66    7.43
   5   1  -9  493.59    9.72
   5   1  -9  424.51    6.36
  -5  -1   9  360.48    5.34
  -5  -1   9  394.20    5.78
   5   1 -10   58.01    7.28
   5   1 -10   82.99    4.89
  -5  -1  10   52.22    4.81
   5   1 -10   56.92    6.23
  -5  -1  10   53.59    4.49
   5   1 -11   15.53    4.41
  -5  -1  11   23.39    3.13
   5   1 -11   30.54    7.33
  -5  -1  11   45.21    4.22
   5   1 -11   35.19    5.25
   5   0  -1  402.66    6.91
  -5   0   1  405.38    6.87
  -5   0   1  355.78    5.73
   5   0  -1  439.45    6.22
   5   0  -2  945.13    7.34
   5   0  -2 1029.56    9.19
  -5   0   2  823.35    8.37
  -5   0   2  933.23    8.42
   5   0  -3 1546.46   11.39
  -5   0   3 1478.18   10.53
   5   0  -3 1579.21   10.32
  -5   0   3 1276.46    8.53
  -5   0   4   16.71    5.18
   5   0  -4   37.52    6.79
   5   0  -4   10.96    6.44
  -5   0   4    7.79    6.62
   5   0  -5  651.91    7.70
   5   0  -5  629.80    8.00
  -5   0   5  516.49    5.90
   5   0  -6  901.03    8.07
   5   0  -6  869.01    9.11
   5   0  -6  866.47   10.34
  -5   0   6  750.25    6.28
   5   0  -7  671.79    7.96
   5   0  -7  629.42    8.85
  -5   0   7  580.57    6.59
   5   0  -7  660.64    7.45
   5   0  -8    3.67    5.43
   5   0  -8   24.92    4.94
   5   0  -8   10.52    6.47
  -5   0   8   15.11    4.90
  -5   0   9  144.74    3.80
   5   0  -9  159.51    5.61
   5   0  -9  178.61    6.51
   5   0  -9  159.37    5.84
   5   0 -10   54.24    5.07
  -5   0  10   37.44    4.92
   5   0 -10   54.97    3.98
   5   0 -10   63.75    6.17
   5   0 -11   14.95    6.05
   5   0 -11   10.39    4.32
  -5   0  11   25.90    3.85
   5   0 -11   29.46    4.77
   5  -1   0 3430.61   17.29
  -5   1   0 3297.72   16.61
  -5   1   0 2969.70   17.15
   5  -1   0 3502.10   17.46
  -5   1   1 2298.88   13.98
   5  -1  -1 2528.25   14.12
  -5   1   1 2439.59   14.25
   5  -1  -1 2585.80   14.69
  -5   1   2  130.60    4.33
  -5   1   2  142.91    5.05
   5  -1  -2  146.79    4.97
   5  -1  -2  158.93    6.12
   5  -1  -3 1458.83   10.75
   5  -1  -3 1421.04   10.18
  -5   1   3 1311.20   10.28
  -5   1   3 1288.82    9.54
   5  -1  -4 1232.92    9.44
  -5   1   4 1076.88    8.99
  -5   1   4 1118.35    9.45
   5  -1  -4 1254.26   10.13
  -5   1   5  564.94    7.24
   5  -1  -5  634.97    6.26
  -5   1   5  568.11    7.14
   5  -1  -5  644.59    7.74
  -5   1   6   23.02    5.35
   5  -1  -6   48.45    5.75
   5  -1  -6   19.49    5.51
   5  -1  -6   47.49    5.66
  -5   1   6   28.16    5.46
  -5   1   7   21.60    5.01
   5  -1  -7   10.64    4.22
   5  -1  -7    6.64    5.55
  -5   1   7    1.19    5.00
  -5   1   8   55.99    5.12
   5  -1  -8   71.31    5.38
   5  -1  -8   71.48    5.18
  -5   1   8   43.19    4.97
  -5   1   9   36.88    4.49
   5  -1  -9   35.27    5.10
   5  -1  -9   12.35    4.94
   5  -1  -9   -7.97    5.17
  -5   1   9   26.61    4.22
  -5   1  10  106.90    4.94
  -5   1  10  104.18    4.88
   5  -1 -10  120.00    6.55
   5  -1 -10  107.32    5.14
   5  -1 -10  130.85    5.37
   5  -1 -11   72.72    6.17
  -5   1  11   57.56    4.12
   5  -1 -11   80.27    4.85
   5  -1 -11   70.31    4.64
   5  -2   0   79.51    4.38
  -5   2   0   77.90    5.56
  -5   2   0   89.47    7.18
   5  -2   0   75.67    4.35
  -5   2   1  315.88    8.17
  -5   2   1  285.42    4.53
   5  -2  -1  317.87    6.23
   5  -2  -1  281.42    6.93
   5  -2  -2  164.00    4.71
  -5   2   2  157.23    5.67
   5  -2  -2  171.19    6.63
  -5   2   2  163.88    5.61
   5  -2  -3  132.31    4.57
   5  -2  -3  131.33    6.61
  -5   2   3  123.06    7.40
  -5   2   4   29.93    6.35
   5  -2  -4   18.06    6.65
  -5   2   4   29.86    5.94
   5  -2  -4   17.01    6.47
  -5   2   5  101.52    5.75
  -5   2   5  120.12    4.68
   5  -2  -5  116.00    4.77
   5  -2  -5  129.25    6.48
   5  -2  -6   52.64    5.61
   5  -2  -6   66.85    5.44
  -5   2   6   34.13    4.20
  -5   2   6   47.40    5.69
   5  -2  -7  126.12    4.62
  -5   2   7  123.00    5.39
  -5   2   7  102.31    5.30
   5  -2  -7  137.46    5.57
   5  -2  -7  100.92    5.86
   5  -2  -8  335.96    6.38
   5  -2  -8  331.89    6.03
  -5   2   8  304.75    5.78
  -5   2   8  279.54    6.06
   5  -2  -8  308.18    6.02
   5  -2  -9   15.98    5.22
   5  -2  -9   19.63    5.03
  -5   2   9   32.97    4.84
   5  -2  -9   20.49    4.60
  -5   2   9   33.70    4.79
  -5   2  10   24.73    4.21
   5  -2 -10   20.27    4.61
   5  -2 -10    3.29    5.60
   5  -2 -10   -1.86    3.73
   5  -2 -11  137.17    4.47
   5  -2 -11  137.45    4.86
  -5   2  11  113.12    3.50
  -5   3   0   58.96    4.95
   5  -3   0   51.24    6.23
   5  -3   0   60.45    5.75
   5  -3  -1  863.67    8.84
  -5   3   1  847.08    9.91
   5  -3  -1  847.94    7.84
  -5   3   1  831.76    7.34
  -5   3   2 1400.13    9.53
   5  -3  -2 1429.76    9.77
   5  -3  -2 1474.92    9.68
  -5   3   2 1383.46   11.11
  -5   3   3   25.75    6.51
  -5   3   3   17.07    6.25
   5  -3  -3   39.97    6.19
   5  -3  -3   24.84    5.73
  -5   3   4   12.83    6.42
   5  -3  -4   19.23    6.43
  -5   3   4   21.65    6.70
   5  -3  -4    5.45    5.67
   5  -3  -5  292.62    6.43
  -5   3   5  299.99    5.40
  -5   3   5  267.34    7.41
   5  -3  -5  291.01    6.55
  -5   3   6  578.75    7.71
   5  -3  -6  622.61    7.33
  -5   3   6  552.50    8.75
   5  -3  -6  589.28    7.49
  -5   3   7   16.55    5.06
   5  -3  -7   15.24    4.97
   5  -3  -7   22.13    5.16
   5  -3  -7    2.01    5.17
  -5   3   7   15.64    6.00
   5  -3  -8    1.02    5.06
   5  -3  -8   -2.45    5.42
  -5   3   8   12.06    4.62
   5  -3  -8   -4.16    5.17
   5  -3  -9   40.73    4.38
   5  -3  -9   40.69    4.51
  -5   3   9   37.84    4.70
   5  -3  -9   55.31    4.87
   5  -3 -10  129.10    4.44
   5  -3 -10  143.08    4.51
  -5   3  10  111.08    3.75
   5  -3 -10  133.28    4.82
   5  -3 -11   52.33    4.62
  -5   3  11   34.48    4.51
   5  -3 -11   55.17    5.15
   5  -3 -11   45.88    4.78
  -5   4   0   83.75    5.44
   5  -4   0   95.93    6.28
   5  -4   0   90.30    5.88
  -5   4   1   39.36    5.28
   5  -4  -1   41.35    4.28
   5  -4  -1   46.23    6.67
  -5   4   1   40.39    7.20
  -5   4   2   33.28    3.81
  -5   4   2   49.87    7.29
   5  -4  -2   55.69    6.51
   5  -4  -2   38.62    4.17
   5  -4  -3  488.91    6.41
   5  -4  -3  489.17    6.85
  -5   4   3  430.64    6.67
  -5   4   3  439.37   11.18
  -5   4   4   23.70    6.68
   5  -4  -4    0.84    3.94
   5  -4  -4    3.99    4.52
  -5   4   4    1.36   10.24
  -5   4   5   -8.98    5.73
   5  -4  -5    4.19    5.45
   5  -4  -5   14.21    6.12
   5  -4  -6   77.65    6.02
   5  -4  -6   93.48    4.18
  -5   4   6   77.71    4.50
   5  -4  -7   13.34    4.66
   5  -4  -7   11.19    5.14
  -5   4   7   15.96    3.84
   5  -4  -7    7.11    3.91
   5  -4  -8  301.21    6.06
   5  -4  -8  335.25    5.66
   5  -4  -8  289.75    6.00
  -5   4   8  312.11    5.75
   5  -4  -9  314.23    5.48
  -5   4   9  297.20    5.49
   5  -4  -9  294.80    5.89
   5  -4  -9  325.98    6.42
   5  -4 -10  206.34    5.14
   5  -4 -10  222.73    5.96
   5  -4 -10  213.76    4.89
  -5   4  10  199.70    4.28
   5  -5   0   33.11    5.79
   5  -5   0   27.48    7.10
  -5   5   0   27.47    8.37
  -5   5   0   25.15    6.47
  -5   5   0   26.91    3.71
  -5   5   1  365.94   11.34
  -5   5   1  348.18    4.74
   5  -5  -1  366.53    5.03
   5  -5  -1  351.71    6.88
   5  -5  -2  167.92    6.80
   5  -5  -2  182.79    5.78
  -5   5   2  159.50    6.58
   5  -5  -3  818.48    7.33
   5  -5  -3  856.93    7.85
  -5   5   3  738.64    8.51
  -5   5   4  734.15    8.66
   5  -5  -4  834.01    8.08
   5  -5  -4  920.71    7.93
  -5   5   5   53.23    5.88
   5  -5  -5   65.21    4.19
   5  -5  -5   66.79    5.49
   5  -5  -6  627.12    7.24
   5  -5  -6  632.63    6.99
   5  -5  -6  647.98    6.06
  -5   5   6  596.09    7.39
   5  -5  -7  578.66    7.17
   5  -5  -7  558.41    6.98
  -5   5   7  506.15    6.87
   5  -5  -7  607.61    5.89
   5  -5  -8  290.58    5.28
   5  -5  -8  254.49    5.90
   5  -5  -8  279.26    6.14
  -5   5   8  256.45    6.27
   5  -5  -9  128.52    3.74
   5  -5  -9  112.88    5.42
   5  -5  -9  101.45    4.05
  -5   5   9   99.59    5.61
   5  -5 -10   27.82    3.95
   5  -5 -10   17.15    4.91
   5  -5 -10   11.36    4.43
  -5   5  10   10.46    4.35
  -5   6   0 1406.23   13.59
   5  -6   0 1413.69   11.38
  -5   6   0 1400.78    8.53
  -5   6   0 1443.69   14.29
   5  -6   0 1404.97    9.40
   5  -6  -1 1120.55    9.75
   5  -6  -1 1087.13    7.43
  -5   6   1 1042.94   10.67
   5  -6  -2  715.21    8.17
   5  -6  -2  695.68    6.99
   5  -6  -3    8.60    5.17
   5  -6  -3    5.72    6.14
  -5   6   3   27.05    5.44
  -5   6   4  543.51    7.33
   5  -6  -4  641.40    5.79
   5  -6  -4  592.84    6.32
   5  -6  -5  329.46    5.55
  -5   6   5  296.40    6.08
   5  -6  -5  349.45    5.19
  -5   6   6  114.28    5.38
   5  -6  -6  121.64    4.09
   5  -6  -6  125.01    5.82
   5  -6  -6  133.17    5.23
  -5   6   7   46.00    5.40
   5  -6  -7   32.74    5.22
   5  -6  -7   46.99    5.08
   5  -6  -7   58.84    3.92
   5  -6  -8    1.53    4.32
   5  -6  -8   30.15    4.85
  -5   6   8   18.80    4.91
   5  -6  -8   17.08    4.64
   5  -6  -9   14.91    3.53
   5  -6  -9   21.88    4.57
   5  -6  -9   18.98    3.70
  -5   6   9    7.58    3.73
   5  -7   0   93.18    6.01
  -5   7   0  111.28    3.98
   5  -7   0   97.79    4.07
  -5   7   0  103.23    5.79
   5  -7  -1   72.58    5.96
   5  -7  -1   62.12    4.68
  -5   7   1   72.30    5.54
   5  -7  -2    0.83    5.39
   5  -7  -2   -4.20    3.45
   5  -7  -3    7.48    4.39
  -5   7   3   -0.92    4.97
   5  -7  -3   -8.00    5.30
  -5   7   4  113.38    4.53
   5  -7  -4  126.21    6.33
   5  -7  -4  121.76    3.82
   5  -7  -5  610.44    7.61
  -5   7   5  541.33    7.30
   5  -7  -5  637.45    5.69
   5  -7  -6  285.14    5.14
  -5   7   6  241.45    5.80
   5  -7  -6  277.45    5.47
   5  -7  -6  249.81    5.53
  -5   7   7   -4.53    4.87
   5  -7  -7   23.50    4.92
   5  -7  -7   18.39    4.82
   5  -7  -7   11.38    5.27
   5  -7  -8   -4.02    4.03
   5  -7  -8    2.46    4.94
  -5   7   8    9.06    4.59
   5  -7  -8   -0.97    4.65
  -5   8   0  170.85    7.04
   5  -8   0  156.58    5.33
   5  -8   0  149.86    6.21
  -5   8   1  139.17    5.85
   5  -8  -1  137.87    4.00
   5  -8  -1  142.94    6.57
   5  -8  -2  604.78    5.64
  -5   8   2  570.54    7.78
   5  -8  -2  578.73    7.79
   5  -8  -3  612.59    6.62
   5  -8  -3  575.10    7.28
  -5   8   4   24.97    4.62
   5  -8  -4    8.83    5.47
   5  -8  -4    6.91    3.23
   5  -8  -5   21.00    4.88
  -5   8   5   15.71    4.57
   5  -8  -5    1.89    4.08
   5  -8  -5    5.19    4.56
   5  -8  -6    5.95    3.46
   5  -8  -6   22.85    4.66
   5  -8  -6    4.07    3.45
  -5   8   6    8.63    4.70
   5  -8  -7   55.91    4.77
   5  -8  -7   43.85    4.23
  -5   8   7   20.71    4.51
   5  -8  -7   45.43    4.45
   5  -9   0   81.40    6.42
  -5   9   0   99.47    6.89
   5  -9   0   70.31    5.08
  -5   9   1   -2.38    6.06
   5  -9  -1    6.11    5.67
   5  -9  -1    5.87    4.51
   5  -9  -2   15.03    5.96
  -5   9   2    7.90    5.13
   5  -9  -2    3.81    4.75
   5  -9  -3    9.66    4.62
   5  -9  -3    6.03    4.26
   5  -9  -4   98.84    4.96
  -5   9   4   89.29    4.86
   5  -9  -4   65.90    5.45
   5  -9  -5   10.21    4.46
   5  -9  -5   17.17    4.15
  -5   9   5    9.40    4.95
   5  -9  -5   21.76    4.87
   5  -9  -6   44.41    3.83
  -5   9   6    7.06    4.59
   5  -9  -6   12.82    4.31
   5  -9  -6   25.72    4.57
   5 -10   0   66.91    3.59
   5 -10   0   58.55    5.83
   5 -10  -1  137.30    4.53
  -5  10   1  184.48    6.65
   5 -10  -1  144.58    5.81
  -5  10   2   93.97    5.89
   5 -10  -2   66.54    5.50
   5 -10  -2   96.49    3.53
   5 -10  -3   37.11    4.58
   5 -10  -3   31.23    5.06
  -5  10   3   19.97    5.21
   5 -10  -4  196.14    5.20
   5 -10  -4  186.53    5.17
   5 -10  -4  204.20    5.28
   5 -11   0    5.67    3.93
   5 -11   0    4.87    6.49
   5 -11   0    4.69    5.37
  -4 -11   1   39.36    9.64
  -4 -11   1   30.72    3.04
  -4 -11   1   58.09    4.43
  -4 -11   1   34.16    3.95
  -4 -11   1   36.73    8.66
  -4 -11   2   14.53    4.22
  -4 -11   2   24.31    3.05
  -4 -11   2    6.26    3.98
  -4 -11   3    6.62    2.85
  -4 -11   3    2.35    3.81
  -4 -11   3   20.48    4.50
  -4 -10   1   89.88    4.83
  -4 -10   1   86.87    8.91
  -4 -10   1   86.88    4.09
  -4 -10   1   70.80    5.05
  -4 -10   1   77.29    8.21
  -4 -10   2  161.78    5.42
  -4 -10   2  147.97    4.61
  -4 -10   2  133.61    5.01
  -4 -10   3   40.41    3.88
  -4 -10   3   60.35    4.47
  -4 -10   4    8.03    4.00
  -4 -10   4   -2.73    2.92
  -4 -10   5   14.05    3.76
  -4 -10   5   -5.29    4.09
  -4  -9   1   94.25    5.22
  -4  -9   1   88.02    8.31
  -4  -9   1   70.71    4.72
  -4  -9   1   84.38    9.07
  -4  -9   2  239.45    4.28
  -4  -9   2  272.42    5.81
  -4  -9   3  187.63    5.17
  -4  -9   3  177.36    4.93
  -4  -9   4   21.64    4.58
  -4  -9   4   28.26    4.08
   4   9  -5  217.48    6.44
  -4  -9   5  209.58    5.32
  -4  -9   5  221.19    5.20
   4   9  -6  228.89    6.23
  -4  -9   6  213.81    4.92
  -4  -9   6  242.44    4.98
  -4  -9   7   83.90    4.45
   4   9  -7   92.53    5.92
  -4  -9   7   60.81    4.31
  -4  -8   1  123.30    5.59
  -4  -8   1  155.17    5.26
  -4  -8   1  162.19    9.39
  -4  -8   1  169.17    9.57
  -4  -8   2  104.79    4.97
  -4  -8   2   97.30    5.20
  -4  -8   3  709.87    7.77
  -4  -8   3  773.26    8.46
   4   8  -3  779.65    8.46
  -4  -8   4  553.03    6.90
   4   8  -4  600.88    8.00
  -4  -8   4  528.25    6.90
  -4  -8   5  118.66    5.04
  -4  -8   5   99.41    5.10
   4   8  -5  112.41    6.22
  -4  -8   6   17.00    4.38
   4   8  -6   17.17    6.02
  -4  -8   6    6.84    3.99
  -4  -8   7   23.00    4.17
  -4  -8   7   43.50    3.93
   4   8  -7   27.66    5.94
  -4  -8   8   29.11    4.37
   4   8  -8    3.80    5.16
  -4  -8   8    7.76    4.60
  -4  -7   1  745.44   13.36
  -4  -7   1  644.83    7.69
  -4  -7   1  703.14   12.69
  -4  -7   1  642.48    7.60
  -4  -7   2  251.61    5.93
   4   7  -2  228.88    5.01
  -4  -7   2  258.11    5.61
  -4  -7   3  214.57    4.15
   4   7  -3  199.83    6.36
  -4  -7   3  224.58    5.63
  -4  -7   4   78.30    4.98
   4   7  -4   83.99    6.33
  -4  -7   4   97.39    4.67
  -4  -7   5   99.50    4.80
  -4  -7   5   98.29    5.41
   4   7  -5  119.21    6.16
  -4  -7   6   13.25    4.42
  -4  -7   6   35.47    4.86
   4   7  -6   38.10    6.29
  -4  -7   7  110.39    5.19
  -4  -7   7  125.08    4.71
   4   7  -7  133.13    6.46
  -4  -7   8  115.12    4.70
  -4  -7   8  148.58    3.83
   4   7  -8  156.75    5.89
   4   7  -9   83.86    5.42
  -4  -7   9   66.31    4.21
  -4  -7   9   99.73    4.84
  -4  -6   1  327.99    6.82
  -4  -6   1  338.64   11.55
   4   6  -1  300.02    7.30
  -4  -6   2  233.67    5.76
  -4  -6   2  243.66    6.53
   4   6  -2  227.17    7.25
   4   6  -3   49.45    6.66
  -4  -6   3   37.28    4.96
  -4  -6   3   12.67    5.67
  -4  -6   4   61.43    5.05
  -4  -6   4   66.88    3.74
   4   6  -4   48.43    6.11
  -4  -6   5  125.96    5.10
   4   6  -5  129.64    6.25
  -4  -6   5  145.38    5.70
   4   6  -6  517.29    7.96
  -4  -6   6  495.33    6.50
  -4  -6   6  514.49    5.38
  -4  -6   7   82.76    4.37
  -4  -6   7   85.32    5.32
   4   6  -7   77.93    6.37
   4   6  -8   57.20    5.46
  -4  -6   8   47.72    4.60
  -4  -6   8   41.87    4.28
   4   6  -9    1.34    5.04
  -4  -6   9   10.62    4.67
  -4  -6   9   13.95    3.23
  -4  -6  10   25.38    4.29
  -4  -6  10   25.32    3.85
   4   6 -10   -1.76    5.38
  -4  -5   1   19.73    9.26
  -4  -5   1   13.32    5.66
   4   5  -1   25.04    4.72
  -4  -5   2   18.99    5.39
   4   5  -2   -3.24    4.68
  -4  -5   3  146.10    4.31
   4   5  -3  135.63    7.13
  -4  -5   3  133.03    6.33
   4   5  -4   93.61    5.04
  -4  -5   4   89.81    5.62
  -4  -5   4   86.45    3.85
   4   5  -5    3.49    4.67
  -4  -5   5    1.25    3.47
  -4  -5   5   15.04    5.69
  -4  -5   6  178.50    4.14
   4   5  -6  220.24    6.93
  -4  -5   6  185.48    5.98
  -4  -5   7   16.92    5.16
   4   5  -7    8.00    5.45
  -4  -5   7   16.03    4.58
   4   5  -8  229.05    6.44
  -4  -5   8  226.85    5.24
  -4  -5   8  226.59    5.36
  -4  -5   9  192.79    4.56
   4   5  -9  162.74    6.00
  -4  -5   9  168.39    4.98
   4   5 -10  116.42    5.62
  -4  -5  10  125.91    4.44
  -4  -5  10  129.49    4.77
   4   4  -1   77.40    9.66
   4   4  -1   64.67    6.28
  -4  -4   1   79.75    9.05
  -4  -4   1   86.85    5.57
   4   4  -2   32.50   10.90
   4   4  -2   46.61    4.58
  -4  -4   2   33.23   10.25
  -4  -4   2   29.43    4.13
   4   4  -3  369.08    7.53
  -4  -4   3  377.14    5.42
  -4  -4   3  358.86    6.30
  -4  -4   4  254.18    5.11
  -4  -4   4  266.45    5.86
   4   4  -4  300.49    5.77
   4   4  -5    4.86    4.77
  -4  -4   5   14.95    3.56
  -4  -4   5   23.53    5.88
  -4  -4   6  616.92    6.68
   4   4  -6  714.20    8.14
  -4  -4   6  576.53    6.99
   4   4  -7  971.51    9.18
  -4  -4   7  866.90    8.12
  -4  -4   7  916.04    7.16
   4   4  -8  221.00    5.00
  -4  -4   8  222.57    5.37
  -4  -4   8  225.27    5.49
  -4  -4   9   19.64    4.56
  -4  -4   9    9.56    3.06
   4   4  -9   25.55    5.73
  -4  -4  10   75.77    3.27
   4   4 -10   71.63    5.50
  -4  -4  10   61.69    4.86
  -4  -4  11   72.13    4.04
   4   4 -11   56.64    5.27
  -4  -4  11   47.90    3.31
  -4  -3   1 4265.77   26.89
   4   3  -1 4131.02   30.46
  -4  -3   1 3935.56   18.88
   4   3  -1 3476.45   17.43
  -4  -3   2 1837.47   11.38
   4   3  -2 2096.35   11.64
   4   3  -2 2208.67   22.86
  -4  -3   2 2243.15   17.58
  -4  -3   3    3.92    4.27
  -4  -3   3   13.71    5.50
   4   3  -3    7.24    6.56
   4   3  -3    9.47   12.29
   4   3  -4 1460.84   24.31
   4   3  -4 1521.49   22.93
  -4  -3   4 1411.55   10.33
  -4  -3   4 1361.03    9.75
   4   3  -4 1640.17   11.30
  -4  -3   5  842.76    8.04
   4   3  -5  998.03   21.98
   4   3  -5  946.49   22.81
  -4  -3   5  810.20    8.28
   4   3  -5  955.24    7.89
   4   3  -6  100.63   14.94
  -4  -3   6   88.79    5.86
  -4  -3   6   88.81    3.82
   4   3  -6   93.03    4.66
   4   3  -6   98.41   14.00
   4   3  -7   44.80   13.93
  -4  -3   7   43.90    3.54
   4   3  -7   37.64   11.95
  -4  -3   7   26.21    5.64
   4   3  -7   21.24    6.02
  -4  -3   8   11.82    5.50
  -4  -3   8    6.50    3.37
   4   3  -8    0.15   12.41
   4   3  -8   -4.62    5.54
   4   3  -8    2.23   10.45
  -4  -3   9   15.23    3.51
  -4  -3   9    8.99    4.40
   4   3  -9   14.78    5.51
   4   3  -9    1.62    9.90
   4   3  -9    7.87   11.36
   4   3 -10  101.98    5.74
   4   3 -10  114.14   12.20
  -4  -3  10  100.92    5.14
   4   3 -10  104.22   10.27
  -4  -3  10   95.84    3.66
   4   3 -11  342.80    5.75
  -4  -3  11  282.84    4.71
  -4  -3  11  295.82    5.52
   4   2  -1   40.03   11.06
  -4  -2   1   34.56    7.12
  -4  -2   1   24.07    8.44
   4   2  -1   22.92    5.39
  -4  -2   2 1314.84   10.15
   4   2  -2 1871.26   17.26
  -4  -2   2 1596.67   12.53
   4   2  -2 1659.26   11.35
  -4  -2   3  506.85    7.29
   4   2  -3  704.95   12.16
   4   2  -3  661.00    6.48
   4   2  -4  382.05   10.21
  -4  -2   4  338.15    6.08
  -4  -2   4  290.90    5.28
   4   2  -4  362.53    7.24
  -4  -2   5  845.95    7.96
  -4  -2   5  835.69    7.82
   4   2  -5 1061.73   12.72
   4   2  -5  982.29   13.50
   4   2  -5 1011.22    8.87
  -4  -2   6  184.66    4.82
   4   2  -6  250.87    9.19
  -4  -2   6  203.31    5.81
   4   2  -6  192.66    6.97
   4   2  -6  219.68    8.95
   4   2  -7   -2.79    5.95
  -4  -2   7   17.89    3.59
   4   2  -7    7.46    7.17
  -4  -2   7    0.74    3.93
   4   2  -7   16.46    7.22
   4   2  -8  132.22    4.64
   4   2  -8  129.33    7.42
  -4  -2   8  106.57    3.66
   4   2  -8  121.85    7.95
  -4  -2   8  114.35    5.50
   4   2  -9  448.32    5.73
  -4  -2   9  375.29    4.62
  -4  -2   9  393.08    5.83
   4   2  -9  489.98    8.31
   4   2  -9  509.67   11.02
  -4  -2  10  305.99    5.49
   4   2 -10  322.74    5.92
   4   2 -10  406.74   10.11
   4   2 -10  357.88    8.24
  -4  -2  10  297.58    5.33
   4   2 -11    7.01    7.65
  -4  -2  11   14.45    4.37
  -4  -2  11    5.77    4.16
   4   2 -11    8.44    5.72
   4   2 -11  -14.92    4.56
  -4  -2  12   13.84    4.22
   4   2 -12   42.52    7.89
   4   2 -12   36.09    5.81
   4   2 -12   20.94    4.84
  -4  -2  12   12.93    3.83
  -4  -1   1  117.28    8.38
   4   1  -1  120.02    8.31
   4   1  -1  140.13    9.17
  -4  -1   1  120.06    7.24
   4   1  -2 4374.67   22.63
  -4  -1   2 4214.16   22.67
  -4  -1   2 3505.74   16.96
   4   1  -2 4222.56   20.08
  -4  -1   3 4297.75   19.64
   4   1  -3 4875.39   25.43
   4   1  -3 4793.26   21.53
  -4  -1   4  777.33    8.04
   4   1  -4  902.57   10.17
  -4  -1   4  787.61    7.80
   4   1  -4  938.17    8.70
  -4  -1   5    7.19    3.61
   4   1  -5    3.71    6.38
   4   1  -5   20.29    6.73
  -4  -1   5    7.17    6.30
   4   1  -5   16.25    7.61
   4   1  -6   88.15    6.67
  -4  -1   6   52.05    5.51
  -4  -1   6   35.84    6.06
   4   1  -6   65.28    6.48
   4   1  -6   64.01    7.35
  -4  -1   7  357.51    6.16
   4   1  -7  415.08    8.51
   4   1  -7  414.94    7.12
   4   1  -7  399.29    7.52
  -4  -1   7  328.03    6.07
  -4  -1   8  174.47    5.01
   4   1  -8  202.93    6.19
   4   1  -8  222.21    7.77
   4   1  -8  210.50    6.34
  -4  -1   8  165.40    4.45
   4   1  -9   11.08    6.14
   4   1  -9   27.42    5.73
  -4  -1   9   15.24    3.69
   4   1  -9   21.59    6.95
  -4  -1   9  -17.06    4.54
   4   1 -10   46.72    5.56
  -4  -1  10   31.96    4.46
  -4  -1  10   19.47    4.95
   4   1 -10   43.62    4.98
   4   1 -10   33.60    6.69
   4   1 -11   11.18    4.75
  -4  -1  11   23.08    3.98
   4   1 -11   19.75    6.90
   4   1 -11   22.75    3.56
  -4  -1  11   11.39    4.46
   4   1 -12  100.26    7.57
  -4  -1  12   63.35    4.00
  -4  -1  12   52.66    4.37
   4   1 -12   66.67    3.60
   4   1 -12   76.99    5.04
  -4   0   1  325.23    9.13
  -4   0   1  371.37    8.40
   4   0  -1  409.75    7.14
   4   0  -1  385.37    8.72
  -4   0   2    8.79    6.25
   4   0  -2   17.85    7.43
  -4   0   2   -1.15    7.83
   4   0  -2   16.03    7.22
  -4   0   3  192.79    5.52
   4   0  -3  192.11    7.49
   4   0  -3  219.62    7.18
   4   0  -4   46.00    6.61
  -4   0   4   33.45    6.37
  -4   0   4   31.83    5.05
   4   0  -4   31.96    4.85
   4   0  -5   88.12    6.32
  -4   0   5   79.53    5.41
   4   0  -5   91.61    6.97
  -4   0   5   72.47    4.80
   4   0  -6  296.05    7.29
   4   0  -6  270.71    8.08
   4   0  -6  269.34    6.99
  -4   0   6  225.73    5.00
  -4   0   6  248.87    5.44
   4   0  -7  283.20    7.51
   4   0  -7  318.10    7.26
  -4   0   7  266.18    5.88
   4   0  -7  315.14    6.84
  -4   0   7  251.15    4.97
   4   0  -8  294.31    6.19
  -4   0   8  233.18    5.81
   4   0  -8  314.92    6.62
  -4   0   8  258.85    5.56
   4   0  -8  317.80    7.49
  -4   0   9   14.09    4.82
   4   0  -9   24.28    4.12
  -4   0   9   31.81    5.12
   4   0  -9   27.19    6.44
   4   0  -9   18.86    5.05
   4   0 -10  281.84    7.42
  -4   0  10  258.02    5.14
  -4   0  10  262.17    5.24
   4   0 -10  286.09    5.73
   4   0 -10  273.59    6.15
   4   0 -11   67.90    4.86
  -4   0  11   56.29    4.71
   4   0 -11   95.13    6.25
  -4   0  11   51.51    3.34
   4   0 -11   75.77    5.13
  -4   0  12   -9.27    4.03
   4   0 -12   -3.75    6.75
   4   0 -12    6.01    4.46
   4   0 -12   14.96    4.06
  -4   1   0  145.92    6.95
   4  -1   0  159.41    6.46
   4  -1   0  130.57    8.08
  -4   1   0  153.45    6.03
   4  -1  -1 1843.50   13.35
  -4   1   1 1802.73   12.55
   4  -1  -1 1885.64   13.30
  -4   1   1 1818.88   14.09
   4  -1  -2 3975.88   19.47
   4  -1  -2 3988.64   21.08
  -4   1   2 3880.96   20.86
  -4   1   2 3764.15   18.90
   4  -1  -3    2.38    6.06
   4  -1  -3   -1.90    4.84
  -4   1   3   -5.23    6.93
  -4   1   4 1513.53    9.51
  -4   1   4 1423.40   10.54
   4  -1  -4 1656.48   10.03
   4  -1  -4 1697.37   10.57
   4  -1  -5 1630.63    9.93
  -4   1   5 1437.98   10.39
  -4   1   5 1451.85   10.26
   4  -1  -5 1620.46   11.14
   4  -1  -6  214.75    7.49
  -4   1   6  216.91    7.10
   4  -1  -6  245.62    6.82
   4  -1  -6  221.67    6.48
  -4   1   6  225.50    6.14
  -4   1   7  342.16    6.23
  -4   1   7  392.47    6.55
   4  -1  -7  412.96    6.79
   4  -1  -7  407.54    7.09
  -4   1   8  510.49    5.53
  -4   1   8  505.84    6.97
   4  -1  -8  621.35    6.00
   4  -1  -8  592.34    7.42
   4  -1  -9  156.49    5.67
  -4   1   9  142.63    3.96
   4  -1  -9  142.37    5.57
  -4   1   9  138.46    5.08
   4  -1 -10   14.01    4.71
  -4   1  10    6.79    4.48
  -4   1  10    3.00    4.87
   4  -1 -11    7.97    4.80
  -4   1  11    9.28    4.13
   4  -1 -11   19.05    5.69
   4  -1 -11   12.59    4.03
   4  -1 -12   39.40    3.45
  -4   1  12   35.70    3.89
   4  -1 -12   46.21    5.24
   4  -1 -12   46.77    4.00
   4  -2   0   27.83    7.69
  -4   2   0   14.13    5.27
   4  -2   0   34.63    7.67
   4  -2  -1 1428.41   10.71
  -4   2   1 1391.33   13.06
  -4   2   1 1383.93   10.36
   4  -2  -1 1477.06   12.05
  -4   2   2 1863.20   13.41
   4  -2  -2 1960.00   13.08
   4  -2  -2 1869.26   11.14
  -4   2   2 1828.59   10.97
   4  -2  -3   49.10    6.21
  -4   2   3   47.84    6.78
   4  -2  -3   39.68    4.88
  -4   2   3   37.78    6.68
   4  -2  -4  122.11    6.27
  -4   2   4  109.15    5.95
   4  -2  -4  140.63    7.00
  -4   2   4  119.47    5.06
   4  -2  -5  206.52    5.45
  -4   2   5  196.87    7.24
  -4   2   5  203.09    5.38
   4  -2  -5  222.46    6.47
   4  -2  -6 1282.88   10.89
  -4   2   6 1149.24    8.02
  -4   2   6 1218.64   11.15
   4  -2  -6 1259.67    9.77
   4  -2  -6 1332.70    8.63
  -4   2   7   17.42    5.80
   4  -2  -7   22.35    5.60
  -4   2   7   35.61    5.74
   4  -2  -7   38.60    5.27
   4  -2  -7   45.11    5.97
   4  -2  -8    2.40    4.16
   4  -2  -8    7.28    5.90
   4  -2  -8   -7.44    5.36
  -4   2   8    7.60    5.39
  -4   2   8    5.06    5.38
  -4   2   9  150.00    4.86
   4  -2  -9  168.28    4.15
   4  -2  -9  177.06    5.38
   4  -2  -9  203.35    6.24
   4  -2 -10    1.76    5.71
   4  -2 -10    3.73    4.25
   4  -2 -10    6.35    3.65
  -4   2  10   -8.93    4.29
  -4   2  11   70.94    4.72
   4  -2 -11   72.10    4.60
   4  -2 -11   62.48    5.78
   4  -2 -11   47.64    4.22
   4  -2 -12  175.92    6.10
  -4   2  12  119.89    4.16
   4  -2 -12  151.02    4.74
   4  -2 -12  152.31    4.79
   4  -3   0  174.83    5.02
  -4   3   0  171.16    6.41
   4  -3   0  170.83    7.41
   4  -3  -1   34.43    4.28
  -4   3   1   41.13    5.72
   4  -3  -1   22.98    7.23
  -4   3   1   46.38    7.88
   4  -3  -2 1008.41    9.92
  -4   3   2  995.30   10.11
  -4   3   2 1018.29    8.05
   4  -3  -2 1034.93    7.45
   4  -3  -3  152.72    5.72
   4  -3  -3  137.81    6.95
  -4   3   3  125.79    6.94
  -4   3   3  136.00    7.40
   4  -3  -4    8.23    6.02
  -4   3   4    2.79    7.03
  -4   3   4  -12.51    6.90
   4  -3  -4   12.67    4.94
   4  -3  -5   79.72    5.72
  -4   3   5   71.16    6.76
  -4   3   5   68.88    8.24
   4  -3  -5   83.22    6.37
   4  -3  -6 1793.15   11.07
   4  -3  -6 1760.04   10.22
  -4   3   6 1663.98   14.49
   4  -3  -6 1637.77   12.11
  -4   3   6 1671.06   11.15
  -4   3   7  466.92    5.63
   4  -3  -7  498.74    7.06
   4  -3  -7  509.77    6.90
   4  -3  -7  464.01    7.03
   4  -3  -8    8.37    4.62
   4  -3  -8  -14.28    5.66
  -4   3   8   11.67    3.87
   4  -3  -8   22.80    5.50
   4  -3  -9  173.75    5.52
   4  -3  -9  173.86    5.60
  -4   3   9  162.90    5.23
   4  -3  -9  178.31    5.68
   4  -3 -10  361.31    6.26
   4  -3 -10  333.71    5.53
   4  -3 -10  332.70    5.74
  -4   3  10  283.90    5.47
  -4   3  11  316.25    4.38
   4  -3 -11  369.56    5.74
   4  -3 -11  380.92    5.86
   4  -3 -11  356.54    6.21
   4  -3 -12   55.24    3.59
  -4   3  12   56.37    4.39
   4  -3 -12   65.56    5.54
   4  -3 -12   59.03    4.02
   4  -4   0 2813.21   14.21
  -4   4   0 2662.65   18.58
  -4   4   0 2822.85   14.21
  -4   4   0 2863.90   21.75
   4  -4   0 2971.02   18.13
   4  -4  -1  240.38    5.99
  -4   4   1  260.34    9.72
   4  -4  -1  255.59    7.39
  -4   4   1  243.19    5.61
  -4   4   2 1738.29   12.28
   4  -4  -2 1986.03   12.94
  -4   4   2 1892.24   25.35
   4  -4  -2 1902.23   10.36
   4  -4  -3 3352.81   17.10
  -4   4   3 3204.25   18.87
   4  -4  -3 3583.62   17.65
   4  -4  -4  805.36    8.71
  -4   4   4  745.51    8.82
   4  -4  -4  811.59    7.56
  -4   4   5  230.87    5.49
   4  -4  -5  269.74    6.71
   4  -4  -5  256.26    5.87
   4  -4  -6   75.98    5.57
   4  -4  -6   42.94    6.21
  -4   4   6   59.78    6.15
   4  -4  -6   56.29    3.96
   4  -4  -7  165.65    6.30
   4  -4  -7  149.56    5.84
  -4   4   7  141.85    5.83
   4  -4  -7  152.51    5.20
  -4   4   8   42.52    3.99
   4  -4  -8   33.73    5.62
   4  -4  -8   56.83    4.71
   4  -4  -8   54.12    5.48
   4  -4  -9  285.53    5.11
  -4   4   9  238.18    5.35
   4  -4  -9  274.67    6.06
   4  -4  -9  275.94    5.46
   4  -4 -10  131.38    4.83
  -4   4  10  109.53    4.71
   4  -4 -10  101.89    5.41
   4  -4 -10  116.09    4.69
   4  -4 -11   52.15    4.63
   4  -4 -11   53.12    4.53
  -4   4  11   48.09    4.23
   4  -4 -11   47.49    5.55
   4  -5   0 1215.51   11.80
  -4   5   0 1139.95   11.73
  -4   5   0 1143.57    7.55
   4  -5   0 1151.38    8.48
  -4   5   0 1231.47   13.39
   4  -5  -1  345.27    7.97
  -4   5   1  344.45    5.98
   4  -5  -1  359.74    5.08
  -4   5   1  339.59   11.17
  -4   5   2  130.32    7.05
   4  -5  -2  173.84    5.76
   4  -5  -2  154.12    5.48
   4  -5  -3  255.08    6.24
  -4   5   3  228.26    7.01
   4  -5  -3  270.30    7.70
  -4   5   4  138.81    7.05
   4  -5  -4  139.50    5.30
   4  -5  -4  148.39    5.75
   4  -5  -5  594.61    6.91
  -4   5   5  496.24    7.31
   4  -5  -5  580.07    7.86
  -4   5   6  199.45    6.31
   4  -5  -6  202.35    5.50
   4  -5  -6  193.06    4.21
   4  -5  -6  215.22    6.23
  -4   5   7  430.16    7.02
   4  -5  -7  471.67    6.68
   4  -5  -7  446.33    5.69
   4  -5  -7  448.38    6.70
   4  -5  -8  813.11    7.44
  -4   5   8  675.05    6.57
   4  -5  -8  771.53    7.56
   4  -5  -8  751.16    7.65
   4  -5  -9  312.00    6.37
   4  -5  -9  299.96    5.85
  -4   5   9  304.30    6.22
   4  -5  -9  334.14    5.71
   4  -5 -10   -6.28    4.67
  -4   5  10   16.22    3.65
   4  -5 -10   20.67    4.56
   4  -5 -10   -9.14    4.63
   4  -5 -11  120.13    5.33
   4  -5 -11  137.19    4.27
  -4   5  11   82.02    5.14
   4  -5 -11  108.19    4.68
  -4   6   0  135.21    5.49
  -4   6   0  120.96    7.83
   4  -6   0  129.61    5.83
   4  -6   0  130.94    7.15
  -4   6   0  130.04    6.12
   4  -6  -1 1307.35   10.96
   4  -6  -1 1350.23    8.50
  -4   6   1 1286.92   11.86
   4  -6  -2 1004.76    8.17
   4  -6  -2  954.48    9.68
  -4   6   3  323.16    7.02
   4  -6  -3  350.95    7.52
   4  -6  -3  353.19    4.67
   4  -6  -4   97.11    6.07
  -4   6   4   90.77    6.10
   4  -6  -4  103.38    5.34
   4  -6  -5 1310.62   10.09
   4  -6  -5 1363.81    9.50
  -4   6   5 1151.77   10.00
  -4   6   6  571.65    7.54
   4  -6  -6  629.79    7.44
   4  -6  -6  610.85    6.54
   4  -6  -6  652.32    6.58
   4  -6  -7   40.21    5.41
   4  -6  -7   36.71    4.98
  -4   6   7   33.73    5.07
   4  -6  -7   23.52    4.84
   4  -6  -8   -8.23    5.15
  -4   6   8  -10.98    4.07
   4  -6  -8   20.54    5.54
   4  -6  -8    2.63    4.53
  -4   6   9   66.54    4.12
   4  -6  -9   40.45    4.57
   4  -6  -9   41.43    4.08
   4  -6  -9   53.12    5.20
  -4   6  10  100.21    4.84
   4  -6 -10   56.95    5.30
   4  -6 -10   87.53    5.11
   4  -6 -10   64.04    4.49
   4  -7   0  213.31    7.62
   4  -7   0  222.15    4.41
  -4   7   0  222.80    6.75
   4  -7  -1   40.32    5.03
  -4   7   1   57.50    5.86
   4  -7  -1   50.40    6.74
   4  -7  -2   -2.99    4.76
   4  -7  -2   -1.00    6.32
   4  -7  -3   38.91    4.76
   4  -7  -3   60.24    5.85
  -4   7   3   30.57    5.66
   4  -7  -4   20.95    6.25
  -4   7   4   26.95    5.31
   4  -7  -4   41.01    5.02
   4  -7  -5   15.73    4.15
   4  -7  -5   10.21    4.90
  -4   7   5    5.85    3.99
   4  -7  -5   10.54    3.45
   4  -7  -6  157.59    3.79
  -4   7   6  157.03    5.88
   4  -7  -6  152.82    3.80
   4  -7  -6  140.46    5.62
  -4   7   7   19.94    5.35
   4  -7  -7   -1.83    3.87
   4  -7  -7   14.99    3.64
   4  -7  -7   16.75    3.50
   4  -7  -8    2.19    3.65
  -4   7   8  -16.31    4.88
   4  -7  -8   19.21    4.38
   4  -7  -8   -2.09    4.76
  -4   7   9   19.16    4.61
   4  -7  -9   34.91    3.97
   4  -7  -9   35.32    4.47
   4  -7  -9   -9.24    4.51
   4  -7 -10  148.14    5.21
   4  -7 -10  111.73    4.72
  -4   7  10  149.63    4.60
  -4   8   0  528.71    9.35
   4  -8   0  477.77    7.88
   4  -8   0  502.32    5.48
  -4   8   1   46.28    5.46
   4  -8  -1   58.50    3.84
   4  -8  -1   41.05    6.08
  -4   8   2  140.39    5.27
   4  -8  -2  184.91    5.36
   4  -8  -2  132.77    6.36
   4  -8  -3  399.06    7.35
  -4   8   3  392.64    6.45
   4  -8  -3  395.32    6.07
  -4   8   4  307.81    6.14
   4  -8  -4  318.74    5.15
   4  -8  -4  312.64    6.69
  -4   8   5    3.76    5.17
   4  -8  -5    6.06    4.64
   4  -8  -5   10.36    5.20
   4  -8  -5   12.47    3.32
   4  -8  -6  347.44    6.06
   4  -8  -6  419.43    5.28
   4  -8  -6  333.75    5.41
  -4   8   6  335.79    6.39
   4  -8  -7  218.30    5.24
   4  -8  -7  194.91    5.14
   4  -8  -7  217.53    5.56
  -4   8   7  212.66    5.43
   4  -8  -8   74.30    5.30
   4  -8  -8   66.21    3.86
  -4   8   8   66.93    4.75
   4  -8  -8   77.56    3.33
  -4   8   9   -9.30    5.04
   4  -8  -9   13.03    3.50
   4  -8  -9  -15.81    4.54
   4  -8  -9   -9.24    4.31
   4  -9   0  272.43    7.10
   4  -9   0  282.86    5.89
  -4   9   1  374.69    7.66
   4  -9  -1  338.50    6.92
   4  -9  -1  381.00    5.89
  -4   9   2  100.62    5.58
   4  -9  -2   75.25    6.01
   4  -9  -2   80.75    4.62
   4  -9  -3  128.05    5.59
   4  -9  -3  140.46    5.16
   4  -9  -4  238.06    5.11
  -4   9   4  244.33    5.82
   4  -9  -4  238.92    5.05
   4  -9  -4  243.07    6.49
  -4   9   5   24.48    4.41
   4  -9  -5   10.64    4.21
   4  -9  -5   28.41    3.92
   4  -9  -5   16.95    4.33
  -4   9   6   26.06    4.95
   4  -9  -6   -0.50    4.68
   4  -9  -6  -10.97    4.54
   4  -9  -7    9.29    4.48
  -4   9   7    4.62    4.38
   4  -9  -7    0.67    4.09
   4  -9  -7   19.07    3.64
   4 -10   0    0.47    6.10
   4 -10   0   12.81    3.43
   4 -10  -1   14.68    4.65
   4 -10  -1    7.90    6.21
  -4  10   2   17.24    5.39
   4 -10  -2   18.91    4.17
   4 -10  -2   -5.30    5.87
  -4  10   3    2.25    4.82
   4 -10  -3   22.09    4.52
   4 -10  -3    8.73    4.73
   4 -10  -3   11.56    5.25
   4 -10  -4   88.57    4.98
   4 -10  -4   74.16    4.14
   4 -10  -4   77.10    4.95
  -4  10   4   82.59    4.84
   4 -10  -5  236.17    5.32
   4 -10  -5  253.24    5.91
   4 -10  -5  257.03    5.58
  -4  10   5  241.47    5.32
   4 -10  -6   41.95    4.51
   4 -10  -6   25.67    4.11
   4 -10  -6   33.13    4.45
  -4  10   6   26.84    4.91
   4 -11   0    5.09    5.88
   4 -11   0   12.15    3.24
   4 -11   0    3.12    6.51
   4 -11  -1   45.76    6.10
   4 -11  -1   72.81    4.52
   4 -11  -2  205.96    5.14
   4 -11  -2  212.70    4.96
   4 -11  -2  201.35    6.04
   4 -11  -3   96.78    5.11
   4 -11  -3   95.22    4.20
   4 -11  -3   88.65    5.56
  -3 -11   1   26.85    4.36
  -3 -11   1   15.23    4.28
  -3 -11   1   17.23    6.67
  -3 -11   1   22.02    6.79
  -3 -11   1   14.67    4.51
  -3 -11   2  143.17    4.27
  -3 -11   2  131.86    4.73
  -3 -11   2  138.00    4.63
  -3 -11   2  144.16   11.97
  -3 -11   2  147.92   11.92
  -3 -11   3   98.17    4.39
  -3 -11   3   88.24    4.47
  -3 -11   3   84.41    3.96
  -3 -11   4    7.48    4.09
  -3 -11   4   12.88    4.86
  -3 -11   4   23.60    4.56
  -3 -10   1  129.57    4.76
  -3 -10   1  153.85    5.00
  -3 -10   1  154.93    7.10
  -3 -10   1  149.54    7.47
  -3 -10   1  146.56    5.16
  -3 -10   2  243.59   11.06
  -3 -10   2  247.61   11.04
  -3 -10   2  258.12    5.79
  -3 -10   2  266.50    5.41
  -3 -10   2  214.04    5.19
  -3 -10   3  321.26    5.78
  -3 -10   3  319.69    6.13
  -3 -10   3  292.05    5.56
  -3 -10   4   22.25    3.99
  -3 -10   4   25.93    4.32
  -3 -10   5   -7.35    3.59
  -3 -10   5   20.75    3.97
  -3 -10   6   32.05    5.02
  -3 -10   6   50.10    3.62
  -3  -9   1  249.02    5.36
  -3  -9   1  290.15    8.15
  -3  -9   1  284.58    5.89
  -3  -9   1  301.52    8.54
  -3  -9   1  268.83    6.23
  -3  -9   2   12.88    4.07
  -3  -9   2    5.01    4.96
  -3  -9   2   14.26    3.82
  -3  -9   2    3.76    8.94
  -3  -9   2    1.77    9.09
  -3  -9   3   29.01    4.81
  -3  -9   3   21.95    4.83
  -3  -9   4   53.31    3.56
  -3  -9   4   54.55    5.12
  -3  -9   5   52.02    4.64
  -3  -9   5   56.40    4.97
  -3  -9   6  162.60    5.01
  -3  -9   6  158.48    5.20
   3   9  -6  163.64    6.09
  -3  -9   7  131.51    4.63
  -3  -9   7  132.80    4.51
   3   9  -7  147.02    6.28
  -3  -8   1  115.12    7.15
  -3  -8   1  118.37    8.37
  -3  -8   1  106.69    5.64
  -3  -8   1  116.11    5.05
  -3  -8   2  316.65    6.24
  -3  -8   2  304.32    5.55
  -3  -8   2  334.77   12.15
  -3  -8   2  352.21   12.18
  -3  -8   3   14.02    4.84
  -3  -8   3   24.20    4.74
  -3  -8   4  484.85    6.76
  -3  -8   4  512.21    6.76
   3   8  -4  493.15    7.55
  -3  -8   5  342.54    6.01
   3   8  -5  313.02    6.60
  -3  -8   5  369.01    5.59
  -3  -8   6   84.17    5.25
   3   8  -6   94.18    6.45
  -3  -8   6   59.28    4.36
  -3  -8   7   46.40    4.44
  -3  -8   7   40.70    4.31
   3   8  -7   76.66    5.67
   3   8  -8  122.10    6.02
  -3  -8   8  102.66    4.52
  -3  -8   8  121.44    5.14
   3   8  -9   12.34    5.55
  -3  -8   9   25.03    3.16
  -3  -8   9   20.06    4.76
  -3  -7   1  172.59    4.29
  -3  -7   1  205.27    4.94
  -3  -7   1  215.16    9.04
  -3  -7   1  212.07    8.97
  -3  -7   2 1055.92    9.78
  -3  -7   2 1058.94    9.66
   3   7  -2 1081.50    9.50
  -3  -7   2 1177.42   21.52
  -3  -7   2 1237.27   22.11
  -3  -7   3  366.55    4.93
   3   7  -3  348.75    5.87
  -3  -7   3  360.99    6.44
  -3  -7   4    6.35    3.83
  -3  -7   4   28.54    4.41
   3   7  -4    3.82    4.54
  -3  -7   5  340.14    5.38
   3   7  -5  325.28    7.56
  -3  -7   5  299.18    6.17
  -3  -7   6  338.19    4.65
   3   7  -6  340.63    7.58
  -3  -7   6  302.32    6.19
   3   7  -7   89.44    6.53
  -3  -7   7   68.74    4.96
  -3  -7   7   64.98    4.28
  -3  -7   8   -0.75    4.26
  -3  -7   8    9.86    5.38
   3   7  -8   16.22    6.32
   3   7  -9   53.85    5.55
  -3  -7   9   42.55    4.45
  -3  -7   9   50.16    3.25
   3   7 -10   35.91    5.69
  -3  -7  10   18.32    4.39
  -3  -7  10   22.18    4.30
   3   6  -1   60.33    5.89
  -3  -6   1   58.95    8.13
  -3  -6   1   58.85    9.71
  -3  -6   1   47.55    3.90
  -3  -6   1   60.64    5.80
  -3  -6   2   59.76    6.12
   3   6  -2   59.31    6.91
  -3  -6   2   52.89    5.34
  -3  -6   3   20.09    5.09
   3   6  -3   16.54    7.00
  -3  -6   3   31.42    5.98
   3   6  -4   10.16    6.82
  -3  -6   4   11.40    3.75
  -3  -6   4   15.77    5.78
  -3  -6   5   16.03    4.83
  -3  -6   5    3.89    5.59
   3   6  -5   26.61    6.18
  -3  -6   6  118.04    5.86
   3   6  -6  128.78    6.40
  -3  -6   6  144.43    4.90
   3   6  -7  150.91    6.86
  -3  -6   7  111.81    5.17
  -3  -6   7  106.32    4.45
  -3  -6   8   52.86    4.43
   3   6  -8   51.75    6.22
  -3  -6   8   51.34    4.74
  -3  -6   9   64.07    4.61
   3   6  -9   61.57    5.92
  -3  -6   9   53.17    4.50
   3   6 -10  152.77    5.51
  -3  -6  10  165.25    4.82
  -3  -6  10  164.52    3.85
  -3  -5   1  655.73    7.96
   3   5  -1  711.95    8.52
  -3  -5   1  765.16   12.46
  -3  -5   2  731.38    7.98
  -3  -5   2  664.22    7.65
   3   5  -2  742.78    8.47
  -3  -5   3 1194.30    9.67
   3   5  -3 1283.49    9.20
  -3  -5   3 1243.84    9.27
   3   5  -4 1097.43   10.56
  -3  -5   4 1085.10    8.88
  -3  -5   4 1014.06    9.38
  -3  -5   5  170.23    5.25
  -3  -5   5  186.04    4.85
   3   5  -5  179.15    7.22
  -3  -5   6   58.80    4.68
   3   5  -6   88.64    5.11
  -3  -5   6   67.71    5.76
  -3  -5   7  340.06    4.47
   3   5  -7  366.38    7.22
  -3  -5   7  318.70    5.24
  -3  -5   8  295.01    5.99
   3   5  -8  309.53    7.37
  -3  -5   8  307.83    5.28
   3   5  -9  166.38    5.83
  -3  -5   9  162.10    3.80
  -3  -5   9  141.32    5.27
   3   5 -10  107.16    5.90
  -3  -5  10  127.41    4.53
  -3  -5  10  115.85    5.03
  -3  -5  11   34.91    3.85
  -3  -5  11   24.47    4.26
   3   5 -11   27.05    5.16
   3   4  -1 3226.15   16.06
   3   4  -1 3460.41   32.88
  -3  -4   1 3291.64   16.90
  -3  -4   1 3709.45   26.79
   3   4  -2  444.26    7.90
  -3  -4   2  451.53    7.36
  -3  -4   3   36.00    3.79
  -3  -4   3   38.46    4.43
   3   4  -3   37.76    6.45
   3   4  -4   14.34    6.61
  -3  -4   4   14.07    4.80
  -3  -4   4    4.01    5.57
  -3  -4   5   84.51    5.24
   3   4  -5   89.12    7.25
  -3  -4   5   78.55    4.66
  -3  -4   6   38.92    4.80
  -3  -4   6    5.46    6.36
   3   4  -6   26.78    5.10
   3   4  -7  336.86    7.12
  -3  -4   7  336.40    6.46
  -3  -4   7  325.41    5.49
  -3  -4   8  512.04    5.91
   3   4  -8  527.13    7.37
  -3  -4   8  504.36    6.53
  -3  -4   9   98.00    4.95
  -3  -4   9   76.25    5.04
   3   4  -9  112.84    5.57
   3   4 -10   19.73    4.84
  -3  -4  10   -8.64    4.62
  -3  -4  10   -2.35    4.32
   3   4 -11  152.98    5.48
  -3  -4  11  172.00    3.54
  -3  -4  11  175.96    5.14
  -3  -4  12  124.08    4.16
  -3  -4  12  104.50    3.58
   3   4 -12  142.42    5.40
   3   3  -1 1533.31   10.83
   3   3  -1 1603.15   20.88
  -3  -3   1 1702.84   17.42
  -3  -3   1 1515.61   10.68
   3   3  -2 1668.87   27.64
  -3  -3   2 1796.76   23.37
  -3  -3   2 1362.05   10.80
   3   3  -2 1565.08   11.65
  -3  -3   3  727.45    7.94
  -3  -3   3  744.57    7.01
   3   3  -3  798.56    8.66
  -3  -3   4   28.83    5.01
   3   3  -4   56.80    4.78
  -3  -3   4   43.07    4.46
  -3  -3   5 3205.20   16.77
   3   3  -5 3636.55   19.54
  -3  -3   5 3311.43   16.04
   3   3  -6 3268.47   31.18
   3   3  -6 3091.91   18.03
  -3  -3   6 2702.91   14.54
   3   3  -6 2497.02   33.11
  -3  -3   6 2828.70   14.17
   3   3  -7  330.80   12.30
  -3  -3   7  284.69    5.40
   3   3  -7  293.58    7.47
   3   3  -7  273.48   14.43
  -3  -3   7  278.06    6.77
   3   3  -8   14.29    8.74
   3   3  -8    7.02   11.52
  -3  -3   8   -1.65    5.21
  -3  -3   8    6.45    4.61
   3   3  -8    4.70    5.50
  -3  -3   9  281.13    5.92
   3   3  -9  326.73   10.05
  -3  -3   9  269.23    5.11
   3   3  -9  318.75   12.78
   3   3  -9  289.33    6.46
   3   3 -10  125.70    5.90
   3   3 -10  149.93    7.94
  -3  -3  10  109.77    4.68
  -3  -3  10  113.31    4.76
   3   3 -10  140.57    9.45
  -3  -3  11   33.03    4.71
   3   3 -11   21.95    4.70
   3   3 -11   24.52    8.50
   3   3 -11   17.61    6.70
  -3  -3  11   18.93    3.91
  -3  -3  12    3.46    4.32
   3   3 -12   12.26    6.90
   3   3 -12    9.39    8.06
  -3  -3  12   -0.76    3.14
   3   3 -12   14.20    4.94
   3   2  -1   16.14   13.45
  -3  -2   1   15.10    6.12
   3   2  -1   25.15    6.25
  -3  -2   1   12.20    8.24
   3   2  -2  802.53   10.42
  -3  -2   2  725.10    9.88
   3   2  -2  873.61   16.11
  -3  -2   2  828.45   12.45
  -3  -2   3 3200.25   19.30
   3   2  -3 3768.23   25.83
  -3  -2   3 2910.51   15.96
   3   2  -3 3358.02   18.04
   3   2  -4  486.63   10.71
  -3  -2   4  429.36    7.20
   3   2  -4  458.23   11.34
   3   2  -4  484.68    7.87
  -3  -2   4  437.28    6.53
  -3  -2   5  104.46    6.34
   3   2  -5   83.47    6.89
   3   2  -5  110.98    8.34
  -3  -2   5   88.06    4.11
   3   2  -5  103.75    8.72
   3   2  -6   56.13    7.68
   3   2  -6   56.07    8.74
   3   2  -6   69.66    6.95
  -3  -2   6   53.78    6.28
  -3  -2   6   65.44    3.87
   3   2  -7    0.16    9.02
  -3  -2   7   27.86    5.20
  -3  -2   7   14.52    6.03
   3   2  -7   18.54    6.61
   3   2  -7    9.08    7.49
   3   2  -8    3.46    7.67
  -3  -2   8    0.85    5.34
  -3  -2   8   14.92    4.58
   3   2  -8    3.23    6.37
   3   2  -8   11.61    5.90
   3   2  -9   -7.35    7.99
  -3  -2   9   -9.87    5.10
   3   2  -9    3.86    6.12
   3   2  -9    8.28    5.43
  -3  -2   9   17.95    4.64
   3   2 -10  114.28    7.93
  -3  -2  10   87.44    3.54
   3   2 -10   93.73    5.78
  -3  -2  10   86.04    4.79
   3   2 -10  103.06    6.00
  -3  -2  11   52.52    3.38
  -3  -2  11   37.79    4.76
   3   2 -11   43.51    5.66
   3   2 -11   44.40    7.88
   3   2 -11   49.85    5.03
  -3  -2  12   35.94    4.41
   3   2 -12   38.07    5.13
   3   2 -12   46.75    7.47
  -3  -2  12   29.09    4.17
   3   2 -12   35.25    4.42
  -3  -1   1  632.66    9.42
  -3  -1   1  706.57   10.39
   3   1  -1  677.40    8.09
   3   1  -1  742.37   11.58
  -3  -1   2  678.75   11.29
  -3  -1   2  601.02    8.05
   3   1  -2  718.50   11.25
   3   1  -2  664.40    8.27
  -3  -1   3  936.76    9.39
   3   1  -3 1108.47   12.92
   3   1  -3 1098.51   11.36
  -3  -1   3  967.03   10.66
  -3  -1   4 1173.12   10.21
   3   1  -4 1183.52    9.18
   3   1  -4 1217.04   13.08
  -3  -1   4 1140.91    9.10
   3   1  -4 1252.94   11.83
   3   1  -5  267.45    5.62
   3   1  -5  234.82    7.87
  -3  -1   5  203.77    5.81
  -3  -1   5  217.35    5.15
   3   1  -5  253.69    7.42
  -3  -1   6  644.21    6.39
   3   1  -6  690.77   11.00
   3   1  -6  749.32    8.84
  -3  -1   6  570.57    6.77
   3   1  -6  679.29    8.67
   3   1  -7  973.32   10.06
  -3  -1   7  844.64    8.30
   3   1  -7  949.38    7.97
  -3  -1   7  875.60    7.95
   3   1  -7  929.17   11.81
  -3  -1   8  648.74    6.09
   3   1  -8  731.20   11.37
  -3  -1   8  710.66    7.24
   3   1  -8  790.20    8.65
   3   1  -8  738.64    6.87
   3   1  -9   45.77    5.36
  -3  -1   9   41.18    4.65
   3   1  -9   52.04    6.37
   3   1  -9   43.28    5.72
  -3  -1   9   39.09    4.02
   3   1 -10  175.42    4.62
   3   1 -10  162.97    6.00
   3   1 -10  157.03    7.60
  -3  -1  10  132.96    5.41
  -3  -1  10  146.00    5.16
   3   1 -11  117.17    5.58
   3   1 -11  129.26    7.45
  -3  -1  11  105.24    4.60
  -3  -1  11  102.93    4.73
   3   1 -11  132.50    5.21
   3   1 -12   77.92    4.75
  -3  -1  12   63.68    4.22
   3   1 -12   70.49    3.82
   3   1 -12   98.30    6.57
   3   1 -13   26.99    4.55
  -3  -1  13   45.96    3.74
   3   1 -13   45.39    4.32
   3   1 -13   34.30    6.29
   3   0  -1 5210.75   27.32
   3   0  -1 5138.63   28.72
  -3   0   1 4737.54   24.84
  -3   0   1 4963.39   28.99
  -3   0   2 3852.98   24.35
   3   0  -2 3443.26   19.96
  -3   0   2 3646.07   19.65
   3   0  -2 4059.46   24.71
   3   0  -3 1406.19   12.34
  -3   0   3 1271.57   12.39
   3   0  -3 1255.09   12.51
   3   0  -4 3380.08   16.68
  -3   0   4 3273.86   16.94
   3   0  -4 3316.85   18.82
   3   0  -5   67.23    7.05
  -3   0   5   77.41    4.97
   3   0  -5   58.99    6.64
  -3   0   5   60.50    4.55
  -3   0   6   -5.54    5.07
   3   0  -6    9.53    6.16
  -3   0   6   -5.97    6.43
   3   0  -6    7.52    5.98
   3   0  -6    2.44    4.91
   3   0  -7  103.98    6.31
  -3   0   7   66.20    5.63
   3   0  -7   93.35    4.95
   3   0  -7   81.06    6.64
  -3   0   7   95.56    6.16
   3   0  -8   97.75    5.66
  -3   0   8   86.45    4.25
   3   0  -8   76.61    6.83
  -3   0   8   80.03    5.33
   3   0  -8   82.68    6.64
   3   0  -9   11.12    6.02
  -3   0   9  -12.94    5.25
   3   0  -9   32.16    4.31
   3   0  -9   12.53    5.37
  -3   0   9   -0.05    5.37
   3   0 -10  123.08    6.17
   3   0 -10  105.68    4.26
   3   0 -10  115.51    5.43
  -3   0  10  109.62    4.83
  -3   0  10   94.82    4.92
  -3   0  11  105.37    4.57
   3   0 -11  132.67    5.12
   3   0 -11  110.84    6.01
   3   0 -11  111.74    5.01
   3   0 -12   88.50    5.12
   3   0 -12   74.27    5.97
   3   0 -12   81.58    4.65
  -3   0  12   72.95    4.40
   3   0 -13    8.29    3.27
   3   0 -13   -9.78    4.40
   3   0 -13   18.37    5.76
  -3   0  13   -8.56    3.95
   3  -1   0   -2.53    6.89
  -3   1   0   -7.97    7.39
  -3   1   0   -2.57    5.62
   3  -1   0   -1.22    5.40
  -3   1   1  147.06   10.25
   3  -1  -1  147.45    8.44
  -3   1   1  145.44    7.87
   3  -1  -1  139.35    9.45
  -3   1   2   60.12   10.73
   3  -1  -2   51.47    6.17
  -3   1   2   56.94    8.14
   3  -1  -2   47.71   10.32
   3  -1  -3  196.16    9.82
   3  -1  -3  214.71    7.82
  -3   1   3  190.41    7.10
  -3   1   3  205.20    9.79
  -3   1   4   28.79    7.72
   3  -1  -4    7.13    6.59
   3  -1  -4    1.17    5.80
  -3   1   4    5.38    5.88
   3  -1  -5  612.08    8.30
   3  -1  -5  670.85    7.64
  -3   1   5  543.68    7.91
  -3   1   5  583.68    8.03
   3  -1  -5  651.76    8.34
   3  -1  -6  292.11    7.25
   3  -1  -6  273.47    5.82
  -3   1   6  240.49    5.52
   3  -1  -6  286.91    6.85
  -3   1   6  260.78    7.15
   3  -1  -7   11.36    5.81
   3  -1  -7    4.96    6.01
  -3   1   7    9.84    6.08
   3  -1  -7   40.55    6.69
   3  -1  -8  388.55    6.68
  -3   1   8  351.35    6.59
   3  -1  -8  376.77    7.12
   3  -1  -8  366.50    6.90
  -3   1   9 2242.60   12.66
   3  -1  -9 2522.16   13.56
   3  -1  -9 2572.83   16.29
  -3   1  10  440.31    6.31
   3  -1 -10  520.83    6.69
   3  -1 -10  521.40    6.99
   3  -1 -11   24.94    5.07
  -3   1  11   20.24    4.86
   3  -1 -11   16.34    3.87
  -3   1  12   60.11    4.08
   3  -1 -12   68.40    4.62
   3  -1 -12   58.00    4.98
  -3   1  13  202.07    3.93
   3  -1 -13  218.31    4.82
   3  -1 -13  216.32    4.69
   3  -1 -13  232.14    6.18
   3  -2   0  305.64    6.60
  -3   2   0  308.22    7.96
   3  -2   0  329.12    9.47
  -3   2   1  972.68   10.53
   3  -2  -1  990.67   12.80
  -3   2   1 1052.52   14.03
   3  -2  -1 1019.98   10.95
   3  -2  -2 3355.74   18.59
  -3   2   2 3198.00   20.10
  -3   2   2 3238.41   18.13
   3  -2  -2 3486.23   18.98
  -3   2   3 4519.65   26.15
   3  -2  -3 5003.00   23.75
   3  -2  -3 4850.90   23.44
  -3   2   3 4522.34   22.82
  -3   2   4  109.45    7.80
   3  -2  -4  105.15    7.73
  -3   2   4  119.57    7.58
   3  -2  -4  132.49    6.59
   3  -2  -5  307.25    6.74
   3  -2  -5  302.76    5.48
   3  -2  -5  281.06    7.37
  -3   2   5  277.98    7.37
  -3   2   5  313.28    7.24
   3  -2  -6 2389.27   12.36
  -3   2   6 2197.73   14.51
   3  -2  -6 2369.36   14.39
  -3   2   6 2154.87   11.57
   3  -2  -6 2276.17   15.17
  -3   2   7 1444.24   10.20
   3  -2  -7 1492.78   12.15
  -3   2   7 1443.82   11.42
   3  -2  -7 1601.77   10.61
   3  -2  -7 1607.19   10.75
   3  -2  -8   -2.81    4.33
   3  -2  -8    7.54    6.08
  -3   2   8    4.94    3.86
   3  -2  -8    3.95    5.67
   3  -2  -9    3.63    5.26
   3  -2  -9   17.94    5.34
   3  -2  -9   20.04    6.29
  -3   2   9    9.28    5.12
   3  -2 -10   37.99    5.33
   3  -2 -10   46.43    5.86
   3  -2 -10   67.93    5.09
  -3   2  10   46.83    4.73
   3  -2 -11   92.69    5.85
  -3   2  11   98.55    5.01
   3  -2 -11  118.06    5.11
   3  -2 -11   82.31    5.02
   3  -2 -12   38.70    4.34
   3  -2 -12   51.91    5.73
  -3   2  12   34.85    4.14
   3  -2 -12   41.55    3.60
   3  -2 -13   54.27    3.89
   3  -2 -13   25.45    5.51
   3  -2 -13   76.09    4.15
  -3   2  13   48.71    3.81
   3  -3   0 1156.34   10.86
   3  -3   0 1111.73   13.21
  -3   3   0 1102.17    8.88
  -3   3   1  508.78    6.64
   3  -3  -1  495.35    8.69
  -3   3   1  497.53    8.60
   3  -3  -1  541.09   10.89
  -3   3   2  140.81    8.30
   3  -3  -2  104.47    8.74
   3  -3  -2  114.38    7.03
  -3   3   3    5.07   10.14
   3  -3  -3   -8.32    7.41
   3  -3  -3   13.57    6.11
  -3   3   3   18.78    5.20
   3  -3  -4    3.22    6.87
   3  -3  -4   10.02    5.44
  -3   3   4   16.54    9.25
  -3   3   4   27.70    6.79
   3  -3  -5  634.25    6.81
  -3   3   5  600.17    8.34
   3  -3  -5  676.23    7.73
  -3   3   6 1000.49    7.77
   3  -3  -6 1084.88    9.49
   3  -3  -6  991.68    9.06
   3  -3  -6 1097.10    9.52
   3  -3  -7  389.37    6.81
  -3   3   7  325.66    5.36
   3  -3  -7  351.18    6.82
   3  -3  -7  339.75    7.11
  -3   3   8  439.87    5.49
   3  -3  -8  465.14    7.02
   3  -3  -8  476.77    6.59
   3  -3  -8  451.86    6.75
   3  -3  -9    2.85    4.93
  -3   3   9    0.20    3.67
   3  -3  -9    1.32    5.23
   3  -3  -9   19.74    5.58
   3  -3 -10  418.82    7.11
   3  -3 -10  428.63    6.34
  -3   3  10  389.43    4.84
   3  -3 -10  427.10    5.22
   3  -3 -11  296.63    6.14
  -3   3  11  287.94    5.10
   3  -3 -11  306.44    5.64
   3  -3 -11  310.24    4.73
   3  -3 -12  260.33    5.38
  -3   3  12  220.63    5.13
   3  -3 -12  224.96    6.39
   3  -3 -12  202.45    4.45
  -3   4   0  907.54   12.99
   3  -4   0  842.88    8.63
   3  -4   0  867.33   10.67
  -3   4   0  812.01    8.20
  -3   4   0  841.00   11.06
   3  -4  -1  984.97    8.72
  -3   4   1 1037.48   16.94
   3  -4  -1 1117.63   11.15
  -3   4   1  968.76    8.31
   3  -4  -2  137.77    4.62
  -3   4   2  121.48    7.06
   3  -4  -2  133.61    7.54
   3  -4  -3 2535.17   13.23
   3  -4  -3 2517.51   14.75
  -3   4   3 2357.13   15.24
   3  -4  -4 3402.43   17.29
  -3   4   4 3239.72   18.04
   3  -4  -4 3448.22   17.95
   3  -4  -5 1999.44   11.67
   3  -4  -5 2047.08   12.73
  -3   4   5 1871.26   12.34
   3  -4  -6  269.93    6.56
  -3   4   6  275.30    6.58
   3  -4  -6  286.02    6.69
   3  -4  -6  286.49    6.39
   3  -4  -7  569.67    7.35
   3  -4  -7  591.67    7.78
   3  -4  -7  706.09    7.51
  -3   4   7  601.31    7.71
   3  -4  -8  541.17    7.25
  -3   4   8  558.76    5.85
   3  -4  -8  561.26    5.96
   3  -4  -8  600.93    6.92
   3  -4  -9   36.73    5.02
  -3   4   9   40.72    5.40
   3  -4  -9   49.19    5.01
   3  -4  -9   20.78    5.17
   3  -4 -10   15.67    5.52
   3  -4 -10   -9.53    5.13
  -3   4  10   21.24    4.52
   3  -4 -10    0.36    4.18
  -3   4  11   25.49    3.35
   3  -4 -11   13.35    4.07
   3  -4 -11    0.03    4.64
   3  -4 -12   34.83    4.78
  -3   4  12    3.91    3.38
   3  -4 -12   30.48    4.82
   3  -4 -12    8.83    3.97
  -3   5   0  124.19    7.83
   3  -5   0   97.89    4.25
  -3   5   0  119.52    7.42
  -3   5   0  103.64    5.41
   3  -5   0  112.17    7.85
   3  -5  -1 1524.14    9.86
   3  -5  -1 1540.54   11.87
  -3   5   2 1354.14   11.24
   3  -5  -2 1399.97    9.52
   3  -5  -2 1418.02   11.06
  -3   5   3  134.44    4.84
   3  -5  -3  163.20    7.09
   3  -5  -3  135.19    4.51
   3  -5  -4    2.27    4.90
  -3   5   4   16.46    5.98
   3  -5  -4   17.51    4.16
  -3   5   5  147.11    5.01
   3  -5  -5  146.06    5.80
   3  -5  -5  132.03    4.33
   3  -5  -5  140.14    6.58
   3  -5  -6   24.37    5.37
   3  -5  -6   -2.72    3.81
  -3   5   6  -11.10    6.20
   3  -5  -6    3.50    6.32
   3  -5  -7   25.89    4.62
  -3   5   7   43.62    4.31
   3  -5  -7   37.24    4.97
   3  -5  -7   47.63    5.61
   3  -5  -8  147.51    4.12
  -3   5   8  133.47    4.38
   3  -5  -8  106.64    5.98
   3  -5  -8  126.93    4.43
   3  -5  -9  206.92    5.54
  -3   5   9  202.06    4.39
   3  -5  -9  202.72    5.48
   3  -5  -9  210.70    5.16
  -3   5  10   55.02    4.90
   3  -5 -10   64.46    5.40
   3  -5 -10   44.47    5.12
   3  -5 -10   36.78    3.34
  -3   5  11    8.36    3.29
   3  -5 -11  -11.64    5.08
   3  -5 -11    5.10    5.32
   3  -5 -11    5.94    4.49
   3  -5 -12  119.63    4.97
   3  -5 -12   90.36    4.16
   3  -5 -12   79.45    5.55
  -3   5  12   93.04    4.91
   3  -6   0  586.28    9.08
  -3   6   0  608.04    8.60
   3  -6   0  616.23    7.10
   3  -6  -1  303.77    8.64
  -3   6   1  269.54    6.35
   3  -6  -1  306.69    4.91
  -3   6   2  398.61    7.18
   3  -6  -2  440.72    7.80
   3  -6  -2  421.22    6.27
  -3   6   3  105.06    6.02
   3  -6  -3   92.46    6.92
   3  -6  -3  109.73    5.45
  -3   6   4   50.58    6.44
   3  -6  -4   22.50    5.42
   3  -6  -4   24.40    6.52
   3  -6  -5   55.53    5.03
   3  -6  -5   46.84    6.26
   3  -6  -5   73.08    4.95
  -3   6   5   72.65    6.21
   3  -6  -6  566.47    6.67
   3  -6  -6  627.05    6.80
   3  -6  -6  581.34    7.74
  -3   6   6  568.22    7.73
   3  -6  -7  406.70    6.02
   3  -6  -7  321.97    5.70
   3  -6  -7  397.92    6.39
  -3   6   7  361.60    6.85
   3  -6  -8   40.50    4.91
   3  -6  -8   40.15    4.92
   3  -6  -8   55.48    4.11
  -3   6   8   38.82    3.99
   3  -6  -9  169.27    5.43
  -3   6   9  193.83    5.57
   3  -6  -9  225.29    5.29
   3  -6  -9  182.70    5.40
  -3   6  10  376.57    5.91
   3  -6 -10  366.71    6.31
   3  -6 -10  378.80    6.02
   3  -6 -10  421.31    5.93
   3  -6 -11   82.96    5.45
   3  -6 -11   88.14    4.14
  -3   6  11   73.64    3.96
   3  -6 -11   92.96    5.18
  -3   7   0  707.02    9.65
   3  -7   0  683.24    9.31
   3  -7   0  696.20    6.37
  -3   7   1  119.42    5.49
   3  -7  -1  118.17    7.03
   3  -7  -1  115.24    5.76
   3  -7  -2  142.29    7.11
   3  -7  -2  162.73    5.44
   3  -7  -3   72.71    3.90
   3  -7  -3   80.44    6.73
  -3   7   3   75.64    5.44
  -3   7   4  191.25    5.90
   3  -7  -4  195.04    5.21
   3  -7  -4  198.35    6.59
   3  -7  -5   15.67    3.60
  -3   7   5   47.91    5.28
   3  -7  -5   32.96    5.73
   3  -7  -5    8.02    4.87
  -3   7   6  126.06    5.79
   3  -7  -6  143.53    6.09
   3  -7  -6  125.01    5.07
   3  -7  -6  111.08    5.10
   3  -7  -7   69.22    4.28
  -3   7   7   55.30    4.12
   3  -7  -7   72.49    4.82
   3  -7  -7   63.06    4.76
   3  -7  -8   71.76    4.75
   3  -7  -8   47.79    5.58
   3  -7  -8   81.08    5.06
  -3   7   8   75.49    4.22
  -3   7   9   88.47    5.46
   3  -7  -9  115.43    5.68
   3  -7  -9  110.19    4.56
   3  -7  -9   91.73    3.99
  -3   7  10   25.99    3.73
   3  -7 -10    5.18    3.92
   3  -7 -10   25.90    4.95
   3  -7 -10   30.93    4.93
   3  -8   0  262.32    8.19
   3  -8   0  264.91    5.98
  -3   8   1   88.91    5.83
   3  -8  -1  106.71    5.07
   3  -8  -1   84.49    6.73
   3  -8  -2  148.30    3.90
   3  -8  -2  160.64    7.10
   3  -8  -3   55.24    6.38
   3  -8  -3   42.61    3.83
  -3   8   3   28.86    4.95
   3  -8  -4   32.41    5.55
  -3   8   4   30.98    5.20
   3  -8  -4   12.89    3.68
   3  -8  -4   46.10    4.88
  -3   8   5   61.23    5.14
   3  -8  -5   69.55    5.39
   3  -8  -5   69.52    4.93
   3  -8  -5   64.43    4.40
   3  -8  -6  110.94    3.69
  -3   8   6   80.24    4.86
   3  -8  -6   91.80    5.77
   3  -8  -6  127.57    4.87
   3  -8  -7  587.39    6.34
  -3   8   7  555.66    7.19
   3  -8  -7  590.19    7.02
   3  -8  -7  539.76    6.22
   3  -8  -8  280.18    4.32
   3  -8  -8  319.50    5.50
   3  -8  -8  302.98    4.89
  -3   8   8  280.34    5.62
   3  -8  -9   50.79    4.99
   3  -8  -9   45.80    4.59
   3  -8  -9   58.63    4.28
  -3   8   9   43.23    4.64
  -3   8  10   25.62    5.01
   3  -8 -10   28.10    4.44
   3  -8 -10   27.19    3.54
   3  -9   0    1.11    5.93
   3  -9   0   -5.56    3.61
   3  -9  -1  253.57    7.21
   3  -9  -1  234.52    5.39
  -3   9   2  298.67    6.34
   3  -9  -2  313.68    5.45
   3  -9  -2  288.03    6.78
   3  -9  -3   41.10    5.29
   3  -9  -3    7.54    5.14
   3  -9  -3   42.57    3.45
   3  -9  -4  220.88    5.57
  -3   9   4  224.75    5.37
   3  -9  -4  249.25    5.45
   3  -9  -4  253.52    6.06
   3  -9  -5  757.78    7.90
   3  -9  -5  705.19    7.09
  -3   9   5  708.61    7.93
   3  -9  -5  791.43    7.46
  -3   9   6  228.88    5.30
   3  -9  -6  229.11    6.23
   3  -9  -6  233.53    4.08
   3  -9  -6  210.97    5.06
   3  -9  -7   -4.00    3.51
  -3   9   7   11.73    4.44
   3  -9  -7   28.55    3.98
   3  -9  -7    8.96    4.70
  -3   9   8   13.84    4.37
   3  -9  -8   -1.93    4.10
   3  -9  -8   14.50    4.44
   3  -9  -8   30.98    3.04
   3 -10   0  245.26    4.66
   3 -10   0  237.43    6.85
   3 -10   0  273.87    8.24
   3 -10  -1   17.65    3.34
   3 -10  -1   17.74    5.92
   3 -10  -2  144.41    5.74
   3 -10  -2  184.99    5.22
   3 -10  -2  179.84    5.59
   3 -10  -3  512.67    6.55
   3 -10  -3  484.77    7.46
   3 -10  -3  469.43    6.04
   3 -10  -4  145.40    4.01
   3 -10  -4  139.68    3.74
  -3  10   4  156.42    4.95
   3 -10  -4  143.91    5.73
   3 -10  -5   54.43    3.64
  -3  10   5   63.44    4.76
   3 -10  -5   51.56    5.48
   3 -10  -5   62.24    4.76
   3 -10  -6    5.43    4.34
   3 -10  -6    9.30    4.42
  -3  10   6    3.33    4.60
   3 -10  -6   25.26    3.67
  -3  10   7    8.52    4.13
   3 -10  -7   26.17    4.90
   3 -10  -7    8.27    4.28
   3 -10  -7    8.40    4.14
   3 -11   0    7.30    4.67
   3 -11   0    9.99    5.58
   3 -11   0   10.23    5.91
   3 -11  -1   39.94    5.78
   3 -11  -1   31.43    5.87
   3 -11  -1    8.71    5.19
   3 -11  -1   18.42    4.55
   3 -11  -2   74.57    4.58
   3 -11  -2   60.84    3.31
   3 -11  -2   41.28    5.37
   3 -11  -3  121.70    5.71
   3 -11  -3  111.94    4.21
   3 -11  -3  106.72    5.23
   3 -11  -4  139.31    5.40
   3 -11  -4  170.46    4.62
   3 -11  -4  153.91    4.46
   3 -11  -5    6.91    4.97
   3 -11  -5    5.49    4.21
  -3  11   5   -9.28    4.61
   3 -11  -5  -17.95    4.63
  -2 -12   1    5.98    5.69
  -2 -12   1   17.46    4.39
  -2 -12   1    9.89    3.68
  -2 -12   1   10.48    5.62
  -2 -12   1   27.02    4.65
  -2 -12   2   47.57    6.36
  -2 -12   2   27.19    6.56
  -2 -12   2   42.04    3.27
  -2 -12   2   46.10    4.86
  -2 -11   1   16.81    3.81
  -2 -11   1   14.67    3.93
  -2 -11   1    5.77    6.22
  -2 -11   1   14.78    5.96
  -2 -11   1    8.76    4.74
  -2 -11   2  150.92    7.46
  -2 -11   2  157.27    4.94
  -2 -11   2  163.75    7.23
  -2 -11   2  139.94    5.28
  -2 -11   2  163.06    5.36
  -2 -11   3  422.59    7.13
  -2 -11   3  444.12    6.48
  -2 -11   3  448.23   11.76
  -2 -11   3  391.30    5.70
  -2 -11   3  445.85   12.51
  -2 -11   4  261.75    4.78
  -2 -11   4  247.00    5.74
  -2 -11   4  253.41    5.79
  -2 -11   5   21.23    5.29
  -2 -11   5   10.49    3.80
  -2 -11   5   23.47    4.45
  -2 -10   1   31.39    5.92
  -2 -10   1   41.02    4.28
  -2 -10   1   32.32    4.63
  -2 -10   1   17.71    6.87
  -2 -10   1   35.41    4.72
  -2 -10   2   36.79    7.33
  -2 -10   2   36.38    4.98
  -2 -10   2   30.78    5.04
  -2 -10   2   30.57    4.69
  -2 -10   2   39.39    6.65
  -2 -10   3   67.42    4.99
  -2 -10   3   46.54    4.85
  -2 -10   3   58.59    8.86
  -2 -10   3   59.73    8.75
  -2 -10   3   66.07    4.55
  -2 -10   4   32.23    4.82
  -2 -10   4   29.78    4.83
  -2 -10   4   34.74    5.15
  -2 -10   5    8.31    4.68
  -2 -10   5   12.51    3.96
  -2 -10   5   -2.28    4.96
  -2 -10   6   17.52    3.05
  -2 -10   6   26.60    4.83
  -2 -10   7  102.60    4.24
  -2 -10   7  123.49    5.89
  -2  -9   1 1180.08    9.44
  -2  -9   1 1249.23    9.60
  -2  -9   1 1352.42   14.53
  -2  -9   1 1263.61   11.99
  -2  -9   1 1219.35   11.16
  -2  -9   2  462.44    9.56
  -2  -9   2  446.85    6.22
  -2  -9   2  473.45    6.33
  -2  -9   2  475.77    9.84
  -2  -9   2  446.09    6.65
  -2  -9   3   20.09    5.50
  -2  -9   3   17.47    9.47
  -2  -9   3   17.19    9.05
  -2  -9   3   23.01    5.30
  -2  -9   3   22.67    4.85
  -2  -9   4  356.72    5.63
  -2  -9   4  361.20    6.49
  -2  -9   5  149.16    4.69
  -2  -9   5  155.76    5.73
  -2  -9   6   26.14    4.60
  -2  -9   6   22.36    4.22
  -2  -9   7    9.06    3.00
  -2  -9   7   -0.53    4.89
  -2  -9   8   14.58    4.85
   2   9  -8   32.40    5.57
  -2  -9   8   30.72    3.92
  -2  -8   1  201.95    5.30
  -2  -8   1  205.03    6.59
  -2  -8   1  184.99    6.10
  -2  -8   1  203.19    5.99
  -2  -8   1  194.53    8.43
  -2  -8   2  130.91    7.96
  -2  -8   2  128.69    8.67
  -2  -8   2  113.95    4.04
  -2  -8   2  115.24    5.38
  -2  -8   3   43.78    4.63
  -2  -8   3   36.35    5.45
  -2  -8   3   42.71   10.20
  -2  -8   3   50.62   10.20
  -2  -8   4   96.39    4.96
  -2  -8   4   73.99    5.01
  -2  -8   5    0.70    4.83
  -2  -8   5    1.20    4.61
   2   8  -5   13.40    6.22
  -2  -8   6   44.17    3.52
   2   8  -6   38.96    5.91
  -2  -8   6   35.46    4.54
   2   8  -7    9.26    5.56
  -2  -8   7    4.57    4.48
  -2  -8   7    1.19    4.95
   2   8  -8  135.73    6.95
  -2  -8   8  127.51    4.95
  -2  -8   8  126.77    5.54
   2   8  -9  265.20    7.49
  -2  -8   9  258.74    5.21
  -2  -8   9  247.91    6.02
  -2  -7   1   -5.32    5.31
  -2  -7   1    4.41    6.02
  -2  -7   1    5.38    8.73
  -2  -7   1   -6.03    4.34
  -2  -7   2  618.23    6.29
  -2  -7   2  682.82   13.04
  -2  -7   2  652.83   10.85
  -2  -7   2  611.54    7.72
  -2  -7   3 1334.31    9.88
  -2  -7   3 1447.16   24.02
   2   7  -3 1268.67   10.62
  -2  -7   3 1466.24   24.46
  -2  -7   3 1236.49   10.39
  -2  -7   4  417.80    5.03
   2   7  -4  398.78    7.21
  -2  -7   4  384.41    6.69
  -2  -7   5   35.69    3.59
   2   7  -5   28.01    6.67
  -2  -7   5   31.62    5.25
   2   7  -6  581.70    8.13
  -2  -7   6  618.99    6.72
  -2  -7   6  576.35    7.37
  -2  -7   7  644.18    5.57
   2   7  -7  675.36    9.01
  -2  -7   7  631.90    7.21
  -2  -7   8   55.39    4.47
   2   7  -8   54.31    6.75
  -2  -7   8   48.92    4.90
  -2  -7   9   43.00    4.60
   2   7  -9   48.95    5.67
  -2  -7   9   52.48    4.26
  -2  -7  10   64.87    3.41
   2   7 -10   65.60    6.83
  -2  -7  10   78.43    4.37
  -2  -6   1  415.73    6.89
  -2  -6   1  344.35    6.30
  -2  -6   1  406.55    8.67
  -2  -6   1  418.89    9.16
  -2  -6   2  182.27    4.50
   2   6  -2  172.22    7.07
  -2  -6   2  207.29   11.87
  -2  -6   2  201.67    9.56
  -2  -6   2  200.91    6.39
  -2  -6   3  432.49    5.90
   2   6  -3  422.81    8.03
  -2  -6   3  401.11    6.37
  -2  -6   4  384.35    5.89
   2   6  -4  331.21    7.61
  -2  -6   4  336.05    6.19
  -2  -6   5  356.88    6.21
   2   6  -5  374.66    7.73
  -2  -6   5  337.10    6.81
  -2  -6   6   15.60    4.79
   2   6  -6   25.70    7.05
  -2  -6   6   12.43    5.93
  -2  -6   7    6.03    3.46
  -2  -6   7    0.62    5.38
   2   6  -7   14.42    6.72
   2   6  -8  -19.21    6.19
  -2  -6   8    0.15    4.97
  -2  -6   8   -9.62    4.51
  -2  -6   9   33.49    4.62
  -2  -6   9    7.56    4.12
   2   6  -9   27.48    6.18
  -2  -6  10  117.87    4.77
  -2  -6  10  127.56    5.22
   2   6 -10  103.30    6.36
   2   6 -11  156.37    6.62
  -2  -6  11  207.81    4.70
  -2  -6  11  180.90    4.63
   2   5  -1  152.69    5.35
  -2  -5   1  149.35    4.37
  -2  -5   1  170.14    9.99
  -2  -5   1  171.01    8.19
  -2  -5   1  157.11    6.39
   2   5  -2    9.44    6.65
  -2  -5   2   -3.17    3.69
  -2  -5   2    4.55   10.95
  -2  -5   2    4.14    9.78
  -2  -5   2  -11.98    5.81
   2   5  -3 1197.70    9.27
  -2  -5   3 1214.25   10.18
  -2  -5   3 1224.91    9.43
  -2  -5   4 3062.99   16.19
  -2  -5   4 2845.98   16.94
   2   5  -4 3229.67   18.88
  -2  -5   5 1634.09   11.48
   2   5  -5 1712.43   13.32
  -2  -5   5 1672.32   10.45
  -2  -5   6  218.15    6.56
  -2  -5   6  228.38    5.74
   2   5  -6  261.65    7.21
   2   5  -7  194.78    7.47
  -2  -5   7  164.53    5.23
  -2  -5   7  165.63    6.27
  -2  -5   8  577.39    6.40
  -2  -5   8  578.70    6.97
   2   5  -8  619.71    8.93
   2   5  -9  258.48    6.53
  -2  -5   9  227.16    5.74
  -2  -5   9  252.41    4.04
  -2  -5  10   40.98    4.59
  -2  -5  10   34.06    4.42
   2   5 -10   40.51    5.95
   2   5 -11   14.38    5.04
  -2  -5  11    5.31    4.06
  -2  -5  11    9.25    3.06
   2   5 -12   66.22    5.49
  -2  -5  12   55.63    4.31
  -2  -5  12   63.63    3.87
   2   4  -1 6641.29   31.56
  -2  -4   1 6961.52   34.75
  -2  -4   2 3648.37   21.45
   2   4  -2 3414.63   18.94
  -2  -4   2 3909.94   21.58
  -2  -4   3  270.76    5.41
  -2  -4   3  257.40    6.49
   2   4  -3  292.81    7.86
  -2  -4   4  223.19    5.84
   2   4  -4  218.60    7.34
  -2  -4   4  236.92    6.53
  -2  -4   5 1097.93    9.63
  -2  -4   5 1171.09    8.54
   2   4  -5 1324.21   11.11
  -2  -4   6  398.27    6.36
  -2  -4   6  370.24    5.80
   2   4  -6  431.01    8.07
   2   4  -7   21.23    6.89
  -2  -4   7    6.29    5.14
  -2  -4   7    9.85    5.91
  -2  -4   8   48.97    5.73
   2   4  -8   45.88    6.07
  -2  -4   8   57.51    4.91
   2   4  -9  116.42    5.97
  -2  -4   9  128.12    5.68
  -2  -4   9  107.96    5.12
   2   4 -10   17.86    5.71
   2   4 -10   22.05   11.75
  -2  -4  10   20.49    4.83
   2   4 -10   16.81   10.24
  -2  -4  10   16.21    4.20
   2   4 -11   -2.54   10.40
   2   4 -11   40.36    5.31
   2   4 -11    5.65    9.39
  -2  -4  11    0.41    4.57
  -2  -4  11   -2.01    4.45
   2   4 -12  104.84    5.26
  -2  -4  12   92.06    4.33
  -2  -4  12   72.86    3.39
   2   3  -1  598.89   10.91
  -2  -3   1  702.82   17.16
  -2  -3   1  637.90   10.49
   2   3  -1  676.74   16.11
   2   3  -2  563.16   10.11
  -2  -3   2  537.39    7.34
  -2  -3   2  558.21    9.89
  -2  -3   3  309.66    7.58
  -2  -3   3  291.03    5.93
   2   3  -3  343.68    8.49
  -2  -3   4   61.18    4.29
  -2  -3   4   41.90    6.68
   2   3  -4   43.88    7.40
   2   3  -5   25.54   14.39
   2   3  -5   25.68   16.75
  -2  -3   5   23.05    5.24
   2   3  -5   35.39    6.85
  -2  -3   5   20.29    6.31
   2   3  -6 1805.86   12.99
   2   3  -6 2110.93   20.08
   2   3  -6 1804.01   23.29
  -2  -3   6 1482.28    9.66
  -2  -3   6 1736.21   10.53
   2   3  -7 1292.83   14.34
   2   3  -7 1165.30   10.73
  -2  -3   7 1070.10    9.08
   2   3  -7  958.91   17.10
  -2  -3   7 1061.53    8.41
   2   3  -8  133.80   10.59
  -2  -3   8  118.31    6.24
   2   3  -8  151.60    6.85
   2   3  -8  157.75    8.59
  -2  -3   8  119.46    5.39
  -2  -3   9  115.12    5.54
   2   3  -9  147.90    7.18
   2   3  -9  143.74    9.77
   2   3  -9  146.28    6.18
  -2  -3   9  131.77    5.29
   2   3 -10  678.94    9.33
   2   3 -10  673.44   12.35
  -2  -3  10  541.86    5.70
  -2  -3  10  561.87    6.56
   2   3 -10  585.83    7.98
  -2  -3  11  184.13    4.70
   2   3 -11  219.04    6.77
  -2  -3  11  185.96    3.90
   2   3 -11  244.12    9.30
   2   3 -11  232.17    5.58
  -2  -3  12   25.26    4.06
   2   3 -12   24.15    4.99
   2   3 -12   10.65    5.17
   2   3 -12    9.90    8.23
  -2  -3  12   11.34    4.37
   2   3 -13   97.38    4.65
   2   3 -13   98.61    8.54
   2   3 -13   91.88    5.94
  -2  -3  13   72.24    4.26
   2   2  -1  688.50   10.10
   2   2  -1  757.95   19.08
  -2  -2   1  727.78   15.49
  -2  -2   1  662.67    8.07
  -2  -2   2    6.69    8.30
   2   2  -2   14.96   18.66
   2   2  -2   12.80    8.65
   2   2  -3  880.87   18.33
  -2  -2   3  698.34    9.60
   2   2  -3  849.64   19.59
   2   2  -3  771.70   11.48
  -2  -2   3  709.78    8.58
  -2  -2   4  970.09    7.89
   2   2  -4 1095.08   17.08
  -2  -2   4  977.11    9.90
   2   2  -4 1163.83   11.19
   2   2  -4 1186.19   15.24
  -2  -2   5  222.95    5.95
   2   2  -5  247.40    8.68
   2   2  -5  235.30   10.55
  -2  -2   5  221.28    7.26
   2   2  -5  234.62    7.95
   2   2  -6  696.55   12.76
  -2  -2   6  621.98    7.77
   2   2  -6  768.74   10.65
   2   2  -6  658.66    8.88
  -2  -2   6  654.63    6.07
  -2  -2   7 1177.81    9.63
   2   2  -7 1341.44   16.16
  -2  -2   7 1121.81    8.58
   2   2  -7 1226.69   10.90
  -2  -2   8  240.40    5.44
   2   2  -8  276.68   10.21
   2   2  -8  241.15    5.79
  -2  -2   8  239.96    5.17
  -2  -2   9   70.92    5.51
   2   2  -9   71.75    6.99
   2   2  -9   74.89    5.89
   2   2  -9   93.45    5.76
  -2  -2   9   77.37    5.18
   2   2 -10    7.69    5.47
   2   2 -10   11.60    7.45
  -2  -2  10   16.92    4.34
  -2  -2  10   -0.37    4.96
   2   2 -10   14.15    5.07
   2   2 -11    8.04    6.66
  -2  -2  11   -1.78    4.71
   2   2 -11    3.68    5.32
   2   2 -11    6.50    5.04
  -2  -2  11   10.41    4.08
   2   2 -12    2.52    5.15
  -2  -2  12    0.56    4.44
   2   2 -12    2.22    5.14
   2   2 -12   17.96    7.16
  -2  -2  13   47.25    3.84
   2   2 -13   51.57    4.57
   2   2 -13   56.68    5.14
   2   2 -13   80.19    7.68
   2   1  -1    9.70    5.44
   2   1  -1    9.72    8.19
  -2  -1   1    0.46    7.57
  -2  -1   1    9.12    7.03
  -2  -1   2  418.14    9.21
   2   1  -2  432.79    9.95
   2   1  -2  425.02    7.55
   2   1  -3  445.49   11.34
  -2  -1   3  377.06    6.73
   2   1  -3  448.89   12.41
  -2  -1   3  378.38   10.16
   2   1  -3  409.73    8.12
  -2  -1   4   27.49    7.20
  -2  -1   4    7.65    6.25
   2   1  -4   19.72    7.44
   2   1  -4   16.39    8.16
   2   1  -4   21.42    9.44
  -2  -1   5  790.71    8.16
   2   1  -5  893.23   10.95
   2   1  -5  806.05    9.65
   2   1  -5  804.57   11.24
  -2  -1   5  744.83    7.35
  -2  -1   6   48.93    5.76
   2   1  -6   67.80    7.07
  -2  -1   6   63.48    6.40
   2   1  -6   48.99    7.59
  -2  -1   7 1038.33    8.69
   2   1  -7 1069.77   12.86
   2   1  -7 1187.12   10.21
  -2  -1   7  997.27    7.83
   2   1  -8  326.38    8.22
  -2  -1   8  299.93    5.12
  -2  -1   8  289.43    5.20
   2   1  -8  323.66    5.84
   2   1  -9  194.34    6.74
  -2  -1   9  155.40    4.41
   2   1  -9  162.90    7.52
  -2  -1   9  145.37    4.28
   2   1 -10   31.54    6.30
   2   1 -10   34.67    5.75
  -2  -1  10   27.78    4.66
  -2  -1  10   32.36    5.08
   2   1 -11  511.08    7.75
   2   1 -11  487.67    8.86
  -2  -1  11  419.01    5.75
   2   1 -11  468.60    6.79
   2   1 -12  504.06    9.32
   2   1 -12  428.52    5.53
  -2  -1  12  372.17    5.76
   2   1 -12  487.82    7.23
   2   1 -13  186.83    7.35
   2   1 -13  172.56    5.37
  -2  -1  13  139.80    4.29
   2   1 -13  171.23    5.32
   2   0  -1 2571.57   19.53
  -2   0   1 2631.84   18.82
  -2   0   1 2338.74   18.34
   2   0  -1 2611.93   18.63
  -2   0   2 1067.85   10.41
   2   0  -2 1030.70   11.23
   2   0  -2 1023.93   10.44
  -2   0   3   51.10    9.61
   2   0  -3   64.10    7.76
   2   0  -3   62.46    7.15
  -2   0   4 1671.16   12.85
   2   0  -4 1996.94   15.30
  -2   0   4 1771.00   12.35
   2   0  -4 1916.64   15.11
  -2   0   5 4972.14   22.24
  -2   0   5 5114.32   25.45
   2   0  -5 5600.11   25.59
   2   0  -6 1236.50   10.34
  -2   0   6 1248.57    9.93
  -2   0   6 1185.14    8.46
   2   0  -7   42.83    5.05
  -2   0   7   47.05    5.85
  -2   0   7   24.38    4.50
   2   0  -8  816.12    8.88
  -2   0   8  764.19    8.16
  -2   0   8  819.06    8.13
  -2   0   9 1059.28    8.63
   2   0  -9 1078.59   12.43
   2   0  -9 1137.55    9.50
  -2   0   9 1091.92    8.90
   2   0 -10  363.67    7.13
   2   0 -10  370.33    5.45
  -2   0  10  310.23    4.88
   2   0 -11   10.20    5.46
  -2   0  11   -2.80    3.46
   2   0 -11   13.21    5.44
   2   0 -12   86.94    5.05
  -2   0  12   79.58    4.32
   2   0 -12   86.26    4.76
   2   0 -12   84.56    5.85
  -2   0  13   11.95    3.93
   2   0 -13    8.67    4.43
   2   0 -13   19.11    5.54
   2   0 -13    0.34    3.44
   2  -1   0  345.38    8.18
  -2   1   0  327.29    8.85
   2  -1   0  337.73    9.26
  -2   1   1    4.25    4.66
   2  -1  -1    8.11    6.75
  -2   1   1    9.70    9.10
   2  -1  -1   10.17    8.75
   2  -1  -2 6516.24   32.52
  -2   1   2 6418.65   32.62
   2  -1  -2 6206.54   33.04
  -2   1   3 5793.52   32.73
   2  -1  -3 6784.58   35.51
   2  -1  -3 7096.14   32.33
  -2   1   3 6321.26   29.50
   2  -1  -4 1101.25   11.52
  -2   1   4 1027.84   12.42
   2  -1  -4 1053.74   10.36
   2  -1  -4 1010.75   10.19
  -2   1   4 1009.88   11.48
   2  -1  -5   11.48    7.96
   2  -1  -5   16.27    5.05
  -2   1   5   15.37    5.67
   2  -1  -6  135.49    6.98
  -2   1   6  122.19    6.43
   2  -1  -6  121.74    6.83
  -2   1   7    6.43    6.22
   2  -1  -7    0.39    6.82
   2  -1  -7   10.23    6.80
   2  -1  -8   16.52    6.28
  -2   1   8    5.19    4.18
   2  -1  -8    5.10    4.60
   2  -1  -9  453.19    7.17
  -2   1   9  408.00    6.25
   2  -1  -9  434.80    7.56
   2  -1 -10  962.65    7.60
  -2   1  10  874.03    8.08
   2  -1 -10  936.11   10.72
   2  -1 -11   75.76    5.34
   2  -1 -11   49.70    5.04
  -2   1  11   61.26    4.73
   2  -1 -12    0.17    4.21
   2  -1 -12    9.89    4.66
   2  -1 -13  232.50    5.01
   2  -1 -13  233.31    5.01
  -2   1  13  199.81    4.88
   2  -2   0  271.92    6.11
   2  -2   0  284.84    9.60
  -2   2   0  252.39    7.09
  -2   2   1 4220.42   23.83
  -2   2   1 4090.07   25.43
   2  -2  -1 4147.43   24.24
   2  -2  -1 4177.08   23.61
   2  -2  -2  999.62   10.46
  -2   2   2  899.79   15.41
   2  -2  -2  992.78   12.93
  -2   2   2  953.86   12.86
   2  -2  -3  869.79   12.83
  -2   2   3  931.29   14.71
   2  -2  -3  967.76   11.26
  -2   2   3  927.61   12.94
   2  -2  -4 1177.73   11.05
  -2   2   4 1067.64   11.72
   2  -2  -4 1140.05   10.03
  -2   2   4 1083.40   12.69
   2  -2  -5  176.06    6.70
  -2   2   5  149.69    7.82
   2  -2  -5  192.08    6.01
   2  -2  -5  181.50    6.69
  -2   2   5  176.59    9.11
  -2   2   6  883.52   10.43
   2  -2  -6  944.58    8.86
   2  -2  -6  958.02    8.30
  -2   2   6  892.77    8.54
   2  -2  -7 1611.16   11.02
   2  -2  -7 1451.57   11.75
  -2   2   7 1525.82   10.55
   2  -2  -8 1441.46   10.24
   2  -2  -8 1490.67   12.28
  -2   2   8 1343.16    8.57
  -2   2   9  121.92    4.24
   2  -2  -9  121.36    6.52
   2  -2  -9  160.34    4.59
  -2   2  10  376.54    6.27
   2  -2 -10  432.32    7.03
   2  -2 -10  439.97    5.37
   2  -2 -11  246.76    6.47
  -2   2  11  213.94    5.59
   2  -2 -11  264.45    5.37
   2  -2 -11  233.77    4.70
   2  -2 -12   31.73    4.59
   2  -2 -12   32.64    5.13
  -2   2  12   34.46    3.29
   2  -2 -12   33.61    3.58
  -2   2  13   -2.97    4.31
   2  -2 -13    6.43    3.79
   2  -2 -13   12.80    4.26
   2  -2 -13    7.13    4.78
  -2   3   0 3922.62   21.83
   2  -3   0 3974.74   22.18
  -2   3   0 3940.30   26.04
   2  -3   0 3909.77   24.24
  -2   3   0 4010.69   26.92
   2  -3  -1 2757.12   18.91
   2  -3  -1 2859.30   16.13
  -2   3   1 2917.50   17.22
   2  -3  -2 1487.49   12.30
   2  -3  -2 1553.77   12.41
  -2   3   2 1478.48   14.39
  -2   3   3  102.90    9.12
   2  -3  -3  116.78    7.98
   2  -3  -3   91.54    6.80
   2  -3  -4 1199.66   10.44
   2  -3  -4 1151.14   10.81
  -2   3   4 1097.82   10.31
   2  -3  -5  342.48    6.88
   2  -3  -5  347.28    5.84
  -2   3   5  359.56    7.35
   2  -3  -5  355.82    6.53
   2  -3  -6  686.67    8.17
   2  -3  -6  745.23    8.33
   2  -3  -6  756.73    7.19
  -2   3   6  709.88    7.99
   2  -3  -7   97.47    7.21
  -2   3   7  125.98    6.53
   2  -3  -7  141.69    6.51
  -2   3   8   24.78    5.80
   2  -3  -8   31.73    4.64
   2  -3  -8   29.29    6.19
   2  -3  -9  127.82    6.30
  -2   3   9  110.94    5.59
   2  -3  -9  105.73    6.08
  -2   3  10   93.74    5.25
   2  -3 -10   65.68    4.83
   2  -3 -10   55.74    5.63
   2  -3 -10   47.58    4.25
   2  -3 -11  149.93    3.88
   2  -3 -11  142.98    5.70
   2  -3 -11  136.76    5.55
  -2   3  11  128.56    4.84
  -2   3  12    9.58    4.58
   2  -3 -12   37.81    5.29
   2  -3 -12   32.16    4.76
   2  -3 -12   16.78    4.04
   2  -3 -13    8.24    5.29
   2  -3 -13   37.73    4.27
   2  -3 -13    4.56    3.47
  -2   3  13   22.35    4.31
  -2   4   0 1594.88   14.81
  -2   4   0 1510.16   11.87
   2  -4   0 1523.64   11.88
  -2   4   0 1512.58   14.57
   2  -4   0 1556.02   14.59
   2  -4  -1  234.86    7.50
   2  -4  -1  233.36    7.14
  -2   4   2   65.91    7.64
   2  -4  -2   71.01    8.28
   2  -4  -2   80.64    7.07
   2  -4  -3   47.67    4.60
   2  -4  -3   48.28    7.07
  -2   4   3   38.53    6.97
   2  -4  -4  512.57    7.23
  -2   4   4  481.30    6.31
   2  -4  -4  498.69    6.58
   2  -4  -5  659.52    6.86
  -2   4   5  697.61    8.42
   2  -4  -5  761.50    6.69
   2  -4  -5  692.43    6.55
   2  -4  -6  140.58    5.11
  -2   4   6  127.54    5.00
   2  -4  -6  112.22    4.71
   2  -4  -6  121.36    6.18
   2  -4  -7    8.38    6.25
   2  -4  -7    0.69    4.44
   2  -4  -7   11.57    5.77
  -2   4   7    8.24    5.99
   2  -4  -8  886.92    8.20
  -2   4   8  790.23    7.62
   2  -4  -8  801.05    8.05
   2  -4  -8  814.67    7.74
   2  -4  -9  832.42    8.03
   2  -4  -9  773.41    8.40
   2  -4  -9  767.83    7.83
  -2   4   9  764.14    6.65
  -2   4  10   35.48    5.12
   2  -4 -10   22.69    5.08
   2  -4 -10   40.45    5.80
   2  -4 -10   16.80    5.38
   2  -4 -11   59.25    3.70
  -2   4  11   21.67    3.68
   2  -4 -11   35.04    4.98
   2  -4 -11   62.09    4.73
   2  -4 -12  217.85    5.59
  -2   4  12  207.96    5.42
   2  -4 -12  222.12    5.14
   2  -4 -12  214.91    5.33
   2  -4 -13  191.88    4.85
  -2   4  13  205.29    5.23
   2  -4 -13  188.25    5.93
   2  -4 -13  206.93    5.28
   2  -5   0  298.73    6.58
  -2   5   0  320.23    6.56
  -2   5   0  284.82    7.23
   2  -5   0  294.64    8.88
   2  -5  -1   88.40    4.30
   2  -5  -1   90.43    6.82
   2  -5  -2 1333.14    8.65
   2  -5  -2 1392.56   11.12
  -2   5   2 1352.37   11.14
   2  -5  -3 2086.23   12.87
   2  -5  -3 2164.14   12.46
  -2   5   3 2089.83   13.90
  -2   5   4  218.96    6.66
   2  -5  -4  227.09    5.29
   2  -5  -4  236.85    5.98
   2  -5  -5   83.72    6.17
   2  -5  -5   69.54    5.78
   2  -5  -5   75.26    6.52
  -2   5   5   61.83    6.46
   2  -5  -6 1102.58    8.98
  -2   5   6  982.79    7.98
   2  -5  -6  936.13    8.11
   2  -5  -6 1017.26    9.41
   2  -5  -7  367.24    6.35
   2  -5  -7  328.92    6.93
   2  -5  -7  359.06    5.08
  -2   5   7  339.80    6.71
   2  -5  -8   23.25    5.61
   2  -5  -8    6.64    5.56
   2  -5  -8   23.72    4.93
  -2   5   8   18.42    5.42
   2  -5  -9   66.14    3.84
  -2   5   9   64.92    5.54
   2  -5  -9   61.82    6.11
   2  -5  -9   66.83    4.10
   2  -5 -10   19.33    4.79
   2  -5 -10   -4.47    5.12
  -2   5  10   47.71    5.14
   2  -5 -10   16.90    5.26
  -2   5  11   62.41    4.79
   2  -5 -11   52.76    4.97
   2  -5 -11   51.42    5.24
   2  -5 -11   73.34    3.44
   2  -5 -12   27.91    3.94
  -2   5  12   16.34    4.22
   2  -5 -12    9.09    4.09
   2  -5 -12   19.23    3.61
  -2   6   0 2001.28   18.19
   2  -6   0 2018.24   15.01
   2  -6   0 2072.42   13.08
   2  -6  -1 1124.97    9.06
   2  -6  -1 1111.67   10.67
   2  -6  -2   -9.36    6.68
   2  -6  -2    8.06    5.24
  -2   6   2    5.04    4.01
   2  -6  -3  180.00    4.51
   2  -6  -3  185.41    5.23
  -2   6   3  185.60    5.96
   2  -6  -4  404.67    6.46
  -2   6   4  413.86    7.33
   2  -6  -4  398.70    7.37
   2  -6  -4  424.17    5.31
  -2   6   5  468.99    5.89
   2  -6  -5  526.14    7.85
   2  -6  -5  536.55    6.90
   2  -6  -5  458.36    5.47
   2  -6  -6    4.59    6.07
  -2   6   6    1.71    4.13
   2  -6  -6    3.10    3.70
   2  -6  -6    9.26    5.05
   2  -6  -7   19.23    5.50
  -2   6   7   -9.38    5.68
   2  -6  -7   12.42    3.67
   2  -6  -7   13.76    3.88
  -2   6   8   20.88    5.19
   2  -6  -8   23.36    3.82
   2  -6  -8   -3.00    4.15
   2  -6  -8   12.90    5.02
  -2   6   9  252.63    4.52
   2  -6  -9  239.56    5.63
   2  -6  -9  291.76    6.08
   2  -6  -9  250.16    5.45
   2  -6 -10  451.42    6.24
  -2   6  10  395.47    5.83
   2  -6 -10  411.18    6.83
   2  -6 -10  387.08    6.31
  -2   6  11  347.03    5.61
   2  -6 -11  324.46    5.69
   2  -6 -11  351.68    5.33
   2  -6 -11  347.44    4.94
   2  -6 -12  118.61    4.55
  -2   6  12   87.36    4.62
   2  -6 -12   98.24    5.11
   2  -6 -12   96.57    5.04
   2  -7   0   19.71    7.09
   2  -7   0   19.73    6.03
   2  -7  -1   55.83    5.72
   2  -7  -1   49.92    6.11
  -2   7   1   30.72    5.37
   2  -7  -2  124.56    4.28
   2  -7  -2  131.18    6.23
  -2   7   3  482.21    7.01
   2  -7  -3  554.99    6.81
   2  -7  -3  526.16    6.33
   2  -7  -4  439.10    7.35
  -2   7   4  435.04    7.08
   2  -7  -4  476.94    6.51
   2  -7  -4  431.15    6.71
   2  -7  -5  521.66    6.62
  -2   7   5  511.92    6.90
   2  -7  -5  591.30    6.64
   2  -7  -5  583.36    7.85
  -2   7   6   -2.31    5.11
   2  -7  -6    0.25    3.78
   2  -7  -6   19.56    5.79
   2  -7  -6   -7.20    4.99
   2  -7  -7  389.65    6.10
   2  -7  -7  414.66    6.07
   2  -7  -7  375.08    6.99
  -2   7   7  343.01    5.24
   2  -7  -8  322.61    5.23
   2  -7  -8  271.20    5.28
   2  -7  -8  267.36    5.34
  -2   7   8  295.56    6.38
   2  -7  -9  207.26    5.53
  -2   7   9  211.01    5.64
   2  -7  -9  230.57    5.29
   2  -7  -9  252.51    5.58
   2  -7 -10  116.06    5.57
   2  -7 -10  106.92    4.95
  -2   7  10   85.22    4.13
   2  -7 -10  134.78    5.00
   2  -7 -11    5.73    4.45
  -2   7  11    5.82    4.74
   2  -7 -11   12.91    3.89
   2  -7 -11   -1.85    4.90
   2  -8   0   90.63    6.52
   2  -8   0   80.42    5.75
   2  -8  -1 1555.72   12.45
   2  -8  -1 1609.32   11.90
   2  -8  -2  991.62    9.26
   2  -8  -2  974.13    8.71
   2  -8  -3  160.39    6.16
   2  -8  -3  167.19    4.03
  -2   8   3  141.23    4.35
   2  -8  -3  144.16    5.41
   2  -8  -4  -11.95    4.69
  -2   8   4  -11.58    5.02
   2  -8  -4   12.10    5.42
   2  -8  -4   -0.91    5.40
   2  -8  -5  212.24    4.28
  -2   8   5  204.94    5.22
   2  -8  -5  230.77    5.91
   2  -8  -5  226.07    4.33
   2  -8  -6  167.64    5.16
  -2   8   6  166.32    5.67
   2  -8  -6  160.25    4.69
   2  -8  -6  141.80    4.99
   2  -8  -7  146.91    5.53
   2  -8  -7  154.18    3.81
   2  -8  -7  143.54    5.25
  -2   8   7  152.33    5.54
  -2   8   8  284.51    5.91
   2  -8  -8  296.20    6.33
   2  -8  -8  262.00    5.07
   2  -8  -8  288.45    5.46
   2  -8  -9  105.25    5.35
   2  -8  -9   93.02    3.55
   2  -8  -9   90.34    4.70
  -2   8   9   92.76    5.42
   2  -8 -10    3.33    4.49
  -2   8  10    6.94    4.86
   2  -8 -10   11.16    4.03
   2  -8 -10   -4.19    4.91
   2  -9   0  118.82    5.35
   2  -9   0   89.63    7.10
   2  -9   0  119.63    6.29
   2  -9  -1   -3.07    5.86
   2  -9  -1   -1.32    3.60
   2  -9  -2    9.25    3.97
   2  -9  -2   -1.16    3.56
   2  -9  -2    6.35    5.52
   2  -9  -3   15.52    4.86
  -2   9   3    8.68    4.81
   2  -9  -3   12.11    5.61
   2  -9  -3    9.21    3.88
   2  -9  -4   20.04    3.33
  -2   9   4   14.00    4.77
   2  -9  -4    6.33    5.34
   2  -9  -4   25.81    4.91
   2  -9  -5   95.59    4.58
  -2   9   5   63.62    3.71
   2  -9  -5   90.87    5.25
   2  -9  -5   77.36    4.96
  -2   9   6  696.24    6.85
   2  -9  -6  767.13    6.51
   2  -9  -6  715.00    7.71
   2  -9  -6  722.61    6.88
   2  -9  -7  296.87    5.23
   2  -9  -7  294.01    5.96
   2  -9  -7  277.10    5.36
  -2   9   7  300.81    6.01
  -2   9   8   26.70    4.86
   2  -9  -8   25.98    3.37
   2  -9  -8   14.65    4.86
   2  -9  -8   13.97    3.53
   2  -9  -9   83.22    4.69
  -2   9   9   90.55    3.76
   2  -9  -9   67.08    3.86
   2  -9  -9   92.14    5.27
   2 -10   0  651.16    9.63
   2 -10   0  609.64    7.15
   2 -10   0  597.49    8.35
   2 -10  -1  252.96    6.25
   2 -10  -1  263.33    6.61
   2 -10  -1  288.15    5.79
   2 -10  -1  255.56    6.69
   2 -10  -2    5.05    5.12
   2 -10  -2   -5.90    4.79
   2 -10  -2   11.04    4.18
   2 -10  -3  306.62    6.52
   2 -10  -3  279.26    5.43
   2 -10  -3  289.39    5.84
   2 -10  -4  586.65    6.97
  -2  10   4  592.06    7.84
   2 -10  -4  583.41    6.61
   2 -10  -4  603.46    7.23
  -2  10   5  128.64    4.78
   2 -10  -5  134.71    5.22
   2 -10  -5  130.82    3.98
   2 -10  -5  126.21    4.81
   2 -10  -6   16.80    4.81
  -2  10   6    0.34    4.66
   2 -10  -6   15.63    5.06
   2 -10  -6   13.68    3.17
   2 -10  -7   16.07    5.04
  -2  10   7   29.25    4.56
   2 -10  -7   22.26    4.24
   2 -10  -7   17.27    5.03
  -2  10   8   59.22    4.62
   2 -10  -8   60.69    5.24
   2 -10  -8   68.98    4.59
   2 -10  -8   79.64    4.19
   2 -11   0   35.78    6.09
   2 -11   0   36.36    5.92
   2 -11   0   30.74    4.46
   2 -11   0   41.19    5.26
   2 -11  -1   41.91    5.41
   2 -11  -1   73.97    5.63
   2 -11  -1   54.60    6.34
   2 -11  -1   56.12    4.65
   2 -11  -2   91.47    5.44
   2 -11  -2   81.98    4.70
   2 -11  -2   82.29    5.41
   2 -11  -2   73.61    4.98
   2 -11  -3   27.79    4.23
   2 -11  -3   44.16    5.11
   2 -11  -3   23.84    5.11
   2 -11  -4    0.98    3.19
   2 -11  -4    2.07    4.93
   2 -11  -4    4.75    3.63
   2 -11  -5   12.37    4.44
   2 -11  -5   24.36    4.74
   2 -11  -5   10.39    3.85
  -2  11   6   14.67    4.51
   2 -11  -6   24.18    4.43
   2 -11  -6   10.56    4.08
   2 -11  -6   -1.24    3.03
   2 -12   0   11.63    5.36
   2 -12   0   19.86    5.40
   2 -12   0   29.10    4.18
   2 -12   0   22.85    5.62
   2 -12  -1  116.87    4.84
   2 -12  -1  131.66    6.46
   2 -12  -1  142.51    6.13
   2 -12  -1  113.47    5.21
   2 -12  -2  199.47    4.67
   2 -12  -2  176.49    5.87
   2 -12  -2  203.33    6.39
   2 -12  -2  212.31    5.34
  -1 -12   1    6.53    5.74
  -1 -12   1    8.86    4.26
  -1 -12   1   13.21    4.17
  -1 -12   1   -4.78    5.83
  -1 -12   1   14.55    4.72
  -1 -12   2   17.01    5.83
  -1 -12   2   36.21    4.65
  -1 -12   2   29.96    4.38
  -1 -12   2   28.90    5.92
  -1 -12   2   12.16    4.03
  -1 -11   1  113.09    4.89
  -1 -11   1  116.55    5.15
  -1 -11   1  122.48    4.99
  -1 -11   1  126.72    6.20
  -1 -11   1  130.27    5.70
  -1 -11   2    3.28    5.73
  -1 -11   2   -1.72    5.96
  -1 -11   2    5.40    4.56
  -1 -11   2    8.42    4.36
  -1 -11   2   -2.89    5.03
  -1 -11   3   89.26    4.95
  -1 -11   3  101.79    4.95
  -1 -11   3   77.79    4.71
  -1 -11   3   86.31    7.23
  -1 -11   3   97.78    6.50
  -1 -11   4  231.12    9.41
  -1 -11   4  232.66    9.08
  -1 -11   4  240.00    6.26
  -1 -11   4  253.44    6.26
  -1 -11   4  212.07    5.33
  -1 -11   5   89.09    5.20
  -1 -11   5   89.74    5.59
  -1 -11   5   76.41    4.24
  -1 -10   1  224.61    5.47
  -1 -10   1  215.64    6.29
  -1 -10   1  206.18    5.41
  -1 -10   1  232.77    6.47
  -1 -10   1  238.44    5.87
  -1 -10   2   75.69    5.63
  -1 -10   2   76.22    4.48
  -1 -10   2   56.70    4.90
  -1 -10   2   54.70    5.26
  -1 -10   2   80.31    5.96
  -1 -10   3   13.93    6.57
  -1 -10   3   12.89    4.53
  -1 -10   3    5.90    4.60
  -1 -10   3   16.25    4.75
  -1 -10   3   16.63    6.39
  -1 -10   4    5.35    4.76
  -1 -10   4    1.89    4.41
  -1 -10   4    1.96    7.70
  -1 -10   4    1.59    4.64
  -1 -10   4    1.38    7.75
  -1 -10   5    5.62    4.69
  -1 -10   5    2.96    5.36
  -1 -10   5    9.56    4.93
  -1 -10   6   16.52    4.69
  -1 -10   6    0.01    4.54
  -1 -10   6   11.05    4.11
  -1 -10   7   29.02    5.48
  -1 -10   7   11.44    5.53
  -1 -10   7   24.51    4.35
  -1  -9   1  374.10    6.42
  -1  -9   1  380.35    5.91
  -1  -9   1  405.68    7.27
  -1  -9   1  393.53    7.17
  -1  -9   1  387.43    8.06
  -1  -9   2  316.31    6.95
  -1  -9   2  278.61    5.58
  -1  -9   2  302.58    6.52
  -1  -9   2  305.15    6.53
  -1  -9   2  305.70    8.19
  -1  -9   3  131.21    5.43
  -1  -9   3  142.44    5.43
  -1  -9   3  151.66    6.87
  -1  -9   3  127.20    7.64
  -1  -9   3  125.57    5.21
  -1  -9   4   53.82    5.08
  -1  -9   4   90.84    5.08
  -1  -9   4   70.86    8.50
  -1  -9   4   72.69    8.54
  -1  -9   4   62.24    5.92
  -1  -9   5  496.07    6.18
  -1  -9   5  470.53    6.87
  -1  -9   5  504.32    7.63
  -1  -9   6  200.47    6.02
  -1  -9   6  240.49    4.98
  -1  -9   7    9.04    5.40
  -1  -9   7   -5.66    4.42
  -1  -9   8  146.37    6.18
  -1  -9   8  131.58    4.59
  -1  -9   9  205.61    6.36
  -1  -9   9  227.63    3.91
  -1  -8   1   93.85    6.15
  -1  -8   1  102.56    5.51
  -1  -8   1  105.46    5.29
  -1  -8   1   85.04    6.07
  -1  -8   1   91.96    7.56
  -1  -8   2 1345.83   11.87
  -1  -8   2 1369.12   13.13
  -1  -8   2 1277.53    9.80
  -1  -8   2 1387.83   11.08
  -1  -8   2 1431.16   13.64
  -1  -8   3 1475.32    9.54
  -1  -8   3 1526.35   14.51
  -1  -8   3 1458.05   11.56
  -1  -8   3 1402.90   11.88
  -1  -8   3 1498.86   14.17
  -1  -8   4   98.99    5.19
  -1  -8   4  120.16    9.62
  -1  -8   4  103.54   10.28
  -1  -8   4  110.74    5.75
  -1  -8   5   74.37    4.81
  -1  -8   5   75.65    5.48
  -1  -8   6  103.61    5.54
  -1  -8   6   84.78    4.79
   1   8  -7   23.81    6.50
  -1  -8   7   19.57    5.37
  -1  -8   7    4.92    3.59
   1   8  -8   -1.88    6.76
  -1  -8   8   10.23    5.45
  -1  -8   8   18.60    3.34
  -1  -8   9    4.54    5.06
   1   8  -9   -0.77    6.06
  -1  -8   9   27.82    4.06
   1   8 -10   55.09    6.11
  -1  -8  10   54.38    4.42
  -1  -8  10   36.86    5.16
  -1  -7   1  536.78    8.02
  -1  -7   1  535.97    6.83
  -1  -7   1  554.62    7.57
  -1  -7   1  564.41    8.83
  -1  -7   1  581.45    8.26
  -1  -7   2   57.31    5.75
  -1  -7   2   62.71    6.55
  -1  -7   2   63.05    5.54
  -1  -7   2   74.76    7.18
  -1  -7   2   59.82    7.00
  -1  -7   3   71.27    6.04
  -1  -7   3   75.84    8.32
  -1  -7   3   74.77    5.49
  -1  -7   3   86.17    9.24
  -1  -7   4  131.32    5.29
  -1  -7   4  141.93   10.67
  -1  -7   4  132.41    6.10
  -1  -7   4  137.99   11.01
  -1  -7   5   -0.40    5.00
   1   7  -5   -1.35    7.36
  -1  -7   5    9.40    5.51
   1   7  -6  176.95    7.12
  -1  -7   6  175.03    6.09
  -1  -7   6  189.55    5.09
   1   7  -7  591.73    8.83
  -1  -7   7  537.42    7.70
  -1  -7   7  578.77    5.54
  -1  -7   8  617.08    7.68
   1   7  -8  655.45    9.39
  -1  -7   8  673.16    5.91
  -1  -7   9   30.44    5.64
   1   7  -9   20.97    6.58
  -1  -7   9   13.94    3.30
   1   7 -10  126.66    7.79
  -1  -7  10  135.06    3.76
  -1  -7  10  133.00    5.32
  -1  -7  11  253.04    5.49
  -1  -7  11  255.99    4.60
   1   7 -11  229.88    7.78
  -1  -6   1  827.91    9.36
  -1  -6   1  762.24    7.91
  -1  -6   1  817.04    8.74
  -1  -6   1  782.56   11.16
  -1  -6   1  813.94    9.59
  -1  -6   2  122.37    6.35
  -1  -6   2  140.39    5.49
  -1  -6   2  151.28    7.50
  -1  -6   2  151.73    7.88
  -1  -6   3  301.74    6.41
  -1  -6   3  304.40    6.64
  -1  -6   3  329.82    9.43
   1   6  -3  280.56    7.39
  -1  -6   3  324.12   10.11
  -1  -6   4 1713.90   19.78
   1   6  -4 1625.00   12.49
  -1  -6   4 1777.17   19.94
  -1  -6   4 1626.48   11.74
  -1  -6   4 1625.43   10.77
  -1  -6   5 1210.93    9.01
  -1  -6   5 1221.45   10.38
   1   6  -5 1219.25   11.23
  -1  -6   6  335.54    5.75
  -1  -6   6  335.93    6.95
   1   6  -6  335.63    8.26
  -1  -6   7    8.43    4.77
  -1  -6   7    6.40    5.77
   1   6  -7   19.84    7.13
   1   6  -8   34.22    6.73
  -1  -6   8   39.55    4.87
  -1  -6   8   35.94    5.49
  -1  -6   9   26.14    5.42
   1   6  -9   27.91    6.30
  -1  -6   9   21.64    4.42
  -1  -6  10  -11.41    5.20
  -1  -6  10   -0.52    3.87
   1   6 -10   13.05    6.63
  -1  -6  11   13.38    4.41
   1   6 -11   -8.11    6.05
  -1  -6  11    1.99    4.00
  -1  -6  12   14.48    4.24
   1   6 -12    4.80    5.72
  -1  -6  12    2.17    4.25
  -1  -5   1  166.48    4.91
  -1  -5   1  187.52    7.07
  -1  -5   1  177.99    8.18
  -1  -5   1  169.71    6.85
  -1  -5   2   16.26    6.11
  -1  -5   2   19.10    5.72
  -1  -5   2   10.51    9.07
   1   5  -2   15.56    6.50
  -1  -5   2    9.89    7.59
  -1  -5   3  103.39    4.18
   1   5  -3   99.07    7.52
  -1  -5   3  117.40   10.04
  -1  -5   3  118.13   10.23
  -1  -5   3  105.13    7.35
  -1  -5   4  602.19    7.25
  -1  -5   4  643.25   16.93
  -1  -5   4  632.29    8.29
   1   5  -4  621.53    9.15
   1   5  -5  572.93    8.94
  -1  -5   5  530.30    6.80
  -1  -5   5  515.99    7.65
  -1  -5   6  158.19    5.73
  -1  -5   6  171.50    6.56
   1   5  -6  162.01    7.82
  -1  -5   7   13.91    3.55
  -1  -5   7   -0.49    6.55
   1   5  -7   -2.40    7.54
   1   5  -8  504.00    8.66
  -1  -5   8  464.79    6.23
  -1  -5   8  441.89    7.03
   1   5  -9  633.67    9.21
  -1  -5   9  708.54    6.52
  -1  -5   9  684.21    7.69
   1   5 -10  135.48    6.70
  -1  -5  10  114.53    3.70
  -1  -5  10  110.20    4.97
  -1  -5  11    8.13    4.81
  -1  -5  11   -2.16    3.19
   1   5 -11   11.34    5.26
  -1  -5  12   75.70    4.02
  -1  -5  12   67.07    3.49
   1   5 -12   69.54    5.71
  -1  -4   1  233.40    8.44
  -1  -4   1  247.84    9.90
  -1  -4   1  246.46   10.18
   1   4  -1  240.68    9.30
  -1  -4   1  250.86    9.49
   1   4  -2 2246.15   16.11
  -1  -4   2 2246.89   14.55
  -1  -4   2 2507.34   23.34
  -1  -4   2 2290.07   16.34
  -1  -4   2 2423.63   21.46
   1   4  -3 3007.64   18.17
  -1  -4   3 2705.67   15.08
  -1  -4   3 3204.63   31.44
  -1  -4   3 2969.01   18.27
  -1  -4   4  465.11    7.56
   1   4  -4  485.59    8.81
  -1  -4   4  436.37    6.84
  -1  -4   4  494.92   18.61
   1   4  -5  432.04   13.67
  -1  -4   5  407.80   15.30
  -1  -4   5  378.59    6.22
  -1  -4   5  377.84    7.35
   1   4  -5  392.08    8.54
  -1  -4   6 1564.78   10.09
  -1  -4   6 1600.48   11.63
   1   4  -6 1744.16   13.78
   1   4  -6 1882.48   20.70
  -1  -4   6 1728.70   20.62
   1   4  -7  892.62   15.68
   1   4  -7  810.96    6.45
  -1  -4   7  770.22    8.32
   1   4  -7  848.28    9.75
  -1  -4   7  795.50    7.55
   1   4  -8   22.69    6.78
  -1  -4   8   29.59    5.78
   1   4  -8   27.18   10.17
   1   4  -8   25.10    3.76
  -1  -4   8   40.66    3.83
   1   4  -9   99.52    6.08
   1   4  -9  113.03   10.06
  -1  -4   9   95.89    5.36
  -1  -4   9  102.06    4.94
  -1  -4  10  130.26    5.54
   1   4 -10  140.67    8.93
   1   4 -10  125.46    6.32
  -1  -4  10  141.91    5.23
   1   4 -11    2.88    7.70
  -1  -4  11    1.33    4.73
  -1  -4  11    4.60    4.11
   1   4 -11   -2.67    5.65
  -1  -4  12    9.86    3.96
   1   4 -12    2.03    7.39
   1   4 -12   16.57    4.93
  -1  -4  13   19.13    3.57
   1   4 -13   10.35    5.86
   1   4 -13    4.31    5.39
   1   4 -13  -13.27    4.66
   1   3  -1 6320.89   35.48
  -1  -3   1 7110.28   38.92
  -1  -3   1 6568.82   38.09
   1   3  -2   68.33    8.18
  -1  -3   2   65.42    5.39
  -1  -3   2   69.05   15.35
  -1  -3   2   75.10   14.88
  -1  -3   2   62.59    5.44
  -1  -3   3   20.81    5.76
  -1  -3   3   29.33    5.97
   1   3  -3   20.79    6.55
   1   3  -4  330.52    8.10
  -1  -3   4  358.35    6.06
   1   3  -4  349.80    9.05
  -1  -3   4  355.22   15.55
  -1  -3   4  317.86    8.19
   1   3  -4  382.55   14.38
   1   3  -5   53.36    4.51
   1   3  -5   60.88    7.37
  -1  -3   5   46.73    4.45
   1   3  -5   46.94   10.04
  -1  -3   5   46.87    6.81
  -1  -3   5   46.44    9.59
  -1  -3   6   67.90    4.80
   1   3  -6   72.60    4.21
   1   3  -6   67.68    7.10
  -1  -3   6   62.54    5.60
   1   3  -6   68.44   10.60
  -1  -3   6   75.25    9.20
   1   3  -7   19.78    7.20
  -1  -3   7    9.08    6.38
   1   3  -7   14.22   10.57
   1   3  -7    2.94    4.03
  -1  -3   7   20.61    5.47
   1   3  -8   32.68    3.81
   1   3  -8   33.99   10.31
   1   3  -8   45.56    6.61
  -1  -3   8   37.04    5.88
  -1  -3   8   40.32    5.11
  -1  -3   9   79.90    5.10
   1   3  -9   87.48    5.91
   1   3  -9   89.02    5.11
   1   3  -9   64.42    9.22
  -1  -3   9   60.97    5.78
   1   3 -10  580.15    8.05
   1   3 -10  622.96    6.79
  -1  -3  10  517.27    6.52
   1   3 -10  602.65   11.42
  -1  -3  10  573.57    5.69
   1   3 -11  444.89   10.65
  -1  -3  11  359.68    5.89
   1   3 -11  385.78    5.71
  -1  -3  11  368.68    5.41
   1   3 -11  390.11    6.57
  -1  -3  12  133.42    4.57
   1   3 -12  165.43    8.59
   1   3 -12  148.02    5.99
   1   3 -13   20.76    7.30
   1   3 -13   19.50    4.60
  -1  -3  13   24.69    3.67
   1   2  -1  116.46    8.91
  -1  -2   1  125.63   16.64
  -1  -2   1  114.52   12.69
  -1  -2   1  125.76    8.45
  -1  -2   2 1789.61   13.61
  -1  -2   2 1560.62   13.21
   1   2  -2 1732.56   14.45
  -1  -2   3 2602.28   16.10
   1   2  -3 3126.14   18.18
  -1  -2   3 2866.36   18.65
   1   2  -3 3045.39   35.49
   1   2  -3 3065.66   19.56
  -1  -2   4  638.73    7.66
   1   2  -4  657.67    9.98
   1   2  -4  688.05   16.37
  -1  -2   4  657.99   13.87
   1   2  -4  710.13   11.75
  -1  -2   4  675.19   10.69
  -1  -2   5  669.98    8.31
   1   2  -5  715.28   12.20
   1   2  -5  729.00    8.75
  -1  -2   5  703.83    9.18
  -1  -2   5  735.47   11.88
   1   2  -5  733.17    8.56
   1   2  -6   20.30    5.07
   1   2  -6   23.18    4.08
   1   2  -6   17.34   10.29
  -1  -2   6   23.80    8.46
  -1  -2   6    6.52    6.40
  -1  -2   6   28.41    5.61
  -1  -2   7 1168.54    9.16
   1   2  -7 1201.45   14.32
  -1  -2   7 1121.67    9.43
   1   2  -7 1194.91    8.27
   1   2  -7 1195.89    9.78
   1   2  -8  888.90   13.11
   1   2  -8  892.87    8.17
  -1  -2   8  838.75    7.67
  -1  -2   8  786.20    8.60
   1   2  -8  772.57    9.52
   1   2  -9  499.77   11.07
   1   2  -9  469.28    6.59
  -1  -2   9  490.56    6.59
  -1  -2   9  449.23    6.87
   1   2  -9  453.52    6.28
   1   2 -10   41.79    7.09
  -1  -2  10   47.98    5.25
   1   2 -10   36.23    5.94
   1   2 -10   68.41    4.90
  -1  -2  10   46.76    3.80
   1   2 -11  293.22    5.30
  -1  -2  11  302.88    5.89
   1   2 -11  298.11    6.61
   1   2 -11  350.20    9.29
   1   2 -12  225.40    5.62
   1   2 -12  232.19    4.88
  -1  -2  12  186.76    4.68
   1   2 -12  259.49    8.04
  -1  -2  13   76.06    4.26
   1   2 -13   49.79    5.04
   1   2 -13   83.07    7.57
  -1  -1   1 5859.63   35.35
   1   1  -1 6105.47   36.67
   1   1  -2 1988.44   16.78
  -1  -1   2 1825.88   13.83
   1   1  -2 2153.26   26.35
  -1  -1   2 1914.59   16.17
  -1  -1   3  333.08    6.56
   1   1  -3  329.64    8.55
   1   1  -3  352.76   11.31
  -1  -1   3  338.90    8.77
   1   1  -3  350.99    9.45
   1   1  -4   47.82   10.86
  -1  -1   4   53.26    6.20
   1   1  -4   57.89    8.84
   1   1  -4   62.89   10.46
  -1  -1   4   64.89   10.13
  -1  -1   5 1203.65   11.59
   1   1  -5 1219.86   14.76
  -1  -1   5 1107.02   10.67
   1   1  -5 1378.22   11.21
   1   1  -5 1277.19   12.78
  -1  -1   6  721.39    8.90
   1   1  -6  726.72    7.08
   1   1  -6  786.45    9.62
   1   1  -6  756.33   11.50
  -1  -1   6  701.88    8.22
   1   1  -7  236.37    6.22
   1   1  -7  234.63    5.94
   1   1  -7  222.35    8.44
  -1  -1   7  223.75    6.56
  -1  -1   7  196.45    6.38
   1   1  -8  337.01    5.15
  -1  -1   8  320.30    6.67
   1   1  -8  322.35    9.12
   1   1  -8  341.13    7.88
  -1  -1   8  344.72    7.16
   1   1  -9   78.15    6.87
  -1  -1   9   84.95    6.25
   1   1  -9   81.35    5.50
   1   1  -9   75.21    6.93
  -1  -1   9   89.77    5.89
   1   1 -10    1.97    4.93
  -1  -1  10    5.94    5.06
   1   1 -10    6.50    6.45
   1   1 -10    1.74    5.99
  -1  -1  11  132.28    4.91
   1   1 -11  159.56    5.43
   1   1 -11  167.18    6.80
   1   1 -11  163.16    3.86
  -1  -1  12  425.90    5.70
   1   1 -12  427.26    5.90
   1   1 -12  482.77    8.75
   1   1 -12  499.46    6.73
   1   1 -13  448.48    8.91
   1   1 -13  325.21    5.59
  -1  -1  13  327.61    5.41
   1   1 -13  345.31    6.38
  -1  -1  14   10.11    4.02
   1   1 -14    0.74    5.99
   1   1 -14   10.42    4.64
   1   0  -1   77.98   11.89
   1   0  -1   91.98    9.80
  -1   0   1   69.03   11.83
  -1   0   1   86.79    7.18
   1   0  -2  254.15   11.75
   1   0  -2  272.63    9.66
  -1   0   2  269.39    8.83
   1   0  -3 2093.42   16.07
   1   0  -3 2009.39   15.40
  -1   0   3 2047.79   15.38
  -1   0   3 1949.34   14.11
  -1   0   4  399.32    9.83
   1   0  -4  491.67   10.01
  -1   0   4  462.03    8.58
   1   0  -4  491.29   12.06
  -1   0   5 2282.64   14.21
   1   0  -5 2453.03   15.26
   1   0  -5 2496.94   16.61
  -1   0   5 2317.49   15.61
   1   0  -6 4439.04   21.73
  -1   0   6 4216.48   19.59
   1   0  -6 4734.83   22.01
  -1   0   6 4350.83   21.47
   1   0  -7 1248.70    9.91
  -1   0   7 1198.65    9.70
  -1   0   7 1193.67    9.57
   1   0  -7 1290.67    9.41
   1   0  -8   23.45    5.49
  -1   0   8   11.05    6.09
  -1   0   8   14.70    6.20
   1   0  -8    4.52    6.99
   1   0  -9  502.93    6.86
  -1   0   9  479.40    7.24
   1   0  -9  528.57    6.37
  -1   0  10  860.69    7.87
   1   0 -10  960.55    8.35
   1   0 -10  942.28    9.02
   1   0 -11  146.97    5.29
   1   0 -11  154.47    5.77
  -1   0  11  120.26    4.06
   1   0 -12   17.02    4.49
  -1   0  12    8.56    4.19
   1   0 -12    5.26    5.01
  -1   0  13   30.38    4.58
   1   0 -13   42.01    5.45
   1   0 -13   45.00    4.44
   1   0 -13   43.08    5.10
   1   0 -14  133.57    5.49
  -1   0  14  110.04    4.50
   1   0 -14  124.45    4.51
   1  -1   0 7582.21   49.66
   1  -1   0 7491.76   46.62
  -1   1   0 7834.24   48.29
  -1   1   1 2497.99   20.58
   1  -1  -1 2505.94   19.01
   1  -1  -1 2471.02   22.16
  -1   1   1 2307.35   19.41
   1  -1  -2  230.83    9.45
  -1   1   2  244.53   10.92
   1  -1  -2  248.03   11.05
  -1   1   2  240.03   12.12
  -1   1   3 1742.32   14.60
   1  -1  -3 1656.69   15.46
   1  -1  -3 1779.57   13.51
   1  -1  -3 1593.69   14.56
  -1   1   3 1799.47   16.15
   1  -1  -4 8102.77   40.73
  -1   1   4 8016.16   36.00
   1  -1  -4 8218.29   36.25
   1  -1  -4 8240.15   46.99
   1  -1  -5 1263.89   11.64
  -1   1   5 1214.37   10.26
   1  -1  -5 1259.13   12.86
   1  -1  -5 1311.53   12.96
   1  -1  -6  220.17    8.13
   1  -1  -6  202.12    6.92
   1  -1  -6  236.87    6.05
  -1   1   6  211.29    7.74
   1  -1  -7  446.09    7.46
   1  -1  -7  444.86    6.73
  -1   1   7  449.39    7.43
   1  -1  -7  476.60    8.03
  -1   1   8  777.59    7.11
   1  -1  -8  809.06    9.83
   1  -1  -8  786.04    7.42
   1  -1  -8  778.42    8.75
   1  -1  -9   89.08    5.63
  -1   1   9   71.78    6.05
   1  -1  -9  108.46    6.56
   1  -1  -9  111.24    6.56
   1  -1 -10    7.98    6.22
  -1   1  10    3.43    5.48
   1  -1 -10   -3.16    5.23
   1  -1 -10   -1.68    5.91
   1  -1 -11   51.97    5.08
   1  -1 -11   69.41    5.71
  -1   1  11   40.12    4.87
   1  -1 -11   41.45    5.92
   1  -1 -12   45.76    4.64
  -1   1  12   36.15    4.85
   1  -1 -12   33.67    4.87
   1  -1 -12   36.39    5.01
   1  -1 -13   67.22    4.15
   1  -1 -13   67.56    5.36
  -1   1  13   56.51    3.50
   1  -1 -13   57.91    4.70
   1  -1 -14  115.82    5.58
  -1   1  14  132.74    4.59
   1  -1 -14  128.41    4.88
  -1   2   0 2075.93   15.58
   1  -2   0 2100.62   20.17
  -1   2   0 2193.41   22.31
   1  -2   0 2071.46   15.75
   1  -2   0 2264.45   22.69
   1  -2  -1 3292.82   21.99
   1  -2  -1 3261.70   22.56
  -1   2   1 3228.03   22.58
  -1   2   2 7125.73   37.05
   1  -2  -2 7164.82   37.06
   1  -2  -3 1679.78   18.86
   1  -2  -3 1677.85   14.66
   1  -2  -3 1620.68   13.99
  -1   2   3 1623.45   13.92
   1  -2  -4  147.97   10.29
  -1   2   4  132.60    7.38
   1  -2  -4  144.50    9.91
   1  -2  -4  171.98   10.28
   1  -2  -5   52.39    7.32
  -1   2   5   78.49    8.67
   1  -2  -5   47.11    6.37
   1  -2  -5   62.45    7.79
   1  -2  -6  273.32    7.50
  -1   2   6  259.80    5.71
   1  -2  -6  263.32    7.29
   1  -2  -6  267.41    7.87
   1  -2  -7  636.50    8.08
   1  -2  -7  614.19    8.10
  -1   2   7  543.17    7.93
   1  -2  -7  628.84    7.07
   1  -2  -8  189.32    6.65
   1  -2  -8  202.58    6.27
   1  -2  -8  223.93    7.35
  -1   2   8  199.61    5.05
   1  -2  -9  253.70    6.34
  -1   2   9  230.14    6.50
   1  -2  -9  260.83    7.42
   1  -2  -9  262.81    6.80
   1  -2 -10   12.75    6.05
  -1   2  10    3.45    5.35
   1  -2 -10    7.35    4.97
   1  -2 -10   11.83    4.06
   1  -2 -11  359.43    5.99
   1  -2 -11  382.61    7.14
  -1   2  11  346.91    6.24
   1  -2 -11  369.72    6.70
   1  -2 -12  137.15    5.44
   1  -2 -12  129.06    5.07
  -1   2  12  134.10    5.36
   1  -2 -12  151.39    5.26
  -1   2  13   45.39    4.67
   1  -2 -13   28.68    4.84
   1  -2 -13   47.35    4.88
   1  -2 -13   36.12    4.76
   1  -2 -14   19.45    5.06
  -1   2  14   25.21    3.96
   1  -2 -14   22.53    4.29
  -1   3   0 1667.39   15.46
  -1   3   0 1724.12   13.13
   1  -3   0 1708.56   15.84
   1  -3   0 1658.99   12.25
   1  -3   0 1783.37   17.39
   1  -3  -1  939.33   11.16
   1  -3  -1  948.12   10.36
   1  -3  -1  984.14   17.74
   1  -3  -2 2722.19   18.75
  -1   3   2 2646.04   18.32
   1  -3  -2 2863.62   19.28
  -1   3   3 2880.78   18.52
   1  -3  -3 3000.19   19.11
   1  -3  -4  519.65   12.10
   1  -3  -4  531.26   10.11
  -1   3   4  516.89    9.95
   1  -3  -4  471.15    9.63
   1  -3  -5  638.06   11.05
   1  -3  -5  625.26    8.67
   1  -3  -5  627.50    8.55
  -1   3   5  619.59    7.17
  -1   3   6  205.53    5.16
   1  -3  -6  221.87    8.76
   1  -3  -6  205.02    6.68
   1  -3  -6  217.80    6.91
   1  -3  -7   49.46    6.67
   1  -3  -7   66.00    7.15
  -1   3   7   58.52    6.32
   1  -3  -7   56.14    6.50
   1  -3  -8  209.49    6.42
  -1   3   8  228.76    6.41
   1  -3  -8  218.93    5.46
   1  -3  -8  206.21    5.16
  -1   3   9  602.65    6.21
   1  -3  -9  662.42    8.18
   1  -3  -9  660.64    7.89
   1  -3  -9  631.99    7.97
   1  -3 -10  122.75    5.93
   1  -3 -10  112.43    6.22
  -1   3  10  120.76    5.78
   1  -3 -10  101.28    4.46
   1  -3 -11   25.50    5.01
   1  -3 -11   41.91    5.20
   1  -3 -11   36.13    3.99
  -1   3  11   22.00    4.09
   1  -3 -12   10.46    4.68
   1  -3 -12   -1.29    5.23
   1  -3 -12   33.38    5.63
  -1   3  12   13.23    4.98
   1  -3 -13   35.54    4.23
  -1   3  13   19.98    4.72
   1  -3 -13   40.40    4.97
   1  -3 -13   26.02    4.49
   1  -3 -14   14.11    4.67
  -1   3  14   18.92    4.37
   1  -3 -14   35.77    4.19
   1  -4   0 1898.30   16.36
  -1   4   0 1983.12   18.01
   1  -4   0 2028.60   16.93
   1  -4   0 1965.95   14.63
   1  -4  -1  513.97    9.99
   1  -4  -1  512.56   12.23
   1  -4  -1  500.59    9.48
   1  -4  -2 2828.64   28.78
  -1   4   2 2602.62   18.02
   1  -4  -2 2651.40   17.84
   1  -4  -2 2860.65   18.06
   1  -4  -3 3634.89   20.10
   1  -4  -3 3949.04   22.48
  -1   4   3 3662.44   20.78
   1  -4  -4  112.16   12.07
  -1   4   4  107.83    5.13
   1  -4  -4  115.87    7.16
   1  -4  -4  107.69    5.33
   1  -4  -5   28.99    8.78
   1  -4  -5   23.66    4.50
  -1   4   5   30.49    6.29
   1  -4  -5   20.85    4.59
   1  -4  -6   69.43    7.49
   1  -4  -6   75.81    6.36
   1  -4  -6   90.78    6.56
  -1   4   6   76.52    6.18
   1  -4  -7  329.56    8.50
  -1   4   7  300.12    6.78
   1  -4  -7  290.67    5.46
   1  -4  -7  322.58    6.75
   1  -4  -8   76.82    6.11
   1  -4  -8   77.94    6.79
   1  -4  -8   59.91    4.54
  -1   4   8   47.27    6.24
   1  -4  -9  339.51    6.83
   1  -4  -9  333.99    7.01
  -1   4   9  365.50    6.67
   1  -4  -9  345.88    6.71
   1  -4 -10  174.58    6.18
  -1   4  10  191.30    6.02
   1  -4 -10  193.88    6.41
   1  -4 -10  190.66    6.01
   1  -4 -11   18.84    5.15
  -1   4  11   24.50    4.91
   1  -4 -11    5.39    4.80
   1  -4 -11    6.17    3.66
   1  -4 -12  210.73    5.67
   1  -4 -12  181.38    5.29
   1  -4 -12  163.66    5.43
  -1   4  12  189.08    4.14
   1  -4 -13  289.62    6.39
   1  -4 -13  291.40    5.93
  -1   4  13  277.22    5.61
   1  -5   0 1027.96    9.72
   1  -5   0 1065.84   10.91
   1  -5   0  978.13   10.91
   1  -5  -1  226.52    7.15
   1  -5  -1  195.87    4.93
   1  -5  -1  203.82    9.01
   1  -5  -2  607.05   11.61
  -1   5   2  580.45    7.79
   1  -5  -2  607.45    8.68
   1  -5  -2  638.86    7.58
  -1   5   3   73.26    6.11
   1  -5  -3   66.93   11.71
   1  -5  -3   55.96    4.38
   1  -5  -3   63.28    6.62
   1  -5  -3   48.07    6.39
   1  -5  -4  412.36    6.52
  -1   5   4  412.85    6.85
   1  -5  -4  432.87    7.37
   1  -5  -4  396.86    6.70
   1  -5  -5   12.25    5.94
   1  -5  -5   14.32   12.48
  -1   5   5   -1.91    5.91
   1  -5  -5   21.11    6.20
   1  -5  -6  272.68   11.14
  -1   5   6  265.01    5.23
   1  -5  -6  293.69    6.66
   1  -5  -6  248.70    6.63
  -1   5   7  993.39    8.86
   1  -5  -7  999.94   13.70
   1  -5  -7  889.21    8.51
   1  -5  -7  993.98    8.73
  -1   5   8 1074.22    9.10
   1  -5  -8 1044.32   12.31
   1  -5  -8 1123.17    9.43
   1  -5  -8 1057.32    9.06
   1  -5  -9   23.30    5.42
   1  -5  -9   23.43    6.08
   1  -5  -9   13.11    5.72
  -1   5   9    9.10    5.24
  -1   5  10  430.84    6.37
   1  -5 -10  402.72    7.86
   1  -5 -10  469.93    6.74
   1  -5 -10  454.41    6.27
   1  -5 -11  249.22    6.50
  -1   5  11  259.49    5.62
   1  -5 -11  304.50    6.40
   1  -5 -11  279.98    4.56
   1  -5 -12  282.42    5.77
   1  -5 -12  261.86    5.83
  -1   5  12  266.33    5.80
  -1   5  13   43.14    4.38
   1  -5 -13   29.29    5.16
   1  -5 -13   16.47    5.38
   1  -6   0  501.75    7.92
   1  -6   0  465.43    8.45
   1  -6   0  484.68    5.76
   1  -6  -1 1713.47   11.78
   1  -6  -1 1649.00   12.66
   1  -6  -1 1736.26   14.93
  -1   6   2  482.47    7.17
   1  -6  -2  511.78    9.96
   1  -6  -2  502.01    7.58
   1  -6  -2  533.93    7.01
  -1   6   3  686.47    7.83
   1  -6  -3  713.60   13.85
   1  -6  -3  720.51    7.53
   1  -6  -3  708.50    8.26
   1  -6  -3  661.37    6.44
   1  -6  -4 1854.05   11.69
   1  -6  -4 1692.38   11.07
   1  -6  -4 1711.40   10.33
  -1   6   4 1680.92   11.82
  -1   6   5 2558.67   15.22
   1  -6  -5 2574.84   14.68
   1  -6  -5 2655.45   14.01
   1  -6  -5 2861.19   14.95
   1  -6  -6 1139.69    9.09
  -1   6   6 1031.09    9.11
   1  -6  -6 1041.90    8.92
   1  -6  -6  937.08    8.57
  -1   6   7   27.59    5.74
   1  -6  -7   19.31    5.51
   1  -6  -7   33.71    5.74
   1  -6  -8   73.40    4.30
   1  -6  -8   65.20    4.26
  -1   6   8   76.28    5.71
   1  -6  -9  140.06    5.21
  -1   6   9  131.78    5.31
   1  -6  -9  151.95    5.82
  -1   6  10  255.23    5.92
   1  -6 -10  254.29    5.96
   1  -6 -10  244.30    5.68
   1  -6 -11   93.57    4.81
  -1   6  11   67.63    3.91
   1  -6 -11   91.67    5.21
   1  -6 -12   73.73    4.44
  -1   6  12   47.47    3.74
   1  -6 -12   63.91    5.24
   1  -6 -12   44.40    3.92
   1  -7   0    5.79    5.74
   1  -7   0   -7.18    5.84
   1  -7   0    6.56    6.15
   1  -7   0   -1.07    6.07
   1  -7  -1  247.19    6.00
   1  -7  -1  242.52    7.18
   1  -7  -1  264.26    6.72
   1  -7  -2  166.40    8.19
  -1   7   2  147.64    6.09
   1  -7  -2  178.23    6.05
   1  -7  -2  174.44    6.31
   1  -7  -2  141.60    6.58
  -1   7   3  126.37    5.88
   1  -7  -3  134.36    9.85
   1  -7  -3  135.26    4.89
   1  -7  -3  120.79    6.52
   1  -7  -3  158.68    6.05
   1  -7  -4  426.57    6.67
   1  -7  -4  434.87    7.57
  -1   7   4  408.86    6.58
   1  -7  -4  400.10    7.02
  -1   7   5  135.02    4.36
   1  -7  -5  149.86    6.43
   1  -7  -5  180.25    5.53
   1  -7  -5  151.95    4.50
   1  -7  -6   40.02    6.00
   1  -7  -6   52.36    5.22
   1  -7  -6   56.54    5.28
  -1   7   6   40.94    4.04
   1  -7  -7   -1.84    5.43
   1  -7  -7    3.96    5.39
  -1   7   7    1.29    5.27
   1  -7  -7   10.96    5.28
  -1   7   8  308.66    4.90
   1  -7  -8  282.07    4.65
   1  -7  -8  288.84    4.95
   1  -7  -8  331.57    4.68
   1  -7  -9  493.14    6.23
  -1   7   9  427.34    6.54
   1  -7  -9  428.39    5.28
   1  -7  -9  409.00    6.14
   1  -7 -10  167.25    4.94
  -1   7  10  134.48    5.21
   1  -7 -10  161.15    5.36
   1  -7 -10  169.37    5.66
  -1   7  11   22.67    3.91
   1  -7 -11   -6.30    5.41
   1  -7 -11   24.69    4.86
   1  -7 -11   27.79    4.27
   1  -7 -12   44.08    4.49
  -1   7  12   39.33    5.17
   1  -7 -12   45.55    3.23
   1  -7 -12   41.16    4.44
   1  -8   0  167.12    6.87
   1  -8   0  162.86    5.97
   1  -8   0  172.53    6.08
   1  -8   0  184.78    7.33
   1  -8  -1  143.03    4.51
   1  -8  -1  150.25    6.18
   1  -8  -1  146.60    5.00
   1  -8  -1  138.63    6.34
   1  -8  -2 1959.91   11.61
   1  -8  -2 1956.51   13.42
   1  -8  -2 1985.43   16.39
   1  -8  -2 1989.13   14.43
   1  -8  -3 1402.10   15.76
  -1   8   3 1222.44   11.53
   1  -8  -3 1390.93   10.91
   1  -8  -3 1339.23    9.85
   1  -8  -3 1408.60   10.79
   1  -8  -4  267.49    5.48
   1  -8  -4  244.93    5.91
   1  -8  -4  238.27    6.12
  -1   8   4  205.36    5.55
  -1   8   5  145.85    5.22
   1  -8  -5  195.73    5.78
   1  -8  -5  178.71    5.70
   1  -8  -5  182.11    5.86
  -1   8   6  900.53    8.44
   1  -8  -6  963.23    7.48
   1  -8  -6  911.25    8.44
   1  -8  -6  857.91    7.78
   1  -8  -7  403.86    5.44
   1  -8  -7  413.54    6.31
   1  -8  -7  424.88    5.87
  -1   8   7  389.55    6.04
   1  -8  -8    8.21    3.44
   1  -8  -8   26.26    5.42
  -1   8   8   11.00    5.07
   1  -8  -8    2.86    4.96
   1  -8  -9   20.84    4.97
   1  -8  -9    4.24    4.68
   1  -8  -9   29.88    4.63
  -1   8   9    3.25    3.64
   1  -8 -10   30.34    5.11
  -1   8  10   35.25    3.55
   1  -8 -10   28.54    4.60
   1  -8 -10   26.20    3.72
  -1   8  11    7.84    3.56
   1  -8 -11   20.43    5.01
   1  -8 -11   15.59    5.14
   1  -8 -11   13.70    4.08
   1  -9   0 1834.13   17.55
   1  -9   0 1675.66   13.12
   1  -9   0 1841.43   14.40
   1  -9   0 1687.58   13.37
   1  -9   0 1694.54   10.74
   1  -9  -1  443.01    7.10
   1  -9  -1  456.17    6.60
   1  -9  -1  445.41    8.15
   1  -9  -1  452.04    7.21
   1  -9  -1  458.30    8.15
   1  -9  -2   22.92    5.29
   1  -9  -2    6.74    4.81
   1  -9  -2   15.47    4.21
   1  -9  -2    2.09    6.38
   1  -9  -3   94.94    5.31
   1  -9  -3   87.91    4.67
   1  -9  -3   86.91    5.76
   1  -9  -3   89.35    7.66
  -1   9   4   78.79    4.71
   1  -9  -4   75.88    5.60
   1  -9  -4  110.69    4.67
   1  -9  -4   85.35    5.44
   1  -9  -5   14.13    3.58
  -1   9   5   10.05    4.20
   1  -9  -5   23.18    4.67
   1  -9  -5   21.48    5.10
   1  -9  -6   38.31    5.42
  -1   9   6   23.43    4.79
   1  -9  -6   10.53    5.37
   1  -9  -6    5.53    4.46
   1  -9  -7   55.30    3.60
   1  -9  -7   75.90    5.40
   1  -9  -7   48.79    4.75
  -1   9   7   37.90    4.96
   1  -9  -8   58.89    4.78
   1  -9  -8   39.73    3.56
   1  -9  -8   33.50    4.75
  -1   9   8   46.44    4.86
  -1   9   9   13.06    4.68
   1  -9  -9   30.06    4.61
   1  -9  -9   21.00    3.46
   1  -9  -9   29.78    4.37
  -1   9  10   12.93    4.40
   1  -9 -10    8.30    4.65
   1  -9 -10   38.22    4.43
   1  -9 -10   30.16    4.62
   1 -10   0   13.34    5.32
   1 -10   0   29.44    5.12
   1 -10   0   37.28    5.24
   1 -10   0   38.02    5.68
   1 -10   0   21.06    5.19
   1 -10  -1   65.24    5.52
   1 -10  -1   63.74    6.54
   1 -10  -1   39.14    5.14
   1 -10  -1   64.99    5.36
   1 -10  -1   60.25    4.70
   1 -10  -2   11.97    3.25
   1 -10  -2   11.08    5.86
   1 -10  -2   -7.14    5.14
   1 -10  -2   23.08    4.68
   1 -10  -2   10.17    3.98
   1 -10  -3   20.34    4.99
   1 -10  -3    2.27    5.06
   1 -10  -3   29.84    4.54
   1 -10  -4  115.27    4.98
   1 -10  -4  113.91    4.65
   1 -10  -4  152.15    5.80
   1 -10  -5  363.65    5.86
   1 -10  -5  354.92    5.84
   1 -10  -5  336.46    5.94
  -1  10   6   51.93    4.85
   1 -10  -6   33.82    4.68
   1 -10  -6   44.01    4.92
   1 -10  -6   44.98    5.11
   1 -10  -7  144.60    4.73
   1 -10  -7  132.30    4.82
  -1  10   7  153.00    4.94
   1 -10  -7  153.94    5.12
  -1  10   8  190.58    4.19
   1 -10  -8  240.19    5.49
   1 -10  -8  207.81    5.75
   1 -10  -8  191.74    4.97
  -1  10   9  139.45    4.07
   1 -10  -9  175.14    5.40
   1 -10  -9  161.40    4.25
   1 -10  -9  180.19    4.83
   1 -11   0   65.80    5.73
   1 -11   0   56.27    5.07
   1 -11   0   70.24    5.15
   1 -11   0   58.54    5.23
   1 -11   0   68.87    4.95
   1 -11  -1  168.29    6.14
   1 -11  -1  152.78    5.13
   1 -11  -1  145.36    5.82
   1 -11  -1  146.51    5.83
   1 -11  -1  156.61    6.30
   1 -11  -2  145.16    4.85
   1 -11  -2  139.03    5.22
   1 -11  -2  165.96    5.18
   1 -11  -2  139.71    5.68
   1 -11  -3   36.37    3.13
   1 -11  -3   33.44    4.39
   1 -11  -3   34.19    3.99
   1 -11  -3   37.69    4.87
   1 -11  -4   52.86    3.90
   1 -11  -4   41.22    4.89
   1 -11  -4   59.80    4.04
   1 -11  -5   87.15    5.10
   1 -11  -5   88.01    4.17
   1 -11  -5   90.99    4.09
   1 -11  -6   33.44    4.46
   1 -11  -6   52.27    4.68
   1 -11  -6   61.61    3.25
   1 -11  -7   37.14    3.58
   1 -11  -7   29.45    4.25
   1 -11  -7   34.47    4.93
   1 -12   0   21.42    5.94
   1 -12   0    7.18    4.70
   1 -12   0   20.01    5.48
   1 -12   0   -3.51    4.20
   1 -12   0   16.83    5.04
   1 -12  -1   -9.88    5.32
   1 -12  -1    9.61    4.88
   1 -12  -1    5.83    4.62
   1 -12  -1    2.08    3.90
   1 -12  -2    8.36    5.10
   1 -12  -2    6.50    4.77
   1 -12  -2   26.58    3.14
   1 -12  -2   11.31    5.31
   1 -12  -3   27.08    4.02
   1 -12  -3   11.16    4.68
   1 -12  -3   -1.15    4.57
   1 -12  -3   15.24    3.84
   1 -12  -4    8.87    4.07
   1 -12  -4    6.67    3.49
   1 -12  -4   -9.52    3.94
   1 -12  -4    3.89    5.14
   0 -12   1  288.74    6.59
   0 -12   1  232.78    5.61
   0 -12   1  268.08    6.36
   0 -12   1  248.54    6.30
   0 -12   1  248.34    6.65
   0 -12   2   24.90    5.12
   0 -12   2   35.08    5.29
   0 -12   2   10.89    4.54
   0 -12   2    9.70    4.30
   0 -12   2   12.34    4.54
   0 -12   3   89.01    5.03
   0 -12   3   76.93    5.62
   0 -12   3   84.85    6.05
   0 -12   3   63.44    5.54
   0 -12   3   61.42    4.60
   0 -11   1    1.49    5.02
   0 -11   1   -1.28    5.32
   0 -11   1   18.67    5.36
   0 -11   1   10.75    5.16
   0 -11   1   10.89    4.85
   0 -11   2   13.83    5.31
   0 -11   2    7.94    4.57
   0 -11   2   15.04    4.70
   0 -11   2   -4.82    6.06
   0 -11   2   14.73    4.40
   0 -11   3   52.42    5.25
   0 -11   3   34.91    4.66
   0 -11   3   34.83    4.79
   0 -11   3   34.43    4.59
   0 -11   3   47.93    6.19
   0 -11   4   48.05    6.24
   0 -11   4   59.57    5.75
   0 -11   4   55.86    6.00
   0 -11   4   64.18    5.51
   0 -11   4   44.19    4.48
   0 -11   5   39.52    5.55
   0 -11   5   48.13    6.80
   0 -11   5   42.66    7.32
   0 -11   5   50.36    5.45
   0 -11   5   66.03    4.26
   0 -11   6   13.46    8.79
   0 -11   6   16.23    5.95
   0 -11   6   15.38    8.82
   0 -11   6   16.29    5.46
   0 -11   6   26.05    4.26
   0 -10   1  388.29    6.38
   0 -10   1  416.92    7.38
   0 -10   1  454.31    7.17
   0 -10   1  403.27    7.51
   0 -10   1  406.18    6.81
   0 -10   2   98.07    6.28
   0 -10   2  100.49    5.30
   0 -10   2  101.74    5.15
   0 -10   2   98.46    5.82
   0 -10   2  100.96    5.05
   0 -10   3   38.76    5.14
   0 -10   3   33.41    5.37
   0 -10   3   36.45    5.67
   0 -10   3   29.44    5.12
   0 -10   3   36.67    4.92
   0 -10   4    7.61    4.76
   0 -10   4   12.68    4.94
   0 -10   4   15.43    5.98
   0 -10   4   12.65    6.13
   0 -10   4    2.74    4.69
   0 -10   5  176.96    6.45
   0 -10   5  165.56    6.51
   0 -10   5  183.11    7.63
   0 -10   5  181.01    7.91
   0 -10   5  177.54    5.33
   0 -10   6   77.97    8.57
   0 -10   6   77.27    6.04
   0 -10   6   73.78    8.16
   0 -10   6   80.02    5.03
   0 -10   6   78.63    6.34
   0 -10   7   12.56    5.88
   0 -10   7   11.60    5.95
   0 -10   7   13.93    4.33
   0 -10   8    2.93    5.87
   0 -10   8   10.59    5.81
   0 -10   8   -0.96    4.34
   0  -9   1    8.92    5.29
   0  -9   1   25.30    5.26
   0  -9   1   14.35    5.68
   0  -9   1   -2.07    5.19
   0  -9   1   16.72    6.58
   0  -9   2  234.67    6.13
   0  -9   2  237.66    6.53
   0  -9   2  251.72    6.97
   0  -9   2  227.92    6.14
   0  -9   2  236.00    7.19
   0  -9   3   24.05    4.78
   0  -9   3   31.67    6.27
   0  -9   3   25.80    5.84
   0  -9   3   18.52    6.49
   0  -9   3   14.00    5.82
   0  -9   4   39.11    6.11
   0  -9   4   43.74    4.69
   0  -9   4   36.88    6.26
   0  -9   4   34.15    6.68
   0  -9   4   32.83    5.75
   0  -9   5  215.70    5.99
   0  -9   5  230.05    6.86
   0  -9   5  224.62    7.48
   0  -9   5  220.56    7.36
   0  -9   5  200.48    5.65
   0  -9   6  408.83   10.28
   0  -9   6  439.38    8.05
   0  -9   6  387.31    6.09
   0  -9   6  412.63    7.93
   0  -9   6  415.18    9.40
   0  -9   7  162.72    7.14
   0  -9   7  149.93    7.17
   0  -9   7  185.31    4.09
   0  -9   8    8.64    6.02
   0  -9   8   10.78    6.17
   0  -9   8    3.34    4.03
   0  -9   9  125.94    4.69
   0  -9   9  108.63    6.57
   0  -8   1   26.46    6.61
   0  -8   1   11.07    5.69
   0  -8   1   17.92    5.89
   0  -8   1   10.83    5.85
   0  -8   1   24.65    6.22
   0  -8   2  117.66    6.79
   0  -8   2  124.60    6.11
   0  -8   2  116.57    4.45
   0  -8   2  113.45    7.27
   0  -8   2  126.01    7.91
   0  -8   3  424.58    7.92
   0  -8   3  421.00    7.47
   0  -8   3  416.85    6.72
   0  -8   3  405.02    6.95
   0  -8   4 1097.30   11.97
   0  -8   4 1073.06    8.51
   0  -8   4 1039.29    9.92
   0  -8   4  975.05    9.04
   0  -8   5  105.03    5.79
   0  -8   5  118.53    7.63
   0  -8   5  105.12    5.66
   0  -8   5  110.52    5.44
   0  -8   6  150.04    8.47
   0  -8   6  139.77    5.95
   0  -8   6  153.31    5.09
   0  -8   7  451.66    7.33
   0  -8   7  456.27   11.70
   0  -8   7  455.02    6.37
   0  -8   8  211.22    6.82
   0  -8   8  254.59    4.40
   0  -8   9    4.61    5.53
   0  -8   9    8.88    4.84
   0  -8  10   23.72    5.78
   0   8 -10   28.39    5.93
   0  -8  10   15.52    3.39
   0  -7   1 1815.84   15.19
   0  -7   1 1786.21   13.45
   0  -7   1 1710.21   12.99
   0  -7   1 1722.05   11.55
   0  -7   2 1592.44   13.60
   0  -7   2 1594.10   12.96
   0  -7   2 1482.54   10.58
   0  -7   2 1625.24   12.36
   0  -7   3  144.30    6.41
   0  -7   3  155.88    6.73
   0  -7   3  151.67    6.07
   0  -7   3  142.46    6.01
   0  -7   4  151.61    6.31
   0  -7   4  164.06    6.22
   0  -7   4  170.75    7.04
   0  -7   5  218.91    8.67
   0  -7   5  224.67    5.87
   0  -7   5  185.55    7.23
   0  -7   6  102.54    8.54
   0  -7   6   88.64    4.08
   0  -7   6   85.99    6.63
   0   7  -6  100.73    6.20
   0   7  -7  221.42    6.86
   0  -7   7  201.27    6.96
   0  -7   7  203.85    9.33
   0  -7   7  200.19    5.62
   0   7  -8  268.75    8.23
   0  -7   8  236.95   11.21
   0  -7   8  213.99    6.28
   0  -7   8  258.04    5.58
   0   7  -9  143.18    7.30
   0  -7   9  112.48    3.80
   0  -7   9  126.41    6.33
   0  -7  10   15.88    4.73
   0  -7  10    9.87    4.62
   0   7 -10   10.12    6.73
   0   7 -11   63.50    7.28
   0  -7  11   60.36    4.61
   0  -7  11   77.00    3.38
   0  -6   1  918.29    8.63
   0  -6   1 1003.71   10.04
   0  -6   1  984.35    9.99
   0  -6   1 1034.81   11.08
   0  -6   2  394.95    8.59
   0  -6   2  375.94    6.81
   0  -6   2  401.06    7.55
   0  -6   2  402.63    7.83
   0  -6   3  154.10    4.42
   0  -6   3  130.06    7.91
   0  -6   3  137.47    6.24
   0  -6   4  246.37    6.31
   0  -6   4  237.26    8.71
   0  -6   4  219.37    6.70
   0   6  -5  510.69   10.19
   0   6  -5  441.01    9.15
   0  -6   5  433.65    7.69
   0  -6   5  471.57   10.63
   0  -6   5  435.96    7.01
   0   6  -6   49.26    6.95
   0  -6   6   51.45    8.43
   0  -6   6   48.17    7.06
   0  -6   6   55.12    5.53
   0   6  -6   58.68    8.43
   0   6  -7   45.79    7.83
   0  -6   7   36.27    6.71
   0  -6   7   31.66    8.45
   0  -6   7   37.37    4.79
   0   6  -7   47.34    7.81
   0   6  -8  154.77    9.27
   0   6  -8  137.71    8.00
   0  -6   8  138.30    8.94
   0  -6   8  133.34    3.89
   0  -6   8  133.72    6.61
   0   6  -9  428.22   10.58
   0  -6   9  368.67    6.76
   0  -6   9  387.19   10.93
   0  -6   9  415.55    5.59
   0   6  -9  386.65    9.18
   0  -6  10   86.63    4.79
   0   6 -10  104.02    7.10
   0   6 -10  126.97    9.18
   0  -6  10  110.77    5.30
   0   6 -11    7.64    8.42
   0  -6  11   12.05    5.25
   0  -6  11   21.50    2.97
   0   6 -11    7.75    6.32
   0  -6  12   17.89    4.81
   0   6 -12    4.08    6.08
   0  -5   1   75.41    6.71
   0  -5   1   89.94    6.41
   0  -5   1   86.35    6.53
   0  -5   1   81.31    7.18
   0  -5   2 1574.69   10.40
   0  -5   2 1515.40   12.16
   0  -5   2 1532.14   13.23
   0   5  -3 1908.72   14.65
   0  -5   3 1583.02   13.51
   0  -5   3 1764.77   10.79
   0   5  -3 1732.58   14.48
   0  -5   3 1714.46   14.22
   0   5  -4  351.86    8.40
   0   5  -4  362.44    6.31
   0  -5   4  354.35    6.45
   0   5  -4  407.27    9.24
   0  -5   4  387.90   10.24
   0  -5   4  323.00    8.44
   0   5  -5    1.64    7.15
   0  -5   5   11.54    8.20
   0   5  -5    1.83    5.78
   0  -5   5   -2.86    6.22
   0   5  -5    0.88    7.10
   0  -5   5   -4.73    4.05
   0   5  -6   61.90    8.67
   0   5  -6   36.74    5.90
   0  -5   6   55.25    9.07
   0  -5   6   48.08    6.39
   0   5  -6   50.61    8.26
   0  -5   6   53.21    5.80
   0  -5   7    6.58    5.52
   0   5  -7   36.34    5.47
   0   5  -7   20.68    8.24
   0  -5   7   30.85    8.36
   0  -5   7    9.76    7.06
   0   5  -7   29.97    8.78
   0   5  -8   59.86    5.14
   0  -5   8   50.53    6.36
   0   5  -8   58.15    8.29
   0  -5   8   60.86    8.04
   0   5  -8   61.14    7.24
   0  -5   8   54.94    4.79
   0   5  -9  134.62    7.87
   0   5  -9  126.79    3.97
   0  -5   9  113.86    6.37
   0  -5   9  118.69    7.72
   0   5  -9  123.94    8.06
   0  -5   9  131.90    3.97
   0  -5  10  139.81    5.52
   0   5 -10  149.19    3.69
   0   5 -10  135.38    7.89
   0  -5  10  140.19    7.33
   0  -5  10  156.53    4.52
   0   5 -10  121.81    6.82
   0   5 -11    7.37    5.78
   0   5 -11   11.13    2.97
   0   5 -11    1.56    6.96
   0  -5  11    1.63    4.63
   0   5 -12   35.80    7.44
   0   5 -12   20.24    3.36
   0  -5  12   36.79    4.65
   0   5 -12   34.53    6.10
   0  -5  13  176.81    5.26
   0   5 -13  159.01    6.56
   0   5 -13    0.98    3.99
   0  -4   1  896.00   11.00
   0  -4   1  967.56   11.98
   0  -4   1  923.90   13.17
   0  -4   1  811.16   10.76
   0  -4   2   17.63    8.28
   0  -4   2   13.70    9.37
   0   4  -2   28.48    7.77
   0  -4   2   17.77    7.64
   0  -4   3    5.45    5.26
   0  -4   3   -6.34    9.46
   0   4  -3    1.72    7.42
   0   4  -3   -0.51    8.50
   0   4  -3   -6.79    7.88
   0  -4   3    0.76    6.93
   0   4  -4  560.32    9.45
   0   4  -4  537.17    7.97
   0  -4   4  508.93    6.42
   0  -4   4  526.30   11.66
   0  -4   4  514.20    8.40
   0   4  -4  479.35    9.17
   0   4  -5    1.34    7.57
   0  -4   5    0.78    9.06
   0  -4   5    5.19    6.65
   0   4  -5   -7.38    8.56
   0   4  -5   11.51    4.06
   0  -4   5    1.60    5.63
   0   4  -6  132.01    5.94
   0  -4   6  135.72    6.71
   0   4  -6  162.02    9.16
   0  -4   6  141.06    9.12
   0   4  -6  132.04    7.85
   0  -4   6  144.63    4.41
   0   4  -7  644.26   11.04
   0   4  -7  574.68    7.47
   0   4  -7  602.92    9.61
   0  -4   7  557.82    5.95
   0  -4   7  593.53   10.75
   0  -4   7  536.93    8.19
   0   4  -8  249.83    4.62
   0   4  -8  251.08    8.90
   0  -4   8  233.33    6.78
   0  -4   8  259.97    8.69
   0   4  -8  251.08    8.60
   0  -4   8  246.67    4.56
   0  -4   9  128.31    3.82
   0  -4   9  131.01    5.62
   0   4  -9  125.50    4.96
   0   4  -9  127.92    9.22
   0  -4   9  134.45    7.57
   0   4  -9  107.15    7.12
   0   4 -10  744.29    6.88
   0  -4  10  685.02    7.79
   0   4 -10  584.19   10.88
   0  -4  10  714.90    9.23
   0  -4  10  698.74    6.68
   0   4 -10  645.02    8.72
   0  -4  11  449.39    6.53
   0   4 -11  418.36    7.26
   0   4 -11  489.13    5.10
   0  -4  11  481.58    8.38
   0   4 -11  402.19    9.58
   0  -4  12   97.15    4.81
   0   4 -12  103.83    7.71
   0   4 -12   99.25    4.90
   0   4 -12  118.97    6.12
   0   4 -13   -1.51    3.04
   0   4 -13    3.23    7.24
   0   4 -13   18.00    5.20
   0  -4  13    6.58    4.27
   0   3  -1  967.16   12.31
   0  -3   1  973.22   10.54
   0  -3   1  887.10   10.80
   0  -3   1 1001.94   12.17
   0   3  -2 1173.30   13.80
   0  -3   2 1207.99   11.55
   0   3  -2 1182.76   10.14
   0  -3   2 1194.99   13.58
   0   3  -2 1187.85   13.25
   0  -3   2 1076.88   12.36
   0  -3   3  519.90   10.13
   0  -3   3  521.43    9.86
   0   3  -3  535.07    7.94
   0   3  -3  557.35   10.94
   0  -3   3  532.23   11.93
   0   3  -3  461.20   10.54
   0  -3   4 2695.76   14.63
   0   3  -4 2964.34   22.69
   0   3  -4 2931.37   16.40
   0  -3   4 2798.97   22.18
   0   3  -4 2653.01   19.81
   0  -3   4 2637.48   19.21
   0   3  -5 3919.79   24.16
   0   3  -5 4199.48   19.46
   0  -3   5 3835.68   26.47
   0   3  -5 3976.48   27.18
   0  -3   5 3893.90   22.56
   0  -3   5 3841.22   17.72
   0  -3   6 1488.74   12.02
   0   3  -6 1541.75   17.07
   0  -3   6 1596.68   15.44
   0   3  -6 1626.53   10.58
   0   3  -6 1575.01   13.88
   0  -3   6 1540.31   10.34
   0  -3   7   58.40    5.73
   0   3  -7   68.30    5.83
   0   3  -7   83.95    8.98
   0   3  -7   59.99    7.43
   0  -3   7   75.88    6.58
   0  -3   7   70.59    7.20
   0   3  -8  451.94    6.58
   0  -3   8  401.37    7.40
   0  -3   8  386.13    6.63
   0   3  -8  404.18   10.28
   0  -3   8  418.31    9.33
   0   3  -8  401.64    8.37
   0   3  -9  180.14    5.57
   0  -3   9  158.11    6.39
   0  -3   9  176.89    7.12
   0   3  -9  141.85    9.03
   0   3  -9  164.23    6.66
   0  -3   9  142.44    5.82
   0  -3  10  190.76    5.59
   0   3 -10  179.06    5.18
   0   3 -10  165.66    8.21
   0  -3  10  164.40    6.35
   0   3 -10  177.33    6.25
   0   3 -11   50.15    4.97
   0   3 -11   52.49    7.18
   0   3 -11   30.55    5.62
   0  -3  11   38.37    5.57
   0  -3  11   37.99    5.15
   0   3 -12   38.31    5.24
   0   3 -12   45.35    7.93
   0   3 -12   51.41    3.42
   0  -3  12   23.31    4.96
   0   3 -13   23.05    3.93
   0   3 -13   32.38    6.34
   0  -3  13    6.73    4.65
   0   3 -13   25.47    5.14
   0   3 -14   77.82    4.38
   0   3 -14   96.94    4.90
   0   3 -14  107.50    7.78
   0  -3  14   80.11    4.43
   0   2  -1 4651.22   34.35
   0  -2   1 4446.16   28.00
   0   2  -1 4613.45   33.67
   0  -2   1 4624.96   34.37
   0   2  -1 4459.78   27.54
   0  -2   1 4503.65   32.63
   0   2  -2 1679.11   13.02
   0  -2   2 1725.92   19.39
   0  -2   2 1465.45   15.04
   0   2  -2 1546.71   15.95
   0   2  -2 1713.46   17.96
   0  -2   2 1427.00   12.87
   0   2  -3 2818.77   21.13
   0  -2   3 2919.32   24.56
   0  -2   3 2917.32   17.37
   0   2  -3 2873.91   25.46
   0  -2   3 2791.36   20.54
   0   2  -3 2818.83   16.45
   0   2  -4 1639.21   13.01
   0  -2   4 1674.49   18.14
   0  -2   4 1562.53   14.88
   0   2  -4 1764.51   19.00
   0   2  -4 1730.34   16.22
   0  -2   4 1612.86   12.83
   0  -2   5   42.04    8.83
   0   2  -5   61.87    8.29
   0   2  -5   62.55    9.35
   0  -2   5   52.94   10.98
   0  -2   5   41.81    8.32
   0   2  -5   61.95   10.47
   0   2  -6  158.00    4.93
   0  -2   6  151.91    8.07
   0  -2   6  132.34    7.48
   0   2  -6  145.74    8.27
   0  -2   6  151.36    5.13
   0   2  -6  147.77    9.77
   0   2  -7  184.10    6.32
   0  -2   7  167.69    4.80
   0  -2   7  171.64    6.69
   0  -2   7  181.78    7.88
   0   2  -7  177.98    7.77
   0   2  -7  169.36    9.34
   0   2  -8  694.44   11.75
   0   2  -8  741.31    6.67
   0  -2   8  715.58    9.36
   0  -2   8  708.33    8.39
   0   2  -8  682.11    9.48
   0  -2   8  750.79    6.82
   0   2  -9  754.69    7.43
   0  -2   9  632.51    7.38
   0  -2   9  659.64    8.87
   0   2  -9  699.41    8.82
   0  -2   9  693.12    7.21
   0   2  -9  682.43   10.80
   0  -2  10  114.34    5.84
   0   2 -10  127.06    4.09
   0   2 -10  148.45    8.45
   0  -2  10  111.83    6.39
   0   2 -10  131.71    6.63
   0   2 -11   14.83    4.50
   0   2 -11    6.39    5.82
   0  -2  11   -1.22    4.61
   0  -2  11    5.05    5.34
   0   2 -11    6.29    6.80
   0   2 -12  240.85    5.44
   0   2 -12  273.68    7.82
   0   2 -12  233.54    6.23
   0  -2  12  235.54    5.14
   0  -2  13  223.28    4.96
   0   2 -13  248.34    5.08
   0   2 -13  244.91    5.65
   0   2 -13  296.57    8.26
   0   2 -14   91.14    3.98
   0  -2  14   47.28    4.44
   0   2 -14   85.00    6.67
   0   2 -14   52.99    5.21
   0   1  -1  475.46   10.04
   0  -1   1  447.71   14.70
   0  -1   1  497.77   12.09
   0   1  -1  415.66   13.08
   0  -1   1  426.36   12.60
   0  -1   2 1323.10   13.14
   0  -1   2 1257.03   17.23
   0   1  -2 1359.27   13.39
   0  -1   2 1330.99   20.96
   0   1  -2 1346.16   18.02
   0   1  -2 1447.06   20.81
   0   1  -3 5044.63   36.09
   0   1  -3 5221.32   27.43
   0  -1   3 5005.84   35.12
   0   1  -3 5365.82   33.49
   0  -1   3 5397.81   31.53
   0  -1   3 5237.84   27.66
   0   1  -4  113.52    8.58
   0   1  -4  112.70    9.34
   0  -1   4   95.30    8.57
   0  -1   4  115.61    9.44
   0  -1   4  119.33    8.61
   0   1  -5  763.97    8.63
   0  -1   5  788.24   12.57
   0   1  -5  788.24   12.61
   0  -1   5  757.05    9.58
   0  -1   5  792.69    9.00
   0  -1   6 4464.89   20.32
   0  -1   6 4253.89   21.15
   0   1  -6 4596.83   21.14
   0  -1   6 4325.65   27.26
   0   1  -6 4463.94   24.71
   0  -1   7 2182.34   13.08
   0   1  -7 2271.91   12.63
   0  -1   7 2162.74   15.99
   0   1  -7 2234.78   14.06
   0  -1   7 2210.33   12.73
   0   1  -8  455.24    7.05
   0  -1   8  442.10    7.43
   0   1  -8  474.94    8.46
   0  -1   8  443.76    7.96
   0   1  -9   71.11    5.97
   0  -1   9   53.05    6.18
   0   1  -9   75.16    6.53
   0  -1   9   53.89    6.24
   0   1 -10   48.32    6.34
   0   1 -10   44.93    5.41
   0  -1  10   33.77    5.51
   0  -1  10   41.77    6.32
   0   1 -11  103.00    6.04
   0   1 -11   85.97    5.15
   0  -1  11   69.34    5.54
   0   1 -11   96.32    6.08
   0  -1  11   84.88    5.74
   0   1 -12   25.70    6.05
   0   1 -12   20.59    4.81
   0  -1  12   26.46    4.46
   0   1 -12   17.50    5.35
   0   1 -13   60.37    6.10
   0  -1  13   38.34    4.29
   0   1 -13   39.88    4.27
   0   1 -13   38.82    5.06
   0   1 -14   24.75    3.90
   0  -1  14   -2.97    4.19
   0   1 -14   13.71    6.07
   0   1 -14   22.28    4.35
   0   0  -2   62.52    9.33
   0   0   2   71.75   12.36
   0   0   2   63.22   12.87
   0   0   2   73.42    8.04
   0   0  -2   65.25   10.97
   0   0  -3  533.92    8.54
   0   0   3  547.03   10.84
   0   0   3  553.33    9.08
   0   0   3  559.81   11.98
   0   0  -3  568.35   11.73
   0   0   4 3642.60   20.24
   0   0  -4 3750.64   21.92
   0   0   4 3637.36   26.02
   0   0  -4 3684.44   22.16
   0   0   4 3315.09   19.76
   0   0  -5  325.90    9.77
   0   0  -5  315.09   11.52
   0   0  -5  330.62    8.81
   0   0   5  300.31   10.79
   0   0   5  308.00   10.95
   0   0   5  310.40   10.57
   0   0  -6    6.99    8.78
   0   0   6   30.89    7.46
   0   0  -6   20.98    8.09
   0   0   6   39.39    7.74
   0   0  -6   17.96    7.00
   0   0  -7   86.67    4.77
   0   0  -7   85.23    5.53
   0   0  -7   85.98    7.11
   0   0   7   81.63    6.26
   0   0   7   65.06    6.82
   0   0  -8    1.65    5.46
   0   0  -8    1.68    7.23
   0   0   8   -3.96    4.36
   0   0  -8   23.09    6.70
   0   0   8   14.41    6.23
   0   0  -9  124.36    6.35
   0   0  -9  140.59    7.26
   0   0   9  120.66    6.72
   0   0  -9  137.84    7.36
   0   0   9  119.36    6.24
   0   0 -10  199.29    5.67
   0   0 -10  191.82    7.00
   0   0  10  194.11    6.27
   0   0 -10  256.01    5.32
   0   0  10  176.46    6.59
   0   0  11  370.61    5.25
   0   0 -11  455.71    6.42
   0   0 -11  402.14    7.36
   0   0 -11  387.47    6.84
   0   0 -12   18.40    5.05
   0   0 -12   40.09    5.25
   0   0  12   39.71    5.07
   0   0 -12   18.76    5.39
   0   0 -13  100.62    4.34
   0   0  13   89.07    4.58
   0   0 -13   97.35    4.94
   0   0  14  149.27    4.88
   0   0 -14  189.96    4.80
   0   0 -14  189.76    5.43
   0  -1   0  262.83    9.31
   0  -1   0  249.90    8.04
   0   1   1  594.60   10.54
   0  -1  -1  598.50   12.55
   0  -1  -1  645.93   13.85
   0   1   2   26.15   10.20
   0  -1  -2   30.21   10.32
   0  -1  -2   31.03   11.47
   0   1   2   22.11    8.28
   0   1   3   11.22    5.76
   0  -1  -3   -7.38    8.08
   0  -1  -3  -14.19    9.03
   0   1   3   16.14    9.06
   0  -1  -3    0.47    7.83
   0  -1  -4   66.76    7.63
   0  -1  -4   82.05    6.90
   0  -1  -4   87.03    8.41
   0   1   4   71.35    9.08
   0   1   4   80.85    6.18
   0   1   5 3210.58   18.89
   0  -1  -5 3369.85   19.52
   0  -1  -5 3245.13   21.99
   0   1   5 3171.24   20.95
   0  -1  -5 3287.62   20.30
   0  -1  -6 1406.37   13.38
   0  -1  -6 1234.45   11.43
   0   1   6 1335.94   12.35
   0  -1  -6 1364.72   11.58
   0   1   6 1288.09    9.67
   0  -1  -7  491.58    6.15
   0  -1  -7  499.68    8.39
   0   1   7  479.12    7.28
   0  -1  -7  521.77    7.93
   0   1   7  468.50    7.76
   0  -1  -8 1244.87   11.64
   0   1   8 1136.99    9.47
   0  -1  -8 1177.13   10.06
   0  -1  -8 1185.45    8.76
   0   1   8 1144.08   10.36
   0  -1  -9  773.90    8.00
   0  -1  -9  734.61    9.55
   0   1   9  724.72    8.20
   0  -1  -9  729.02    8.58
   0   1   9  711.77    8.81
   0  -1 -10   75.77    5.79
   0   1  10   79.38    4.36
   0  -1 -10  101.85    6.44
   0  -1 -10   47.48    6.25
   0  -1 -11  255.02    5.99
   0  -1 -11  216.82    6.75
   0   1  11  209.66    4.60
   0  -1 -11  244.33    4.85
   0  -1 -12  168.56    5.00
   0  -1 -12  168.39    5.79
   0   1  12  134.67    4.21
   0  -1 -12  157.78    5.83
   0  -1 -13   66.68    4.12
   0  -1 -13   44.92    3.91
   0   1  13   46.27    4.40
   0  -1 -13   53.29    5.12
   0  -1 -14   30.48    4.72
   0  -1 -14   25.25    4.42
   0   1  14   43.92    4.40
   0  -1 -14   21.86    4.22
   0  -2   0  159.18    9.71
   0  -2   0  167.85    9.81
   0  -2   0  168.15    9.75
   0   2   1 5286.82   36.86
   0  -2  -1 5333.16   37.45
   0   2   2 6515.76   40.37
   0  -2  -2 6536.88   40.84
   0  -2  -2 5682.08   36.72
   0   2   3 5961.50   33.94
   0  -2  -3 5895.21   33.95
   0  -2  -3 5988.23   34.77
   0   2   3 5851.93   34.26
   0   2   4   60.61    8.76
   0  -2  -4   76.73    8.95
   0  -2  -4   64.61    9.79
   0   2   4   56.11    9.60
   0  -2  -4   59.39    8.36
   0   2   5 1919.95   14.39
   0  -2  -5 1937.81   14.40
   0  -2  -5 1830.93   15.42
   0   2   5 1834.34   13.77
   0  -2  -5 2040.72   15.78
   0  -2  -6  353.87    7.78
   0   2   6  368.58    7.87
   0  -2  -6  337.69    8.52
   0  -2  -6  379.83    8.31
   0   2   6  345.69    8.19
   0   2   7  501.48    7.40
   0  -2  -7  535.05    8.54
   0  -2  -7  507.26    8.11
   0  -2  -7  491.99    6.04
   0   2   7  488.83    6.46
   0   2   8   69.20    6.14
   0  -2  -8   73.64    5.12
   0  -2  -8   70.96    6.40
   0  -2  -8   82.16    5.88
   0   2   9  506.60    7.36
   0  -2  -9  499.08    7.28
   0  -2  -9  503.18    7.58
   0  -2  -9  529.46    8.69
   0  -2 -10  155.07    5.89
   0  -2 -10  156.13    6.02
   0  -2 -10  163.14    6.76
   0   2  10  142.82    5.88
   0   2  11  191.74    5.46
   0  -2 -11  166.69    6.04
   0  -2 -11  176.63    5.33
   0  -2 -11  143.33    6.12
   0  -2 -12  287.49    5.40
   0  -2 -12  286.65    6.25
   0   2  12  303.58    5.61
   0  -2 -12  288.70    6.08
   0  -2 -13   74.30    4.49
   0  -2 -13   59.15    5.25
   0   2  13   69.01    4.97
   0  -2 -13   71.79    5.17
   0  -2 -14    9.95    3.77
   0  -2 -14    6.59    5.01
   0   2  14    9.63    4.49
   0  -2 -14    7.24    4.16
   0  -3   0 1377.78   13.13
   0  -3   0 1402.15   12.95
   0  -3   0 1403.63   14.13
   0   3   1  171.56    7.27
   0  -3  -1  173.71    7.46
   0   3   2  292.41    8.31
   0  -3  -2  303.24    6.62
   0  -3  -2  307.44    9.32
   0  -3  -3  245.22    9.06
   0  -3  -3  280.40   10.00
   0   3   3  234.22    6.58
   0   3   4  268.54    9.31
   0  -3  -4  254.23    9.50
   0  -3  -4  254.96   10.57
   0  -3  -5  150.74    8.11
   0  -3  -5  137.71    8.73
   0   3   5  150.88    5.91
   0  -3  -5  152.56    7.69
   0   3   6  996.59    8.18
   0  -3  -6 1028.75    9.98
   0  -3  -6 1032.06    8.20
   0  -3  -6 1069.05   10.89
   0  -3  -7  183.43    7.06
   0   3   7  188.52    6.47
   0  -3  -7  198.24    7.37
   0  -3  -7  204.69    6.44
   0  -3  -8   36.90    6.07
   0   3   8   18.57    4.58
   0  -3  -8   37.82    5.20
   0  -3  -8   50.71    6.43
   0   3   9  372.76    6.90
   0  -3  -9  386.64    7.02
   0  -3  -9  387.00    6.63
   0  -3  -9  447.50    7.70
   0  -3 -10 1108.90    9.78
   0   3  10 1070.47    8.68
   0  -3 -10 1057.63    9.67
   0  -3 -10 1094.96    8.07
   0  -3 -11  227.70    6.26
   0  -3 -11  221.94    5.00
   0   3  11  204.26    5.89
   0  -3 -11  230.54    4.65
   0  -3 -12   -1.08    3.81
   0  -3 -12   -1.16    4.88
   0   3  12   10.53    3.55
   0  -3 -12  -13.71    5.54
   0  -3 -13   88.97    4.64
   0  -3 -13   71.00    5.62
   0   3  13   82.98    4.93
   0  -3 -13   63.50    3.99
   0  -3 -14  113.27    4.45
   0  -3 -14  123.50    5.14
   0   3  14  123.98    3.64
   0  -3 -14  126.57    3.88
   0  -4   0 3093.70   20.53
   0  -4   0 2940.97   19.53
   0  -4   0 3142.03   22.79
   0  -4  -1  436.64    9.38
   0  -4  -1  397.01    7.57
   0   4   1  385.11    7.46
   0   4   2  217.98    8.89
   0  -4  -2  243.46    9.25
   0  -4  -2  221.44    7.50
   0   4   3 5909.21   32.72
   0  -4  -3 5839.10   32.31
   0  -4  -3 5746.35   31.09
   0   4   4 6782.74   33.57
   0  -4  -4 6972.76   35.66
   0  -4  -4 7011.96   35.41
   0   4   5   -8.69    6.45
   0  -4  -5   17.57    6.49
   0  -4  -5   11.29    7.41
   0   4   6  894.57    8.33
   0  -4  -6  938.30    8.35
   0  -4  -6  915.73    8.84
   0  -4  -6  978.14   10.66
   0   4   7 1842.73   11.64
   0  -4  -7 1976.91   14.93
   0  -4  -7 1861.67   11.82
   0  -4  -7 1960.63   12.73
   0  -4  -8 1358.37   12.03
   0   4   8 1264.48    9.74
   0  -4  -8 1285.21   10.36
   0  -4  -8 1308.55    9.95
   0   4   9  139.65    6.28
   0  -4  -9  135.24    6.62
   0  -4  -9  152.07    5.84
   0  -4  -9  131.09    6.29
   0  -4 -10    6.64    4.57
   0  -4 -10   24.77    5.46
   0   4  10   15.41    5.02
   0  -4 -10   13.76    3.96
   0  -4 -11    2.06    5.03
   0   4  11   -3.85    3.71
   0  -4 -11   20.72    5.51
   0  -4 -11  -10.99    4.94
   0  -4 -12   76.70    4.77
   0  -4 -12  106.58    5.59
   0  -4 -12  100.57    5.50
   0   4  12   69.63    3.89
   0  -4 -13  200.94    5.43
   0  -4 -13  210.54    6.03
   0   4  13  162.39    5.05
   0  -4 -13  210.07    5.63
   0  -4 -14   85.99    4.91
   0  -4 -14   96.91    4.61
   0  -4 -14   81.54    4.93
   0   4  14   90.49    4.17
   0  -5   0 1283.11   11.11
   0  -5   0 1316.84   11.34
   0  -5   0 1317.90   13.21
   0  -5   0 1347.60   12.13
   0  -5  -1 3804.85   22.25
   0  -5  -1 3968.13   24.80
   0  -5  -1 3756.59   21.33
   0  -5  -1 3932.04   23.61
   0   5   2  785.24    9.05
   0  -5  -2  740.04    9.19
   0  -5  -2  788.17    7.99
   0   5   3  449.32    7.14
   0  -5  -3  460.42    6.23
   0  -5  -3  458.16    7.91
   0  -5  -4  841.94    7.41
   0  -5  -4  819.46    8.72
   0   5   4  814.92    7.17
   0   5   5  238.43    4.83
   0  -5  -5  240.17    6.37
   0  -5  -5  240.66    6.97
   0   5   6  354.87    5.47
   0  -5  -6  354.79    6.73
   0  -5  -6  372.00    5.94
   0  -5  -6  368.07    7.67
   0   5   7  162.13    6.37
   0  -5  -7  162.21    6.40
   0  -5  -7  155.73    6.81
   0  -5  -7  158.11    7.91
   0  -5  -8  619.82    9.33
   0   5   8  611.95    6.11
   0  -5  -8  646.91    8.16
   0  -5  -8  630.50    7.20
   0  -5  -9  642.49    9.07
   0   5   9  673.76    7.26
   0  -5  -9  674.77    7.82
   0  -5  -9  678.00    7.44
   0  -5 -10   14.75    5.79
   0   5  10   -1.27    3.85
   0  -5 -10  -13.17    4.25
   0  -5 -10   -3.41    3.84
   0  -5 -11  172.35    5.65
   0   5  11  126.11    5.47
   0  -5 -11  177.12    5.84
   0  -5 -11  174.81    4.25
   0  -5 -12  309.68    6.02
   0  -5 -12  289.03    5.73
   0  -5 -12  339.81    6.44
   0   5  12  310.36    6.04
   0  -5 -13  160.26    5.08
   0   5  13  198.97    5.42
   0  -5 -13  162.18    5.61
   0  -5 -13  152.27    5.13
   0  -6   0 1568.47   14.16
   0  -6   0 1587.39   11.77
   0  -6   0 1659.13   12.94
   0  -6   0 1664.18   12.41
   0  -6  -1  726.96    9.05
   0  -6  -1  768.43    8.24
   0  -6  -1  784.68    8.25
   0  -6  -1  765.83    8.68
   0  -6  -2  987.44   10.93
   0  -6  -2 1038.97    9.46
   0  -6  -2 1046.77    8.43
   0  -6  -2 1020.79    8.33
   0  -6  -3  218.74    4.91
   0   6   3  222.92    6.18
   0  -6  -3  207.61    4.90
   0  -6  -3  241.03    7.06
   0  -6  -4  564.66    7.74
   0   6   4  516.74    7.04
   0  -6  -4  555.12    7.45
   0   6   5 1718.79   11.57
   0  -6  -5 1763.02   12.04
   0  -6  -5 1738.58   10.78
   0  -6  -6 1539.30   10.83
   0  -6  -6 1495.53   10.82
   0   6   6 1476.30    9.56
   0   6   7  506.20    7.08
   0  -6  -7  514.34    7.12
   0  -6  -7  505.54    7.37
   0  -6  -7  488.39    9.36
   0  -6  -8  185.70    7.87
   0   6   8  179.76    5.80
   0  -6  -8  169.13    6.46
   0  -6  -8  200.98    5.66
   0   6   9  770.57    6.53
   0  -6  -9  809.48    8.15
   0  -6  -9  829.85    7.48
   0  -6  -9  812.23   10.33
   0  -6 -10  191.33    6.50
   0   6  10  203.48    4.38
   0  -6 -10  179.28    5.91
   0  -6 -10  185.02    5.82
   0  -6 -11   36.80    5.51
   0  -6 -11   27.69    5.09
   0  -6 -11   21.62    5.05
   0   6  11   43.22    4.50
   0  -6 -12    6.25    4.96
   0   6  12   11.99    4.22
   0  -6 -12  -18.12    5.01
   0  -6 -12    2.02    4.78
   0   6  13    7.20    4.95
   0  -6 -13   16.34    3.66
   0  -6 -13   30.35    5.15
   0  -6 -13   29.57    5.01
   0  -7   0  135.16    6.77
   0  -7   0  128.96    6.13
   0  -7   0  131.20    5.69
   0  -7   0  128.88    6.86
   0  -7   0  153.55    5.94
   0  -7  -1   50.00    6.17
   0  -7  -1   63.12    6.07
   0  -7  -1   55.54    5.78
   0  -7  -1   36.82    5.97
   0  -7  -1   59.23    6.82
   0  -7  -2 1013.06    9.90
   0  -7  -2 1026.99    9.55
   0  -7  -2 1099.48    9.68
   0  -7  -2  996.48    9.37
   0  -7  -3  854.76   10.62
   0   7   3  848.17    8.99
   0  -7  -3  863.41    8.89
   0  -7  -3  925.15    8.88
   0  -7  -3  898.54    9.10
   0  -7  -4   71.05    7.32
   0  -7  -4   58.89    5.58
   0   7   4   57.93    4.26
   0  -7  -4   60.47    5.71
   0  -7  -4   69.05    6.84
   0   7   5   47.58    5.46
   0  -7  -5   31.17    5.73
   0  -7  -5   42.46    6.37
   0   7   6   26.07    3.90
   0  -7  -6   42.65    6.01
   0  -7  -6   42.14    5.42
   0  -7  -7    6.86    7.76
   0  -7  -7   12.99    5.00
   0   7   7    8.37    5.00
   0  -7  -7   28.50    5.95
   0   7   8    1.17    3.81
   0  -7  -8   10.27    5.27
   0  -7  -8    5.51    3.73
   0  -7  -8    1.54    7.04
   0   7   9   79.37    4.84
   0  -7  -9   81.46    4.26
   0  -7  -9   73.88    7.30
   0  -7  -9   89.29    5.14
   0  -7 -10   77.23    6.69
   0   7  10   66.63    3.73
   0  -7 -10   96.05    3.88
   0  -7 -10   72.78    5.21
   0  -7 -11    4.60    5.54
   0  -7 -11   -0.89    3.92
   0   7  11    8.34    3.33
   0  -7 -11   20.05    4.77
   0  -7 -12    2.94    5.70
   0   7  12    0.33    4.20
   0  -7 -12   -4.70    4.02
   0  -7 -12   11.38    4.78
   0  -8   0  424.67    7.64
   0  -8   0  418.12    6.94
   0  -8   0  390.66    6.90
   0  -8   0  434.41    7.27
   0  -8   0  412.88    6.96
   0  -8  -1   14.10    4.01
   0  -8  -1   22.30    5.16
   0  -8  -1   13.56    5.60
   0  -8  -1   21.38    6.26
   0  -8  -1   12.81    5.88
   0  -8  -2   87.68    5.31
   0  -8  -2   85.43    6.25
   0  -8  -2   87.85    5.66
   0  -8  -2   79.80    6.33
   0  -8  -3  949.52   10.50
   0  -8  -3  933.60    7.92
   0  -8  -3  981.23    9.30
   0  -8  -3  986.78    9.23
   0   8   4  531.85    6.10
   0  -8  -4  577.71    7.39
   0  -8  -4  603.58    7.54
   0  -8  -4  578.47    9.33
   0  -8  -4  617.97    7.48
   0  -8  -5   35.08    7.81
   0  -8  -5   27.07    3.83
   0   8   5   33.22    4.93
   0  -8  -5   36.65    4.95
   0  -8  -5   36.31    6.09
   0  -8  -6  115.21    8.78
   0  -8  -6  116.90    5.74
   0   8   6   94.49    4.82
   0  -8  -6   89.83    5.53
   0  -8  -6  112.73    4.61
   0  -8  -7  685.02   13.72
   0   8   7  676.45    7.16
   0  -8  -7  796.41    7.71
   0  -8  -7  703.96    7.38
   0  -8  -7  669.23    7.24
   0  -8  -7  693.03   14.24
   0  -8  -8  184.50   12.48
   0   8   8  196.37    5.71
   0  -8  -8  180.07    5.55
   0  -8  -8  198.06    4.46
   0   8   9   43.08    5.16
   0  -8  -9   42.29    3.81
   0  -8  -9   41.95    3.90
   0   8  10  181.71    5.27
   0  -8 -10  192.32    5.27
   0  -8 -10  201.15    4.29
   0   8  11  262.32    5.96
   0  -8 -11  257.84    5.96
   0  -8 -11  245.45    4.59
   0  -9   0  197.65    7.01
   0  -9   0  170.05    5.68
   0  -9   0  176.71    6.74
   0  -9   0  199.59    5.50
   0  -9   0  176.02    5.87
   0  -9  -1  446.40    6.57
   0  -9  -1  466.62    7.25
   0  -9  -1  467.02    7.54
   0  -9  -1  476.77    7.82
   0  -9  -1  493.70    6.84
   0  -9  -2  161.07    5.98
   0  -9  -2  172.50    5.32
   0  -9  -2  189.32    5.86
   0  -9  -2  182.07    6.49
   0  -9  -2  178.25    6.82
   0  -9  -3  178.78    5.21
   0  -9  -3  155.22    6.36
   0  -9  -3  151.96    5.30
   0  -9  -3  165.66    6.59
   0  -9  -4  571.07    9.82
   0  -9  -4  513.07    5.78
   0  -9  -4  573.53    7.23
   0  -9  -4  545.69    6.94
   0  -9  -5  463.18    6.17
   0  -9  -5  472.56    9.82
   0  -9  -5  466.37    5.58
   0  -9  -5  447.73    6.68
   0  -9  -6   14.62    8.80
   0   9   6   10.52    4.82
   0  -9  -6   -3.48    5.07
   0  -9  -6    6.57    5.45
   0  -9  -6   -6.99    5.09
   0   9   7  263.33    5.59
   0  -9  -7  273.19    5.80
   0  -9  -7  260.32    6.23
   0  -9  -7  275.06    4.65
   0  -9  -8  119.40    5.00
   0  -9  -8  120.49    4.30
   0   9   8  116.02    5.28
   0  -9  -8  102.87    5.30
   0   9   9   17.01    4.87
   0  -9  -9   20.56    5.35
   0  -9  -9   37.73    4.52
   0  -9  -9   40.38    4.35
   0  -9 -10   34.52    3.59
   0   9  10   25.81    4.37
   0  -9 -10   54.20    4.79
   0  -9 -10   31.98    4.29
   0 -10   0   42.08    5.24
   0 -10   0   41.68    4.86
   0 -10   0   49.85    5.13
   0 -10   0   61.32    5.25
   0 -10   0   61.64    5.55
   0 -10  -1   81.20    5.70
   0 -10  -1   69.86    4.69
   0 -10  -1   96.33    4.88
   0 -10  -1   91.64    6.09
   0 -10  -1   91.01    5.47
   0 -10  -2  122.13    5.84
   0 -10  -2  122.83    5.48
   0 -10  -2  105.92    4.88
   0 -10  -2  134.05    5.87
   0 -10  -2  103.20    5.09
   0 -10  -3  125.54    6.41
   0 -10  -3  136.51    5.06
   0 -10  -3  153.59    4.26
   0 -10  -3  130.79    4.82
   0 -10  -3  153.36    6.20
   0 -10  -4   17.50    4.41
   0 -10  -4   10.26    6.45
   0 -10  -4   12.16    4.39
   0 -10  -4   18.91    5.82
   0 -10  -5   -3.03    3.12
   0 -10  -5   21.98    5.42
   0 -10  -5    7.65    4.92
   0 -10  -5    2.23    7.12
   0 -10  -6   23.29    5.04
   0 -10  -6   23.17    5.57
   0 -10  -6   21.27    4.24
   0 -10  -7   34.93    4.38
   0 -10  -7   66.96    4.96
   0 -10  -7   32.26    5.05
   0 -10  -8  171.36    4.83
   0  10   8  153.41    4.22
   0 -10  -8  155.95    4.42
   0 -10  -8  151.96    4.14
   0 -10  -9  255.00    5.03
   0  10   9  237.51    4.99
   0 -10  -9  236.44    5.79
   0 -10  -9  244.37    5.00
   0 -11   0   19.85    4.80
   0 -11   0    2.14    4.50
   0 -11   0   -2.17    5.45
   0 -11   0  -10.96    4.82
   0 -11   0   -8.42    4.77
   0 -11  -1  126.22    5.35
   0 -11  -1  109.85    5.80
   0 -11  -1  138.09    4.91
   0 -11  -1  115.69    5.09
   0 -11  -1  143.81    6.09
   0 -11  -2  214.11    5.54
   0 -11  -2  209.36    5.30
   0 -11  -2  204.84    5.11
   0 -11  -2  185.40    6.45
   0 -11  -2  208.45    5.65
   0 -11  -3   43.50    4.89
   0 -11  -3   60.27    4.70
   0 -11  -3   13.16    5.19
   0 -11  -3   38.23    4.30
   0 -11  -3   49.32    5.94
   0 -11  -4   16.09    4.47
   0 -11  -4   14.25    4.12
   0 -11  -4    6.87    5.04
   0 -11  -4   25.67    4.01
   0 -11  -4   17.82    5.89
   0 -11  -5  117.41    3.47
   0 -11  -5  101.91    5.15
   0 -11  -5  117.09    5.78
   0 -11  -5  108.09    8.91
   0 -11  -6  360.64    4.99
   0 -11  -6  424.57    6.64
   0 -11  -6  387.05    5.72
   0 -11  -7  159.04    5.55
   0 -11  -7  151.40    5.03
   0 -11  -7  178.93    4.98
   0 -12   0  305.56    5.87
   0 -12   0  324.67    6.34
   0 -12   0  304.28    6.31
   0 -12   0  313.21    6.46
   0 -12   0  338.49    7.41
   0 -12  -1   43.70    5.37
   0 -12  -1   46.39    4.63
   0 -12  -1   44.98    4.78
   0 -12  -1   48.17    4.22
   0 -12  -1   29.65    5.16
   0 -12  -2   23.59    4.33
   0 -12  -2    7.81    4.40
   0 -12  -2   17.18    4.68
   0 -12  -2    0.65    4.80
   0 -12  -2    0.96    4.73
   0 -12  -3   68.83    4.86
   0 -12  -3   61.26    4.15
   0 -12  -3   65.21    4.63
   0 -12  -3   81.94    4.09
   0 -12  -3   61.29    6.26
   0 -12  -4   63.85    4.11
   0 -12  -4   62.08    4.66
   0 -12  -4  102.07    5.77
   0 -12  -4   87.92    4.22
   0 -12  -4   65.23    6.24
   0 -12  -5   14.92    4.66
   0 -12  -5   15.90    3.46
   0 -12  -5   11.61    4.36
   1 -12   1   26.69    4.92
   1 -12   1   39.75    4.82
   1 -12   1   19.98    4.74
   1 -12   1   50.68    5.16
   1 -12   1   42.64    5.24
   1 -12   2   39.20    5.43
   1 -12   2   44.83    5.51
   1 -12   2   60.18    5.12
   1 -12   2   45.18    4.20
   1 -12   2   43.01    5.37
   1 -12   3   21.00    4.79
   1 -12   3    8.07    5.71
   1 -12   3   17.18    4.80
   1 -12   3    3.21    4.93
   1 -11   1   36.94    4.85
   1 -11   1   38.70    5.39
   1 -11   1   39.64    5.28
   1 -11   1   58.66    4.84
   1 -11   1   31.49    5.46
   1 -11   2  159.56    6.05
   1 -11   2  157.05    5.32
   1 -11   2  178.78    5.88
   1 -11   2  175.50    5.05
   1 -11   2  158.95    6.43
   1 -11   3  162.91    6.97
   1 -11   3  172.80    6.36
   1 -11   3  172.42    6.02
   1 -11   3  172.71    6.56
   1 -11   3  178.29    5.28
   1 -11   4   50.74    6.48
   1 -11   4   72.04    5.10
   1 -11   4   64.41    5.80
   1 -11   4   61.38    6.62
   1 -11   4   54.94    4.69
   1 -11   5   10.62    5.23
   1 -11   5   10.98    7.13
   1 -11   5   22.42    7.42
   1 -11   5    6.93    5.16
   1 -11   5   24.15    4.55
   1 -11   6   20.38    5.75
   1 -11   6   -0.45    4.08
   1 -11   6   16.86    5.84
   1 -10   1   52.03    5.54
   1 -10   1   65.66    5.23
   1 -10   1   37.85    5.69
   1 -10   1   34.47    5.24
   1 -10   1   66.34    6.56
   1 -10   2   56.90    5.60
   1 -10   2   70.42    5.50
   1 -10   2   67.16    6.04
   1 -10   2   70.12    5.81
   1 -10   2   59.18    4.72
   1 -10   3   41.74    5.14
   1 -10   3   55.95    5.94
   1 -10   3   47.86    5.47
   1 -10   3   47.60    5.74
   1 -10   3   59.87    4.72
   1 -10   4   12.75    6.14
   1 -10   4   10.55    5.25
   1 -10   4    2.95    5.16
   1 -10   4   14.48    4.41
   1 -10   5  287.07    8.93
   1 -10   5  319.91    7.50
   1 -10   5  270.76    8.17
   1 -10   5  299.55    5.79
   1 -10   6  219.84   10.08
   1 -10   6  223.46    9.91
   1 -10   6  221.47    5.17
   1 -10   6  246.72    7.48
   1 -10   7  137.12    7.44
   1 -10   7  143.75    7.41
   1 -10   7  144.79    5.03
   1 -10   8   34.82    7.47
   1 -10   8   30.46    6.93
   1 -10   8   18.88    3.53
   1  -9   1  791.81   10.29
   1  -9   1  756.24    8.57
   1  -9   1  798.64    8.65
   1  -9   1  731.53    8.32
   1  -9   2   40.98    4.95
   1  -9   2   43.27    6.25
   1  -9   2   30.73    5.13
   1  -9   2   42.56    5.35
   1  -9   3  142.79    5.86
   1  -9   3  151.71    6.50
   1  -9   3  130.66    6.28
   1  -9   3  130.38    5.67
   1  -9   4  406.28    8.15
   1  -9   4  394.94    6.87
   1  -9   4  388.74    7.94
   1  -9   4  417.67    6.21
   1  -9   5  187.49    7.42
   1  -9   5  196.19    7.71
   1  -9   5  203.82    7.35
   1  -9   5  200.71    5.76
   1  -9   6    9.48    7.41
   1  -9   6    1.17    6.70
   1  -9   6   -7.15    4.52
   1  -9   6    7.34    6.30
   1  -9   7   16.69    6.24
   1  -9   7    4.76    7.90
   1  -9   7    5.77    8.17
   1  -9   7   -2.90    3.44
   1  -9   8    5.83    6.83
   1  -9   8   -3.16    9.61
   1  -9   8    4.30    9.33
   1  -9   8   -8.16    4.25
   1  -9   9   17.48    7.47
   1  -8   1  348.94    7.87
   1  -8   1  308.70    7.69
   1  -8   1  335.49    6.70
   1  -8   1  338.43    6.48
   1  -8   2  175.19    7.22
   1  -8   2  195.72    5.90
   1  -8   2  193.60    6.41
   1  -8   2  188.99    7.47
   1  -8   3    4.86    5.86
   1  -8   3    9.31    5.35
   1  -8   3    8.32    6.00
   1  -8   3    5.03    6.34
   1  -8   4   84.29    5.62
   1  -8   4   62.20    6.94
   1  -8   4   70.04    5.94
   1  -8   4   82.54    6.58
   1  -8   5  266.26    7.55
   1  -8   5  230.25    7.71
   1  -8   5  227.63    8.26
   1  -8   5  242.04    4.67
   1  -8   6   35.13    6.98
   1  -8   6   22.26    7.47
   1  -8   6   28.48    3.91
   1  -8   6   28.09    6.84
   1  -8   7  158.62    7.74
   1  -8   7  161.73    7.00
   1  -8   7  156.14    8.88
   1  -8   7  171.50    5.24
   1  -8   8  411.39   10.01
   1  -8   8  415.36    8.86
   1  -8   8  400.63    9.85
   1  -8   8  434.56    5.81
   1  -8   9  156.59    7.79
   1  -8   9  152.16    7.86
   1  -8   9  159.84    7.93
   1  -8   9  154.95    4.08
   1  -8  10    5.35    5.96
   1  -8  10    8.24    7.39
   1  -7   1  679.06    9.65
   1  -7   1  650.10    9.31
   1  -7   1  655.93    8.17
   1  -7   1  651.22    8.05
   1  -7   2 1327.81   10.67
   1  -7   2 1371.39   12.89
   1  -7   2 1451.53   11.09
   1  -7   2 1396.17   13.53
   1  -7   3 1541.50   11.12
   1  -7   3 1461.38   13.01
   1  -7   3 1538.42   14.53
   1  -7   3 1556.46   11.60
   1  -7   4  203.23    7.77
   1  -7   4  222.05    6.96
   1  -7   4  195.17    7.52
   1  -7   4  213.05    6.42
   1  -7   5  205.40    7.69
  -1   7  -5  238.06    7.16
   1  -7   5  198.90    7.39
   1  -7   5  192.31    7.90
   1  -7   5  191.74    5.83
  -1   7  -6  364.77    7.31
  -1   7  -6  365.00    6.48
   1  -7   6  316.65    8.75
   1  -7   6  346.89    8.54
   1  -7   6  316.83    9.11
   1  -7   6  346.56    6.09
   1  -7   7  131.26    6.70
  -1   7  -7  134.24    4.30
  -1   7  -7  156.57    7.29
   1  -7   7  132.67    7.44
   1  -7   7  136.15    5.28
  -1   7  -8   -0.39    4.85
   1  -7   8    6.78    7.20
   1  -7   8    5.37    6.48
   1  -7   8   -5.80    5.06
  -1   7  -8    7.76    5.95
  -1   7  -9  187.56    7.18
  -1   7  -9  176.17    4.23
   1  -7   9  178.55    7.15
   1  -7   9  175.29    7.42
   1  -7   9  171.15    5.49
  -1   7  -9  183.88    8.02
  -1   7 -10   23.26    7.17
  -1   7 -10   28.42    6.43
  -1   7 -10   31.58    4.72
   1  -7  10   30.66    6.06
   1  -7  10   28.80    6.78
  -1   7 -11   32.13    6.91
  -1   7 -11   26.01    7.03
   1  -7  11   21.22    6.64
   1  -7  11   16.86    5.32
   1  -6   1   16.41    6.91
   1  -6   1    3.27    6.22
   1  -6   1   12.70    5.50
   1  -6   1   20.13    6.20
   1  -6   2  103.18    8.35
   1  -6   2   99.08    6.43
   1  -6   2  107.78    5.99
   1  -6   2  101.06    6.34
  -1   6  -3  583.58    7.42
   1  -6   3  579.41    8.03
  -1   6  -3  648.75    8.26
   1  -6   3  587.78    9.50
   1  -6   3  550.78    8.31
   1  -6   3  543.76    7.55
   1  -6   4  132.89    7.46
  -1   6  -4  129.14    4.58
   1  -6   4  136.87    6.95
  -1   6  -4  142.90    6.64
   1  -6   4  126.03    7.64
   1  -6   4  134.54    6.34
   1  -6   5  122.35    6.41
   1  -6   5  133.17    7.10
  -1   6  -5  129.50    6.50
  -1   6  -5  122.34    6.52
   1  -6   5  107.12    8.02
   1  -6   6   55.94    8.18
  -1   6  -6   59.30    5.40
  -1   6  -6   47.14    7.64
   1  -6   6   53.49    8.53
   1  -6   6   52.49    4.09
  -1   6  -7    1.62    7.90
  -1   6  -7   18.04    5.45
   1  -6   7    7.25    6.38
   1  -6   7    1.86    7.70
   1  -6   7   10.36    3.78
  -1   6  -7   -7.35    6.94
  -1   6  -8   43.77    6.94
  -1   6  -8   42.92    5.44
   1  -6   8   39.91    7.21
  -1   6  -8   45.89    7.83
   1  -6   8   37.20    6.67
   1  -6   8   43.42    4.98
  -1   6  -9  231.01    8.26
  -1   6  -9  230.77    5.20
  -1   6  -9  216.08    7.51
   1  -6   9  212.21    7.87
   1  -6   9  209.88    6.96
   1  -6   9  216.59    5.39
  -1   6 -10  166.20    6.87
  -1   6 -10  179.79    3.86
  -1   6 -10  146.78    8.00
   1  -6  10  170.14    6.77
   1  -6  10  175.01    7.68
  -1   6 -11   59.57    7.06
  -1   6 -11   62.64    3.25
  -1   6 -11   63.37    6.44
   1  -6  11   66.81    5.61
   1  -6  11   58.49    7.00
  -1   6 -12   10.38    6.17
   1  -6  12    1.96    5.08
  -1   6 -12    7.46    3.86
   1  -6  12    5.50    6.05
  -1   6 -12    2.24    6.46
   1  -5   1  203.53    7.75
   1  -5   1  216.87    6.97
   1  -5   1  207.61    7.16
   1  -5   1  220.18    6.95
  -1   5  -2    3.14    6.39
   1  -5   2    1.63    6.35
   1  -5   2    1.43    7.43
   1  -5   2  -13.92    6.61
   1  -5   2    9.66    7.76
  -1   5  -3 1661.99   12.57
  -1   5  -3 1703.12   11.69
   1  -5   3 1551.19   12.42
   1  -5   3 1623.45   15.87
   1  -5   3 1481.22   14.02
   1  -5   3 1533.90   11.28
  -1   5  -4 2457.56   13.97
   1  -5   4 2450.33   16.88
   1  -5   4 2156.09   16.96
  -1   5  -4 2397.14   15.80
   1  -5   4 2315.57   13.82
   1  -5   5  226.48    5.13
  -1   5  -5  237.04    6.44
  -1   5  -5  248.98    7.36
   1  -5   5  221.45    9.42
  -1   5  -5  246.32    8.78
   1  -5   5  254.62    9.22
   1  -5   6  286.64    6.27
  -1   5  -6  276.77    9.20
   1  -5   6  261.27    8.17
  -1   5  -6  300.29    6.39
  -1   5  -6  283.15    7.95
   1  -5   6  256.83    9.32
   1  -5   7  477.94    9.71
   1  -5   7  469.01    8.96
  -1   5  -7  504.36    5.61
  -1   5  -7  541.02   10.46
   1  -5   7  429.58    6.91
  -1   5  -7  498.26   11.24
  -1   5  -8  492.44    9.28
  -1   5  -8  571.49    6.89
   1  -5   8  502.25    9.53
   1  -5   8  492.96    8.75
  -1   5  -8  554.29    9.30
   1  -5   8  554.85    6.96
  -1   5  -9   40.37    4.75
   1  -5   9   23.87    6.41
  -1   5  -9   42.57    7.60
   1  -5   9   40.39    6.93
   1  -5   9   38.92    3.72
  -1   5  -9   40.21    7.84
  -1   5 -10   53.33    4.85
   1  -5  10   38.44    5.84
   1  -5  10   40.14    6.62
  -1   5 -10   26.87    7.35
  -1   5 -10   40.89    6.75
  -1   5 -11   71.12    4.68
   1  -5  11   48.84    5.37
  -1   5 -11   63.73    6.27
   1  -5  11   62.75    6.42
  -1   5 -11   55.24    6.48
  -1   5 -12   87.58    3.36
   1  -5  12   75.36    5.26
   1  -5  12   93.90    6.09
  -1   5 -12   81.85    6.73
  -1   5 -12   90.60    7.30
  -1   5 -13  117.18    4.64
   1  -5  13   94.81    5.35
   1  -5  13  103.97    5.93
  -1   5 -13   82.57    6.24
  -1   5 -13  107.07    6.79
  -1   4  -1 5753.84   31.69
  -1   4  -1 5415.48   29.91
   1  -4   1 6141.77   39.97
   1  -4   1 5875.17   33.23
   1  -4   1 5748.86   30.03
  -1   4  -2 1973.71   14.55
   1  -4   2 1888.63   18.57
   1  -4   2 1953.30   14.43
   1  -4   2 1843.95   14.65
   1  -4   2 1939.72   18.87
  -1   4  -3 1730.32   12.76
   1  -4   3 1666.94   13.73
   1  -4   3 1612.30   15.88
   1  -4   3 1386.28   11.77
  -1   4  -4 3193.10   23.81
  -1   4  -4 3262.15   16.08
  -1   4  -4 3349.53   20.12
   1  -4   4 3079.45   23.19
   1  -4   4 3382.72   20.52
   1  -4   4 3292.01   16.98
   1  -4   5 1479.08   13.40
  -1   4  -5 1412.20   10.21
   1  -4   5 1352.40   14.26
  -1   4  -5 1540.78   14.28
   1  -4   5 1418.48    9.18
  -1   4  -5 1351.98   14.41
  -1   4  -6  718.39    8.03
   1  -4   6  646.92    9.63
   1  -4   6  652.29   10.53
   1  -4   6  673.78    7.81
  -1   4  -6  635.60   11.51
  -1   4  -6  726.13   11.40
  -1   4  -7  164.03    6.72
  -1   4  -7  155.66   10.07
   1  -4   7  146.66    7.70
   1  -4   7  144.00    8.00
   1  -4   7  162.24    6.46
  -1   4  -7  145.53    8.03
  -1   4  -8  157.29    5.69
  -1   4  -8  157.05    8.50
   1  -4   8  141.79    7.27
   1  -4   8  138.32    6.89
   1  -4   8  139.16    5.72
  -1   4  -8  148.07    8.17
  -1   4  -9  145.91    5.51
  -1   4  -9  121.04    8.02
   1  -4   9  123.55    6.15
  -1   4  -9  102.58    7.37
   1  -4   9  135.41    6.84
  -1   4 -10   17.41    6.71
  -1   4 -10   45.02    4.54
  -1   4 -10   26.15    7.33
   1  -4  10   32.07    5.62
   1  -4  10   53.78    5.92
  -1   4 -11  299.99    5.08
  -1   4 -11  249.35    8.95
   1  -4  11  271.78    6.17
   1  -4  11  284.93    7.18
  -1   4 -11  233.20    6.97
  -1   4 -12  224.19    4.10
  -1   4 -12  212.10    8.34
   1  -4  12  183.31    5.51
   1  -4  12  223.31    6.84
  -1   4 -12  203.55    6.93
  -1   4 -13   67.93    4.11
  -1   4 -13   51.80    7.36
   1  -4  13   56.53    5.39
  -1   4 -13   67.91    6.82
   1  -4  13   47.44    4.96
  -1   3  -1   10.50    7.40
   1  -3   1    2.92    9.13
   1  -3   1    6.25    6.45
  -1   3  -1    3.81    4.40
   1  -3   1    0.07    7.09
  -1   3  -2   64.35    8.65
   1  -3   2   62.19    7.41
   1  -3   2   61.81    9.38
   1  -3   2   62.10    9.83
   1  -3   2   66.41    8.23
  -1   3  -3  187.66   11.55
   1  -3   3  192.84   10.97
   1  -3   3  177.62   11.07
  -1   3  -3  177.81    9.85
   1  -3   3  186.77    7.14
  -1   3  -4  557.18   11.22
  -1   3  -4  561.88    9.77
   1  -3   4  596.65   10.89
   1  -3   4  535.20   12.99
   1  -3   4  574.59    9.55
  -1   3  -4  507.63   12.32
   1  -3   5  778.26   10.64
  -1   3  -5  817.74   11.41
   1  -3   5  807.70   12.44
  -1   3  -5  821.48   12.77
   1  -3   5  823.37    9.29
  -1   3  -5  760.14    9.27
  -1   3  -6 2396.99   13.04
   1  -3   6 2299.12   17.19
  -1   3  -6 2299.65   18.37
   1  -3   6 2331.59   16.33
  -1   3  -6 2247.23   18.21
   1  -3   6 2201.32   12.58
  -1   3  -7 1019.71    8.45
   1  -3   7 1117.06   12.11
  -1   3  -7 1108.15   13.67
   1  -3   7 1031.51   10.19
  -1   3  -7 1000.52   11.80
   1  -3   7 1094.29    8.72
  -1   3  -8  288.85    5.02
  -1   3  -8  247.71    8.95
   1  -3   8  281.64    7.81
   1  -3   8  265.94    6.93
  -1   3  -8  263.61    9.19
   1  -3   9 1090.61   10.26
   1  -3   9 1041.69   10.75
  -1   3  -9 1000.97   12.24
  -1   3  -9  995.11   11.08
  -1   3  -9 1086.75    8.61
  -1   3 -10  537.83    9.22
  -1   3 -10  635.09    6.49
   1  -3  10  557.18    7.62
   1  -3  10  531.12    8.17
  -1   3 -10  480.45    9.71
  -1   3 -11   80.57    3.73
   1  -3  11   74.35    5.41
  -1   3 -11   79.29    7.86
   1  -3  11   78.25    5.62
  -1   3 -11   78.32    6.19
  -1   3 -12   11.47    3.45
   1  -3  12   12.17    4.97
  -1   3 -12    7.07    6.53
   1  -3  12   26.04    4.84
  -1   3 -12   22.55    6.08
  -1   3 -13   63.82    3.36
   1  -3  13   60.66    4.75
  -1   3 -13   66.46    7.29
   1  -3  13   56.92    4.96
  -1   3 -13   50.29    5.77
  -1   3 -14   53.25    7.68
   1  -3  14   43.92    4.38
  -1   3 -14   25.01    3.74
  -1   3 -14   35.86    5.47
  -1   2  -1  142.64    9.98
   1  -2   1  163.35    6.69
  -1   2  -1  164.64   11.48
  -1   2  -1  158.22    6.37
   1  -2   1  161.96   11.93
   1  -2   1  139.32    9.45
  -1   2  -2 4070.41   23.90
   1  -2   2 3705.69   23.68
   1  -2   2 4033.63   23.65
  -1   2  -3 9852.57   43.93
   1  -2   3 9999.00   45.49
  -1   2  -4 1826.03   13.98
   1  -2   4 1991.21   17.34
   1  -2   4 2047.00   17.79
  -1   2  -4 1989.83   19.56
   1  -2   4 2066.86   14.64
  -1   2  -5  305.70    7.05
   1  -2   5  292.48    7.09
   1  -2   5  296.99    9.24
   1  -2   5  288.64   10.15
  -1   2  -5  297.71   10.32
  -1   2  -6  641.37    8.29
   1  -2   6  620.86    9.78
   1  -2   6  617.56    9.17
  -1   2  -6  609.92   10.42
   1  -2   6  664.82    8.79
   1  -2   7 1433.44   12.38
   1  -2   7 1428.03   11.48
  -1   2  -7 1514.55   10.08
  -1   2  -7 1387.01   13.35
  -1   2  -8  479.41    6.88
   1  -2   8  431.26    7.50
   1  -2   8  415.16    8.21
  -1   2  -8  438.84    8.21
  -1   2  -9  219.58    6.06
   1  -2   9  225.77    6.65
   1  -2   9  204.08    7.17
  -1   2  -9  210.07    7.34
  -1   2  -9  215.04    8.35
  -1   2 -10   36.78    4.84
   1  -2  10   68.97    5.85
   1  -2  10   34.06    6.45
  -1   2 -10   46.41    6.63
  -1   2 -10   55.65    7.60
  -1   2 -11    6.88    3.74
   1  -2  11   -6.59    4.98
   1  -2  11   18.01    5.11
  -1   2 -11   15.15    5.98
  -1   2 -11    1.05    6.94
  -1   2 -12    5.61    4.48
   1  -2  12    3.31    5.04
   1  -2  12   11.97    4.96
  -1   2 -12   -1.62    5.45
  -1   2 -12   -1.34    6.26
  -1   2 -13   64.44    4.64
   1  -2  13   59.83    4.83
   1  -2  13   52.86    5.36
  -1   2 -13   72.32    6.66
  -1   2 -13   54.73    5.56
  -1   2 -14   67.26    5.15
  -1   2 -14   33.78    4.06
   1  -2  14   77.84    4.84
  -1   2 -14   85.46    6.54
   1  -1   1  726.52   11.15
  -1   1  -1  723.20   13.18
  -1   1  -2  499.25   12.76
   1  -1   2  513.16   16.10
   1  -1   2  514.19   13.29
  -1   1  -2  469.43   11.99
  -1   1  -2  502.16   18.49
   1  -1   4 1212.23   13.00
   1  -1   4 1161.55   12.65
  -1   1  -4 1270.37   15.86
  -1   1  -4 1269.80   10.66
  -1   1  -5   32.09    6.61
   1  -1   5   44.22   10.23
   1  -1   5   48.88    8.92
  -1   1  -5   36.86   10.50
  -1   1  -6   50.08    8.83
   1  -1   6   57.77    8.52
   1  -1   6   49.06    7.60
  -1   1  -6   69.50    5.39
  -1   1  -7 1433.40   10.06
   1  -1   7 1390.25   10.79
   1  -1   7 1397.60   11.99
  -1   1  -7 1400.87   12.33
  -1   1  -8  730.40    7.74
   1  -1   8  660.15    6.94
   1  -1   8  709.95    9.18
  -1   1  -8  717.02    9.46
  -1   1  -9   -6.81    4.24
   1  -1   9   -0.06    5.64
   1  -1   9    2.54    4.51
  -1   1  -9  -18.68    6.65
  -1   1 -10  237.10    6.59
  -1   1 -10  244.33    5.83
   1  -1  10  219.77    6.03
   1  -1  10  218.24    6.72
  -1   1 -11  493.84    5.36
   1  -1  11  424.32    5.59
   1  -1  11  465.40    7.23
  -1   1 -11  473.53    7.77
  -1   1 -12  242.03    5.53
   1  -1  12  209.54    5.64
  -1   1 -12  237.37    5.03
   1  -1  12  208.23    6.10
  -1   1 -13    8.63    4.03
   1  -1  13    4.93    4.87
  -1   1 -13  -11.50    5.20
   1  -1  13   -6.70    4.56
  -1   1 -14   24.13    3.92
   1  -1  14   17.41    3.91
  -1   1 -14   22.67    4.45
   1   0   0 4790.50   35.48
  -1   0   0 4444.64   32.95
   1   0   0 4649.14   34.04
  -1   0   0 4730.02   34.94
   1   0   1 7177.00   55.69
  -1   0  -1 6753.46   45.44
   1   0   1 5675.04   40.59
  -1   0  -2 3959.17   30.31
   1   0   2 3535.79   28.16
  -1   0  -2 4195.61   34.20
   1   0   2 4196.24   33.87
  -1   0  -3   13.50   10.61
   1   0   3    6.03   10.17
   1   0   3    0.26    5.98
  -1   0  -3    7.65    8.32
   1   0   4 8327.44   47.22
  -1   0  -4 7849.62   45.43
   1   0   4 8562.98   48.08
  -1   0  -4 8368.14   43.49
  -1   0  -4 8706.76   43.57
  -1   0  -5 5938.93   35.62
   1   0   5 5717.93   33.01
   1   0   5 5726.24   31.33
  -1   0  -5 5712.25   29.25
  -1   0  -5 6313.60   30.80
  -1   0  -6  351.31   10.19
   1   0   6  352.27    8.92
  -1   0  -6  350.51    8.45
   1   0   6  345.87    7.40
  -1   0  -6  349.47    9.51
  -1   0  -7 1506.59   13.33
   1   0   7 1355.23   10.32
   1   0   7 1479.08   12.17
  -1   0  -7 1439.88   11.57
  -1   0  -7 1272.98    9.95
  -1   0  -8 1244.63   12.00
  -1   0  -8 1257.19    8.53
   1   0   8 1160.47    8.45
   1   0   8 1215.16   10.79
  -1   0  -8 1220.48   10.67
  -1   0  -9  189.62    7.57
   1   0   9  190.61    6.87
   1   0   9  188.35    6.92
  -1   0  -9  181.34    7.24
  -1   0  -9  238.41    6.50
  -1   0 -10   93.48    6.71
  -1   0 -10  106.99    5.87
   1   0  10   84.23    6.22
  -1   0 -10  105.47    6.63
   1   0  10  105.26    6.39
  -1   0 -11    8.28    5.88
   1   0  11   11.71    5.46
  -1   0 -11   -3.12    5.61
   1   0  11   -3.41    5.34
  -1   0 -11   -1.02    5.01
  -1   0 -12   10.03    5.26
  -1   0 -12    8.93    4.48
   1   0  12   -4.73    5.59
  -1   0 -12   17.27    5.66
   1   0  12   -2.64    5.50
  -1   0 -13   12.67    4.50
   1   0  13    4.42    4.84
  -1   0 -13    9.26    5.42
  -1   0 -13   -1.49    4.98
   1   0  13    3.84    4.87
  -1   0 -14  114.20    5.22
  -1   0 -14  102.11    3.58
   1   0  14   91.00    4.73
  -1   0 -14   97.94    5.26
  -1   0 -15  118.10    4.15
   1   0  15   85.82    4.53
  -1   0 -15   95.80    5.29
  -1   0 -15  107.47    5.54
   1   1   0  208.90   11.68
   1   1   0  221.85   17.14
  -1  -1   0  213.21   15.95
  -1  -1   0  203.91    8.47
  -1  -1  -1 5363.85   39.66
   1   1   1 6006.63   43.08
   1   1   2 1342.27   15.27
  -1  -1  -2 1350.75   15.32
  -1  -1  -2 1334.80   17.26
   1   1   2 1311.66   15.14
   1   1   3  487.55    9.54
  -1  -1  -3  527.55   12.19
  -1  -1  -3  484.43    7.74
   1   1   3  528.79   11.72
  -1  -1  -4    6.82    9.80
   1   1   4    0.15    5.44
  -1  -1  -4   -5.08    7.25
   1   1   4   -3.90    6.68
   1   1   5  259.15    7.31
  -1  -1  -5  293.75   12.07
  -1  -1  -5  279.39    9.78
   1   1   5  269.00    8.39
  -1  -1  -5  291.38    7.22
   1   1   6  292.21    8.25
  -1  -1  -6  331.97    9.70
  -1  -1  -6  286.28    8.37
   1   1   6  302.38    8.98
  -1  -1  -6  304.90    8.07
  -1  -1  -7   45.66    5.83
  -1  -1  -7   35.68    6.32
  -1  -1  -7   36.34    6.80
   1   1   7   43.71    6.99
   1   1   7   46.48    4.74
  -1  -1  -8  172.95    5.76
   1   1   8  181.96    4.84
  -1  -1  -8  209.03    6.49
  -1  -1  -8  173.35    6.70
   1   1   8  173.31    5.27
  -1  -1  -9  139.08    6.53
  -1  -1  -9  139.29    5.57
   1   1   9  159.93    6.38
  -1  -1  -9  132.16    6.61
   1   1   9  110.93    6.53
  -1  -1 -10  380.50    6.81
  -1  -1 -10  436.31    8.15
   1   1  10  381.64    7.36
   1   1  10  373.91    6.56
  -1  -1 -10  395.16    6.94
  -1  -1 -11   45.32    4.95
  -1  -1 -11   23.52    6.17
   1   1  11   17.84    3.81
  -1  -1 -11   38.33    5.09
   1   1  11   11.83    5.78
  -1  -1 -12  728.74    6.97
  -1  -1 -12  701.78    8.72
   1   1  12  671.03    7.01
  -1  -1 -12  675.63    7.76
   1   1  12  650.66    7.87
  -1  -1 -13  548.68    6.43
  -1  -1 -13  451.16    7.51
   1   1  13  477.80    6.61
  -1  -1 -13  490.04    7.15
  -1  -1 -14  136.91    5.66
  -1  -1 -14  148.17    4.92
   1   1  14  131.85    4.51
  -1  -1 -14  146.85    5.35
  -1  -1 -15   16.34    4.24
  -1  -1 -15   30.10    4.94
   1   1  15   28.48    3.94
  -1  -1 -15   14.02    4.50
  -1  -2   0  467.61   11.32
   1   2   0  421.95   11.25
  -1  -2   0  451.79   13.62
   1   2   0  449.17   12.96
  -1  -2  -1  462.06    8.50
  -1  -2  -1  447.11   13.22
   1   2   1  444.03   12.87
   1   2   2 2120.94   16.81
  -1  -2  -2 2097.67   17.51
  -1  -2  -2 2144.59   17.94
   1   2   2 2125.58   17.83
   1   2   3   86.03    5.77
  -1  -2  -3   88.35    5.73
  -1  -2  -3  101.23    9.42
   1   2   3  102.58    7.05
   1   2   4    5.67    7.98
  -1  -2  -4    4.72    7.28
  -1  -2  -4    2.01    7.49
   1   2   4   -0.28    9.49
   1   2   5 1627.79   13.54
  -1  -2  -5 1668.18   13.64
  -1  -2  -5 1648.83   13.69
   1   2   5 1604.56   13.02
   1   2   6 5115.56   26.49
  -1  -2  -6 5627.85   30.95
  -1  -2  -6 5260.08   26.29
   1   2   6 5096.96   27.72
  -1  -2  -7 2997.92   18.55
   1   2   7 3250.90   17.39
  -1  -2  -7 3444.93   17.79
   1   2   7 3317.53   19.00
  -1  -2  -7 3665.27   19.21
  -1  -2  -8  102.20    5.63
   1   2   8  102.05    6.02
  -1  -2  -8  111.49    6.22
   1   2   8  111.53    7.14
  -1  -2  -8  105.70    6.29
  -1  -2  -9  327.30    6.80
  -1  -2  -9  322.17    7.91
   1   2   9  315.78    7.01
  -1  -2  -9  348.74    7.12
   1   2   9  282.86    6.95
  -1  -2 -10  967.78    8.78
   1   2  10  943.68    7.28
  -1  -2 -10  948.49    8.71
  -1  -2 -10  958.17    7.60
   1   2  10  874.77    8.68
  -1  -2 -11  588.30    7.16
  -1  -2 -11  595.81    7.99
   1   2  11  583.44    5.81
  -1  -2 -11  538.33    7.29
   1   2  11  558.26    7.26
  -1  -2 -12   58.99    5.65
  -1  -2 -12   54.26    5.14
   1   2  12   60.60    4.80
  -1  -2 -12   54.22    4.04
   1   2  12   38.88    3.70
  -1  -2 -13   28.05    4.07
  -1  -2 -13   10.62    5.08
   1   2  13   24.42    4.81
  -1  -2 -13   -0.12    5.11
  -1  -2 -14   10.90    4.45
  -1  -2 -14   12.75    4.76
   1   2  14   24.01    4.22
  -1  -2 -14   -7.75    4.90
   1   2  15   28.47    4.00
  -1  -2 -15   -0.36    4.44
  -1  -2 -15   13.85    4.14
  -1  -2 -15    9.62    4.25
  -1  -3   0 4730.14   34.23
  -1  -3   0 4775.71   29.31
  -1  -3  -1   78.12    6.99
  -1  -3  -1   77.87    8.48
   1   3   2 1275.74   11.42
  -1  -3  -2 1314.46   12.56
  -1  -3  -2 1161.57   12.67
   1   3   2 1372.14   13.28
  -1  -3  -3 2213.58   17.59
   1   3   3 1999.77   14.29
  -1  -3  -3 2050.97   15.56
   1   3   3 2027.21   15.06
   1   3   4 2548.95   16.33
  -1  -3  -4 2616.50   17.47
   1   3   4 2689.02   18.83
  -1  -3  -4 2604.17   16.64
   1   3   5  119.89    5.91
  -1  -3  -5  128.56    7.71
  -1  -3  -5  126.60    9.99
   1   3   5  154.37    9.26
  -1  -3  -6  -22.47    7.96
  -1  -3  -6   18.31    6.47
   1   3   6   16.33    6.63
   1   3   6   16.52    5.45
   1   3   7  291.63    5.08
  -1  -3  -7  310.73    5.96
  -1  -3  -7  303.75    6.54
   1   3   7  278.21    5.51
  -1  -3  -7  321.78    6.97
   1   3   8   85.53    6.23
  -1  -3  -8   96.32    7.36
  -1  -3  -8  113.80    6.16
   1   3   8   91.46    6.77
  -1  -3  -8   87.51    6.12
  -1  -3  -9  123.41    7.27
   1   3   9   90.27    4.60
  -1  -3  -9  102.53    6.31
  -1  -3  -9   95.37    5.83
   1   3   9   94.81    4.84
  -1  -3 -10  283.10    5.38
  -1  -3 -10  302.28    6.08
   1   3  10  262.57    6.12
  -1  -3 -10  277.18    6.29
   1   3  10  261.93    6.56
  -1  -3 -11  495.30    7.01
  -1  -3 -11  541.09    5.93
  -1  -3 -11  499.27    7.57
   1   3  11  513.68    5.72
  -1  -3 -12  114.84    6.07
   1   3  12  133.15    3.98
  -1  -3 -12  122.48    5.68
  -1  -3 -12  118.56    5.29
  -1  -3 -13   22.10    4.87
  -1  -3 -13   28.15    5.44
   1   3  13   32.22    3.57
  -1  -3 -13   41.14    4.66
  -1  -3 -14   98.19    4.72
  -1  -3 -14   93.28    4.88
   1   3  14  102.32    5.16
  -1  -3 -14   95.38    4.83
  -1  -4   0   42.02    8.81
  -1  -4   0   49.20    9.48
  -1  -4  -1   10.67    6.37
  -1  -4  -1   24.08    8.02
  -1  -4  -1   10.23    7.41
  -1  -4  -2  324.11    6.91
  -1  -4  -2  322.27    8.42
   1   4   3  218.95    6.34
  -1  -4  -3  214.52    8.29
  -1  -4  -3  247.10   10.09
  -1  -4  -4 2403.15   16.76
   1   4   4 2604.14   15.81
  -1  -4  -4 2730.23   17.31
   1   4   4 2762.82   17.81
   1   4   5 2100.32   12.87
  -1  -4  -5 2192.97   14.09
  -1  -4  -5 2324.22   15.40
   1   4   5 2152.28   14.66
  -1  -4  -6   17.41    4.99
   1   4   6   24.28    5.79
  -1  -4  -6    7.86    4.04
   1   4   6   16.91    6.84
   1   4   7 1709.35   11.19
  -1  -4  -7 1748.20   12.07
  -1  -4  -7 1750.21   10.38
   1   4   7 1635.20   10.55
  -1  -4  -8 2675.13   15.79
   1   4   8 2525.96   14.35
   1   4   8 2459.83   14.84
  -1  -4  -8 2629.78   16.40
  -1  -4  -8 2596.93   14.59
   1   4   9 1581.17    9.79
  -1  -4  -9 1669.72   11.76
  -1  -4  -9 1657.95   11.10
  -1  -4  -9 1633.99   11.83
   1   4  10   14.75    5.21
  -1  -4 -10   11.53    4.76
  -1  -4 -10   13.25    5.63
  -1  -4 -10   16.72    5.08
  -1  -4 -11  196.60    5.69
   1   4  11  189.26    5.36
  -1  -4 -11  196.86    6.62
  -1  -4 -11  185.37    5.35
  -1  -4 -12  122.96    5.87
   1   4  12  151.12    5.00
  -1  -4 -12  100.89    5.22
  -1  -4 -12   94.72    5.29
  -1  -4 -13  115.28    4.52
  -1  -4 -13  116.48    5.10
   1   4  13   85.97    5.09
  -1  -4 -13  117.33    4.94
  -1  -4 -14    7.65    4.23
  -1  -4 -14   -5.96    4.52
  -1  -4 -14   23.80    4.63
   1   4  14   14.64    3.98
  -1  -5   0  872.68    9.20
  -1  -5   0  950.51   10.22
  -1  -5   0  943.21   10.31
  -1  -5   0  918.11   11.13
  -1  -5   0  937.35   10.47
  -1  -5  -1 2975.57   18.94
  -1  -5  -1 2925.32   20.46
  -1  -5  -1 2773.38   19.04
  -1  -5  -2 4576.41   26.35
  -1  -5  -2 4736.77   27.34
   1   5   3 2884.09   18.29
  -1  -5  -3 2915.41   17.92
  -1  -5  -3 2944.44   17.74
  -1  -5  -4  131.11    4.47
   1   5   4  151.88    5.81
  -1  -5  -4  129.61    7.46
   1   5   5 1033.12    8.69
  -1  -5  -5 1007.19    8.79
  -1  -5  -5 1066.66   10.05
   1   5   6  536.68    6.84
  -1  -5  -6  546.07    6.90
  -1  -5  -6  592.22    6.70
   1   5   7  121.58    5.81
  -1  -5  -7   89.37    7.26
  -1  -5  -7  109.18    6.17
   1   5   8   41.04    5.79
  -1  -5  -8   55.97    6.74
  -1  -5  -8   31.46    5.79
  -1  -5  -8   39.46    6.98
  -1  -5  -9   20.53    5.13
  -1  -5  -9   26.83    4.46
  -1  -5  -9   14.79    5.63
   1   5   9   -3.56    5.66
   1   5  10   35.54    5.40
  -1  -5 -10   42.30    6.04
  -1  -5 -10   34.01    5.42
  -1  -5 -10   45.00    5.62
   1   5  11   22.59    5.04
  -1  -5 -11    0.83    5.80
  -1  -5 -11    1.98    4.97
  -1  -5 -11    3.41    4.93
  -1  -5 -12  116.12    5.08
   1   5  12  117.77    5.12
  -1  -5 -12  118.85    5.56
  -1  -5 -12  137.07    5.77
  -1  -5 -13   40.29    4.66
  -1  -5 -13   69.11    3.96
   1   5  13   44.14    5.15
  -1  -5 -13   55.05    3.82
  -1  -5 -14    4.30    4.39
  -1  -5 -14   15.00    4.79
   1   5  14   16.69    4.41
  -1  -5 -14   -1.14    4.72
  -1  -6   0 1399.48   11.99
  -1  -6   0 1344.23   10.29
  -1  -6   0 1481.09   11.53
  -1  -6   0 1407.25   12.36
  -1  -6   0 1498.27   12.68
  -1  -6  -1  974.94    9.76
  -1  -6  -1  922.21    8.93
  -1  -6  -1 1035.94    9.33
  -1  -6  -1 1041.94   10.23
  -1  -6  -1 1069.68    9.92
  -1  -6  -2   86.96    5.64
  -1  -6  -2  101.48    6.69
  -1  -6  -3  262.83    5.02
  -1  -6  -3  281.18    7.79
   1   6   4   31.08    5.80
  -1  -6  -4   30.87    5.16
  -1  -6  -4   39.21    5.79
   1   6   5  217.87    5.79
  -1  -6  -5  241.37    6.22
  -1  -6  -5  255.88    7.24
   1   6   6  590.56    6.90
  -1  -6  -6  623.12    7.33
  -1  -6  -6  637.71    6.80
   1   6   7  104.46    4.16
  -1  -6  -7  129.50    5.64
  -1  -6  -7  112.47    6.84
  -1  -6  -8   23.42    5.37
   1   6   8   19.98    5.51
  -1  -6  -8   22.29    4.35
   1   6   9  382.63    6.29
  -1  -6  -9  405.85    7.11
  -1  -6  -9  347.78    6.73
  -1  -6  -9  375.92    6.29
   1   6  10  568.35    5.52
  -1  -6 -10  596.24    7.11
  -1  -6 -10  626.27    6.57
  -1  -6 -10  566.60    8.23
   1   6  11   99.96    4.83
  -1  -6 -11  118.72    5.95
  -1  -6 -11   99.34    5.32
  -1  -6 -11  127.99    4.80
   1   6  12   18.88    3.67
  -1  -6 -12   39.28    5.58
  -1  -6 -12    3.91    4.66
  -1  -6 -12    7.02    4.93
  -1  -6 -13  139.87    5.81
   1   6  13  148.08    5.26
  -1  -6 -13  166.51    5.21
  -1  -6 -13  169.99    5.28
  -1  -7   0  114.99    7.12
  -1  -7   0  105.73    5.84
  -1  -7   0  118.25    6.14
  -1  -7   0  128.06    5.49
  -1  -7   0  134.49    6.64
  -1  -7  -1   52.26    4.64
  -1  -7  -1   43.82    5.35
  -1  -7  -1   59.05    5.46
  -1  -7  -1   59.70    5.95
  -1  -7  -1   59.26    6.68
  -1  -7  -2   76.48    6.24
  -1  -7  -2   88.50    5.49
  -1  -7  -2   82.67    5.51
  -1  -7  -2  103.44    5.86
  -1  -7  -2   96.84    6.95
  -1  -7  -3 2282.46   14.66
  -1  -7  -3 2393.16   14.70
  -1  -7  -4  325.56    6.56
  -1  -7  -4  350.12    6.23
   1   7   5   -0.85    5.52
  -1  -7  -5    9.09    4.94
  -1  -7  -5    2.55    6.19
   1   7   6   43.19    5.37
  -1  -7  -6   49.45    5.38
  -1  -7  -6   39.50    6.48
   1   7   7  330.93    5.02
  -1  -7  -7  348.07    6.15
  -1  -7  -7  387.66    6.78
   1   7   8  182.43    5.46
  -1  -7  -8  208.62    5.93
  -1  -7  -8  192.50    5.23
   1   7   9   49.35    4.69
  -1  -7  -9   20.98    3.51
  -1  -7  -9   17.37    5.42
  -1  -7  -9   22.34    5.76
  -1  -7 -10   52.35    5.10
  -1  -7 -10   39.68    4.91
   1   7  10   29.96    5.12
  -1  -7 -10   39.23    5.66
  -1  -7 -11   41.08    5.61
  -1  -7 -11   75.79    4.98
   1   7  11   53.31    4.51
  -1  -7 -11   28.75    3.55
   1   7  12   88.15    4.64
  -1  -7 -12   76.75    5.72
  -1  -7 -12   93.37    4.70
  -1  -7 -12   76.72    5.54
  -1  -7 -13   38.62    4.88
   1   7  13   27.52    4.87
  -1  -7 -13   38.99    3.82
  -1  -7 -13   41.21    4.89
  -1  -8   0  426.68    7.20
  -1  -8   0  379.61    6.43
  -1  -8   0  438.85    6.44
  -1  -8   0  424.15    7.82
  -1  -8   0  444.18    7.06
  -1  -8  -1  306.68    6.97
  -1  -8  -1  321.56    6.24
  -1  -8  -1  339.17    6.06
  -1  -8  -1  302.02    7.60
  -1  -8  -1  310.53    6.55
  -1  -8  -2  127.05    6.23
  -1  -8  -2  135.37    6.38
  -1  -8  -2  160.27    5.21
  -1  -8  -2  155.26    6.53
  -1  -8  -2  146.25    6.00
  -1  -8  -3   45.18    5.62
  -1  -8  -3   48.74    4.07
  -1  -8  -3   61.30    6.47
  -1  -8  -3   55.58    5.14
  -1  -8  -4  179.46    5.47
  -1  -8  -4  182.11    7.20
  -1  -8  -5   60.88    6.77
  -1  -8  -5   40.99    5.43
  -1  -8  -6  116.36    5.03
   1   8   6  118.87    5.37
  -1  -8  -6  124.31    6.15
   1   8   7   88.29    4.84
  -1  -8  -7  105.24    4.90
  -1  -8  -7  109.63    4.65
   1   8   8  204.72    5.51
  -1  -8  -8  184.01    5.64
  -1  -8  -8  236.45    5.49
   1   8   9   52.93    3.78
  -1  -8  -9   35.60    5.52
  -1  -8  -9   34.48    3.53
  -1  -8  -9   44.83    5.58
   1   8  10  189.23    5.27
  -1  -8 -10  214.60    4.51
  -1  -8 -10  183.94    5.06
  -1  -8 -10  193.45    7.02
  -1  -8 -11  376.19    8.27
   1   8  11  383.30    5.72
  -1  -8 -11  385.73    6.36
  -1  -8 -11  385.67    6.06
  -1  -8 -12  196.61    7.38
   1   8  12  196.53    5.45
  -1  -8 -12  223.50    4.54
  -1  -8 -12  206.25    5.06
  -1  -9   0   21.04    5.81
  -1  -9   0    7.16    5.62
  -1  -9   0   -2.30    4.82
  -1  -9   0    2.75    5.27
  -1  -9   0   18.75    6.17
  -1  -9  -1  132.52    6.01
  -1  -9  -1  126.62    5.56
  -1  -9  -1  131.47    6.14
  -1  -9  -1  115.58    6.25
  -1  -9  -1  108.71    5.33
  -1  -9  -2   44.63    6.00
  -1  -9  -2   39.84    4.44
  -1  -9  -2   28.56    4.01
  -1  -9  -2   45.43    5.22
  -1  -9  -2   36.96    4.52
  -1  -9  -3   -0.79    6.05
  -1  -9  -3   18.30    5.16
  -1  -9  -3    4.27    4.50
  -1  -9  -3    8.41    4.99
  -1  -9  -3   40.31    6.02
  -1  -9  -4  241.29    6.20
  -1  -9  -4  248.06    5.41
  -1  -9  -4  272.36    6.55
  -1  -9  -4  247.38    5.64
  -1  -9  -5  451.06    7.88
  -1  -9  -5  456.47    6.19
  -1  -9  -5  536.44    7.47
  -1  -9  -5  508.62    6.76
  -1  -9  -6  440.75    6.41
  -1  -9  -6  457.40    7.35
  -1  -9  -6  507.37    6.97
  -1  -9  -7   26.16    5.94
  -1  -9  -7   16.80    4.93
   1   9   8  345.92    6.09
  -1  -9  -8  386.91    6.81
  -1  -9  -8  366.09    5.07
   1   9   9  318.97    4.86
  -1  -9  -9  327.45    6.10
  -1  -9  -9  337.61    5.99
  -1  -9  -9  308.97    8.20
   1   9  10  211.06    4.40
  -1  -9 -10  182.28    7.82
  -1  -9 -10  189.12    4.56
  -1  -9 -10  177.68    5.16
  -1  -9 -11   12.05    6.47
   1   9  11   13.22    5.03
  -1  -9 -11   11.95    5.25
  -1  -9 -11  -12.24    4.58
  -1 -10   0  232.57    5.79
  -1 -10   0  250.86    6.14
  -1 -10   0  235.82    5.50
  -1 -10   0  218.28    5.99
  -1 -10   0  249.46    6.39
  -1 -10  -1    2.93    4.84
  -1 -10  -1   -7.73    5.27
  -1 -10  -1    9.07    4.85
  -1 -10  -1   -0.24    6.02
  -1 -10  -1   -4.25    4.76
  -1 -10  -2  280.57    6.27
  -1 -10  -2  267.63    6.17
  -1 -10  -2  295.85    5.85
  -1 -10  -2  298.12    5.89
  -1 -10  -2  302.35    6.46
  -1 -10  -3  379.41    6.66
  -1 -10  -3  388.83    6.37
  -1 -10  -3  362.31    5.89
  -1 -10  -3  401.07    6.73
  -1 -10  -3  395.12    6.80
  -1 -10  -4  246.82    5.09
  -1 -10  -4  247.23    4.56
  -1 -10  -4  274.55    6.35
  -1 -10  -4  275.21    5.78
  -1 -10  -4  264.97    6.76
  -1 -10  -5    9.96    5.71
  -1 -10  -5    9.69    4.55
  -1 -10  -5    4.95    4.11
  -1 -10  -5   11.45    4.78
  -1 -10  -6  145.53    6.68
  -1 -10  -6  131.59    4.56
  -1 -10  -6  152.62    6.04
  -1 -10  -6  161.66    4.67
  -1 -10  -7  216.99    7.79
  -1 -10  -7  226.79    5.58
  -1 -10  -7  235.96    6.16
  -1 -10  -7  221.96    4.14
  -1 -10  -8   58.16    7.26
  -1 -10  -8   80.86    5.44
  -1 -10  -8   63.22    3.39
  -1 -10  -8   53.63    4.84
  -1 -10  -9  137.95   11.24
  -1 -10  -9  105.95    5.67
  -1 -10  -9  138.40    4.55
  -1 -10  -9  167.42    3.96
  -1 -10  -9  136.12   11.51
  -1 -10 -10   83.01    4.31
  -1 -11   0  194.70    5.44
  -1 -11   0  186.28    5.24
  -1 -11   0  211.59    6.14
  -1 -11   0  209.91    6.24
  -1 -11   0  196.71    5.62
  -1 -11  -1  188.41    5.99
  -1 -11  -1  198.34    5.56
  -1 -11  -1  200.76    5.31
  -1 -11  -1  195.98    6.34
  -1 -11  -1  186.06    5.30
  -1 -11  -2  140.22    5.65
  -1 -11  -2  149.08    5.40
  -1 -11  -2  139.57    4.73
  -1 -11  -2  123.14    6.40
  -1 -11  -2  132.64    5.13
  -1 -11  -3   80.49    5.88
  -1 -11  -3   93.62    4.41
  -1 -11  -3   76.71    5.83
  -1 -11  -3   82.25    4.09
  -1 -11  -3   71.77    5.05
  -1 -11  -4   11.37    4.06
  -1 -11  -4    0.28    5.42
  -1 -11  -4    3.25    3.63
  -1 -11  -4    2.33    3.12
  -1 -11  -4   19.36    5.44
  -1 -11  -5    1.87    3.71
  -1 -11  -5   18.28    6.34
  -1 -11  -5   12.08    4.53
  -1 -11  -5    7.39    4.18
  -1 -11  -5    2.07    5.69
  -1 -11  -6  121.55    6.92
  -1 -11  -6  100.79    4.94
  -1 -11  -6  112.49    5.44
  -1 -11  -6  129.21    4.95
  -1 -11  -6   95.68    4.33
  -1 -11  -7  257.19    8.82
  -1 -11  -7  266.07    5.37
  -1 -11  -7  250.84    5.72
  -1 -11  -7  279.99    5.52
  -1 -11  -8   57.14    4.58
  -1 -11  -8   40.71    5.39
  -1 -11  -8   58.18    4.40
  -1 -12   0  192.89    5.41
  -1 -12   0  167.81    5.35
  -1 -12   0  194.02    6.26
  -1 -12   0  206.20    6.18
  -1 -12   0  179.39    5.71
  -1 -12  -1  389.97    7.03
  -1 -12  -1  336.10    5.68
  -1 -12  -1  358.86    6.77
  -1 -12  -1  331.22    5.81
  -1 -12  -1  394.53    6.63
  -1 -12  -2   90.95    4.07
  -1 -12  -2   82.32    4.78
  -1 -12  -2   81.86    5.49
  -1 -12  -2  108.07    5.04
  -1 -12  -2   95.80    5.52
  -1 -12  -3   20.58    4.81
  -1 -12  -3   15.20    4.49
  -1 -12  -3   48.04    5.66
  -1 -12  -3   34.15    4.54
  -1 -12  -3   25.54    4.09
  -1 -12  -4  165.73    5.29
  -1 -12  -4  169.36    4.75
  -1 -12  -4  188.09    5.49
  -1 -12  -4  175.40    5.76
  -1 -12  -4  180.32    4.85
  -1 -12  -5  133.68    4.40
  -1 -12  -5  167.93    5.31
  -1 -12  -5  129.95    4.89
  -1 -12  -5  145.61    6.64
  -1 -12  -5  140.45    4.84
   2 -12   1   29.53    5.16
   2 -12   1   32.00    4.90
   2 -12   1   41.87    4.67
   2 -12   1   21.18    5.92
   2 -12   2   71.39    5.05
   2 -12   2   50.97    6.30
   2 -12   2   53.00    5.26
   2 -12   2   48.74    6.12
   2 -11   1    6.32    5.96
   2 -11   1   11.38    5.68
   2 -11   1    9.71    4.86
   2 -11   1    6.52    4.41
   2 -11   2  103.47    5.50
   2 -11   2  107.76    6.79
   2 -11   2  108.41    6.61
   2 -11   2  131.94    5.52
   2 -11   3  257.85    5.72
   2 -11   3  245.18    8.27
   2 -11   3  231.34    7.85
   2 -11   4  128.32    5.78
   2 -11   5    3.97    4.91
   2 -11   6   90.68    5.48
   2 -10   1  288.63    7.55
   2 -10   1  247.49    6.61
   2 -10   1  262.16    6.20
   2 -10   2   47.18    5.32
   2 -10   2   49.72    6.27
   2 -10   2   51.12    5.97
   2 -10   3   27.20    4.66
   2 -10   3   28.18    6.80
   2 -10   3   14.14    6.21
   2 -10   4   -0.19    9.03
   2 -10   4    1.16    5.04
   2 -10   4    2.16    8.55
   2 -10   5   48.89    5.73
   2 -10   6   17.96    5.98
   2 -10   7   57.45    6.12
   2 -10   8   57.66    6.10
   2  -9   1  719.46    9.39
   2  -9   1  801.55   11.45
   2  -9   1  738.24    7.95
   2  -9   2  405.89    6.84
   2  -9   2  364.23    8.29
   2  -9   2  369.57    6.67
   2  -9   2  379.36    8.93
   2  -9   3   20.79    5.32
   2  -9   3    0.08    6.87
   2  -9   3   15.32    5.10
   2  -9   3    2.37    6.24
   2  -9   4  414.16    6.80
   2  -9   4  405.09   12.04
   2  -9   4  408.31   11.03
   2  -9   4  436.03    6.76
   2  -9   5  678.25    8.32
   2  -9   6   42.45    5.54
   2  -9   7   41.32    6.25
   2  -9   8  109.80    5.60
   2  -9   9   87.13    6.21
   2  -8   1  689.65   10.92
   2  -8   1  638.18    9.77
   2  -8   1  668.91    7.81
   2  -8   1  669.00    8.56
   2  -8   2 1285.90   14.07
   2  -8   2 1297.72   10.35
   2  -8   2 1255.88   12.63
   2  -8   2 1302.44   10.94
   2  -8   3  486.53    7.39
   2  -8   3  451.81   10.29
   2  -8   3  484.62    7.05
   2  -8   3  456.85    9.81
   2  -8   4   11.04    5.13
   2  -8   4   -0.85    9.50
   2  -8   4    2.30    7.81
   2  -8   4   -0.83    5.53
   2  -8   5  115.22    6.08
  -2   8  -5  123.21    6.23
   2  -8   5  101.90    5.71
  -2   8  -6   30.61    5.10
  -2   8  -6   15.42    5.57
   2  -8   6    3.03    5.68
   2  -8   7   28.41    5.66
  -2   8  -7   30.30    5.39
  -2   8  -7   17.18    4.88
   2  -8   8   -0.74    5.44
  -2   8  -8   18.84    4.87
  -2   8  -8   -1.47    5.97
  -2   8  -9    2.77    4.31
   2  -8   9    8.55    6.15
  -2   8  -9   24.08    5.70
  -2   8 -10   12.97    4.08
   2  -8  10   16.43    6.07
  -2   8 -10   10.78    5.03
  -2   8 -11   -2.46    3.10
   2  -8  11    3.87    6.27
  -2   8 -11   17.76    5.31
   2  -7   1   12.67    7.61
   2  -7   1    8.14    6.17
   2  -7   1    4.76    4.25
   2  -7   1    5.02    6.02
   2  -7   2   26.52    8.05
   2  -7   2   25.86    8.19
   2  -7   2   25.82    6.15
   2  -7   2   40.90    6.10
   2  -7   3   41.14    6.01
  -2   7  -3   53.67    5.68
   2  -7   3   49.53    9.07
   2  -7   3   62.10    5.82
   2  -7   3   48.80    8.50
  -2   7  -4   30.55    5.78
   2  -7   4   35.01    6.19
   2  -7   4   38.65   10.79
   2  -7   4   30.00   10.61
   2  -7   4   41.28    4.36
  -2   7  -5   14.49    5.36
   2  -7   5   12.02    6.90
   2  -7   5    8.76    5.40
  -2   7  -5   18.66    6.11
  -2   7  -6  613.37    7.14
  -2   7  -6  597.94    8.21
   2  -7   6  565.19    6.13
   2  -7   6  593.29    9.03
  -2   7  -7  562.33    5.91
  -2   7  -7  603.63    8.38
   2  -7   7  570.36    8.86
   2  -7   8  106.89    6.91
  -2   7  -8  103.50    4.13
  -2   7  -8  116.20    6.04
  -2   7  -9   79.43    5.25
   2  -7   9   66.00    5.86
  -2   7  -9   68.11    5.67
  -2   7 -10  289.38    5.45
   2  -7  10  254.34    7.37
  -2   7 -10  272.92    6.47
  -2   7 -11  184.30    3.97
   2  -7  11  169.89    6.89
  -2   7 -11  177.17    6.39
  -2   7 -12   64.54    4.00
  -2   7 -12   45.29    5.81
   2  -7  12   48.12    5.85
   2  -6   1   85.96    7.87
   2  -6   1   61.01    5.98
   2  -6   1   67.33    6.42
  -2   6  -1   69.03    5.74
   2  -6   2  118.00    8.57
  -2   6  -2  109.67    6.31
   2  -6   2  106.76    8.07
   2  -6   2  117.79    6.52
  -2   6  -2  128.35    5.89
   2  -6   2  118.17    6.24
  -2   6  -3 1105.30    9.70
   2  -6   3 1082.91    9.12
   2  -6   3 1061.35   15.01
  -2   6  -3 1102.62    9.43
   2  -6   3  963.51    9.55
   2  -6   3 1047.94   13.51
  -2   6  -4 1948.17   12.49
   2  -6   4 1890.71   12.75
   2  -6   4 1926.87   27.92
   2  -6   4 1898.49   26.22
   2  -6   4 1935.98   12.09
  -2   6  -5  259.07    6.96
   2  -6   5  276.48    8.28
  -2   6  -5  297.43    7.24
   2  -6   5  265.24    5.56
  -2   6  -6    0.50    6.23
  -2   6  -6   16.91    6.15
   2  -6   6   10.95    4.23
   2  -6   6    6.73    6.55
   2  -6   7   99.52    6.81
  -2   6  -7  111.46    5.39
  -2   6  -7  117.35    6.64
  -2   6  -8  159.33    5.86
   2  -6   8  121.74    7.62
  -2   6  -8  142.89    6.62
   2  -6   8  119.33   11.13
  -2   6  -9   85.74    9.70
  -2   6  -9   68.77    3.88
   2  -6   9   94.50    6.59
   2  -6   9   82.75    8.17
  -2   6  -9   98.12    7.29
  -2   6 -10    9.22    3.43
   2  -6  10   14.77    7.23
   2  -6  10   19.29    5.57
  -2   6 -10   18.49    5.64
  -2   6 -10   12.75    7.79
  -2   6 -11   27.10    4.34
   2  -6  11   19.50    6.03
   2  -6  11   16.48    6.11
  -2   6 -11   12.74    6.21
  -2   6 -11   15.24    8.02
  -2   6 -12    3.27    7.29
   2  -6  12   -2.26    5.70
  -2   6 -12   -0.42    5.65
   2  -6  12   10.00    5.69
  -2   5  -1  316.61    6.78
  -2   5  -1  301.97    7.58
  -2   5  -1  319.05    8.73
   2  -5   1  314.86    8.28
   2  -5   1  282.98    6.67
   2  -5   2   44.62    5.95
   2  -5   2   47.53    9.41
  -2   5  -2   44.18    6.26
  -2   5  -2   45.43    5.87
   2  -5   2   46.26    8.42
   2  -5   2   50.09    6.28
  -2   5  -3   10.46    6.35
   2  -5   3   18.69    4.22
   2  -5   3    8.11    8.71
   2  -5   3    8.54   10.33
  -2   5  -3    7.09    5.61
   2  -5   3   16.30    6.08
  -2   5  -4  296.76    7.24
   2  -5   4  263.14    7.37
   2  -5   4  258.73    5.35
  -2   5  -5  483.27    6.13
   2  -5   5  485.73    8.38
   2  -5   5  461.04    7.31
  -2   5  -6   57.46    4.70
   2  -5   6   45.95   13.44
   2  -5   6   47.54    6.84
  -2   5  -6   53.27    6.69
  -2   5  -7  902.86   15.11
   2  -5   7  863.58    9.67
  -2   5  -7  848.10    8.13
   2  -5   7  869.48   14.22
  -2   5  -7  939.48   11.15
  -2   5  -8 1263.70   15.69
  -2   5  -8 1183.23    8.98
   2  -5   8 1194.37   11.50
   2  -5   8 1175.78   14.53
  -2   5  -8 1272.54   12.47
  -2   5  -9  862.61    7.68
   2  -5   9  854.37   11.96
   2  -5   9  812.98    9.45
  -2   5  -9  862.68   10.70
  -2   5  -9  865.57   13.50
  -2   5 -10   64.16    7.28
  -2   5 -10   71.59    3.65
   2  -5  10   73.89    6.43
   2  -5  10   75.14    6.14
  -2   5 -10   75.70    7.94
  -2   5 -11  101.73    4.79
  -2   5 -11   65.56    7.26
   2  -5  11   72.49    5.65
  -2   5 -11   52.45    7.40
   2  -5  11   63.66    5.71
  -2   5 -12  126.32    3.46
  -2   5 -12  116.52    6.92
   2  -5  12  118.26    6.25
   2  -5  12  133.99    6.36
  -2   5 -12  109.19    7.88
  -2   5 -13   72.56    6.14
  -2   5 -13   82.23    4.02
   2  -5  13   73.76    5.42
   2  -5  13   76.28    5.28
  -2   5 -13   62.94    6.70
  -2   4  -1 4371.71   24.32
  -2   4  -1 4012.68   21.28
  -2   4  -1 4174.39   33.96
   2  -4   1 4046.48   25.95
   2  -4   1 4210.89   23.44
   2  -4   2 4473.62   38.30
  -2   4  -2 4543.01   23.00
   2  -4   2 4268.09   23.64
  -2   4  -2 4078.92   21.90
  -2   4  -3 3151.43   17.41
   2  -4   3 3254.32   19.23
  -2   4  -3 3262.76   17.09
  -2   4  -4  347.06    7.77
   2  -4   4  307.22    7.66
  -2   4  -5 3485.70   17.03
   2  -4   5 3368.97   18.78
   2  -4   6 2184.80   15.06
  -2   4  -6 2416.05   12.42
   2  -4   6 2226.24   21.22
  -2   4  -6 2156.55   21.34
  -2   4  -7  490.52    9.13
   2  -4   7  496.66    9.34
   2  -4   7  485.26   10.02
  -2   4  -7  463.00   11.37
  -2   4  -7  546.52    7.44
  -2   4  -8  264.90    6.28
  -2   4  -8  251.18    9.62
   2  -4   8  229.21    7.53
   2  -4   8  227.08    8.73
  -2   4  -8  244.54   10.58
  -2   4  -9  243.39    5.53
  -2   4  -9  190.30    9.43
   2  -4   9  216.10    7.39
   2  -4   9  192.41    6.56
  -2   4  -9  194.74    8.90
  -2   4 -10    1.34    3.60
  -2   4 -10    7.11    7.50
   2  -4  10    0.82    5.47
   2  -4  10    6.49    5.88
  -2   4 -10    1.77    7.58
  -2   4 -11   35.20    4.34
  -2   4 -11   28.49    7.57
   2  -4  11   18.21    5.30
   2  -4  11   22.52    5.77
  -2   4 -11   23.99    6.30
  -2   4 -12   42.95    4.36
  -2   4 -12   22.07    7.02
   2  -4  12   15.56    5.19
   2  -4  12   32.49    5.47
  -2   4 -12   30.84    6.34
  -2   4 -13    8.99    4.39
  -2   4 -13   29.92    6.52
   2  -4  13   13.16    4.54
   2  -4  13   20.90    5.15
  -2   4 -13   31.27    6.11
  -2   4 -14   18.55    6.09
   2  -4  14   10.26    4.28
   2  -4  14    6.75    4.84
  -2   4 -14   -0.55    5.31
  -2   3  -1 1413.43   15.91
   2  -3   1 1433.15   17.91
   2  -3   1 1406.00   11.10
  -2   3  -1 1429.42   12.19
  -2   3  -1 1533.82   14.89
   2  -3   2  623.01   10.56
  -2   3  -2  640.73    9.28
  -2   3  -2  607.69   10.19
   2  -3   2  575.89   19.22
  -2   3  -3  781.66    9.40
   2  -3   3  736.35    9.05
  -2   3  -3  732.81   10.71
  -2   3  -4   77.38    8.54
  -2   3  -4   86.01    6.76
   2  -3   4   94.21    8.67
  -2   3  -5   -0.13    5.12
   2  -3   5   22.81    9.30
  -2   3  -5    5.45   10.72
   2  -3   5    7.37    7.57
  -2   3  -6  359.92    5.49
   2  -3   6  340.59    8.37
   2  -3   6  361.32    9.62
  -2   3  -6  363.88   10.97
   2  -3   7  299.89    8.32
   2  -3   7  312.23    7.61
  -2   3  -7  354.05    6.48
  -2   3  -7  292.50   10.33
   2  -3   8   11.82    6.49
   2  -3   8   22.65    7.17
  -2   3  -8   11.64    5.77
  -2   3  -8    1.89    8.72
   2  -3   9  100.95    7.26
   2  -3   9   93.94    7.09
  -2   3  -9   90.47    4.25
  -2   3  -9   86.86    8.69
  -2   3 -10  790.51    6.24
   2  -3  10  767.56    8.66
   2  -3  10  727.47    8.87
  -2   3 -10  714.73    9.92
  -2   3 -11  467.81    5.94
   2  -3  11  443.10    7.26
   2  -3  11  432.89    7.53
  -2   3 -11  409.24    8.85
  -2   3 -11  460.45    8.41
  -2   3 -12   18.22    4.66
  -2   3 -12   28.29    5.86
   2  -3  12   29.88    4.80
  -2   3 -12   10.69    6.27
   2  -3  12   12.35    5.61
  -2   3 -13   86.10    4.85
   2  -3  13   65.09    5.01
  -2   3 -13   91.67    7.17
   2  -3  13   74.14    5.35
  -2   3 -13   90.82    6.54
  -2   3 -14  137.98    3.45
  -2   3 -14  181.55    7.23
   2  -3  14  106.82    5.03
   2  -3  14  132.19    5.40
  -2   3 -14  145.19    6.31
   2  -2   1  222.99    7.65
  -2   2  -1  222.48    7.38
  -2   2  -1  240.45   11.95
   2  -2   1  232.78   10.41
   2  -2   2 1721.75   31.00
   2  -2   2 1594.38   12.32
  -2   2  -2 1775.11   32.64
  -2   2  -2 1758.48   14.94
  -2   2  -2 1521.85   12.90
  -2   2  -3 7990.68   40.42
  -2   2  -3 7455.58   38.85
   2  -2   3 7912.70   39.20
   2  -2   4 4201.33   25.40
  -2   2  -4 4369.90   26.48
  -2   2  -4 4835.40   25.26
   2  -2   5    3.11    8.63
   2  -2   5   18.07    8.76
  -2   2  -5   18.14    9.88
  -2   2  -5   17.37   11.25
  -2   2  -5   32.55    8.33
   2  -2   6  261.21    8.52
   2  -2   6  263.10    8.63
  -2   2  -6  290.44    9.12
  -2   2  -6  245.99    8.92
  -2   2  -6  292.97    7.31
  -2   2  -7 1218.38    8.13
   2  -2   7 1144.45   11.07
   2  -2   7 1177.04   12.24
  -2   2  -7 1164.29   12.89
  -2   2  -7 1285.17   12.32
   2  -2   8 1397.68   11.66
   2  -2   8 1381.84   12.21
  -2   2  -8 1513.46    9.13
  -2   2  -8 1377.81   13.17
  -2   2  -8 1444.53   13.18
  -2   2  -9   61.50    5.59
   2  -2   9   33.59    6.27
   2  -2   9   51.66    6.81
  -2   2  -9   47.89    7.11
  -2   2  -9   53.35    7.71
  -2   2 -10  223.21    4.34
   2  -2  10  215.93    6.58
   2  -2  10  218.32    6.72
  -2   2 -10  207.56    7.56
  -2   2 -11  319.15    5.82
   2  -2  11  323.14    6.65
   2  -2  11  336.99    6.98
  -2   2 -11  376.53    7.98
  -2   2 -12  184.92    4.82
   2  -2  12  165.29    5.37
   2  -2  12  182.51    5.71
  -2   2 -12  176.37    6.61
  -2   2 -13   55.44    5.79
  -2   2 -13   23.16    4.24
   2  -2  13   10.86    4.40
   2  -2  13   20.36    4.79
  -2   2 -14   34.13    4.11
   2  -2  14    4.05    4.61
   2  -2  14   18.18    4.62
  -2   2 -14    0.77    5.12
   2  -1   1 3211.01   20.54
  -2   1  -1 3297.35   26.50
   2  -1   1 3201.49   25.17
  -2   1  -1 3094.10   20.92
   2  -1   2  159.14   11.34
  -2   1  -2  178.48    9.44
   2  -1   2  164.84    9.32
  -2   1  -2  149.54    9.44
  -2   1  -3  452.72   11.03
  -2   1  -3  429.91    9.82
   2  -1   3  445.56    9.77
   2  -1   4 1105.97   11.22
   2  -1   4 1183.24   13.87
  -2   1  -4 1177.66   13.76
  -2   1  -4 1228.88   14.26
   2  -1   5  309.14   10.45
   2  -1   5  320.23    9.26
  -2   1  -5  305.50    9.78
  -2   1  -5  331.16   11.76
  -2   1  -5  339.88    9.43
   2  -1   6  108.74    6.62
   2  -1   6  116.40    7.24
  -2   1  -6  110.62    7.99
  -2   1  -6  119.87    7.40
  -2   1  -6  116.37    9.74
   2  -1   7   46.76    7.39
   2  -1   7   60.08    6.46
  -2   1  -7   62.39    7.63
  -2   1  -7   54.52    5.97
  -2   1  -7   48.98    7.74
   2  -1   8  156.33    6.63
   2  -1   8  138.25    7.25
  -2   1  -8  166.59    7.38
  -2   1  -8  151.86    5.92
  -2   1  -8  166.11    5.90
  -2   1  -9   57.72    4.02
   2  -1   9   48.14    6.03
   2  -1   9   43.75    7.30
  -2   1  -9   44.56    6.65
  -2   1  -9   48.66    7.52
  -2   1 -10  140.77    5.28
   2  -1  10  139.62    6.34
   2  -1  10  143.52    6.86
  -2   1 -10  143.78    6.50
  -2   1 -10  149.30    7.63
   2  -1  11  418.21    6.96
   2  -1  11  425.41    6.84
  -2   1 -11  453.63    7.19
  -2   1 -11  440.41    5.97
  -2   1 -11  433.83    7.98
   2  -1  12  259.22    5.83
   2  -1  12  262.34    6.29
  -2   1 -12  281.35    6.81
  -2   1 -12  303.85    5.59
  -2   1 -12  305.61    7.51
  -2   1 -13  125.44    3.83
   2  -1  13  116.20    5.43
   2  -1  13  114.46    5.60
  -2   1 -13  125.19    5.94
  -2   1 -13  115.19    5.99
  -2   1 -14    7.38    3.16
   2  -1  14   19.06    4.55
   2  -1  14   21.66    4.85
  -2   1 -14   24.53    5.27
  -2   1 -14   16.66    5.60
  -2   1 -15  158.42    4.35
   2  -1  15  137.98    4.81
  -2   1 -15  167.29    5.78
  -2   1 -15  157.96    5.47
   2  -1  15  127.21    4.62
   2   0   0   67.33   10.05
  -2   0   0   69.89    9.71
  -2   0   0   71.41    9.61
   2   0   0   66.63    9.35
  -2   0  -1  340.37   11.80
   2   0   1  332.31   12.09
   2   0   1  345.83   11.41
  -2   0  -2  293.33   11.17
   2   0   2  307.38    8.71
   2   0   3   71.86    8.90
  -2   0  -3   94.90    7.33
  -2   0  -3  102.21    9.06
  -2   0  -4 3172.43   21.58
   2   0   4 2710.13   19.30
   2   0   4 3103.07   22.97
  -2   0  -4 3077.14   22.68
  -2   0  -5 2913.23   20.47
   2   0   5 2787.27   19.54
   2   0   5 2852.83   19.81
  -2   0  -5 2769.44   20.14
  -2   0  -6 2112.13   16.10
   2   0   6 2058.80   15.61
   2   0   6 2083.35   15.07
  -2   0  -6 2021.81   15.07
  -2   0  -6 2161.24   14.93
  -2   0  -7  120.65    6.09
   2   0   7   98.84    6.68
   2   0   7   94.54    7.40
  -2   0  -7  108.28    6.75
  -2   0  -7  110.17    6.17
  -2   0  -8 1695.37   12.29
   2   0   8 1675.20   12.02
   2   0   8 1628.26   11.10
  -2   0  -8 1667.94   12.64
  -2   0  -8 1747.04   11.33
  -2   0  -9 1690.56   13.91
   2   0   9 1649.86   10.61
   2   0   9 1698.57   12.46
  -2   0  -9 1640.07   11.82
  -2   0  -9 1794.92   11.37
  -2   0 -10  619.12    9.15
  -2   0 -10  579.84    7.11
   2   0  10  581.83    7.36
   2   0  10  596.59    8.40
  -2   0 -10  603.61    7.80
  -2   0 -11    0.30    3.59
  -2   0 -11    3.48    4.65
   2   0  11    2.97    5.04
   2   0  11   -1.55    5.77
  -2   0 -11   -3.61    5.46
  -2   0 -12  493.17    8.12
  -2   0 -12  501.46    6.47
   2   0  12  462.11    6.65
  -2   0 -12  457.13    7.51
   2   0  12  459.21    6.79
  -2   0 -13  200.03    6.42
  -2   0 -13  189.17    5.34
   2   0  13  183.68    5.56
  -2   0 -13  202.07    5.73
   2   0  13  190.10    5.28
  -2   0 -14   93.01    4.70
   2   0  14  100.65    4.74
  -2   0 -14   93.01    4.80
   2   0  14   92.74    5.15
  -2   0 -14   99.47    5.66
  -2   0 -15   50.27    3.92
   2   0  15   52.65    4.08
  -2   0 -15   60.72    4.92
   2   0  15   49.91    4.10
  -2   0 -15   75.59    5.32
  -2  -1   0 2574.95   22.43
   2   1   0 2397.35   18.15
   2   1   0 2606.89   23.59
  -2  -1   0 2433.38   17.07
   2   1   1  437.32    8.91
   2   1   1  433.82   13.16
  -2  -1  -1  402.21   11.06
  -2  -1  -1  445.65   12.48
  -2  -1  -2 2752.48   21.89
   2   1   2 2784.71   22.05
  -2  -1  -2 2704.32   19.87
  -2  -1  -3 1658.75   13.70
  -2  -1  -3 1718.54   15.45
   2   1   3 1717.49   15.28
  -2  -1  -4  213.34   10.31
   2   1   4  247.89    7.93
   2   1   4  272.30   10.26
  -2  -1  -4  233.44    8.29
  -2  -1  -5  380.43    8.91
   2   1   5  360.82    9.60
   2   1   5  379.11   11.52
  -2  -1  -5  333.93    7.33
  -2  -1  -6 4440.87   25.48
   2   1   6 4635.11   26.72
   2   1   6 4826.38   26.33
  -2  -1  -6 4799.75   27.27
  -2  -1  -7 1662.17   11.84
   2   1   7 1610.43   11.99
  -2  -1  -7 1619.54   11.79
   2   1   7 1655.16   12.44
  -2  -1  -7 1526.97   11.53
  -2  -1  -8  166.83    7.96
   2   1   8  187.06    6.54
  -2  -1  -8  211.55    6.45
   2   1   8  186.17    7.27
  -2  -1  -8  206.06    4.80
  -2  -1  -9  104.91    7.08
   2   1   9  108.25    6.52
  -2  -1  -9  109.95    6.53
   2   1   9  119.21    5.22
  -2  -1  -9  110.47    6.09
  -2  -1 -10  143.42    6.71
   2   1  10  148.62    5.93
  -2  -1 -10  134.61    5.75
  -2  -1 -10  143.41    4.85
   2   1  10  158.68    6.73
  -2  -1 -11    5.29    5.91
   2   1  11   17.54    5.38
  -2  -1 -11   30.80    4.67
  -2  -1 -11   20.14    4.08
   2   1  11   31.18    5.76
  -2  -1 -12   26.46    4.96
  -2  -1 -12   29.04    5.75
   2   1  12   16.19    4.96
  -2  -1 -12   38.66    5.18
   2   1  12   28.59    5.06
  -2  -1 -13  234.13    5.07
  -2  -1 -13  213.02    5.79
   2   1  13  186.32    5.66
  -2  -1 -13  204.91    5.95
   2   1  13  197.47    5.24
  -2  -1 -14  279.22    5.26
  -2  -1 -14  283.59    5.50
   2   1  14  263.75    5.64
  -2  -1 -14  295.14    5.01
   2   1  14  268.02    5.84
  -2  -1 -15   40.55    5.04
  -2  -1 -15   35.01    4.13
  -2  -1 -15   62.41    5.11
   2   1  15   30.36    4.23
   2   1  15   33.82    4.57
   2   2   0 6436.05   34.42
  -2  -2   0 6700.25   35.45
  -2  -2  -1 2314.51   19.44
  -2  -2  -1 2277.58   15.70
   2   2   1 2249.76   18.92
   2   2   1 2110.10   16.18
  -2  -2  -2 3998.80   27.81
  -2  -2  -2 4349.05   27.94
   2   2   2 3929.42   26.30
  -2  -2  -3  817.63   11.92
  -2  -2  -3  768.96    8.87
   2   2   3  808.04   12.20
   2   2   4  370.14    8.71
  -2  -2  -4  394.13    8.68
  -2  -2  -4  406.26    8.71
   2   2   4  381.64   11.34
   2   2   5  813.25   10.77
  -2  -2  -5  855.02   10.31
  -2  -2  -5  853.24   10.69
   2   2   5  873.69   12.82
  -2  -2  -6 1556.82   13.56
   2   2   6 1455.76   11.57
  -2  -2  -6 1565.17   11.98
   2   2   6 1516.61   12.98
  -2  -2  -7 2699.64   16.80
   2   2   7 2459.22   14.49
  -2  -2  -7 2538.45   15.47
   2   2   7 2458.50   14.34
  -2  -2  -8  746.12    9.30
   2   2   8  804.26    8.20
  -2  -2  -8  811.87    8.20
   2   2   8  788.55    8.66
  -2  -2  -8  831.26    8.25
  -2  -2  -9   17.67    6.99
   2   2   9   10.36    6.19
  -2  -2  -9   39.06    6.04
   2   2   9   28.13    6.83
  -2  -2  -9   27.46    5.99
  -2  -2 -10  251.78    5.42
   2   2  10  221.76    6.37
  -2  -2 -10  239.05    6.22
   2   2  10  241.72    6.49
  -2  -2 -10  244.30    6.35
  -2  -2 -11 1209.21   10.66
   2   2  11 1027.69    8.52
  -2  -2 -11 1151.99    9.80
   2   2  11 1104.23    9.10
  -2  -2 -11 1205.06    8.59
  -2  -2 -12  356.19    5.95
  -2  -2 -12  333.32    5.54
   2   2  12  330.40    6.01
  -2  -2 -12  335.05    6.21
   2   2  12  318.70    5.00
  -2  -2 -13   16.37    4.22
  -2  -2 -13   13.25    4.86
   2   2  13   -1.17    4.57
   2   2  13   13.80    4.53
  -2  -2 -13   17.49    4.71
  -2  -2 -14   71.85    5.33
  -2  -2 -14   67.04    4.34
   2   2  14   57.68    4.89
  -2  -2 -14   59.95    4.79
   2   2  14   65.22    4.83
  -2  -2 -15   79.33    3.87
  -2  -2 -15   66.59    4.52
   2   2  15   70.23    4.03
  -2  -2 -15   94.64    4.95
   2   3   0 2183.80   15.95
  -2  -3   0 2278.34   20.35
   2   3   0 2317.49   21.92
  -2  -3   0 2289.13   16.21
  -2  -3  -1 2432.03   17.13
  -2  -3  -1 2433.87   19.44
   2   3   1 2208.83   19.49
  -2  -3  -2  497.36    7.54
  -2  -3  -2  486.18   10.98
   2   3   2  496.02   11.29
  -2  -3  -2  506.30    9.73
  -2  -3  -3  989.55   11.12
  -2  -3  -3  960.93   11.23
   2   3   3  879.37   13.85
   2   3   4 2205.66   16.03
  -2  -3  -4 2510.88   16.30
  -2  -3  -4 2471.10   17.18
   2   3   4 2442.54   18.71
   2   3   5 2798.78   16.83
  -2  -3  -5 2840.67   18.92
  -2  -3  -5 2949.90   18.17
   2   3   5 2889.50   19.18
   2   3   6   25.88    6.19
  -2  -3  -6   43.70    7.93
  -2  -3  -6   38.55    6.31
   2   3   6   42.53    8.05
   2   3   7  222.87    6.23
  -2  -3  -7  236.09    7.26
  -2  -3  -7  226.11    6.14
   2   3   7  210.22    5.35
   2   3   8  268.06    6.19
  -2  -3  -8  278.39    6.06
  -2  -3  -8  282.51    4.84
   2   3   8  271.72    5.59
  -2  -3  -9  321.52    6.37
  -2  -3  -9  350.00    7.71
   2   3   9  325.41    6.74
  -2  -3  -9  325.87    5.26
   2   3   9  331.70    6.82
  -2  -3 -10  106.89    6.91
   2   3  10  101.88    5.70
  -2  -3 -10  109.05    5.60
   2   3  10  104.13    6.16
  -2  -3 -10  112.13    5.89
  -2  -3 -11   44.74    5.95
   2   3  11   41.58    5.28
  -2  -3 -11   49.05    4.94
   2   3  11   35.20    5.72
  -2  -3 -11   18.63    5.44
  -2  -3 -12   80.34    4.50
   2   3  12   69.07    5.37
  -2  -3 -12   87.20    4.84
  -2  -3 -12   80.12    5.10
   2   3  12   65.95    3.96
  -2  -3 -13    9.67    5.29
   2   3  13   14.97    4.90
  -2  -3 -13   -7.48    5.17
   2   3  13   17.25    5.01
  -2  -3 -13   13.45    4.78
  -2  -3 -14   30.59    4.37
  -2  -3 -14   19.78    4.84
   2   3  14   20.40    4.65
  -2  -3 -14   10.57    5.02
  -2  -3 -15   38.28    3.97
  -2  -3 -15   42.71    4.41
   2   3  15   34.88    4.46
  -2  -3 -15   27.55    3.68
   2   4   0  132.73    9.26
  -2  -4   0  154.75   11.34
  -2  -4   0  139.42    9.04
  -2  -4  -1 3100.68   20.01
  -2  -4  -1 2906.48   22.46
   2   4   1 2992.29   23.78
  -2  -4  -2 2150.25   16.32
  -2  -4  -2 2447.37   17.43
  -2  -4  -2 2388.48   19.13
   2   4   2 2329.05   18.79
  -2  -4  -3 3559.77   21.94
  -2  -4  -3 3486.00   23.15
   2   4   3 3349.80   21.82
  -2  -4  -4  600.11    8.58
  -2  -4  -4  606.45    9.80
   2   4   4  611.40    9.85
   2   4   5  133.30    6.70
  -2  -4  -5  126.41    6.59
  -2  -4  -5  129.81    8.29
   2   4   5  135.72    8.18
   2   4   6  469.97    7.04
  -2  -4  -6  495.71    8.15
  -2  -4  -6  467.51    6.73
   2   4   6  440.16    6.32
   2   4   7   10.81    4.17
  -2  -4  -7   13.81    7.00
  -2  -4  -7    8.71    5.60
   2   4   7   25.09    4.73
   2   4   8  337.63    5.28
  -2  -4  -8  397.82    8.04
  -2  -4  -8  374.50    6.29
   2   4   8  394.31    7.16
   2   4   9  443.81    5.28
  -2  -4  -9  499.01    7.91
  -2  -4  -9  486.60    6.78
   2   4   9  432.43    7.00
   2   4  10  235.28    5.42
  -2  -4 -10  238.38    6.66
  -2  -4 -10  217.48    4.69
   2   4  10  210.51    6.14
  -2  -4 -10  212.07    6.34
  -2  -4 -11   95.14    6.22
   2   4  11   62.51    3.99
  -2  -4 -11   95.66    5.09
   2   4  11   86.03    5.69
  -2  -4 -11   73.58    5.32
  -2  -4 -12  476.07    6.90
   2   4  12  469.20    6.09
  -2  -4 -12  485.97    6.48
   2   4  12  465.93    6.61
  -2  -4 -12  481.58    6.62
  -2  -4 -13  232.80    5.89
   2   4  13  227.00    5.55
  -2  -4 -13  258.66    5.51
  -2  -4 -13  243.82    4.59
  -2  -4 -14   21.49    4.79
  -2  -4 -14   17.29    4.81
   2   4  14   13.06    4.60
  -2  -4 -14   20.68    4.37
  -2  -5   0  202.22    7.29
  -2  -5   0  183.94    8.42
  -2  -5  -1   41.59    6.54
  -2  -5  -1   32.81    4.76
  -2  -5  -1   37.71    7.86
  -2  -5  -2   15.99    6.29
  -2  -5  -2   35.65    6.16
  -2  -5  -2   22.64    7.98
  -2  -5  -3  450.70    7.22
  -2  -5  -3  430.23    7.07
   2   5   3  443.17    8.66
  -2  -5  -4  537.88    5.85
  -2  -5  -4  545.08    7.29
   2   5   4  505.54    7.02
   2   5   5   17.25    3.96
  -2  -5  -5   13.40    5.41
  -2  -5  -5   19.27    7.04
   2   5   5   12.78    6.85
   2   5   6 1509.99   10.57
  -2  -5  -6 1631.18   11.06
  -2  -5  -6 1596.73   11.04
   2   5   6 1542.43   10.57
  -2  -5  -7  540.03    7.08
   2   5   7  509.08    7.17
  -2  -5  -7  582.57    8.28
   2   5   7  469.39    8.20
   2   5   8    3.03    5.68
  -2  -5  -8    7.33    5.45
   2   5   8   20.99    6.10
   2   5   9  189.75    4.31
  -2  -5  -9  206.52    6.38
  -2  -5  -9  173.29    4.31
   2   5   9  215.98    6.31
   2   5  10  628.89    6.90
  -2  -5 -10  647.08    6.53
  -2  -5 -10  612.41    6.76
   2   5  10  588.68    7.12
  -2  -5 -10  640.11    7.65
   2   5  11   80.05    3.89
  -2  -5 -11   70.51    5.53
  -2  -5 -11   66.37    5.34
  -2  -5 -11   75.42    5.07
  -2  -5 -12   -5.27    5.67
   2   5  12   10.64    3.62
  -2  -5 -12   -4.95    4.78
  -2  -5 -12    4.32    4.87
  -2  -5 -13   -9.08    5.07
   2   5  13   14.01    4.39
  -2  -5 -13    3.80    4.45
  -2  -5 -13    0.54    3.63
  -2  -5 -14   14.74    4.35
  -2  -5 -14   24.34    4.99
   2   5  14   14.18    4.05
  -2  -5 -14    7.91    4.85
  -2  -6   0 1292.61   13.00
  -2  -6   0 1364.23   13.01
  -2  -6   0 1246.02   10.77
  -2  -6  -1  720.27    8.24
  -2  -6  -1  660.82   10.05
  -2  -6  -1  664.35    7.10
  -2  -6  -2  219.98    6.38
  -2  -6  -2  203.54    7.90
  -2  -6  -2  199.61    6.33
  -2  -6  -3  956.35    8.60
  -2  -6  -3  948.15   10.30
  -2  -6  -3  923.84    8.90
  -2  -6  -4 1320.13    9.91
  -2  -6  -4 1346.49   11.56
  -2  -6  -5  156.75    5.74
  -2  -6  -5  151.70    7.66
   2   6   6  425.32    6.52
  -2  -6  -6  438.53    6.65
  -2  -6  -6  456.17    8.07
   2   6   7  125.24    4.31
  -2  -6  -7  115.92    5.12
  -2  -6  -7  124.39    5.28
   2   6   8  246.17    4.50
  -2  -6  -8  274.58    5.34
  -2  -6  -8  249.44    5.42
   2   6   9   33.31    5.26
  -2  -6  -9   14.19    4.55
  -2  -6  -9   16.03    3.82
   2   6  10  171.62    5.31
  -2  -6 -10  201.43    5.76
  -2  -6 -10  150.18    4.87
  -2  -6 -10  165.51    5.60
   2   6  11  152.11    3.99
  -2  -6 -11  184.83    5.90
  -2  -6 -11  153.86    3.91
  -2  -6 -11  149.29    5.31
   2   6  12   26.91    4.48
  -2  -6 -12   42.74    5.48
  -2  -6 -12   13.41    3.54
  -2  -6 -12   -2.85    4.46
   2   6  13  121.29    3.78
  -2  -6 -13  120.41    4.22
  -2  -6 -13  107.85    5.11
  -2  -6 -13  134.08    5.43
  -2  -6 -14  248.14    5.52
  -2  -7   0   10.76    5.23
  -2  -7   0    3.11    6.00
  -2  -7   0    4.15    7.25
  -2  -7   0    1.77    5.60
  -2  -7   0   -0.70    6.35
  -2  -7  -1   43.29    4.30
  -2  -7  -1   23.23    7.21
  -2  -7  -1   25.93    5.07
  -2  -7  -1   18.78    6.50
  -2  -7  -2   33.36    6.19
  -2  -7  -2   42.39    5.76
  -2  -7  -2   41.19    7.00
  -2  -7  -3   92.51    6.26
  -2  -7  -3   90.01    5.59
  -2  -7  -3   89.65    7.62
  -2  -7  -4   15.69    5.75
  -2  -7  -4  -17.00    7.66
  -2  -7  -5    7.24    5.52
  -2  -7  -5   14.77    5.21
  -2  -7  -6  133.44    4.23
  -2  -7  -6  151.51    6.88
   2   7   7  747.91    7.53
  -2  -7  -7  812.05    8.52
  -2  -7  -7  783.68    7.63
   2   7   8  552.15    6.67
  -2  -7  -8  613.72    6.70
  -2  -7  -8  591.18    6.53
   2   7   9  256.49    5.43
  -2  -7  -9  329.10    5.14
  -2  -7  -9  271.98    5.29
   2   7  10    7.87    4.46
  -2  -7 -10   17.00    4.00
  -2  -7 -10   17.87    4.71
  -2  -7 -10    6.14    4.95
   2   7  11  163.26    4.02
  -2  -7 -11  154.02    5.21
  -2  -7 -11  143.09    4.95
  -2  -7 -11  156.24    5.84
   2   7  12  145.88    4.87
  -2  -7 -12  140.87    5.61
  -2  -7 -12  105.25    4.07
  -2  -7 -12  129.99    6.00
   2   7  13  102.51    4.74
  -2  -7 -13  156.07    5.29
  -2  -7 -13  129.54    5.24
  -2  -7 -13  159.30    5.23
  -2  -8   0   15.81    4.69
  -2  -8   0   28.26    5.63
  -2  -8   0   22.70    5.59
  -2  -8   0   18.31    8.27
  -2  -8   0   28.12    5.54
  -2  -8  -1  513.17    7.85
  -2  -8  -1  485.65    6.77
  -2  -8  -1  565.85    7.30
  -2  -8  -1  539.53    7.76
  -2  -8  -1  546.86    8.73
  -2  -8  -2 1794.83   16.48
  -2  -8  -2 1815.57   12.46
  -2  -8  -2 1724.35   13.71
  -2  -8  -2 1824.27   13.34
  -2  -8  -3  452.12    7.20
  -2  -8  -3  451.98    5.52
  -2  -8  -3  413.46    7.95
  -2  -8  -4  588.17    7.49
  -2  -8  -4  598.29    7.23
  -2  -8  -4  564.57    8.34
  -2  -8  -5  824.96    7.08
  -2  -8  -5  840.90    8.83
  -2  -8  -6  682.11    7.12
  -2  -8  -6  697.80    8.08
  -2  -8  -7  329.13    6.69
  -2  -8  -7  303.95    5.76
  -2  -8  -8    8.77    6.07
  -2  -8  -8   15.05    4.35
   2   8   9   13.26    4.41
  -2  -8  -9    9.87    5.78
  -2  -8  -9   -2.82    3.28
   2   8  10   42.00    3.46
  -2  -8 -10   35.25    5.56
  -2  -8 -10   16.67    4.58
  -2  -8 -10   34.15    4.91
   2   8  11  160.74    4.71
  -2  -8 -11  146.09    5.79
  -2  -8 -11  135.09    4.55
  -2  -8 -11  151.32    5.38
   2   8  12  106.50    4.64
  -2  -8 -12  129.24    4.92
  -2  -8 -12  121.05    4.45
  -2  -8 -12   93.78    5.60
  -2  -9   0  828.00    8.43
  -2  -9   0  922.55    8.61
  -2  -9   0  933.78   10.11
  -2  -9   0  967.26   11.01
  -2  -9   0  873.03    9.34
  -2  -9  -1   15.28    5.19
  -2  -9  -1    4.02    4.55
  -2  -9  -1    8.34    4.79
  -2  -9  -1    8.83    5.11
  -2  -9  -1   -1.78    6.41
  -2  -9  -2  351.02    6.21
  -2  -9  -2  383.14    6.59
  -2  -9  -2  361.51    6.06
  -2  -9  -2  390.64    7.79
  -2  -9  -2  351.64    5.52
  -2  -9  -3  298.92    6.38
  -2  -9  -3  272.73    5.84
  -2  -9  -3  298.76    5.79
  -2  -9  -3  302.08    4.85
  -2  -9  -3  290.13    7.59
  -2  -9  -4  128.56    4.07
  -2  -9  -4  134.73    6.79
  -2  -9  -4  104.50    5.05
  -2  -9  -5   66.55    3.82
  -2  -9  -5   75.06    3.75
  -2  -9  -5   53.89    6.25
  -2  -9  -6   19.10    4.56
  -2  -9  -6   17.49    6.30
  -2  -9  -7   61.36    4.41
  -2  -9  -7   53.56    4.81
  -2  -9  -8   -0.81    5.93
  -2  -9  -8   -2.62    3.41
  -2  -9  -9  239.60    6.51
  -2  -9  -9  204.78    5.49
  -2  -9 -10  416.16    6.79
  -2  -9 -10  402.92    5.02
  -2  -9 -10  388.50    6.91
  -2  -9 -11   89.70    5.42
  -2  -9 -11   49.47    4.80
  -2  -9 -11   57.70    5.31
  -2 -10   0   -1.95    4.20
  -2 -10   0   -6.84    4.62
  -2 -10   0   -1.02    5.09
  -2 -10   0    0.02    4.27
  -2 -10   0    6.51    5.74
  -2 -10  -1    7.92    4.05
  -2 -10  -1   11.92    4.66
  -2 -10  -1   16.53    5.81
  -2 -10  -1   10.16    4.79
  -2 -10  -1    7.44    4.59
  -2 -10  -2   69.48    3.96
  -2 -10  -2   59.22    4.50
  -2 -10  -2   74.25    5.14
  -2 -10  -2   91.76    5.14
  -2 -10  -2   93.18    5.84
  -2 -10  -3  402.41    6.20
  -2 -10  -3  382.61    6.32
  -2 -10  -3  420.01    5.86
  -2 -10  -3  417.47    6.92
  -2 -10  -3  395.95    6.54
  -2 -10  -4  587.48    7.33
  -2 -10  -4  528.95    7.25
  -2 -10  -4  638.22    7.96
  -2 -10  -4  629.26    7.04
  -2 -10  -4  588.54    7.75
  -2 -10  -5  240.23    5.55
  -2 -10  -5  223.51    5.52
  -2 -10  -5  246.09    5.16
  -2 -10  -5  276.51    6.69
  -2 -10  -5  262.56    5.53
  -2 -10  -6   14.56    4.35
  -2 -10  -6   -0.84    5.99
  -2 -10  -6    3.28    4.55
  -2 -10  -6    6.95    4.68
  -2 -10  -7  269.56    6.17
  -2 -10  -7  303.90    4.55
  -2 -10  -8  185.91    5.72
  -2 -10  -8  194.96    5.01
  -2 -10  -9   40.41    3.88
  -2 -10  -9   48.64    4.65
  -2 -10 -10   -0.06    4.70
  -2 -10 -10    8.98    3.25
  -2 -10 -10   10.22    5.32
  -2 -11   0  207.39    5.69
  -2 -11   0  204.29    5.25
  -2 -11   0  227.35    5.03
  -2 -11   0  202.06    6.76
  -2 -11   0  233.95    6.47
  -2 -11  -1  424.83    7.47
  -2 -11  -1  378.68    6.39
  -2 -11  -1  376.94    5.82
  -2 -11  -1  406.02    7.12
  -2 -11  -1  370.20    6.90
  -2 -11  -2  129.45    5.08
  -2 -11  -2  132.81    4.59
  -2 -11  -2  139.13    5.69
  -2 -11  -2  136.11    5.40
  -2 -11  -2  137.46    4.90
  -2 -11  -3    9.03    4.69
  -2 -11  -3    2.13    3.71
  -2 -11  -3   18.52    4.30
  -2 -11  -3    3.10    5.19
  -2 -11  -3   12.30    4.50
  -2 -11  -4   10.76    4.09
  -2 -11  -4    7.76    4.66
  -2 -11  -4    5.63    4.53
  -2 -11  -4   -6.64    5.33
  -2 -11  -4   13.28    4.10
  -2 -11  -5   59.14    4.36
  -2 -11  -5   44.77    4.76
  -2 -11  -5   57.40    4.28
  -2 -11  -5   51.51    5.23
  -2 -11  -5   48.16    4.60
  -2 -11  -6   28.04    5.22
  -2 -11  -6   36.71    4.08
  -2 -11  -6   24.54    5.17
  -2 -11  -6   24.99    3.96
  -2 -11  -6   28.61    4.28
  -2 -11  -7    8.92    3.96
  -2 -11  -7   28.20    5.30
  -2 -11  -7   21.55    3.83
  -2 -11  -7   26.72    4.82
  -2 -11  -7    9.66    3.32
  -2 -11  -8   11.33    5.24
  -2 -11  -8    8.21    3.12
  -2 -11  -8    3.45    4.68
  -2 -11  -8   15.26    3.15
  -2 -11  -8    6.28    3.85
  -2 -12   0   15.21    3.69
  -2 -12   0    5.52    4.33
  -2 -12   0    2.07    4.35
  -2 -12   0   24.30    5.81
  -2 -12   0   21.97    4.97
  -2 -12  -1   23.76    4.47
  -2 -12  -1   14.76    4.99
  -2 -12  -1   16.60    4.69
  -2 -12  -1   37.95    4.36
  -2 -12  -1    0.33    5.34
  -2 -12  -2   79.63    5.10
  -2 -12  -2   97.61    4.92
  -2 -12  -2   86.45    4.84
  -2 -12  -2  111.98    4.28
  -2 -12  -2  105.51    5.75
  -2 -12  -3    8.31    4.48
  -2 -12  -3    8.22    3.97
  -2 -12  -3    3.41    4.79
  -2 -12  -3  -14.25    3.95
  -2 -12  -3    8.89    4.02
  -2 -12  -4   46.59    4.62
  -2 -12  -4   20.21    4.80
  -2 -12  -4   40.28    4.87
  -2 -12  -4   31.05    3.87
  -2 -12  -4   36.46    4.62
  -2 -12  -5  108.47    4.45
  -2 -12  -5  123.91    5.85
  -2 -12  -5  116.82    4.53
  -2 -12  -5  117.61    5.87
  -2 -12  -5  114.49    4.75
   3 -11   1   25.26    4.39
   3 -11   1   16.27    6.06
   3 -11   1   30.75    6.82
   3 -11   2   54.75    4.58
   3 -11   2   44.97    7.01
   3 -11   2   45.53    6.73
   3 -11   3  155.05    5.32
   3 -11   4  156.82    5.43
   3 -11   5   67.64    5.28
   3 -10   1  501.89    9.95
   3 -10   1  443.04    8.75
   3 -10   1  488.27    6.77
   3 -10   2  178.05    5.13
   3 -10   2  167.94    7.86
   3 -10   2  175.66    7.74
   3 -10   3    2.80    5.33
   3 -10   3    9.47    9.99
   3 -10   3   12.73    8.88
   3 -10   4   84.46    4.86
   3 -10   5   81.63    4.81
   3 -10   6   23.42    4.98
   3 -10   7   -0.42    4.99
   3 -10   8   15.71    5.57
   3  -9   1   47.55    6.95
   3  -9   1   54.17    4.76
   3  -9   1   52.32    6.31
   3  -9   2   18.53    7.09
   3  -9   2   17.74    5.56
   3  -9   2    9.38    7.47
   3  -9   3   45.71    5.40
   3  -9   3   29.98    9.25
   3  -9   3   30.38    9.29
   3  -9   4    7.00    4.88
   3  -9   5  253.63    6.03
  -3   9  -6  308.40    6.35
   3  -9   6  319.98    6.80
  -3   9  -7   41.12    3.66
  -3   9  -7   45.45    5.77
   3  -9   7   35.58    4.93
   3  -9   8   60.61    5.62
  -3   9  -8   53.56    4.92
  -3   9  -8   69.59    5.45
   3  -9   9  188.64    6.51
  -3   9  -9  168.90    5.19
  -3   9  -9  176.66    5.85
   3  -8   1   69.35    7.36
   3  -8   1   76.24    7.42
   3  -8   1   66.08    5.55
   3  -8   2  413.87   10.31
   3  -8   2  376.29    6.29
   3  -8   2  358.87    9.59
  -3   8  -3  609.30    7.04
   3  -8   3  598.38    7.33
   3  -8   3  535.46   13.45
   3  -8   3  549.65   12.50
  -3   8  -4  129.33    5.23
   3  -8   4  134.85    6.17
  -3   8  -4  125.29    5.62
  -3   8  -5  129.28    5.70
   3  -8   5  138.68    6.00
  -3   8  -6  750.32    7.68
  -3   8  -6  815.57    8.45
   3  -8   6  781.33    8.70
  -3   8  -7  577.46    7.60
  -3   8  -7  556.98    7.13
   3  -8   7  553.65    7.82
   3  -8   8   27.20    5.25
  -3   8  -8   36.95    5.07
  -3   8  -8   23.05    5.26
   3  -8   9   10.40    5.38
  -3   8  -9    7.30    4.26
  -3   8  -9    6.02    5.07
  -3   8 -10   31.88    4.57
   3  -8  10   12.92    5.20
  -3   8 -10   26.97    4.98
  -3   8 -11   28.19    3.73
   3  -8  11   16.45    5.77
  -3   8 -11   16.46    4.83
   3  -7   1  398.99    9.87
   3  -7   1  415.44    7.13
   3  -7   2   37.74    8.10
  -3   7  -2   17.83    5.60
   3  -7   2   23.47    6.21
  -3   7  -2   34.84    6.08
   3  -7   2   40.39    9.17
  -3   7  -3   25.20    5.90
   3  -7   3   20.70    5.97
  -3   7  -3   12.02    5.35
   3  -7   3   15.77   11.40
   3  -7   3   14.89   11.23
  -3   7  -4  324.52    5.39
   3  -7   4  325.56    6.56
  -3   7  -4  345.01    6.76
  -3   7  -5   72.44    5.90
  -3   7  -5   80.63    6.03
   3  -7   5   83.78    5.69
  -3   7  -6   29.80    5.19
   3  -7   6   47.71    5.71
  -3   7  -7  319.49    5.18
  -3   7  -7  300.86    7.36
   3  -7   7  311.86    7.01
   3  -7   8  167.65    6.21
  -3   7  -8  168.52    5.75
  -3   7  -8  159.38    6.27
  -3   7  -9   22.31    3.66
   3  -7   9    8.95    6.16
  -3   7  -9   15.07    5.97
  -3   7 -10   58.82    3.48
  -3   7 -10   66.72    5.62
   3  -7  10   59.48    5.62
  -3   7 -11  197.97    3.91
  -3   7 -11  184.58    6.45
   3  -7  11  173.78    6.22
  -3   7 -12  117.50    6.17
  -3   7 -12  137.10    4.15
   3  -7  12  119.78    5.79
  -3   6  -1  638.17    8.57
  -3   6  -1  678.16   10.67
  -3   6  -1  642.09    7.38
   3  -6   1  653.56   10.89
   3  -6   1  669.09    6.45
   3  -6   2  -10.82    5.89
  -3   6  -2    8.26    5.99
   3  -6   2    2.14    9.62
  -3   6  -2   16.25    5.41
  -3   6  -3  384.11    7.33
   3  -6   3  379.99    6.80
  -3   6  -3  387.25    6.65
  -3   6  -4 1338.24   10.85
   3  -6   4 1421.21   10.48
  -3   6  -4 1422.35   10.65
  -3   6  -5  618.33    7.64
  -3   6  -5  602.27    6.84
   3  -6   5  600.39    7.95
  -3   6  -6   22.60    4.44
   3  -6   6   20.56    6.03
  -3   6  -7  224.75    6.43
   3  -6   7  221.73    6.92
   3  -6   8  580.59    8.12
  -3   6  -8  608.75    6.90
  -3   6  -8  649.92    8.75
  -3   6  -9  568.66    6.72
   3  -6   9  515.84    7.68
  -3   6  -9  547.64    8.33
  -3   6 -10  150.77    5.35
   3  -6  10  138.70    5.86
  -3   6 -10  131.86    6.65
  -3   6 -11   10.15    4.17
   3  -6  11    0.07    5.82
  -3   6 -11    2.57    6.42
  -3   6 -12   17.39    4.26
   3  -6  12    6.23    5.35
  -3   6 -12   -0.29    6.03
  -3   5  -1 2863.52   17.89
  -3   5  -1 2710.74   23.63
   3  -5   1 2875.36   19.60
   3  -5   1 2827.48   15.85
  -3   5  -1 2646.65   13.77
  -3   5  -2 1720.28   11.08
   3  -5   2 1665.64   16.65
   3  -5   2 1711.66   11.71
  -3   5  -2 1751.24   13.13
   3  -5   3 1277.37   10.10
  -3   5  -3 1327.58    9.88
  -3   5  -3 1297.42    9.64
  -3   5  -4  121.32    6.78
  -3   5  -4  127.87    6.29
   3  -5   4  129.93    6.59
  -3   5  -5   34.04    6.41
   3  -5   5   66.65    6.49
  -3   5  -5   56.98    4.68
  -3   5  -6   78.53    6.37
  -3   5  -6   85.07    6.49
   3  -5   6   59.83    6.91
  -3   5  -7   19.91    5.79
   3  -5   7   11.36    6.32
  -3   5  -8  122.38    4.22
   3  -5   8  130.01    6.73
  -3   5  -9  295.72    5.92
   3  -5   9  258.54    6.49
  -3   5 -10  235.19    6.97
  -3   5 -10  243.06    4.29
  -3   5 -10  256.02   12.63
   3  -5  10  223.75    6.54
  -3   5 -11   15.20    6.61
  -3   5 -11   15.48    4.12
   3  -5  11   16.62    7.27
   3  -5  11   24.83    5.52
  -3   5 -11   18.89    8.60
  -3   5 -12   93.21    6.69
  -3   5 -12  146.09    4.60
   3  -5  12  128.74    7.11
   3  -5  12  142.41    5.95
  -3   5 -12  127.05    8.40
  -3   5 -13   78.65    6.73
  -3   5 -13   76.36    4.54
   3  -5  13   81.69    6.86
   3  -5  13   87.27    5.38
  -3   5 -13   81.62    7.72
  -3   4  -1  729.85   11.07
  -3   4  -1  725.77    7.88
   3  -4   1  724.71    8.56
   3  -4   1  782.05   12.31
  -3   4  -1  733.11   10.65
   3  -4   2  310.41    6.95
  -3   4  -2  320.54    9.44
   3  -4   2  289.72   10.43
  -3   4  -2  302.86    5.32
  -3   4  -2  309.61    8.38
   3  -4   3  778.93    8.80
  -3   4  -3  763.70    8.51
  -3   4  -3  800.84    8.30
  -3   4  -4  664.39    7.15
   3  -4   4  637.09    8.41
  -3   4  -4  599.03    6.76
  -3   4  -5  295.70    7.17
   3  -4   5  290.43    7.59
  -3   4  -5  295.12    7.78
  -3   4  -6 1501.38   12.60
  -3   4  -6 1507.25   10.05
   3  -4   6 1547.65   11.94
  -3   4  -7 1003.54    8.63
   3  -4   7 1027.44    9.82
  -3   4  -7  958.06   10.91
  -3   4  -8    8.30    5.54
   3  -4   8   -6.03    6.47
  -3   4  -8   13.55    6.89
   3  -4   8    2.30    9.26
  -3   4  -8    2.66   11.14
   3  -4   9  343.57    7.12
   3  -4   9  335.77    9.48
  -3   4  -9  324.31    6.04
  -3   4  -9  326.76   11.50
  -3   4 -10  593.06    6.90
   3  -4  10  560.53   10.03
  -3   4 -10  444.69   11.35
   3  -4  10  596.89    8.71
  -3   4 -11  420.58    5.91
   3  -4  11  389.29    7.80
   3  -4  11  422.84    7.53
  -3   4 -11  302.69    8.88
  -3   4 -12    6.59    3.86
   3  -4  12    6.89    5.36
  -3   4 -12   -8.54    6.58
   3  -4  12    5.15    5.52
  -3   4 -12    7.18    6.55
  -3   4 -13   21.82    3.09
   3  -4  13   24.85    5.00
   3  -4  13   35.50    5.38
  -3   4 -13   18.97    6.51
  -3   4 -13   20.66    6.56
  -3   4 -14   21.11    6.36
  -3   4 -14   -0.37    3.76
  -3   4 -14   19.54    6.20
   3  -4  14    8.02    5.14
   3  -4  14    7.08    4.92
  -3   3  -1  592.93    7.41
  -3   3  -1  630.34   11.77
   3  -3   1  605.12   10.48
   3  -3   1  611.64    9.67
   3  -3   2  357.15    9.19
  -3   3  -2  334.60    6.69
  -3   3  -2  365.29   12.26
  -3   3  -2  327.97    9.90
   3  -3   2  334.01   10.68
   3  -3   3 1025.39    9.18
  -3   3  -3  998.85   10.69
  -3   3  -3 1112.04   10.15
   3  -3   4 2699.18   16.01
  -3   3  -4 2568.99   15.28
  -3   3  -4 2718.85   16.94
  -3   3  -5  706.42    9.75
   3  -3   5  730.55    9.27
  -3   3  -5  668.19    8.40
  -3   3  -6  113.43    7.33
  -3   3  -6  108.92   10.15
  -3   3  -6  101.55   13.25
   3  -3   6  115.54    7.35
  -3   3  -6  108.89    5.87
  -3   3  -7   36.34    5.90
   3  -3   7   46.49    7.17
   3  -3   7   33.14    7.61
  -3   3  -7   12.31    8.07
  -3   3  -7   36.89   10.75
  -3   3  -8  312.55    6.22
   3  -3   8  287.21    7.52
   3  -3   8  281.33    8.62
  -3   3  -8  306.66    6.96
  -3   3  -8  248.05   10.77
   3  -3   9  166.49    7.27
   3  -3   9  164.13    7.03
  -3   3  -9  181.32    5.74
  -3   3  -9  187.70    8.49
  -3   3  -9  150.15    8.72
   3  -3  10    1.94    6.28
   3  -3  10   -9.41    6.00
  -3   3 -10   -2.93    6.86
  -3   3 -10   -4.98    4.76
  -3   3 -10    6.47    7.79
   3  -3  11  123.53    5.64
   3  -3  11  136.75    5.95
  -3   3 -11   84.33    7.41
  -3   3 -11  140.70    7.82
  -3   3 -11  140.63    5.04
  -3   3 -12   -1.43    3.99
   3  -3  12    5.66    5.70
   3  -3  12   13.24    5.66
  -3   3 -12   19.84    6.31
  -3   3 -13   37.90    4.47
  -3   3 -13   57.76    6.87
   3  -3  13   33.57    5.48
   3  -3  13   38.69    4.69
  -3   3 -14  155.55    4.39
   3  -3  14  145.34    5.23
   3  -3  14  153.08    5.53
  -3   3 -14  179.97    7.63
   3  -2   1    5.28    7.82
  -3   2  -1   -0.23    5.59
  -3   2  -1    9.82   10.11
   3  -2   1    1.25    7.61
   3  -2   2  811.45   10.48
  -3   2  -2  841.79   16.29
  -3   2  -2  778.40   10.55
   3  -2   2  788.17   12.12
  -3   2  -3   38.91    9.91
   3  -2   3   37.16    9.80
  -3   2  -3   32.24   11.62
  -3   2  -4  147.54   10.07
  -3   2  -4  148.10   10.84
  -3   2  -4  137.64   12.20
   3  -2   4  161.86    7.08
  -3   2  -5   -1.86    8.34
  -3   2  -5    1.59    5.72
  -3   2  -5    3.86    9.83
  -3   2  -5    3.20    6.53
   3  -2   5   10.87    5.36
   3  -2   6  241.17    7.92
  -3   2  -6  264.86    8.74
  -3   2  -6  243.72    9.58
  -3   2  -6  255.42    5.21
   3  -2   7 1066.36   10.08
   3  -2   7 1038.44   12.09
  -3   2  -7 1158.73   11.60
  -3   2  -7 1066.09   12.51
  -3   2  -7  949.32    8.66
   3  -2   8 1242.00   10.95
   3  -2   8 1329.42   12.97
  -3   2  -8 1428.59   12.70
  -3   2  -8 1370.91   14.43
  -3   2  -8 1352.41   10.22
   3  -2   9  117.89    6.43
   3  -2   9  118.16    7.11
  -3   2  -9  135.99    7.68
  -3   2  -9  136.21    7.38
  -3   2  -9  127.40    4.23
  -3   2 -10    1.26    3.72
   3  -2  10   16.65    5.78
   3  -2  10   15.85    6.54
  -3   2 -10   14.91    7.49
  -3   2 -10    1.27    7.37
  -3   2 -11  427.41    5.78
   3  -2  11  413.32    7.15
   3  -2  11  372.68    5.96
  -3   2 -11  423.01    8.66
  -3   2 -11  455.11    8.54
  -3   2 -12  565.28    9.00
  -3   2 -12  555.28    6.50
   3  -2  12  564.06    7.87
   3  -2  12  579.42    7.42
  -3   2 -12  621.95    9.20
  -3   2 -13  203.25    5.10
   3  -2  13  226.30    6.03
   3  -2  13  203.89    5.61
  -3   2 -13  248.12    7.26
  -3   2 -13  263.94    6.95
  -3   2 -14   15.73    3.98
   3  -2  14   15.17    4.81
  -3   2 -14   17.60    5.86
   3  -2  14   12.52    4.45
  -3   2 -14   12.71    5.91
  -3   2 -15   46.03    3.12
   3  -2  15   40.42    4.69
   3  -2  15   47.71    4.77
  -3   2 -15   50.26    5.79
   3  -1   1  337.01    8.96
  -3   1  -1  318.06    8.85
   3  -1   1  332.60    8.20
   3  -1   2 2066.55   17.69
   3  -1   2 2026.40   14.78
  -3   1  -2 1961.86   13.29
  -3   1  -2 1813.49   15.83
  -3   1  -3  131.73    7.01
   3  -1   3  145.99    6.99
  -3   1  -3  125.38    8.96
  -3   1  -4 2130.73   18.82
  -3   1  -4 2117.07   20.93
  -3   1  -4 1989.69   16.00
   3  -1   4 1979.60   15.98
   3  -1   5 2732.54   18.01
  -3   1  -5 2884.40   23.32
  -3   1  -5 3024.16   18.10
   3  -1   6 1090.77   10.62
   3  -1   6 1134.61   11.73
  -3   1  -6 1198.58   12.70
  -3   1  -6 1296.19   11.96
  -3   1  -6 1114.96    9.63
   3  -1   7  576.16    8.43
   3  -1   7  568.95    8.68
  -3   1  -7  568.65    8.86
  -3   1  -7  605.44    7.66
  -3   1  -7  562.63    7.50
   3  -1   8   64.72    6.07
   3  -1   8   69.99    6.69
  -3   1  -8   64.30    5.78
  -3   1  -8   50.91    6.43
  -3   1  -8   79.91    7.65
   3  -1   9  206.27    6.68
   3  -1   9  211.89    7.81
  -3   1  -9  211.29    7.14
  -3   1  -9  207.21    8.31
  -3   1  -9  215.41    4.54
   3  -1  10   22.03    5.88
   3  -1  10   28.76    6.79
  -3   1 -10   34.08    6.39
  -3   1 -10   26.43    7.41
  -3   1 -10   20.78    5.21
  -3   1 -11   97.08    3.85
   3  -1  11   80.49    5.63
   3  -1  11   85.82    6.36
  -3   1 -11   97.06    6.30
  -3   1 -11   91.55    6.91
  -3   1 -12   63.72    4.57
   3  -1  12   43.34    5.69
   3  -1  12   64.12    5.75
  -3   1 -12   61.71    5.58
  -3   1 -12   51.52    6.65
   3  -1  13   54.30    4.77
   3  -1  13   61.94    5.50
  -3   1 -13   52.88    5.85
  -3   1 -13   66.67    5.90
  -3   1 -13   51.45    4.79
  -3   1 -14   13.51    4.54
   3  -1  14   11.60    4.85
   3  -1  14   -2.06    5.00
  -3   1 -14   19.13    5.38
  -3   1 -14   -0.68    4.90
  -3   1 -15  108.36    4.47
   3  -1  15   91.96    4.81
   3  -1  15   83.95    4.47
  -3   1 -15  116.56    5.64
  -3   1 -15  129.19    5.58
   3   0   0 7586.38   38.28
  -3   0   0 7048.11   36.77
  -3   0   0 6461.13   33.17
   3   0   0 6909.25   34.80
  -3   0  -1  892.96   10.47
   3   0   1  884.52    9.31
  -3   0  -1  729.20    9.73
   3   0   1  868.32   10.42
   3   0   2 4155.21   25.54
  -3   0  -2 3800.77   21.89
   3   0   2 3876.04   22.69
  -3   0  -3 2081.98   14.65
   3   0   3 2000.27   15.78
   3   0   4  324.73    8.07
  -3   0  -4  367.41    9.25
  -3   0  -4  381.76    8.22
   3   0   5  186.54   10.47
  -3   0  -5  215.13    8.62
  -3   0  -5  221.79   10.64
   3   0   6    4.34    6.64
   3   0   6   -0.89    8.44
  -3   0  -6    1.69    6.37
  -3   0  -6   -2.82    8.26
   3   0   7   12.88    6.06
   3   0   7   12.82    7.18
  -3   0  -7   25.55    5.88
  -3   0  -7   22.72    5.36
   3   0   8  162.20    6.53
   3   0   8  174.35    7.42
  -3   0  -8  168.30    6.39
  -3   0  -8  155.32    7.96
  -3   0  -8  148.57    4.40
  -3   0  -9 1843.56   12.92
   3   0   9 1848.85   13.30
   3   0   9 1868.76   12.94
  -3   0  -9 1854.89   14.29
  -3   0  -9 2016.79   13.58
   3   0  10 1508.34   11.49
   3   0  10 1442.58   11.40
  -3   0 -10 1504.43   12.62
  -3   0 -10 1555.72   11.23
  -3   0 -10 1680.81   13.62
   3   0  11  332.66    6.65
   3   0  11  370.67    6.63
  -3   0 -11  313.91    7.04
  -3   0 -11  359.45    6.18
  -3   0 -11  369.97    6.15
  -3   0 -12   12.12    3.59
   3   0  12   10.50    5.34
   3   0  12   19.74    5.32
  -3   0 -12   12.31    5.24
  -3   0 -12   15.62    4.43
  -3   0 -13  226.05    5.29
   3   0  13  199.99    5.60
   3   0  13  206.30    5.54
  -3   0 -13  215.38    5.77
  -3   0 -13  231.01    6.43
  -3   0 -14  243.09    4.15
   3   0  14  226.46    5.55
   3   0  14  216.45    5.63
  -3   0 -14  264.39    6.43
  -3   0 -14  233.58    5.94
  -3   0 -15   37.02    4.43
   3   0  15   54.97    4.63
  -3   0 -15   58.97    5.24
   3   0  15   76.86    4.75
  -3   0 -15   57.30    4.68
  -3  -1   0 2523.49   17.65
   3   1   0 2491.55   19.05
  -3  -1   0 2358.20   14.79
   3   1   0 2490.12   16.48
   3   1   1 2229.24   15.09
  -3  -1  -1 2390.13   16.76
  -3  -1  -1 2268.94   16.65
   3   1   1 2362.46   17.42
  -3  -1  -2  346.82    7.31
   3   1   2  368.42    8.97
   3   1   2  352.63   10.32
  -3  -1  -2  389.55    7.73
  -3  -1  -3 3127.82   21.53
   3   1   3 2976.91   19.97
  -3  -1  -3 3289.69   21.10
   3   1   4 1383.95   14.00
  -3  -1  -4 1396.97   14.09
  -3  -1  -4 1511.63   14.12
  -3  -1  -5 1109.88   12.72
   3   1   5 1065.31   13.01
  -3  -1  -5 1116.34   11.71
  -3  -1  -6   19.77    8.63
   3   1   6   10.16    6.76
   3   1   6   11.88    8.62
  -3  -1  -6   22.12    6.43
  -3  -1  -7 2807.56   16.54
   3   1   7 2496.32   16.32
   3   1   7 2442.87   13.96
  -3  -1  -7 2603.83   17.67
  -3  -1  -8 1617.87   12.16
   3   1   8 1495.67   11.37
   3   1   8 1552.51   11.40
  -3  -1  -8 1530.39   11.91
  -3  -1  -9  197.95    8.13
   3   1   9  179.29    4.94
   3   1   9  169.12    6.98
  -3  -1  -9  170.01    6.39
  -3  -1  -9  180.57    5.92
  -3  -1 -10    0.26    6.36
   3   1  10    6.08    4.04
   3   1  10   20.84    4.61
  -3  -1 -10   17.15    5.39
  -3  -1 -10    7.26    5.49
  -3  -1 -11  100.94    6.18
   3   1  11  107.45    5.50
  -3  -1 -11   95.72    5.76
   3   1  11   47.29    6.24
  -3  -1 -11   97.69    4.99
   3   1  12   57.70    5.55
  -3  -1 -12   81.43    6.11
   3   1  12   63.08    5.24
  -3  -1 -12   76.75    5.13
  -3  -1 -12   79.39    3.78
  -3  -1 -13    0.84    4.24
  -3  -1 -13    3.85    3.80
   3   1  13    0.78    4.98
  -3  -1 -13   16.22    5.27
   3   1  13    8.23    5.15
  -3  -1 -14   42.65    4.88
  -3  -1 -14   14.62    4.97
   3   1  14   46.88    4.26
  -3  -1 -14   37.15    5.00
   3   1  14   29.68    4.68
   3   1  15   20.28    4.44
  -3  -1 -15   41.97    5.12
  -3  -1 -15   28.78    3.92
  -3  -1 -15   23.37    4.51
   3   1  15   17.23    4.83
   3   2   0 2574.48   15.49
   3   2   0 2648.97   22.55
  -3  -2   0 2746.87   19.80
  -3  -2   0 2513.22   15.21
   3   2   1 8547.43   40.14
   3   2   1 8517.86   48.77
  -3  -2  -1 8213.84   46.11
  -3  -2  -1 8769.40   41.58
  -3  -2  -2 4840.45   28.26
  -3  -2  -2 5145.82   26.97
   3   2   2 4695.43   25.49
   3   2   2 4942.31   30.44
  -3  -2  -3  853.50   11.34
  -3  -2  -3  856.50   10.11
   3   2   3  879.54   13.59
  -3  -2  -4  338.71   11.49
  -3  -2  -4  327.49    9.21
   3   2   4  333.71   12.03
  -3  -2  -5  971.42   11.70
  -3  -2  -5  922.05   10.30
   3   2   5  895.44   12.10
  -3  -2  -6 1139.81   11.09
   3   2   6 1042.02    9.85
  -3  -2  -6 1050.00    9.93
   3   2   6 1111.09   10.88
  -3  -2  -7  175.70    5.79
   3   2   7  150.73    6.45
  -3  -2  -7  160.27    5.94
   3   2   7  191.58    7.55
  -3  -2  -8  100.54    7.48
   3   2   8   96.41    5.95
  -3  -2  -8   93.83    4.19
   3   2   8   83.91    5.32
  -3  -2  -9   29.46    5.19
   3   2   9   41.87    4.28
  -3  -2  -9   39.84    5.45
   3   2   9   51.58    6.30
  -3  -2 -10  221.35    5.42
   3   2  10  174.76    5.85
  -3  -2 -10  204.12    6.32
   3   2  10  201.71    6.56
  -3  -2 -10  204.59    5.67
  -3  -2 -11  305.39    6.87
   3   2  11  295.24    6.24
  -3  -2 -11  274.02    5.93
   3   2  11  279.00    6.42
  -3  -2 -11  273.90    5.84
  -3  -2 -12  362.74    6.58
   3   2  12  329.87    5.97
  -3  -2 -12  348.56    6.40
   3   2  12  338.20    6.58
  -3  -2 -12  351.41    5.75
  -3  -2 -13   54.09    5.53
   3   2  13   64.13    4.99
  -3  -2 -13   54.84    3.85
   3   2  13   40.14    5.17
  -3  -2 -13   43.52    4.90
   3   2  14   63.74    4.79
  -3  -2 -14   45.84    5.57
  -3  -2 -14   51.21    3.89
   3   2  14   45.98    5.09
  -3  -2 -14   46.52    4.72
  -3  -2 -15  129.84    4.91
   3   2  15  136.07    4.95
  -3  -2 -15  118.53    4.11
   3   2  15  123.41    4.27
  -3  -2 -15  123.66    5.21
   3   3   0   18.97    9.29
   3   3   0   -1.67   12.55
  -3  -3   0    4.07    9.21
  -3  -3   0    1.07    6.36
  -3  -3  -1  318.50   10.34
   3   3   1  294.91   11.94
   3   3   1  290.32    9.83
  -3  -3  -1  333.80    9.63
  -3  -3  -2  584.07   10.27
  -3  -3  -2  588.16   11.50
   3   3   2  588.27   13.18
  -3  -3  -3  597.80   11.54
  -3  -3  -3  591.96   10.14
   3   3   3  562.30   12.21
  -3  -3  -3  564.39   10.23
  -3  -3  -4 1272.80   10.91
  -3  -3  -4 1362.00   12.13
   3   3   4 1290.08   11.46
  -3  -3  -5  615.47    9.75
  -3  -3  -5  592.36    6.81
   3   3   5  566.34   10.10
   3   3   6 1683.61   12.01
  -3  -3  -6 1877.17   13.53
  -3  -3  -6 1673.12   11.84
   3   3   6 1638.51   11.38
  -3  -3  -7  166.48    7.43
   3   3   7  156.64    6.02
  -3  -3  -7  158.15    5.63
   3   3   7  182.90    7.20
  -3  -3  -8  303.10    8.07
   3   3   8  259.90    4.94
  -3  -3  -8  274.99    4.93
   3   3   8  271.29    7.33
  -3  -3  -9  281.30    7.53
   3   3   9  218.12    4.87
  -3  -3  -9  250.13    6.28
   3   3   9  235.06    6.87
  -3  -3 -10  177.05    6.92
   3   3  10  149.82    4.44
  -3  -3 -10  155.36    4.51
   3   3  10  159.22    6.18
  -3  -3 -10  149.89    6.10
  -3  -3 -11   27.73    4.61
   3   3  11    4.33    5.15
  -3  -3 -11   19.03    4.85
   3   3  11   24.40    5.78
  -3  -3 -11   35.11    5.07
  -3  -3 -12  158.32    5.63
  -3  -3 -12  182.80    5.87
   3   3  12  162.50    5.07
  -3  -3 -12  179.48    5.70
   3   3  12  155.07    4.38
  -3  -3 -13   76.70    5.92
   3   3  13   92.37    5.11
  -3  -3 -13   93.56    4.96
  -3  -3 -13   84.39    5.28
   3   3  13   80.70    5.32
  -3  -3 -14   56.29    4.21
  -3  -3 -14   76.82    5.40
   3   3  14   66.35    4.58
  -3  -3 -14   67.39    5.21
   3   3  14   71.30    4.90
  -3  -3 -15   15.93    4.11
   3   3  15   23.78    3.98
  -3  -3 -15    3.82    4.45
  -3  -3 -15   14.31    4.88
   3   3  15   -6.64    4.15
  -3  -4   0 4422.71   29.43
   3   4   0 3944.73   20.13
  -3  -4   0 3940.52   20.50
   3   4   0 4440.52   35.15
  -3  -4  -1  439.06    8.72
   3   4   1  485.49    9.04
  -3  -4  -1  485.21   10.77
   3   4   1  504.59   10.41
  -3  -4  -2 1192.86   12.54
   3   4   2 1133.84   13.38
  -3  -4  -2 1239.14   11.14
  -3  -4  -3 3992.55   22.53
  -3  -4  -3 3864.02   23.18
   3   4   3 3860.80   24.86
  -3  -4  -3 3785.44   21.58
  -3  -4  -4 1300.81   11.82
  -3  -4  -4 1286.13   10.61
   3   4   4 1119.51   11.29
  -3  -4  -5  281.05    6.05
  -3  -4  -5  251.23    6.62
   3   4   5  286.93    7.78
  -3  -4  -6 1385.95   10.17
  -3  -4  -6 1430.25   10.39
   3   4   6 1449.93   10.32
   3   4   7  514.77    5.90
  -3  -4  -7  567.31    8.66
  -3  -4  -7  579.13    7.26
   3   4   7  558.66    8.55
   3   4   8   21.14    5.72
  -3  -4  -8   30.11    7.48
  -3  -4  -8   27.03    5.54
   3   4   8    8.30    7.18
   3   4   9   14.65    5.49
  -3  -4  -9   56.09    6.27
  -3  -4  -9   42.34    5.42
   3   4   9   27.18    6.34
  -3  -4 -10   14.39    5.90
   3   4  10   26.41    5.11
  -3  -4 -10   18.42    5.14
   3   4  10    4.56    5.64
  -3  -4 -11  141.61    5.96
   3   4  11  158.49    5.59
  -3  -4 -11  136.53    5.58
   3   4  11  150.98    5.78
  -3  -4 -11  177.69    5.27
  -3  -4 -12  101.63    6.20
   3   4  12  107.09    4.96
  -3  -4 -12  115.37    5.01
   3   4  12  111.15    5.61
  -3  -4 -12  104.27    5.41
  -3  -4 -13  367.50    6.75
   3   4  13  310.99    5.68
  -3  -4 -13  363.30    5.06
   3   4  13  300.48    4.67
  -3  -4 -13  325.84    6.01
  -3  -4 -14   99.74    4.83
  -3  -4 -14  124.87    5.44
   3   4  14  123.50    4.55
  -3  -4 -14  111.54    4.22
   3   4  14   84.03    4.99
  -3  -4 -15   -8.87    4.39
  -3  -4 -15   12.79    3.69
  -3  -4 -15   -9.74    4.26
   3   5   0 2064.77   12.06
  -3  -5   0 2325.48   18.86
  -3  -5   0 2197.10   13.18
  -3  -5  -1  438.52    7.33
  -3  -5  -1  435.05    9.93
   3   5   1  437.58    8.93
  -3  -5  -2   11.14    6.08
  -3  -5  -2    4.97    6.01
  -3  -5  -2    7.50    7.49
   3   5   2   19.25    7.15
  -3  -5  -3  738.62    7.98
  -3  -5  -3  746.75    7.92
  -3  -5  -3  703.13    9.33
   3   5   3  647.77    9.27
  -3  -5  -4  938.14    8.45
  -3  -5  -4  978.73   10.34
   3   5   4  924.91   10.30
  -3  -5  -4  910.80    8.52
  -3  -5  -5    6.10    7.38
  -3  -5  -5   11.57    5.22
   3   5   5   32.27    7.18
  -3  -5  -6  131.02    7.46
  -3  -5  -6  158.75    5.95
   3   5   6  159.37    5.40
  -3  -5  -7  370.58    7.92
  -3  -5  -7  357.62    5.10
   3   5   7  342.57    7.24
   3   5   8   11.60    3.86
  -3  -5  -8   30.68    6.67
  -3  -5  -8    3.29    5.28
   3   5   8    6.33    4.53
   3   5   9   64.23    3.92
  -3  -5  -9   60.26    4.66
  -3  -5  -9   69.95    5.29
   3   5   9   79.13    5.83
   3   5  10  416.40    6.18
  -3  -5 -10  457.79    7.42
  -3  -5 -10  461.76    6.21
   3   5  10  439.70    6.55
  -3  -5 -11  805.39    7.95
   3   5  11  722.66    6.40
  -3  -5 -11  818.79    7.95
   3   5  11  739.08    7.62
  -3  -5 -11  801.57    8.22
  -3  -5 -12   69.13    4.29
   3   5  12   45.08    5.14
  -3  -5 -12   50.50    3.87
   3   5  12   48.57    5.23
  -3  -5 -12   47.95    4.69
  -3  -5 -13    4.15    4.38
  -3  -5 -13   -0.58    4.13
   3   5  13   13.00    4.56
  -3  -5 -13   14.31    3.48
   3   5  13   11.21    5.03
  -3  -5 -14   73.21    4.85
   3   5  14   76.35    4.19
  -3  -5 -14   63.73    3.56
  -3  -5 -14   58.41    4.46
  -3  -6   0  468.07    7.21
  -3  -6   0  443.84    9.87
  -3  -6  -1  705.35    8.19
  -3  -6  -1  772.51   10.02
  -3  -6  -2   73.45    5.98
  -3  -6  -2   60.12    7.53
  -3  -6  -2   68.61    6.31
  -3  -6  -3  -14.21    5.86
  -3  -6  -3   17.66    7.23
  -3  -6  -3    2.38    4.20
   3   6   3   -1.42    6.65
  -3  -6  -4  673.87    7.88
  -3  -6  -4  760.50    7.70
  -3  -6  -4  686.79    8.72
   3   6   4  669.01    8.79
  -3  -6  -5 1380.10   10.02
  -3  -6  -5 1300.98   10.14
   3   6   5 1230.54   11.17
  -3  -6  -6  341.20    8.05
  -3  -6  -6  347.49    5.05
   3   6   6  292.11    7.71
  -3  -6  -7  441.50    7.79
  -3  -6  -7  443.95    6.50
   3   6   7  455.22    7.63
  -3  -6  -8  910.33    9.10
  -3  -6  -8  907.37    8.11
   3   6   8  935.48    8.72
   3   6   9  690.71    6.37
  -3  -6  -9  706.46    6.81
  -3  -6  -9  714.29    6.37
   3   6   9  678.40    6.59
   3   6  10  405.25    6.05
  -3  -6 -10  443.94    7.13
  -3  -6 -10  440.02    6.14
   3   6  10  445.22    6.36
   3   6  11   18.33    4.99
  -3  -6 -11    0.40    5.48
  -3  -6 -11    0.25    4.72
   3   6  11   37.66    5.19
   3   6  12    9.88    3.52
  -3  -6 -12    8.26    4.99
  -3  -6 -12   10.96    4.50
  -3  -6 -12    3.94    4.75
  -3  -6 -13   15.21    5.06
   3   6  13   49.29    4.31
  -3  -6 -13   47.07    5.04
  -3  -6 -13   47.47    4.53
  -3  -6 -14   80.72    5.02
   3   6  14   86.59    3.65
  -3  -6 -14   78.58    4.95
  -3  -6 -14   93.55    4.90
  -3  -7   0  444.01   10.00
  -3  -7   0  449.55    8.93
  -3  -7   0  418.96    7.46
  -3  -7  -1 1578.65   12.17
  -3  -7  -1 1628.71   10.72
  -3  -7  -1 1602.39   13.94
  -3  -7  -2 1564.08   11.76
  -3  -7  -2 1645.11   11.60
  -3  -7  -2 1524.01   12.70
  -3  -7  -3  593.64    7.48
  -3  -7  -3  605.39    6.32
  -3  -7  -3  591.07    8.83
  -3  -7  -4   31.00    5.92
  -3  -7  -4   39.08    5.67
  -3  -7  -4   35.58    7.36
  -3  -7  -5   52.02    4.22
  -3  -7  -5   44.35    5.39
  -3  -7  -5   39.19    7.37
  -3  -7  -6   40.87    6.52
  -3  -7  -6   57.69    5.48
  -3  -7  -7  530.65    6.44
  -3  -7  -7  541.71    5.46
  -3  -7  -8  219.16    6.87
  -3  -7  -8  229.42    5.33
  -3  -7  -9  155.83    6.46
  -3  -7  -9  166.28    3.86
  -3  -7 -10  122.98    5.50
  -3  -7 -10  130.57    4.66
   3   7  11   16.22    4.32
  -3  -7 -11   30.95    3.91
  -3  -7 -11   28.04    4.20
   3   7  12  106.94    5.03
  -3  -7 -12  102.40    5.10
  -3  -7 -12  107.35    3.69
  -3  -7 -12  118.86    5.32
   3   7  13  118.35    5.12
  -3  -7 -13   85.98    4.99
  -3  -7 -13  139.97    3.90
  -3  -7 -13  115.68    4.91
  -3  -8   0   31.94    4.84
  -3  -8   0   40.29    5.25
  -3  -8   0   38.53    6.60
  -3  -8   0   37.05    6.83
  -3  -8   0   35.92    5.78
  -3  -8  -1   79.48    6.01
  -3  -8  -1   97.47    6.43
  -3  -8  -1   95.53    5.86
  -3  -8  -1   93.41    7.89
  -3  -8  -2  277.90    6.69
  -3  -8  -2  308.99    6.44
  -3  -8  -2  306.48    7.60
  -3  -8  -3  860.45    7.67
  -3  -8  -3  879.27    8.13
  -3  -8  -3  868.93    9.26
  -3  -8  -4  241.54    4.63
  -3  -8  -4  253.04    4.63
  -3  -8  -4  270.46    7.42
  -3  -8  -5  208.90    4.30
  -3  -8  -5  248.37    5.75
  -3  -8  -5  251.23    6.82
  -3  -8  -6  897.74    8.04
  -3  -8  -6 1022.42    9.58
  -3  -8  -6  942.68    7.50
  -3  -8  -7  742.28    8.54
  -3  -8  -7  736.90    7.05
  -3  -8  -8  166.01    6.61
  -3  -8  -8  145.20    4.86
  -3  -8  -9  143.41    4.70
  -3  -8  -9  141.74    5.06
  -3  -8 -10  240.01    6.52
  -3  -8 -10  247.28    5.02
  -3  -8 -11  112.63    5.20
  -3  -8 -11   75.73    4.33
  -3  -8 -12   25.85    4.05
  -3  -8 -12   30.81    3.30
  -3  -8 -12   34.52    5.01
  -3  -9   0  748.27    8.52
  -3  -9   0  707.80    8.11
  -3  -9   0  781.50    7.53
  -3  -9   0  788.58    9.49
  -3  -9   0  873.25   10.99
  -3  -9  -1  368.66    5.89
  -3  -9  -1  428.56    6.01
  -3  -9  -1  429.40    8.46
  -3  -9  -1  444.51    7.47
  -3  -9  -1  412.53    6.80
  -3  -9  -2   -5.62    4.45
  -3  -9  -2   -3.48    5.09
  -3  -9  -2    1.94    7.14
  -3  -9  -2   24.60    5.23
  -3  -9  -2   20.19    5.14
  -3  -9  -3  985.76    9.41
  -3  -9  -3 1013.28    8.73
  -3  -9  -3  979.81    9.43
  -3  -9  -4  964.21    8.91
  -3  -9  -4 1038.70    8.89
  -3  -9  -4  989.18    9.72
  -3  -9  -5  258.70    5.53
  -3  -9  -5  278.15    6.70
  -3  -9  -5  235.88    5.46
  -3  -9  -6   14.91    4.46
  -3  -9  -6   -4.93    6.04
  -3  -9  -6    1.86    4.51
  -3  -9  -7   55.31    6.11
  -3  -9  -7   62.76    4.56
  -3  -9  -7   58.63    5.20
  -3  -9  -8   -3.81    5.83
  -3  -9  -8    8.43    4.77
  -3  -9  -9   20.66    5.15
  -3  -9  -9   -5.43    4.70
  -3  -9 -10   44.31    4.90
  -3  -9 -10   14.35    3.39
  -3  -9 -11   26.05    4.69
  -3  -9 -11   27.57    4.42
  -3 -10   0   18.17    6.11
  -3 -10   0   19.39    4.04
  -3 -10   0   17.47    4.86
  -3 -10   0    6.95    4.48
  -3 -10   0   15.50    5.79
  -3 -10  -1   11.27    3.04
  -3 -10  -1   38.48    4.97
  -3 -10  -1   22.28    6.32
  -3 -10  -1   23.97    5.53
  -3 -10  -1   20.13    5.13
  -3 -10  -2   27.37    4.65
  -3 -10  -2   37.40    4.01
  -3 -10  -2   57.89    4.91
  -3 -10  -2   44.75    6.25
  -3 -10  -2   50.26    4.45
  -3 -10  -3   25.07    4.57
  -3 -10  -3   10.35    4.14
  -3 -10  -3   17.20    3.54
  -3 -10  -3   17.98    5.47
  -3 -10  -3    5.05    4.33
  -3 -10  -4   78.60    4.95
  -3 -10  -4   79.11    6.09
  -3 -10  -4   61.20    5.02
  -3 -10  -4   67.92    4.13
  -3 -10  -5   97.05    4.59
  -3 -10  -5  102.25    6.16
  -3 -10  -5   97.40    4.89
  -3 -10  -6    7.90    4.81
  -3 -10  -6   22.21    4.41
  -3 -10  -6   22.94    3.47
  -3 -10  -7   22.36    4.51
  -3 -10  -7   12.19    5.27
  -3 -10  -7   -2.46    4.59
  -3 -10  -8  157.08    4.00
  -3 -10  -8  131.97    5.62
  -3 -10  -8  173.24    4.67
  -3 -10  -9  104.72    4.41
  -3 -10  -9   93.13    4.83
  -3 -10 -10   22.31    5.20
  -3 -10 -10    1.08    2.98
  -3 -11   0   20.39    4.02
  -3 -11   0   23.86    6.09
  -3 -11   0   32.45    4.24
  -3 -11   0   27.35    6.09
  -3 -11   0   32.68    4.75
  -3 -11  -1  162.19    4.44
  -3 -11  -1  194.68    6.28
  -3 -11  -1  208.96    4.13
  -3 -11  -1  215.39    6.74
  -3 -11  -1  192.59    5.14
  -3 -11  -2  259.66    5.03
  -3 -11  -2  282.34    5.48
  -3 -11  -2  276.54    6.84
  -3 -11  -2  283.10    5.21
  -3 -11  -2  315.07    6.38
  -3 -11  -3   -2.48    4.01
  -3 -11  -3   -3.87    3.48
  -3 -11  -3  -12.06    5.48
  -3 -11  -3  -18.27    4.73
  -3 -11  -3    1.98    3.95
  -3 -11  -4  104.31    4.12
  -3 -11  -4   94.79    4.30
  -3 -11  -4  127.60    4.95
  -3 -11  -4  123.57    5.77
  -3 -11  -4  102.80    4.53
  -3 -11  -5  146.65    3.84
  -3 -11  -5  132.03    4.85
  -3 -11  -5  136.77    4.54
  -3 -11  -5  160.03    6.08
  -3 -11  -5  152.68    4.50
  -3 -11  -6  157.45    5.15
  -3 -11  -6  170.26    5.36
  -3 -11  -6  168.63    4.66
  -3 -11  -6  184.92    5.60
  -3 -11  -6  183.80    5.22
  -3 -11  -7   37.02    5.61
  -3 -11  -7   34.62    4.55
  -3 -11  -7   10.41    3.84
  -3 -11  -7   15.40    3.93
  -3 -11  -8   38.84    4.39
  -3 -11  -8   11.16    5.57
  -3 -11  -8   32.86    3.26
  -3 -12   0   46.41    3.64
  -3 -12   0   44.57    5.91
  -3 -12   0   47.23    3.99
  -3 -12   0   49.77    6.20
  -3 -12   0   56.30    4.29
  -3 -12  -1   19.63    3.31
  -3 -12  -1    1.93    5.28
  -3 -12  -1    7.65    4.99
  -3 -12  -1   18.21    4.35
  -3 -12  -1   -0.38    4.04
  -3 -12  -2   24.91    3.95
  -3 -12  -2   47.62    5.48
  -3 -12  -2   26.49    4.49
  -3 -12  -2   32.92    4.62
  -3 -12  -2   43.99    4.79
  -3 -12  -3   29.00    4.14
  -3 -12  -3    9.22    3.95
  -3 -12  -3   31.36    5.26
  -3 -12  -3   19.30    3.86
  -3 -12  -3   13.62    4.23
  -3 -12  -4    9.15    3.18
  -3 -12  -4   14.14    4.22
  -3 -12  -4   12.50    3.74
  -3 -12  -4   -4.12    5.19
  -3 -12  -4   -4.84    3.85
  -3 -12  -5    4.56    4.10
   4 -11   1   30.96    7.09
   4 -11   1   36.69    3.47
   4 -11   1   26.03    6.28
   4 -11   2   70.18    5.05
   4 -11   2   61.27    8.70
   4 -11   2   62.59    8.84
   4 -11   3   18.02    4.78
   4 -11   4    5.49    4.18
   4 -10   1  135.29    8.09
   4 -10   1  138.68    4.93
   4 -10   1  110.27    7.31
   4 -10   2  145.92    5.34
   4 -10   2  146.49    8.50
   4 -10   2  147.53    9.29
   4 -10   3    0.46    4.51
   4 -10   4  105.88    5.32
   4 -10   5  224.77    5.63
   4 -10   6  147.50    5.03
   4 -10   7    5.06    4.55
   4  -9   1   31.97    6.97
   4  -9   1   37.53    6.58
   4  -9   1   37.23    5.11
   4  -9   2  225.46    9.40
   4  -9   2  239.14    5.77
   4  -9   2  192.32    8.40
   4  -9   3  230.82    5.96
   4  -9   4   19.50    5.07
  -4   9  -4   -4.11    4.68
  -4   9  -5   -0.36    5.22
  -4   9  -5    3.89    4.76
   4  -9   5   14.41    5.15
  -4   9  -6   18.79    4.94
   4  -9   6    9.62    5.33
  -4   9  -6   27.11    5.33
  -4   9  -7    1.31    4.73
   4  -9   7    4.53    5.09
  -4   9  -8   15.46    4.31
  -4   9  -8    8.88    4.82
   4  -9   8    2.82    4.86
   4  -9   9   84.15    4.76
  -4   9  -9   61.19    4.28
  -4   9  -9   68.97    5.08
   4  -8   1   98.05    7.46
   4  -8   1   91.33    5.32
   4  -8   2   60.18    8.86
   4  -8   2   47.41    5.23
  -4   8  -2   66.11    5.09
   4  -8   2   56.24    7.63
  -4   8  -3  121.40    5.61
   4  -8   3  118.36    5.22
  -4   8  -3  127.32    4.13
  -4   8  -4  158.75    5.37
  -4   8  -4  165.36    5.75
   4  -8   4  138.49    5.30
  -4   8  -5   30.54    4.91
   4  -8   5   24.87    5.36
  -4   8  -5   24.89    5.30
  -4   8  -6   98.95    5.42
  -4   8  -6   88.72    5.14
   4  -8   6   91.08    5.57
  -4   8  -7  635.96    7.58
   4  -8   7  617.54    8.01
  -4   8  -8  387.02    6.38
   4  -8   8  366.21    6.87
   4  -8   9   13.33    5.47
  -4   8  -9    3.63    4.39
  -4   8  -9    1.62    5.13
  -4   8 -10   20.96    4.09
   4  -8  10    4.93    5.24
  -4   8 -10   30.35    5.19
   4  -7   1  845.60    7.77
  -4   7  -1  795.49    8.80
  -4   7  -1  888.38   12.42
  -4   7  -1  827.82    6.51
   4  -7   1  858.26   10.93
   4  -7   2  569.07    7.02
  -4   7  -2  571.99    5.70
  -4   7  -2  545.13    8.09
   4  -7   2  535.64   10.65
  -4   7  -3   75.27    6.23
   4  -7   3   63.98    4.19
  -4   7  -3   46.32    5.55
  -4   7  -4  110.19    6.33
  -4   7  -4   97.13    5.49
   4  -7   4   99.72    5.67
  -4   7  -5  440.41    7.36
  -4   7  -5  487.28    6.97
   4  -7   5  473.09    6.61
  -4   7  -6  167.19    5.97
   4  -7   6  165.60    5.92
  -4   7  -6  169.56    6.45
  -4   7  -7   34.03    5.22
   4  -7   7   26.80    5.81
  -4   7  -7   24.44    5.50
   4  -7   8   35.44    5.56
  -4   7  -8   73.29    4.68
   4  -7   9   26.35    5.54
  -4   7  -9   21.93    3.70
  -4   7 -10   -0.55    3.44
   4  -7  10   12.37    5.40
  -4   7 -10   19.26    6.04
  -4   7 -11   50.16    4.12
  -4   7 -11   54.15    5.92
   4  -7  11   54.14    5.72
  -4   6  -1   22.20    7.33
  -4   6  -1   18.11    3.99
  -4   6  -1   32.42    6.87
   4  -6   1   26.78    7.70
   4  -6   1   38.39    5.94
  -4   6  -2   60.04    5.77
  -4   6  -2   71.91    6.53
   4  -6   2   73.20    6.18
  -4   6  -2   62.77    8.26
   4  -6   2   54.30    7.96
  -4   6  -3  357.96    7.51
   4  -6   3  364.98    7.02
  -4   6  -3  337.20    6.74
   4  -6   4  837.48    8.57
  -4   6  -4  832.20    8.63
  -4   6  -4  809.81    9.00
  -4   6  -5  428.07    7.38
  -4   6  -5  464.31    7.61
   4  -6   5  443.59    7.38
  -4   6  -6  395.64    7.06
  -4   6  -6  366.18    6.94
   4  -6   6  349.10    7.04
  -4   6  -7   30.96    5.49
  -4   6  -7   27.88    6.48
   4  -6   7   41.52    5.80
  -4   6  -8  231.96    6.16
   4  -6   8  253.57    6.15
  -4   6  -8  234.73    6.67
  -4   6  -9  218.70    5.42
   4  -6   9  226.51    6.37
  -4   6 -10   88.05    4.89
   4  -6  10   86.56    5.90
  -4   6 -11    4.12    4.35
   4  -6  11   10.14    5.51
  -4   6 -11   13.57    5.96
  -4   6 -12   69.37    4.63
   4  -6  12   54.33    4.94
  -4   6 -12   69.07    6.38
  -4   5  -1    4.34    3.78
  -4   5  -1    3.19    5.89
   4  -5   1   11.66    7.55
  -4   5  -1   10.22    6.84
   4  -5   1   -8.67    5.74
  -4   5  -2  851.87   10.01
   4  -5   2  848.32    8.30
  -4   5  -2  823.55   12.67
  -4   5  -2  804.53    7.80
   4  -5   2  756.78   10.74
  -4   5  -3 1493.62   12.43
  -4   5  -3 1393.62    9.88
   4  -5   3 1473.38    9.54
  -4   5  -4  651.39    7.56
  -4   5  -4  649.32    8.70
   4  -5   4  672.34    7.72
  -4   5  -5   37.67    4.93
  -4   5  -5   22.40    6.67
   4  -5   5   33.57    6.78
  -4   5  -6  368.08    7.04
  -4   5  -6  375.39    7.80
   4  -5   6  381.17    7.33
  -4   5  -7   64.30    5.95
  -4   5  -7  106.00    6.78
   4  -5   7  117.15    6.21
   4  -5   8   -0.85    6.36
  -4   5  -8    8.45    3.88
  -4   5  -8   19.30    7.13
  -4   5  -9   -1.73    5.18
   4  -5   9   12.59    6.01
  -4   5  -9    2.02    7.02
  -4   5 -10   35.97    4.82
   4  -5  10   10.55    5.38
  -4   5 -10    5.83    4.83
  -4   5 -11   67.78    4.80
   4  -5  11   34.51    5.70
  -4   5 -12   31.96    4.37
   4  -5  12   28.26    5.73
  -4   5 -13   53.99    5.87
  -4   5 -13   43.47    4.28
   4  -5  13   40.67    4.78
   4  -4   1 1267.16    9.25
  -4   4  -1 1261.85   12.79
  -4   4  -1 1240.88    8.95
   4  -4   1 1232.73   11.58
  -4   4  -1 1221.42   12.69
  -4   4  -2   93.25    5.64
   4  -4   2   98.09    6.05
  -4   4  -2   97.50    8.02
   4  -4   2   94.83    7.59
  -4   4  -2  100.32    7.44
   4  -4   3  475.14   13.77
  -4   4  -3  445.94    6.81
  -4   4  -3  484.24   13.65
   4  -4   3  479.84    7.21
  -4   4  -3  489.56    8.22
  -4   4  -4  954.53    9.73
   4  -4   4  975.30    7.86
  -4   4  -4  922.88    9.04
   4  -4   5  117.60    6.80
  -4   4  -5  138.11    5.10
  -4   4  -5  127.65    6.20
   4  -4   6  101.23    5.10
  -4   4  -6  113.02    5.28
  -4   4  -6  107.44    6.07
   4  -4   7  278.89    7.43
  -4   4  -7  286.80    8.09
  -4   4  -7  297.23    5.16
  -4   4  -8  140.03    5.30
   4  -4   8  139.34    7.10
  -4   4  -8  155.65    7.49
  -4   4  -9   -4.86    5.07
  -4   4  -9    5.62    5.27
   4  -4   9   -2.49    5.93
  -4   4 -10  170.19    5.32
  -4   4 -10  171.21   11.65
  -4   4 -10  170.58    7.88
   4  -4  10  168.19    6.62
  -4   4 -10  159.88   13.55
  -4   4 -11  477.55    8.51
   4  -4  11  534.64    7.45
  -4   4 -11  534.84    5.69
  -4   4 -11  449.69   12.50
  -4   4 -12   15.97    4.16
  -4   4 -12    8.63    6.47
   4  -4  12    4.31    5.70
  -4   4 -12    3.90    8.07
  -4   4 -13   59.16    4.41
   4  -4  13   75.56    5.36
  -4   4 -13   47.96    7.78
  -4   4 -14   71.98    3.26
   4  -4  14   85.67    4.53
  -4   4 -14   80.27    7.50
  -4   3  -1   52.71    6.55
   4  -3   1   55.41    6.82
   4  -3   1   55.07    6.53
  -4   3  -1   61.91    8.43
   4  -3   2   42.81    7.13
  -4   3  -2   37.73    6.72
  -4   3  -2   54.49    9.94
   4  -3   2   40.58    7.88
   4  -3   3  117.82    9.79
   4  -3   3  112.89    7.16
  -4   3  -3  108.62   11.34
  -4   3  -3  104.77    6.76
  -4   3  -4   39.48   11.57
  -4   3  -4   34.55   14.86
   4  -3   4   37.86    4.75
  -4   3  -4   38.29    6.04
  -4   3  -4   31.77    6.83
  -4   3  -5  812.51    9.20
   4  -3   5  807.04    8.80
  -4   3  -5  814.00    9.11
  -4   3  -6   39.67    7.37
  -4   3  -6   54.29    5.70
   4  -3   6   34.21    6.41
  -4   3  -7  240.04    6.35
   4  -3   7  242.06    7.43
  -4   3  -7  244.74    7.79
  -4   3  -7  207.56   14.72
  -4   3  -7  248.12   12.57
  -4   3  -8  977.72   13.91
   4  -3   8  962.86    9.48
  -4   3  -8 1003.74    9.18
  -4   3  -8  985.12   11.07
  -4   3  -8  816.15   15.36
   4  -3   9  645.06    8.42
  -4   3  -9  723.15   10.03
  -4   3  -9  617.86   12.75
  -4   3  -9  728.73    7.66
  -4   3 -10  113.87    3.90
   4  -3  10  123.71    6.50
  -4   3 -10  104.81    7.53
  -4   3 -10   89.78    9.33
  -4   3 -11    1.05    4.51
   4  -3  11    9.07    6.06
  -4   3 -11   26.79    6.90
  -4   3 -11    0.11    7.31
  -4   3 -12  104.57    4.61
   4  -3  12   90.34    5.61
  -4   3 -12  114.52    7.02
  -4   3 -12  135.16    7.62
   4  -3  13   30.84    5.58
  -4   3 -13   20.04    6.53
   4  -3  13   55.86    5.66
  -4   3 -13   34.28    7.02
  -4   3 -13   33.51    3.21
  -4   3 -14   26.55    3.83
   4  -3  14   23.78    4.83
  -4   3 -14   22.77    5.97
   4  -3  14   18.28    5.18
  -4   3 -14   15.34    6.75
   4  -2   1 1714.93   12.76
  -4   2  -1 1636.07   11.92
   4  -2   1 1657.80   12.94
   4  -2   2 3198.00   17.72
  -4   2  -2 3170.98   22.65
  -4   2  -2 2947.17   15.62
   4  -2   2 3140.85   20.32
  -4   2  -3 1373.64   10.14
   4  -2   3 1494.43   12.05
   4  -2   3 1542.80   16.03
  -4   2  -3 1454.11   16.12
  -4   2  -4    4.68    5.49
  -4   2  -4    4.09    7.85
   4  -2   4   10.54    7.76
  -4   2  -4    4.81    8.73
   4  -2   5  539.99    6.67
  -4   2  -5  484.94    8.28
  -4   2  -5  564.52   10.56
  -4   2  -5  534.87   10.92
  -4   2  -6 1176.08   14.09
   4  -2   6 1101.47    9.95
  -4   2  -6 1097.35   10.32
  -4   2  -6 1124.77   14.28
  -4   2  -6 1148.62   10.01
   4  -2   7 1157.73    8.86
  -4   2  -7 1320.80   11.48
  -4   2  -7 1206.56   13.95
  -4   2  -7 1261.96   10.28
  -4   2  -7 1187.64   13.11
   4  -2   8  531.47    8.33
  -4   2  -8  611.61    9.21
  -4   2  -8  552.81    9.66
  -4   2  -8  544.35    7.52
   4  -2   9  109.47    7.44
  -4   2  -9  136.57    8.06
  -4   2  -9  126.49    7.50
  -4   2  -9  116.82    4.10
   4  -2  10   63.91    6.54
   4  -2  10   85.26    6.28
  -4   2 -10   43.55    7.22
  -4   2 -10   59.14    6.73
  -4   2 -10   72.62    5.16
   4  -2  11   55.29    6.11
   4  -2  11   66.51    6.20
  -4   2 -11   54.80    6.75
  -4   2 -11   57.20    7.55
  -4   2 -11   50.81    4.90
  -4   2 -12  289.97    5.25
   4  -2  12  311.66    7.27
   4  -2  12  314.84    6.93
  -4   2 -12  354.06    7.67
  -4   2 -12  356.25    9.00
  -4   2 -13  158.84    4.99
   4  -2  13  127.72    5.82
   4  -2  13  156.29    5.91
  -4   2 -13  188.42    6.46
  -4   2 -13  190.82    6.89
   4  -2  14   20.03    4.87
  -4   2 -14   31.27    5.89
   4  -2  14   23.63    5.20
  -4   2 -14   18.79    6.93
  -4   2 -14   59.19    4.38
  -4   2 -15    7.27    5.49
  -4   2 -15    8.44    4.03
   4  -1   1 1164.74   10.00
  -4   1  -1 1094.77   11.37
   4  -1   1 1172.88   11.47
  -4   1  -2   41.83    9.28
   4  -1   2    5.90    8.16
   4  -1   2    7.44    9.59
   4  -1   3  243.04    9.18
  -4   1  -3  226.92    7.39
   4  -1   3  215.38   10.24
  -4   1  -3  211.93    8.77
  -4   1  -4  338.75    7.37
   4  -1   4  367.39    9.41
  -4   1  -4  357.68    9.05
   4  -1   5  707.13    9.83
  -4   1  -5  796.18   11.48
  -4   1  -5  814.05   11.45
  -4   1  -5  746.38    8.21
   4  -1   6 1223.24   10.31
  -4   1  -6 1245.63   13.71
  -4   1  -6 1319.49    9.65
  -4   1  -6 1244.45   12.32
   4  -1   7  513.22    8.05
  -4   1  -7  555.83    8.63
  -4   1  -7  591.93    8.68
   4  -1   8   47.71    7.13
  -4   1  -8   33.02    5.92
  -4   1  -8   45.90    7.62
  -4   1  -8   35.33    4.18
   4  -1   9  411.37    7.57
   4  -1   9  428.55    7.79
  -4   1  -9  440.07    7.94
  -4   1  -9  454.97    8.19
  -4   1  -9  415.71    5.59
  -4   1 -10  832.26    7.58
   4  -1  10  771.36    9.12
   4  -1  10  768.90    7.43
  -4   1 -10  866.40   10.41
  -4   1 -10  868.27    9.95
   4  -1  11  261.81    6.45
   4  -1  11  304.40    6.73
  -4   1 -11  312.95    7.85
  -4   1 -11  330.04    7.63
  -4   1 -11  280.02    5.75
   4  -1  12  107.21    5.51
   4  -1  12   97.12    5.96
  -4   1 -12  146.15    6.33
  -4   1 -12  128.18    6.27
  -4   1 -12  123.17    4.01
  -4   1 -13   -9.35    4.57
   4  -1  13   -3.92    4.70
   4  -1  13   -2.75    3.92
  -4   1 -13   -9.66    5.66
  -4   1 -13   34.19    5.25
  -4   1 -14   -5.85    4.49
   4  -1  14    6.30    4.24
   4  -1  14   18.00    5.26
  -4   1 -14   19.91    5.03
  -4   1 -14   16.23    5.79
   4  -1  15    5.25    4.55
  -4   1 -15    2.85    3.74
   4  -1  15   21.95    5.04
  -4   1 -15   20.59    5.49
  -4   1 -15   15.83    5.67
   4   0   0 2219.78   15.54
  -4   0   0 2167.10   15.11
  -4   0   0 1900.25   12.84
   4   0   0 2252.62   15.08
  -4   0  -1 4287.84   22.76
   4   0   1 4401.57   22.79
  -4   0  -1 3950.29   21.81
   4   0   1 3955.82   22.06
   4   0   2   54.76    9.12
  -4   0  -2   70.90    9.80
   4   0   2   65.43   10.32
  -4   0  -2   46.14    8.94
   4   0   3 6715.46   39.62
  -4   0  -3 6005.26   28.94
   4   0   3 6103.31   29.71
   4   0   4 9161.12   42.02
  -4   0  -4 9631.29   43.70
   4   0   5 2220.54   13.69
  -4   0  -5 2656.01   20.79
  -4   0  -5 2692.75   16.40
   4   0   6  112.65    5.69
  -4   0  -6  146.47    6.57
  -4   0  -6  127.07    5.78
   4   0   7  597.75    8.46
  -4   0  -7  649.31    8.72
  -4   0  -7  685.77    8.81
   4   0   8  322.13    7.55
  -4   0  -8  335.42    6.92
  -4   0  -8  354.01    6.15
   4   0   9   35.18    5.99
   4   0   9   39.17    7.27
  -4   0  -9   44.99    5.56
  -4   0  -9   47.01    5.27
  -4   0  -9   57.08    6.98
   4   0  10  177.06    6.99
   4   0  10  199.68    6.61
  -4   0 -10  191.52    6.51
  -4   0 -10  183.22    5.71
  -4   0 -10  202.81    5.42
   4   0  11   91.30    5.84
   4   0  11   64.42    6.40
  -4   0 -11   73.05    6.19
  -4   0 -11   95.03    5.25
  -4   0 -11   84.74    4.78
   4   0  12    6.71    4.83
   4   0  12    0.27    5.78
  -4   0 -12   11.33    5.60
  -4   0 -12    9.77    4.85
  -4   0 -12   13.10    5.93
   4   0  13   41.43    4.55
   4   0  13   34.42    5.26
  -4   0 -13   52.43    5.27
  -4   0 -13   40.81    5.97
  -4   0 -13   38.92    4.32
  -4   0 -14  128.61    4.50
   4   0  14  119.13    5.04
   4   0  14  121.19    5.09
  -4   0 -14  135.94    5.90
  -4   0 -14  144.62    5.97
  -4   0 -15   89.48    4.14
   4   0  15   92.67    5.03
   4   0  15  101.73    5.20
  -4   0 -15  125.05    5.89
  -4   0 -15   90.69    5.12
   4   1   0  163.32   10.43
  -4  -1   0  140.35    6.54
  -4  -1   0  164.05    9.20
   4   1   0  190.08    8.86
   4   1   1 3436.80   18.91
  -4  -1  -1 3729.75   21.17
   4   1   1 3672.77   23.39
  -4  -1  -1 3203.05   18.84
   4   1   2 1758.50   14.05
  -4  -1  -2 1741.42   14.85
  -4  -1  -2 1555.85   13.76
   4   1   2 1622.25   15.60
  -4  -1  -3  121.23    9.28
   4   1   3  147.56   11.26
   4   1   3  135.95    6.76
  -4  -1  -3  108.46   10.41
   4   1   4  109.76   10.44
  -4  -1  -4  119.64    8.22
  -4  -1  -4  110.53    6.98
  -4  -1  -5  113.90    6.88
   4   1   5  101.99    9.24
  -4  -1  -5   94.37    6.61
  -4  -1  -5  100.27    6.25
   4   1   6  140.15    8.24
  -4  -1  -6  133.81    6.20
  -4  -1  -6  134.10    7.83
   4   1   7   25.19    4.95
  -4  -1  -7   18.48    5.44
  -4  -1  -7   29.97    7.17
   4   1   8  177.87    7.36
  -4  -1  -8  204.96    6.42
  -4  -1  -8  231.01    7.94
  -4  -1  -9  397.18    6.28
   4   1   9  372.86    6.66
   4   1   9  371.55    7.76
  -4  -1  -9  361.69    6.94
  -4  -1 -10   28.22    4.93
   4   1  10   24.53    5.43
   4   1  10   16.60    6.51
  -4  -1 -10   14.41    5.61
   4   1  11  181.98    5.63
   4   1  11  195.57    6.53
  -4  -1 -11  190.58    6.18
  -4  -1 -11  211.93    4.28
  -4  -1 -11  226.26    7.09
   4   1  12  385.08    6.09
  -4  -1 -12  445.60    7.77
   4   1  12  428.58    6.77
  -4  -1 -12  416.96    7.21
  -4  -1 -12  433.47    6.31
   4   1  13  154.62    5.02
   4   1  13  131.99    5.35
  -4  -1 -13  147.86    6.02
  -4  -1 -13  143.74    6.20
  -4  -1 -13  162.94    4.73
  -4  -1 -14   15.96    4.10
   4   1  14   18.61    4.58
  -4  -1 -14   -5.96    5.32
   4   1  14   18.21    5.03
  -4  -1 -14    6.73    5.37
  -4  -1 -15   19.79    3.25
   4   1  15   45.95    4.01
  -4  -1 -15   25.78    4.70
   4   1  15   32.18    3.40
  -4  -1 -15   30.23    4.91
   4   2   0   44.68   10.46
  -4  -2   0   46.03    7.81
  -4  -2   0   42.19    8.25
   4   2   0   49.90    8.03
   4   2   1  520.31   10.20
   4   2   1  525.07   12.73
  -4  -2  -1  504.29    9.91
  -4  -2  -1  511.40   10.70
   4   2   2 3397.46   18.87
   4   2   2 2898.51   20.74
  -4  -2  -2 3240.46   20.61
  -4  -2  -2 3111.84   17.27
  -4  -2  -3  808.31    8.50
   4   2   3  741.18    9.78
  -4  -2  -3  808.85   10.92
  -4  -2  -4  519.04    8.90
  -4  -2  -4  540.73    8.85
   4   2   4  527.00   10.78
  -4  -2  -4  528.53    7.75
  -4  -2  -5  748.94    9.79
  -4  -2  -5  772.57    8.76
   4   2   5  717.36    8.45
  -4  -2  -5  770.49    9.05
  -4  -2  -6 3441.19   18.50
  -4  -2  -6 3336.87   20.85
   4   2   6 3084.67   16.63
  -4  -2  -7 1466.77   11.04
  -4  -2  -7 1402.71   11.62
   4   2   7 1328.16   10.53
  -4  -2  -8  132.63    7.72
  -4  -2  -8  143.94    5.88
   4   2   8  129.08    7.51
  -4  -2  -9  267.41    7.51
   4   2   9  209.41    6.25
  -4  -2  -9  214.00    6.46
   4   2   9  223.43    5.36
  -4  -2 -10  234.27    5.51
   4   2  10  228.35    5.92
  -4  -2 -10  227.10    6.25
   4   2  10  224.46    6.80
   4   2  11  104.85    5.58
  -4  -2 -11  119.60    6.76
  -4  -2 -11  114.06    4.25
   4   2  11  137.92    6.25
  -4  -2 -11  123.88    5.34
  -4  -2 -12   22.39    6.31
   4   2  12    9.88    3.85
  -4  -2 -12    2.32    4.90
   4   2  12   15.25    5.20
  -4  -2 -12    9.34    4.52
  -4  -2 -13   12.53    4.11
   4   2  13    4.94    4.52
  -4  -2 -13   22.67    4.67
   4   2  13    6.59    3.90
  -4  -2 -13    6.45    4.78
  -4  -2 -14   57.22    5.62
   4   2  14   58.77    3.52
  -4  -2 -14   69.93    5.28
   4   2  14   84.44    5.08
  -4  -2 -14   67.89    4.17
  -4  -2 -15  126.11    4.33
   4   2  15  125.28    4.92
  -4  -2 -15  105.16    5.54
   4   2  15  126.18    5.21
  -4  -2 -15  104.48    5.03
   4   3   0 2109.61   12.91
   4   3   0 2202.62   19.14
  -4  -3   0 2231.32   15.74
  -4  -3   0 2126.95   12.96
   4   3   1   13.21    5.59
   4   3   1    1.54    9.87
  -4  -3  -1    6.19    7.97
  -4  -3  -1    2.25    5.30
   4   3   2  909.89   10.04
   4   3   2  937.54   12.74
  -4  -3  -2  946.27    9.49
  -4  -3  -2  902.17    9.85
  -4  -3  -3  446.94    7.27
  -4  -3  -3  435.72    8.31
   4   3   3  472.42   10.91
  -4  -3  -4    6.62    4.88
  -4  -3  -4   -4.39    5.25
  -4  -3  -4   11.54    6.46
   4   3   4    2.00    8.10
  -4  -3  -5  177.08    6.44
  -4  -3  -5  179.89    7.60
  -4  -3  -5  169.94    6.14
   4   3   5  175.16    7.90
  -4  -3  -6   76.37    6.90
  -4  -3  -6   46.00    5.61
   4   3   6   60.96    7.54
  -4  -3  -7    5.49    5.06
  -4  -3  -7    1.39    5.35
   4   3   7   10.32    7.13
  -4  -3  -8  125.65    5.70
  -4  -3  -8  146.59    6.19
   4   3   8  150.73    7.71
  -4  -3  -9  364.27    5.91
   4   3   9  325.31    5.27
  -4  -3  -9  350.19    6.35
   4   3   9  341.10    6.82
  -4  -3 -10  269.14    7.08
   4   3  10  236.09    5.97
  -4  -3 -10  233.39    6.26
   4   3  10  239.75    5.11
  -4  -3 -11   21.72    6.12
   4   3  11   15.80    3.76
  -4  -3 -11   18.87    4.79
   4   3  11   -1.97    5.39
  -4  -3 -12   10.53    5.64
   4   3  12   24.07    4.60
  -4  -3 -12   27.87    4.79
   4   3  12   24.10    5.81
  -4  -3 -12   29.16    4.90
  -4  -3 -13  245.33    6.17
  -4  -3 -13  236.88    5.35
   4   3  13  209.54    4.47
  -4  -3 -13  259.92    5.98
   4   3  13  226.65    6.07
  -4  -3 -14  387.21    6.34
   4   3  14  317.72    4.80
  -4  -3 -14  369.80    5.42
   4   3  14  349.80    5.98
  -4  -3 -14  376.85    5.61
  -4  -3 -15   28.79    4.03
  -4  -3 -15   37.76    5.23
   4   3  15   50.19    4.79
  -4  -3 -15   24.51    4.45
   4   3  15   22.97    4.46
   4   4   0   61.29    6.34
   4   4   0   47.90    9.94
  -4  -4   0   51.27    8.60
  -4  -4   0   37.17    5.95
  -4  -4  -1  603.01    7.89
   4   4   1  598.86    8.14
   4   4   1  627.73   12.44
  -4  -4  -1  707.30   10.09
  -4  -4  -2    5.57    6.68
  -4  -4  -2   -2.00    7.21
   4   4   2    7.88    8.50
  -4  -4  -3  816.66    8.79
  -4  -4  -3  904.93    9.88
   4   4   3  823.53   10.90
  -4  -4  -4  820.78    9.62
  -4  -4  -4  852.39    7.20
   4   4   4  819.54   10.57
  -4  -4  -4  840.13    8.34
  -4  -4  -5  208.62    4.77
  -4  -4  -5  209.44    7.51
  -4  -4  -5  209.25    6.15
   4   4   5  232.51    8.00
  -4  -4  -6  741.10    8.86
  -4  -4  -6  736.52    7.92
   4   4   6  715.89    9.34
  -4  -4  -7 3424.22   19.14
  -4  -4  -7 3491.10   20.05
   4   4   7 3429.15   19.06
  -4  -4  -8 1503.20   10.19
  -4  -4  -8 1534.59   11.33
   4   4   8 1523.97   11.45
  -4  -4  -9  167.32    6.88
  -4  -4  -9  155.70    5.35
   4   4   9  145.16    6.62
  -4  -4 -10   65.28    6.18
   4   4  10   64.02    5.09
  -4  -4 -10   89.99    5.34
   4   4  10   75.20    5.81
  -4  -4 -11  808.33    8.48
   4   4  11  740.90    7.82
  -4  -4 -11  789.26    8.16
   4   4  11  716.69    6.65
  -4  -4 -12   64.59    5.90
   4   4  12   87.88    4.90
  -4  -4 -12   65.43    5.34
  -4  -4 -12   87.49    3.76
   4   4  12   79.65    5.35
  -4  -4 -13   80.36    4.50
   4   4  13   88.56    5.13
  -4  -4 -13   78.22    3.83
   4   4  13   80.12    3.91
  -4  -4 -13   81.26    4.59
  -4  -4 -14   46.59    4.96
   4   4  14   50.72    4.98
  -4  -4 -14   66.60    4.96
   4   4  14   50.65    5.00
  -4  -4 -14   63.32    4.58
   4   4  15   20.74    4.12
   4   5   0 1344.21   16.12
  -4  -5   0 1298.52    9.78
  -4  -5   0 1528.76   14.53
   4   5   0 1315.97    9.82
  -4  -5  -1 3330.46   21.45
   4   5   1 2948.85   14.87
   4   5   1 3069.05   25.53
  -4  -5  -1 2981.83   15.35
  -4  -5  -2  896.68    8.26
  -4  -5  -2  913.99   10.35
   4   5   2  926.35   11.49
  -4  -5  -3   39.11    7.37
  -4  -5  -3   45.87    4.21
  -4  -5  -3   56.86    5.85
   4   5   3   36.62    7.88
  -4  -5  -4 1153.84    8.94
  -4  -5  -4 1188.78   10.52
  -4  -5  -4 1259.50    9.33
   4   5   4 1165.47   11.14
  -4  -5  -5 2171.07   12.21
  -4  -5  -5 2383.59   15.59
  -4  -5  -5 2393.36   13.60
   4   5   5 2069.69   14.95
  -4  -5  -6  139.51    6.57
  -4  -5  -6  148.68    7.44
  -4  -5  -6  126.86    6.20
   4   5   6  123.36    7.84
  -4  -5  -7   87.56    7.16
  -4  -5  -7   76.77    5.66
   4   5   7   76.51    6.82
  -4  -5  -8  104.54    6.48
  -4  -5  -8   92.06    4.08
   4   5   8   79.14    6.29
  -4  -5  -9   28.07    6.24
  -4  -5  -9   29.46    5.15
   4   5   9   22.93    5.77
  -4  -5 -10  178.79    6.62
  -4  -5 -10  184.80    5.60
   4   5  10  169.51    6.23
  -4  -5 -11  252.52    6.34
  -4  -5 -11  277.49    5.41
   4   5  11  215.84    5.80
  -4  -5 -12  155.77    4.39
   4   5  12  148.94    5.41
  -4  -5 -12  147.73    5.01
   4   5  12  149.83    5.35
  -4  -5 -12  155.81    5.07
  -4  -5 -13  143.15    5.91
   4   5  13  113.31    4.61
  -4  -5 -13  127.02    4.80
   4   5  13  112.01    5.19
  -4  -5 -13  121.20    5.04
  -4  -5 -14   32.96    4.70
   4   5  14    3.17    4.18
  -4  -5 -14   21.49    4.77
   4   5  14   -1.64    4.45
  -4  -5 -14   13.07    4.29
   4   6   0   42.66    6.56
  -4  -6   0    3.20    5.64
  -4  -6   0   28.72    8.21
  -4  -6  -1   -3.50    6.88
   4   6   1   10.69    6.41
  -4  -6  -1  -15.32    5.93
  -4  -6  -2  109.51    5.93
  -4  -6  -2  102.67    7.11
   4   6   2  118.29    6.82
  -4  -6  -3  369.13    6.73
  -4  -6  -3  364.72    8.18
  -4  -6  -3  440.39    6.93
   4   6   3  396.88    7.93
  -4  -6  -4  531.42    7.01
  -4  -6  -4  511.01    8.60
  -4  -6  -4  559.05    7.20
   4   6   4  525.20    8.57
  -4  -6  -5  890.76    8.31
  -4  -6  -5  873.14    9.87
  -4  -6  -5  894.96    7.88
   4   6   5  818.80   10.06
  -4  -6  -6  891.70    8.23
  -4  -6  -6  922.82    8.40
  -4  -6  -6  957.88    8.07
   4   6   6  837.86    9.63
  -4  -6  -7   37.38    4.54
  -4  -6  -7   25.00    5.08
   4   6   7   21.47    4.56
  -4  -6  -8  197.11    6.73
  -4  -6  -8  263.60    5.64
   4   6   8  212.15    5.07
  -4  -6  -9  597.53    7.81
  -4  -6  -9  587.16    6.72
   4   6   9  565.77    6.29
  -4  -6 -10 1013.68    8.99
  -4  -6 -10  967.44    7.64
   4   6  10  944.71    8.61
  -4  -6 -11   76.16    5.73
  -4  -6 -11   85.69    4.76
   4   6  11   50.25    4.91
  -4  -6 -12   68.97    4.10
  -4  -6 -12   56.84    4.52
   4   6  12   56.98    5.04
  -4  -6 -13   70.57    5.58
  -4  -6 -13   62.45    3.58
   4   6  13   45.22    5.07
  -4  -6 -13   76.91    4.72
  -4  -6 -14   76.43    4.02
  -4  -6 -14   58.57    4.94
  -4  -6 -14   54.31    4.25
  -4  -7   0  143.80    8.04
  -4  -7   0  129.16    4.46
  -4  -7  -1  816.40   10.92
  -4  -7  -1  767.16    8.18
  -4  -7  -2 1647.88   11.76
  -4  -7  -2 1698.96   13.34
  -4  -7  -2 1746.39   11.32
  -4  -7  -3 1665.01   13.01
  -4  -7  -3 1729.24   10.60
  -4  -7  -3 1524.85   10.72
  -4  -7  -4  477.36    6.80
  -4  -7  -4  466.49    7.84
  -4  -7  -4  537.50    6.89
   4   7   4  461.78    6.66
  -4  -7  -5  129.80    7.18
  -4  -7  -5  136.34    5.78
  -4  -7  -5  121.39    5.49
   4   7   5  109.00    6.55
  -4  -7  -6  347.37    7.68
  -4  -7  -6  356.53    6.21
  -4  -7  -6  352.60    6.06
   4   7   6  321.25    6.94
  -4  -7  -7  197.03    4.45
  -4  -7  -7  191.20    6.72
  -4  -7  -7  200.83    5.49
   4   7   7  199.42    6.28
  -4  -7  -8   60.25    4.53
  -4  -7  -8   65.96    3.67
   4   7   8   51.58    6.30
  -4  -7  -9   -4.57    5.71
  -4  -7  -9   -1.35    4.55
   4   7   9    1.70    5.45
  -4  -7 -10   19.90    5.30
  -4  -7 -10    6.32    3.36
   4   7  10    3.90    4.02
  -4  -7 -11   12.20    3.95
  -4  -7 -11   -8.29    4.12
   4   7  11   -3.92    4.81
  -4  -7 -12   19.66    5.53
  -4  -7 -12   24.49    4.87
  -4  -7 -13   55.56    3.71
  -4  -7 -13   35.94    4.60
  -4  -7 -13   47.60    4.65
  -4  -8   0  576.87    7.13
  -4  -8   0  615.76    9.75
  -4  -8   0  664.64   10.18
  -4  -8   0  554.60    7.51
  -4  -8  -1  207.71    7.88
  -4  -8  -1  206.05    5.92
  -4  -8  -1  210.74    5.96
  -4  -8  -2    6.39    5.51
  -4  -8  -2    1.54    6.43
  -4  -8  -2    2.74    3.89
  -4  -8  -3   13.98    5.89
  -4  -8  -3   14.71    5.28
  -4  -8  -3   24.71    5.33
  -4  -8  -4   10.04    5.04
  -4  -8  -4    0.32    6.53
  -4  -8  -4   26.07    4.74
  -4  -8  -5   17.58    5.12
  -4  -8  -5    7.61    6.26
  -4  -8  -5   15.10    3.81
  -4  -8  -6  169.05    6.59
  -4  -8  -6  185.20    5.45
  -4  -8  -6  179.87    5.60
  -4  -8  -7  367.57    5.92
  -4  -8  -7  418.10    7.26
  -4  -8  -7  376.48    5.63
  -4  -8  -8  259.17    5.52
  -4  -8  -8  247.09    5.11
  -4  -8  -8  272.36    5.11
  -4  -8  -9    4.84    5.33
  -4  -8  -9    6.38    4.57
  -4  -8 -10  136.17    5.66
  -4  -8 -10  148.39    4.88
  -4  -8 -11  247.07    4.85
  -4  -8 -11  224.07    5.23
  -4  -8 -12   39.40    5.58
  -4  -8 -12   52.46    4.73
  -4  -9   0  191.53    5.25
  -4  -9   0  198.94    7.79
  -4  -9   0  220.43    4.34
  -4  -9   0  219.47    7.11
  -4  -9   0  204.15    5.57
  -4  -9  -1  141.18    6.81
  -4  -9  -1  116.78    4.74
  -4  -9  -1  136.45    3.96
  -4  -9  -1  152.43    5.80
  -4  -9  -1  135.18    5.40
  -4  -9  -2  138.43    5.15
  -4  -9  -2  129.90    6.80
  -4  -9  -2  128.19    4.00
  -4  -9  -3  -10.68    4.89
  -4  -9  -3   -5.00    5.95
  -4  -9  -3    8.53    4.80
  -4  -9  -4  367.70    6.98
  -4  -9  -4  383.71    6.48
  -4  -9  -4  360.61    6.38
  -4  -9  -5  485.47    6.62
  -4  -9  -5  488.54    7.13
  -4  -9  -5  508.68    6.62
  -4  -9  -6   26.04    3.62
  -4  -9  -6    3.21    5.42
  -4  -9  -6   33.96    4.85
  -4  -9  -7  176.35    4.04
  -4  -9  -7  148.25    4.87
  -4  -9  -7  162.75    5.16
  -4  -9  -8  314.71    5.80
  -4  -9  -8  321.72    6.62
  -4  -9  -8  305.82    5.65
  -4  -9  -9  179.98    5.04
  -4  -9  -9  155.92    5.98
  -4  -9  -9  172.97    5.21
  -4  -9 -10   -7.57    5.29
  -4  -9 -10  -17.60    4.47
  -4  -9 -11   36.31    5.12
  -4  -9 -11   49.86    4.05
  -4 -10   0   17.21    6.40
  -4 -10   0   23.22    4.03
  -4 -10   0   15.09    3.47
  -4 -10   0   20.08    6.33
  -4 -10   0   20.04    4.68
  -4 -10  -1   14.46    6.43
  -4 -10  -1   11.70    4.08
  -4 -10  -1   31.80    4.30
  -4 -10  -1   21.01    4.99
  -4 -10  -1    5.23    4.81
  -4 -10  -2  163.34    5.36
  -4 -10  -2  138.33    4.26
  -4 -10  -2  158.77    6.19
  -4 -10  -2  161.93    4.89
  -4 -10  -2  164.13    4.25
  -4 -10  -3   51.97    6.18
  -4 -10  -3   69.48    4.58
  -4 -10  -3   67.95    4.60
  -4 -10  -3   73.48    4.97
  -4 -10  -4   12.32    3.50
  -4 -10  -4    3.41    5.99
  -4 -10  -4    8.99    4.90
  -4 -10  -5   19.97    3.46
  -4 -10  -5   -2.43    5.69
  -4 -10  -5   19.81    4.36
  -4 -10  -6  109.02    4.81
  -4 -10  -6  109.63    5.45
  -4 -10  -6  113.86    3.80
  -4 -10  -7   78.32    4.96
  -4 -10  -7   92.88    5.34
  -4 -10  -7   79.99    4.40
  -4 -10  -8   13.69    3.48
  -4 -10  -8   12.60    5.56
  -4 -10  -8   19.03    4.60
  -4 -10  -9   65.38    3.64
  -4 -10  -9   71.87    5.51
  -4 -10  -9   49.85    3.50
  -4 -10 -10   21.75    4.22
  -4 -10 -10   11.92    5.14
  -4 -10 -10   18.69    4.59
  -4 -11   0   39.62    6.84
  -4 -11   0   28.55    3.15
  -4 -11   0   49.68    4.21
  -4 -11   0   40.92    6.39
  -4 -11   0   39.35    4.80
  -4 -11  -1   70.99    3.72
  -4 -11  -1   55.41    5.39
  -4 -11  -1   62.73    4.45
  -4 -11  -1   84.32    4.43
  -4 -11  -1   75.40    6.09
  -4 -11  -2   68.86    3.72
  -4 -11  -2   92.19    5.72
  -4 -11  -2   91.28    5.17
  -4 -11  -2  102.04    4.80
  -4 -11  -2   93.79    4.42
  -4 -11  -3   10.40    3.67
  -4 -11  -3   20.20    5.46
  -4 -11  -3   33.62    4.46
  -4 -11  -3   43.58    4.42
  -4 -11  -3    9.21    4.60
  -4 -11  -4    7.66    3.75
  -4 -11  -4   11.84    4.06
  -4 -11  -4    2.74    4.64
  -4 -11  -4    7.98    4.91
  -4 -11  -4    0.74    4.09
  -4 -11  -5  157.07    4.70
  -4 -11  -5  138.18    5.77
  -4 -11  -5  137.77    4.69
  -4 -11  -5  125.61    4.49
  -4 -11  -6  226.35    5.21
  -4 -11  -6  243.10    5.55
  -4 -11  -6  256.24    5.23
  -4 -11  -7   60.37    4.44
  -4 -11  -7   79.68    5.03
  -4 -11  -7   96.55    3.39
  -4 -12  -2   54.40    4.11
   5 -11   1   17.01    4.42
   5 -11   1   23.66    6.39
   5 -11   1   16.38    6.95
   5 -11   2   69.40    4.80
   5 -10   1   34.32    7.50
   5 -10   1   24.48    4.32
   5 -10   1   23.79    6.35
   5 -10   2   -4.52    4.28
   5 -10   2    1.14    9.24
   5 -10   2    2.39    9.93
   5 -10   3    1.17    4.83
   5 -10   4    1.43    4.88
   5 -10   5   54.89    5.01
  -5  10  -6  101.41    4.78
   5 -10   6  112.31    4.78
   5  -9   1  117.76    5.11
   5  -9   1  118.37    6.36
   5  -9   2    7.82    4.75
   5  -9   2   -0.16    8.78
   5  -9   2    3.23    7.25
   5  -9   3  477.81    6.78
  -5   9  -3  466.62    6.55
  -5   9  -4  424.09    6.68
  -5   9  -4  454.45    5.42
   5  -9   4  452.78    6.41
  -5   9  -5  120.33    5.41
   5  -9   5  147.58    5.01
  -5   9  -5  135.49    5.01
  -5   9  -6   -5.75    5.06
  -5   9  -6    6.57    5.03
   5  -9   6   -2.06    4.84
  -5   9  -7   74.46    5.07
  -5   9  -7   93.62    4.89
   5  -9   7   84.16    5.20
  -5   9  -8   80.05    4.57
  -5   9  -8   73.07    5.17
   5  -9   8   65.82    5.25
   5  -8   1 1006.12    8.65
  -5   8  -1 1098.92   15.16
   5  -8   1  871.34    9.96
  -5   8  -2  736.70    8.92
   5  -8   2  797.48    6.95
  -5   8  -2  790.00    7.56
   5  -8   2  690.93   10.33
  -5   8  -3   77.49    6.15
   5  -8   3   62.21    4.97
  -5   8  -3   85.59    5.31
  -5   8  -4   19.07    5.46
   5  -8   4    6.30    4.55
  -5   8  -4   11.02    5.04
  -5   8  -5   13.01    4.75
  -5   8  -5    8.83    5.01
   5  -8   5   -0.37    5.31
  -5   8  -6   -4.77    4.85
  -5   8  -6    5.61    5.30
   5  -8   6    8.74    5.17
  -5   8  -7    7.71    4.61
  -5   8  -7    5.10    5.22
   5  -8   7    8.04    4.61
  -5   8  -8   61.30    4.65
  -5   8  -8   86.44    5.57
   5  -8   8   71.54    4.99
   5  -8   9   35.77    5.18
  -5   8  -9   24.34    4.76
  -5   8  -9   42.96    5.61
   5  -8  10    5.37    4.43
  -5   8 -10    6.89    4.59
   5  -7   1   35.39    4.96
  -5   7  -1   49.81    6.30
  -5   7  -1   48.34    5.03
  -5   7  -1   49.70    5.84
   5  -7   1   37.09    5.60
  -5   7  -2  169.94    6.94
   5  -7   2  188.93    5.31
  -5   7  -2  206.59    8.72
  -5   7  -2  171.87    5.61
   5  -7   2  163.19    7.14
  -5   7  -3   68.65    6.41
   5  -7   3   72.50    3.91
  -5   7  -3   70.03    4.90
  -5   7  -4   25.64    5.66
  -5   7  -4   14.09    4.64
   5  -7   4   23.86    5.19
  -5   7  -5  193.46    5.86
   5  -7   5  214.22    5.62
  -5   7  -5  193.26    5.82
  -5   7  -6  431.64    6.68
   5  -7   6  453.59    6.80
  -5   7  -6  478.96    5.80
  -5   7  -7  347.45    6.88
  -5   7  -7  306.05    6.32
   5  -7   7  327.45    6.59
  -5   7  -8    4.90    5.52
   5  -7   8    0.80    4.94
  -5   7  -9   82.24    4.50
  -5   7  -9   61.63    6.30
   5  -7   9   63.49    5.63
  -5   7 -10   29.89    4.71
   5  -7  10   31.01    5.23
  -5   7 -10   31.20    5.71
  -5   7 -11   30.26    4.00
   5  -7  11   17.78    4.55
  -5   6  -1  151.49    7.95
   5  -6   1  159.41    5.70
  -5   6  -1  147.30    6.33
  -5   6  -1  135.34    5.07
   5  -6   1  132.57    7.12
  -5   6  -2  340.83    8.03
  -5   6  -2  354.88    6.05
   5  -6   2  375.06    5.97
  -5   6  -2  372.35    8.87
   5  -6   2  315.67    7.65
  -5   6  -3  352.70    7.64
   5  -6   3  377.04    6.37
  -5   6  -3  354.91    6.07
   5  -6   3  364.16   14.06
  -5   6  -4  236.70    6.51
   5  -6   4  220.66    6.27
  -5   6  -4  227.90    5.62
  -5   6  -5   36.52    5.90
  -5   6  -5   30.07    5.85
   5  -6   5   17.33    6.02
  -5   6  -6   12.81    4.18
  -5   6  -6    7.31    5.80
   5  -6   6   -3.82    5.68
  -5   6  -7   14.31    6.18
   5  -6   7   38.35    5.37
  -5   6  -7   27.51    3.78
  -5   6  -8   51.57    5.30
  -5   6  -8   63.67    5.85
   5  -6   8   72.84    5.53
  -5   6  -9   69.50    4.75
   5  -6   9   53.91    5.88
  -5   6  -9   43.26    6.41
   5  -6  10   23.53    4.98
  -5   6 -10   15.91    4.71
  -5   6 -10   13.35    5.62
  -5   6 -11   -5.19    3.29
   5  -6  11    9.45    4.67
  -5   6 -11    6.95    5.40
  -5   6 -12   41.80    3.90
   5  -6  12   47.99    5.10
   5  -5   1  157.95    4.37
  -5   5  -1  157.88    4.18
  -5   5  -1  148.40    7.79
   5  -5   1  138.28    6.33
  -5   5  -1  140.82    7.19
   5  -5   2   63.01    5.80
  -5   5  -2   69.53    7.28
  -5   5  -2   71.75    5.44
   5  -5   2   55.20    6.85
  -5   5  -2   57.73    6.69
  -5   5  -3   30.66    5.32
  -5   5  -3   37.94    9.49
   5  -5   3   26.49    4.42
  -5   5  -3   13.71    6.32
   5  -5   3   44.49    9.27
  -5   5  -4   86.62    6.26
   5  -5   4   96.50    4.65
  -5   5  -4  107.87    6.31
  -5   5  -5   58.70    6.37
   5  -5   5   38.28    4.61
  -5   5  -5   50.30    5.75
  -5   5  -6  131.13    6.77
   5  -5   6  139.18    6.74
  -5   5  -6  167.42    5.96
  -5   5  -7  790.08    8.68
  -5   5  -7  852.77    9.27
   5  -5   7  873.89    8.58
  -5   5  -8  413.22    6.73
   5  -5   8  427.78    6.85
  -5   5  -8  452.40    7.75
  -5   5  -9   27.26    5.37
   5  -5   9   13.58    5.95
  -5   5  -9   32.38    6.38
  -5   5 -10   54.50    4.87
   5  -5  10   40.13    5.80
  -5   5 -10   53.58    6.61
  -5   5 -11  136.28    4.98
   5  -5  11   97.17    5.88
  -5   5 -11  107.76    7.08
  -5   5 -12   71.63    4.74
  -5   5 -12   27.40    6.01
   5  -5  12   47.72    5.19
  -5   5 -13   -1.21    5.69
  -5   5 -13   -0.81    3.92
   5  -5  13   -3.63    4.90
   5  -4   1 2699.10   13.72
  -5   4  -1 2531.10   19.09
  -5   4  -1 2537.62   12.41
   5  -4   1 2579.21   15.44
  -5   4  -2 1231.71    8.85
   5  -4   2 1321.25    9.28
  -5   4  -2 1215.65   13.67
   5  -4   2 1224.47   10.80
   5  -4   3   33.54    8.34
  -5   4  -3   29.94    5.81
   5  -4   3   51.21    4.34
  -5   4  -3   40.57    8.28
  -5   4  -3   38.70    6.57
  -5   4  -4 1101.03   21.64
  -5   4  -4  989.87    7.76
   5  -4   4 1103.03    9.26
  -5   4  -4 1140.68   10.98
   5  -4   5 1960.03   12.47
  -5   4  -5 1783.41   12.12
  -5   4  -5 1963.55   15.01
   5  -4   6  235.16    6.66
  -5   4  -6  203.17    7.01
  -5   4  -6  242.57    6.93
  -5   4  -7  127.72    5.48
   5  -4   7  129.76    6.72
  -5   4  -7  146.75    4.51
   5  -4   8  242.87    6.43
  -5   4  -8  241.24    7.62
  -5   4  -8  249.84    6.05
  -5   4  -9  310.95    7.94
   5  -4   9  267.31    5.18
  -5   4  -9  261.68    4.78
  -5   4 -10  124.61    5.21
  -5   4 -10  139.31    5.61
   5  -4  10  144.72    4.78
  -5   4 -11  121.94    4.50
  -5   4 -11  122.94    5.08
   5  -4  11  131.72    5.54
  -5   4 -12   95.56    4.66
  -5   4 -12   79.02    6.54
   5  -4  12   80.67    5.75
  -5   4 -13   15.97    3.95
  -5   4 -13   36.93    5.51
   5  -4  13    3.24    4.92
   5  -3   1  542.89    6.73
  -5   3  -1  512.05    5.33
  -5   3  -1  549.60   10.16
   5  -3   1  520.27    7.77
   5  -3   2  894.04    6.96
  -5   3  -2  818.74    7.53
  -5   3  -2  831.52   11.86
   5  -3   2  874.60   10.32
   5  -3   3  545.16    7.32
  -5   3  -3  475.48    6.87
  -5   3  -3  474.77   10.47
   5  -3   3  500.69    8.78
   5  -3   4   99.52    4.86
  -5   3  -4   82.22    9.72
  -5   3  -4   85.32    4.85
  -5   3  -5   20.88    6.84
  -5   3  -5   28.17    9.01
  -5   3  -5   24.37   11.78
   5  -3   5   44.63    6.59
  -5   3  -6   29.19    7.03
  -5   3  -6   43.32   11.96
  -5   3  -6   44.59   14.65
  -5   3  -6   42.03    4.30
   5  -3   6   47.20    6.57
   5  -3   7   -8.94    4.88
  -5   3  -7   12.64    7.36
  -5   3  -7    1.51   14.58
  -5   3  -7    1.98   14.93
  -5   3  -7   -8.08    5.92
   5  -3   8  189.27    6.54
  -5   3  -8  184.43    7.29
  -5   3  -8  191.41   13.80
  -5   3  -8  187.62    5.97
  -5   3  -8  193.47   12.56
  -5   3  -9  686.64   12.79
   5  -3   9  656.29    7.86
  -5   3  -9  695.10    8.82
  -5   3  -9  655.91   14.76
  -5   3  -9  628.97    7.67
   5  -3  10  602.47    7.36
  -5   3 -10  588.74    8.36
  -5   3 -10  592.36   13.05
  -5   3 -10  614.58   11.12
  -5   3 -10  596.72    7.38
   5  -3  11  101.51    6.27
  -5   3 -11   95.18    7.15
  -5   3 -11   81.41    6.40
  -5   3 -11   96.77    9.07
  -5   3 -11  103.18    4.79
  -5   3 -12   37.01    4.12
  -5   3 -12   41.04    6.42
  -5   3 -12   42.05    6.29
   5  -3  12   34.91    5.68
  -5   3 -12   44.79    7.45
  -5   3 -13   84.03    3.37
  -5   3 -13   82.31    6.89
  -5   3 -13   97.49    6.23
   5  -3  13   70.74    5.11
  -5   3 -13   98.77    8.24
  -5   3 -14   63.05    5.94
  -5   3 -14   34.49    3.93
   5  -3  14   37.20    4.94
  -5   3 -14   53.64    6.58
  -5   3 -14   40.29    6.89
   5  -2   1 1577.51    9.61
  -5   2  -1 1516.44   10.04
   5  -2   1 1536.79   10.95
   5  -2   2 2540.02   15.94
   5  -2   2 2791.96   14.74
  -5   2  -2 2526.68   13.67
  -5   2  -2 2493.85   17.82
   5  -2   3 2365.96   17.32
   5  -2   3 2250.33   12.17
  -5   2  -3 2102.12   17.32
  -5   2  -3 2166.44   12.80
  -5   2  -4 2082.90   11.74
   5  -2   4 2198.07   12.87
  -5   2  -4 2026.04   16.43
  -5   2  -5   34.73    6.79
  -5   2  -5   45.39    7.72
  -5   2  -5   41.04    8.16
   5  -2   5   46.42    4.84
  -5   2  -6 1234.56   10.36
  -5   2  -6 1333.22   15.50
  -5   2  -6 1181.21   12.60
   5  -2   6 1207.83    9.80
   5  -2   7  809.87    8.91
  -5   2  -7  809.52    9.33
  -5   2  -7  814.34   11.99
  -5   2  -7  812.08   11.00
  -5   2  -8  461.92    9.48
   5  -2   8  432.25    7.37
  -5   2  -8  495.67    6.64
  -5   2  -8  470.69   10.08
  -5   2  -8  460.37    7.32
  -5   2  -9    4.95    6.65
   5  -2   9   33.80    5.99
  -5   2  -9    9.52    4.93
  -5   2  -9    9.27    7.19
  -5   2  -9   12.36    5.04
  -5   2 -10  213.68    7.25
   5  -2  10  209.22    6.30
  -5   2 -10  215.15    6.93
  -5   2 -10  226.88    8.45
  -5   2 -10  197.92    5.64
  -5   2 -11  156.15    6.72
   5  -2  11  169.26    6.29
  -5   2 -11  152.64    6.25
  -5   2 -11  203.99    8.24
  -5   2 -11  183.40    4.02
   5  -2  12  118.49    6.05
  -5   2 -12  103.34    6.05
  -5   2 -12  127.51    8.11
  -5   2 -12  115.60    4.47
  -5   2 -13   92.23    4.74
   5  -2  13  100.05    5.39
  -5   2 -13   82.25    4.83
  -5   2 -13  106.02    7.35
  -5   2 -14   13.50    4.33
  -5   2 -14    5.14    5.64
   5  -2  14   15.45    4.86
  -5   2 -14   55.32    6.85
   5  -1   1 1290.27   10.20
  -5   1  -1 1206.30    9.43
  -5   1  -1 1170.81   11.02
   5  -1   1 1215.80    8.96
   5  -1   2  124.91    5.41
  -5   1  -2  107.49    5.28
   5  -1   2  118.40    6.58
   5  -1   3 1592.63   12.97
  -5   1  -3 1499.41   11.03
   5  -1   3 1569.80   11.58
  -5   1  -4  299.97    7.83
   5  -1   4  290.75    7.75
  -5   1  -4  269.22    7.74
  -5   1  -5  126.46    6.93
  -5   1  -5  124.00    5.20
  -5   1  -5  126.54    7.16
   5  -1   5  101.24    7.27
   5  -1   6  181.38    7.17
  -5   1  -6  238.59    8.36
  -5   1  -6  241.66    7.47
  -5   1  -6  225.81    5.58
   5  -1   7  481.28    8.08
  -5   1  -7  488.66    9.23
  -5   1  -7  510.36    6.81
  -5   1  -7  467.50    8.24
  -5   1  -8  278.02    7.19
   5  -1   8  281.56    7.03
  -5   1  -8  280.46    6.90
  -5   1  -8  293.74    5.99
  -5   1  -9   75.62    6.53
   5  -1   9   58.30    4.80
  -5   1  -9   60.98    6.47
  -5   1  -9   92.56    7.09
  -5   1  -9   69.35    4.15
   5  -1  10  181.61    4.92
  -5   1 -10  183.35    6.65
  -5   1 -10  196.69    7.15
  -5   1 -10  174.20    4.30
   5  -1  11  256.47    6.76
  -5   1 -11  274.93    7.45
  -5   1 -11  263.59    6.86
  -5   1 -11  253.53    5.42
   5  -1  12   50.72    5.80
  -5   1 -12   47.44    6.20
  -5   1 -12   48.01    5.75
  -5   1 -12   49.45    4.68
   5  -1  13    1.97    5.24
  -5   1 -13   -1.08    4.43
  -5   1 -13   18.54    5.80
  -5   1 -13  -12.16    4.46
  -5   1 -14   57.81    4.20
   5  -1  14   58.84    5.08
  -5   1 -14   74.08    5.60
  -5   1 -14   74.84    6.43
  -5   1 -15   64.97    4.44
   5  -1  15   63.21    5.42
  -5   1 -15   93.52    5.42
  -5   1 -15   80.10    6.52
   5   0   0  685.45    8.83
  -5   0   0  623.49    8.01
  -5   0   0  523.46    7.93
   5   0   0  602.66    7.76
   5   0   1 1186.35    9.13
  -5   0  -1 1003.44    9.64
  -5   0  -1 1058.78    8.43
   5   0   1 1106.59    8.48
   5   0   2  226.16    7.62
  -5   0  -2  209.45    5.59
   5   0   2  211.58    8.09
  -5   0  -2  180.35    7.47
  -5   0  -3   26.15    5.29
   5   0   3   25.07    7.01
   5   0   3   29.15    5.75
  -5   0  -3   28.52    6.25
  -5   0  -4 1945.96   11.66
   5   0   4 1890.11   12.64
   5   0   5 3341.51   16.76
  -5   0  -5 3680.71   27.14
  -5   0  -5 3787.55   18.95
   5   0   6  675.95    8.42
  -5   0  -6  776.21    9.63
  -5   0  -6  749.08    7.06
  -5   0  -7   73.71    6.47
   5   0   7   75.97    5.16
  -5   0  -7   78.33    6.18
  -5   0  -7   84.63    6.90
  -5   0  -8 1072.52   10.88
   5   0   8 1034.36    8.12
  -5   0  -8 1116.99   11.49
  -5   0  -8 1219.45   10.42
   5   0   9  565.79    8.11
  -5   0  -9  643.55    8.68
  -5   0  -9  624.80    6.91
   5   0  10   30.03    4.49
  -5   0 -10   27.22    6.15
  -5   0 -10   55.86    6.51
  -5   0 -10   33.17    5.35
   5   0  11  230.28    6.73
  -5   0 -11  246.84    6.61
  -5   0 -11  250.85    5.50
  -5   0 -11  219.45    5.49
   5   0  12  181.35    6.49
  -5   0 -12  247.75    6.65
  -5   0 -12  266.10    6.44
  -5   0 -12  229.55    5.71
   5   0  13  102.03    5.96
  -5   0 -13  107.84    5.14
  -5   0 -13  129.71    5.73
  -5   0 -13  107.02    6.15
   5   0  14   52.38    5.37
  -5   0 -14   45.59    5.86
  -5   0 -14   50.29    5.77
  -5   0 -14   53.55    4.26
  -5   0 -15   20.72    3.76
   5   0  15    5.81    4.94
  -5   0 -15   46.95    5.80
  -5   0 -15   32.25    5.33
   5   1   0  103.90    7.62
  -5  -1   0   91.51    6.72
  -5  -1   0   83.02    6.35
   5   1   0   85.50    6.51
   5   1   1   62.94    4.80
  -5  -1  -1   56.43    7.21
   5   1   1   34.96    8.43
  -5  -1  -1   77.64    6.37
   5   1   2 2291.53   14.30
  -5  -1  -2 2309.35   14.49
  -5  -1  -2 2161.78   12.78
   5   1   2 2427.80   16.03
   5   1   3  692.37    9.68
   5   1   3  710.46    9.01
  -5  -1  -3  689.87    8.82
  -5  -1  -3  678.18    8.89
   5   1   4  419.98    8.70
  -5  -1  -4  433.44    7.88
  -5  -1  -4  397.90    7.91
  -5  -1  -5 1074.66    8.94
   5   1   5  896.64    9.84
  -5  -1  -5 1005.27   10.11
  -5  -1  -5 1071.37    9.73
   5   1   6  814.41    8.98
  -5  -1  -6  916.75    9.64
  -5  -1  -6  890.17    9.18
  -5  -1  -6  963.58    8.88
   5   1   7  333.46    5.82
  -5  -1  -7  416.56    7.39
  -5  -1  -7  376.77    7.35
  -5  -1  -7  393.69    7.37
  -5  -1  -8   71.67    6.45
   5   1   8   53.41    7.29
  -5  -1  -8   73.37    4.52
  -5  -1  -8   80.79    6.83
   5   1   9   -5.25    6.74
  -5  -1  -9    5.78    5.51
  -5  -1  -9   49.60    6.86
   5   1  10   92.60    6.49
  -5  -1 -10   89.81    5.92
  -5  -1 -10  108.93    6.33
   5   1  11   70.52    6.35
  -5  -1 -11   67.77    5.15
  -5  -1 -11   38.60    4.19
  -5  -1 -11   58.36    6.31
   5   1  12   94.59    5.58
  -5  -1 -12   91.71    5.16
  -5  -1 -12   85.75    5.97
  -5  -1 -12   94.45    5.34
   5   1  13   95.47    4.36
  -5  -1 -13  116.17    5.43
  -5  -1 -13  117.88    5.62
  -5  -1 -13  132.39    5.24
   5   1  14   47.69    5.33
  -5  -1 -14   20.06    4.87
  -5  -1 -14   56.79    4.54
  -5  -1 -14   51.66    5.06
  -5  -1 -15   29.58    4.81
   5   1  15   37.47    4.65
  -5  -1 -15   42.69    3.95
  -5  -1 -15   36.04    4.41
  -5  -2   0  464.95    7.35
   5   2   0  526.79   10.21
  -5  -2   0  472.53    8.13
   5   2   0  479.56    5.93
   5   2   1  560.73    7.97
   5   2   1  556.98   10.46
  -5  -2  -1  547.42    8.57
  -5  -2  -1  528.58    6.29
   5   2   2  283.38    7.47
   5   2   2  328.50    9.66
  -5  -2  -2  332.85    8.20
  -5  -2  -2  312.92    7.36
   5   2   3  404.05    7.30
   5   2   3  441.82    9.65
  -5  -2  -3  450.32    8.35
  -5  -2  -3  409.77    7.35
  -5  -2  -4   12.92    6.44
   5   2   4   14.75    8.16
  -5  -2  -4   29.30    4.85
  -5  -2  -5  225.08    6.94
  -5  -2  -5  258.57    6.64
   5   2   5  191.60    7.90
  -5  -2  -5  245.71    5.40
  -5  -2  -6  689.11    8.33
  -5  -2  -6  768.53    8.26
   5   2   6  607.90    9.05
  -5  -2  -6  733.60    7.21
  -5  -2  -7  438.37    7.18
  -5  -2  -7  456.83    7.03
   5   2   7  453.24    8.29
  -5  -2  -7  468.82    6.53
  -5  -2  -8    9.96    6.44
  -5  -2  -8    5.40    6.04
   5   2   8    6.58    5.20
  -5  -2  -8   15.65    5.23
  -5  -2  -9  599.26    7.99
   5   2   9  585.21    8.14
  -5  -2  -9  596.87    8.07
  -5  -2 -10 1073.86    9.66
   5   2  10 1014.24    8.81
  -5  -2 -10 1106.96    8.42
  -5  -2 -11  667.61    7.36
   5   2  11  606.40    7.58
  -5  -2 -11  709.80    8.10
  -5  -2 -12   46.36    5.31
   5   2  12   44.35    4.44
  -5  -2 -12   30.51    4.81
  -5  -2 -12   47.39    6.23
  -5  -2 -13   54.03    4.86
   5   2  13   31.32    5.83
  -5  -2 -13   44.82    4.96
  -5  -2 -13   74.80    6.39
  -5  -2 -14  236.42    5.63
   5   2  14  188.27    5.67
  -5  -2 -14  207.63    5.13
  -5  -2 -14  264.67    6.20
  -5  -2 -15   81.11    5.48
   5   2  15   85.71    4.80
  -5  -2 -15  102.67    4.19
  -5  -2 -15   70.29    3.61
   5   3   0  921.82    7.28
  -5  -3   0  982.48   10.25
   5   3   0  931.40   13.12
  -5  -3   0  888.34    7.04
  -5  -3  -1  219.63    5.04
   5   3   1  231.68    6.70
   5   3   1  230.34   10.25
  -5  -3  -1  238.29    8.02
   5   3   2  673.81    8.06
   5   3   2  634.90    8.54
  -5  -3  -2  688.39    8.99
  -5  -3  -2  546.55    7.57
   5   3   3 3523.96   21.18
  -5  -3  -3 3486.35   19.87
  -5  -3  -3 3185.74   16.56
  -5  -3  -4 1143.37    8.41
   5   3   4 1120.32   11.71
  -5  -3  -4 1061.70   10.17
  -5  -3  -5   56.79    5.65
   5   3   5   19.36    5.89
  -5  -3  -5   47.02    4.29
  -5  -3  -5   49.37    6.67
  -5  -3  -6  389.46    7.78
  -5  -3  -6  391.05    6.89
   5   3   6  340.31    6.50
  -5  -3  -6  382.74    7.17
  -5  -3  -7 1602.69   10.33
  -5  -3  -7 1463.60   10.23
  -5  -3  -7 1600.86   11.35
   5   3   7 1503.33   10.34
  -5  -3  -8  607.40    8.19
  -5  -3  -8  587.21    8.01
  -5  -3  -8  623.07    6.66
   5   3   8  596.64    6.79
  -5  -3  -9  195.98    6.63
  -5  -3  -9  165.80    6.06
   5   3   9  149.04    5.01
  -5  -3 -10  139.11    6.45
  -5  -3 -10  149.03    5.71
   5   3  10  110.85    4.89
  -5  -3 -11   33.43    5.63
  -5  -3 -11   29.35    4.82
   5   3  11   48.72    4.15
  -5  -3 -12   18.91    4.16
  -5  -3 -12   13.02    5.17
   5   3  12    4.05    3.74
  -5  -3 -13    5.10    4.09
  -5  -3 -13   22.04    5.02
   5   3  13   22.49    4.91
  -5  -3 -13   17.61    3.68
  -5  -3 -14  249.75    4.82
  -5  -3 -14  250.04    5.99
   5   3  14  212.97    5.11
  -5  -3 -14  214.34    5.58
  -5  -3 -15   28.79    4.37
   5   3  15   55.51    4.39
  -5  -3 -15   14.43    4.01
  -5  -3 -15   34.28    5.32
   5   4   0  554.30    7.36
  -5  -4   0  559.43    8.89
   5   4   0  507.87   10.87
  -5  -4   0  531.92    5.72
   5   4   1 2769.27   13.98
   5   4   1 2613.50   19.91
  -5  -4  -1 2811.43   17.75
  -5  -4  -1 2646.50   12.76
   5   4   2  644.39    6.24
   5   4   2  679.38   10.87
  -5  -4  -2  729.43    9.10
  -5  -4  -2  668.42    7.41
   5   4   3  134.07    8.75
  -5  -4  -3  132.98    7.13
  -5  -4  -3  151.66    5.95
   5   4   4  175.02    8.55
  -5  -4  -4  162.86    6.38
  -5  -4  -4  201.38    7.19
  -5  -4  -5   96.07    6.95
  -5  -4  -5   86.02    5.97
  -5  -4  -5   85.36    5.98
   5   4   5   92.61    8.08
  -5  -4  -6   -5.89    5.89
  -5  -4  -6   25.42    6.73
  -5  -4  -6    3.35    5.54
   5   4   6   40.31    7.90
  -5  -4  -7  226.36    6.20
  -5  -4  -7  224.62    5.59
  -5  -4  -7  237.70    4.74
   5   4   7  227.30    7.60
  -5  -4  -8 1420.43   10.45
  -5  -4  -8 1492.28   11.28
  -5  -4  -8 1477.20   11.15
   5   4   8 1463.47   11.15
  -5  -4  -9  562.45    6.33
  -5  -4  -9  540.14    7.15
   5   4   9  431.70    7.49
  -5  -4 -10   -7.10    6.05
  -5  -4 -10   11.80    3.73
   5   4  10    7.39    4.24
  -5  -4 -11  431.30    5.53
  -5  -4 -11  413.91    6.62
   5   4  11  388.64    6.58
  -5  -4 -12  485.11    6.68
  -5  -4 -12  489.88    6.89
   5   4  12  455.14    5.41
  -5  -4 -13  319.03    6.09
  -5  -4 -13  321.50    6.27
  -5  -4 -13  311.99    5.75
   5   4  13  302.91    5.97
  -5  -4 -14   30.23    4.08
  -5  -4 -14   31.37    3.46
   5   4  14   28.26    4.51
  -5  -4 -14    7.67    4.23
   5   5   0  141.64    4.82
  -5  -5   0  144.88    6.09
  -5  -5   0  150.10    8.33
   5   5   0  160.12    9.59
   5   5   1  247.22    6.80
   5   5   1  241.53    8.77
  -5  -5  -1  244.99    7.57
  -5  -5  -1  222.28    6.16
   5   5   2  414.79    9.31
  -5  -5  -2  466.64    8.21
  -5  -5  -2  425.27    5.58
  -5  -5  -3   22.67    4.50
  -5  -5  -3   24.08    6.76
   5   5   3   42.63    8.04
  -5  -5  -4  392.79    6.99
  -5  -5  -4  375.79    7.56
  -5  -5  -4  385.76    6.94
   5   5   4  385.17    8.47
  -5  -5  -5 1753.11   11.01
  -5  -5  -5 1901.87   13.73
  -5  -5  -5 1904.22   11.76
   5   5   5 1808.79   14.12
  -5  -5  -6 1991.04   13.96
  -5  -5  -6 2131.75   12.68
  -5  -5  -6 2063.48   12.23
   5   5   6 2013.04   13.47
  -5  -5  -7  322.92    5.04
  -5  -5  -7  363.62    7.37
  -5  -5  -7  326.62    5.97
   5   5   7  276.25    7.82
  -5  -5  -8   90.36    5.66
  -5  -5  -8  104.05    6.06
  -5  -5  -8   89.77    5.36
   5   5   8   75.21    6.23
  -5  -5  -9  260.88    6.62
  -5  -5  -9  259.20    4.36
   5   5   9  241.39    5.11
  -5  -5 -10  211.07    6.46
  -5  -5 -10  191.61    5.45
   5   5  10  205.48    4.75
  -5  -5 -11   24.37    5.29
  -5  -5 -11   23.43    4.66
   5   5  11   30.86    3.94
  -5  -5 -12   22.63    3.89
  -5  -5 -12   11.93    3.47
   5   5  12   17.86    3.60
  -5  -5 -13   42.22    5.01
  -5  -5 -13   23.58    4.30
   5   5  13   26.38    5.09
  -5  -5 -13   20.71    3.58
  -5  -5 -14    6.36    5.27
  -5  -5 -14    4.56    4.15
   5   5  14   -5.46    4.85
  -5  -5 -14    7.55    4.04
   5   6   0  912.01    8.46
  -5  -6   0  989.04   11.75
   5   6   0  953.93   13.89
  -5  -6   0  941.43    8.39
   5   6   1   17.20    6.73
  -5  -6  -1   31.65    7.78
  -5  -6  -1   -1.75    5.48
   5   6   2   70.30    7.08
  -5  -6  -2   86.29    5.75
  -5  -6  -2   62.15    6.80
  -5  -6  -3  310.22    7.16
  -5  -6  -3  283.98    6.09
   5   6   3  279.16    7.90
  -5  -6  -4  931.95    8.30
  -5  -6  -4  922.16    9.56
  -5  -6  -4  985.10    8.35
   5   6   4  826.19   10.04
  -5  -6  -5  229.37    4.58
  -5  -6  -5  247.25    6.88
  -5  -6  -5  245.21    4.60
   5   6   5  245.61    7.53
  -5  -6  -6   65.68    5.63
  -5  -6  -6   54.02    6.90
  -5  -6  -6   87.06    5.46
   5   6   6   87.38    7.44
  -5  -6  -7  102.57    4.11
  -5  -6  -7   99.95    4.85
  -5  -6  -7  101.57    3.94
   5   6   7  110.87    5.09
  -5  -6  -8    4.72    6.20
  -5  -6  -8    6.68    3.75
  -5  -6  -8    7.46    3.54
   5   6   8    6.99    5.95
  -5  -6  -9   97.83    5.82
  -5  -6  -9   88.27    4.66
   5   6   9   91.36    6.39
  -5  -6  -9   98.49    5.48
  -5  -6 -10  167.14    5.99
  -5  -6 -10  145.93    3.98
   5   6  10  140.03    4.40
  -5  -6 -11   67.04    4.21
  -5  -6 -11  104.81    4.58
   5   6  11   72.35    5.41
  -5  -6 -12   20.51    3.90
  -5  -6 -12   30.12    4.63
   5   6  12   19.43    4.94
  -5  -6 -13  194.14    5.36
  -5  -6 -13  166.23    4.62
   5   6  13  152.59    5.02
  -5  -7   0   26.33    7.84
  -5  -7   0   13.69    3.80
  -5  -7  -1   -4.39    7.17
  -5  -7  -1   -2.42    3.65
  -5  -7  -2   96.05    7.52
   5   7   2   65.75    6.25
  -5  -7  -2   72.24    5.39
  -5  -7  -3  378.21    7.78
  -5  -7  -3  366.14    6.26
   5   7   3  365.62    8.14
  -5  -7  -3  369.56    6.04
  -5  -7  -4  223.63    5.89
  -5  -7  -4  253.44    6.56
  -5  -7  -4  224.42    5.81
   5   7   4  216.82    7.30
  -5  -7  -5    6.20    4.56
  -5  -7  -5   19.93    5.04
  -5  -7  -5   14.22    3.91
   5   7   5  -11.22    6.55
  -5  -7  -6  295.91    4.75
  -5  -7  -6  301.55    7.14
  -5  -7  -6  328.72    5.83
   5   7   6  269.80    7.21
  -5  -7  -7  746.95    7.30
  -5  -7  -7  713.97    7.30
  -5  -7  -7  679.84    7.33
   5   7   7  648.29    8.29
  -5  -7  -8  171.83    4.84
  -5  -7  -8  165.40    3.97
  -5  -7  -8  163.19    5.13
   5   7   8  156.52    4.93
  -5  -7  -9    2.81    4.64
  -5  -7  -9   -0.05    4.39
  -5  -7  -9    0.97    4.25
   5   7   9    8.41    5.59
  -5  -7 -10  124.28    5.25
  -5  -7 -10  116.57    6.09
  -5  -7 -10  146.89    5.00
   5   7  10  112.53    4.60
  -5  -7 -11  181.96    6.11
  -5  -7 -11  152.77    4.61
   5   7  11  153.31    5.48
  -5  -7 -12   54.25    5.53
  -5  -7 -12   35.02    3.50
   5   7  12   34.43    5.51
  -5  -7 -13  -12.86    5.24
  -5  -7 -13    0.89    3.84
   5   7  13   12.52    4.48
  -5  -8   0  325.90    8.82
  -5  -8   0  344.28    8.69
  -5  -8   0  273.35    4.62
  -5  -8  -1  994.15   10.40
  -5  -8  -1  901.06    8.58
  -5  -8  -2  293.86    7.15
  -5  -8  -2  287.80    5.74
  -5  -8  -2  287.37    5.63
  -5  -8  -3   25.06    6.18
  -5  -8  -3   11.96    4.91
  -5  -8  -3    6.09    4.95
  -5  -8  -4  256.15    6.80
  -5  -8  -4  262.05    5.68
  -5  -8  -4  232.13    5.68
  -5  -8  -5  191.17    6.68
  -5  -8  -5  190.86    5.11
  -5  -8  -5  175.69    5.42
   5   8   5  159.24    6.24
  -5  -8  -6  -10.86    4.91
  -5  -8  -6    2.78    6.10
  -5  -8  -6   11.96    4.77
   5   8   6   17.87    5.53
  -5  -8  -7    5.07    5.24
  -5  -8  -7   26.31    4.81
  -5  -8  -7   16.57    3.47
   5   8   7   11.22    5.49
  -5  -8  -8   14.23    4.73
  -5  -8  -8    4.81    5.38
  -5  -8  -8    6.76    4.66
   5   8   8   11.42    5.42
  -5  -8  -9   49.41    4.76
  -5  -8  -9   19.71    4.05
  -5  -8  -9   24.69    4.05
   5   8   9    8.12    5.38
  -5  -8 -10   56.22    4.75
  -5  -8 -10   60.17    5.67
  -5  -8 -10   44.22    3.41
   5   8  10   51.12    4.23
  -5  -8 -11   69.63    4.70
  -5  -8 -11   75.32    5.76
  -5  -8 -11   88.31    4.30
   5   8  11   72.34    4.96
  -5  -8 -12   83.60    5.56
  -5  -8 -12   78.16    4.54
  -5  -9   0   56.00    4.94
  -5  -9   0   63.91    4.95
  -5  -9   0   75.42    6.76
  -5  -9   0   63.82    7.59
  -5  -9  -1   19.73    3.62
  -5  -9  -1   38.33    5.89
  -5  -9  -1   28.05    4.90
  -5  -9  -1   23.89    6.32
  -5  -9  -2  225.64    6.63
  -5  -9  -2  233.57    5.19
  -5  -9  -2  174.97    5.22
  -5  -9  -3   88.51    5.89
  -5  -9  -3   72.00    4.95
  -5  -9  -3   63.52    5.21
  -5  -9  -4   -9.93    5.80
  -5  -9  -4    0.01    4.62
  -5  -9  -4   -4.15    3.47
  -5  -9  -5   33.90    4.61
  -5  -9  -5   47.13    5.33
  -5  -9  -5   45.79    3.64
  -5  -9  -6   10.00    4.83
  -5  -9  -6    5.29    5.23
  -5  -9  -6    1.77    3.51
  -5  -9  -7   88.99    5.11
  -5  -9  -7  117.15    5.86
  -5  -9  -7   81.66    4.68
  -5  -9  -8  149.76    5.02
  -5  -9  -8  164.14    5.79
  -5  -9  -8  209.95    4.97
  -5  -9  -9  479.67    6.20
  -5  -9  -9  490.74    7.11
  -5  -9  -9  495.55    5.82
  -5  -9 -10  186.28    4.53
  -5  -9 -10  219.53    4.76
  -5  -9 -10  192.43    5.20
  -5  -9 -11   23.89    3.45
  -5  -9 -11  -11.81    4.71
  -5  -9 -11   22.90    2.99
  -5 -10   0    8.98    4.34
  -5 -10   0   -4.58    4.97
  -5 -10   0    5.61    7.49
  -5 -10   0   10.36    6.48
  -5 -10   0   -1.81    4.82
  -5 -10  -1   49.18    3.22
  -5 -10  -1   51.93    5.07
  -5 -10  -1   52.87    4.86
  -5 -10  -1   55.71    6.10
  -5 -10  -1   38.77    6.29
  -5 -10  -2  154.67    6.00
  -5 -10  -2  145.49    3.86
  -5 -10  -2  159.17    6.44
  -5 -10  -2  139.34    5.18
  -5 -10  -3  194.90    6.12
  -5 -10  -3  206.01    5.26
  -5 -10  -3  200.07    4.71
  -5 -10  -4   89.86    3.61
  -5 -10  -4   79.37    5.78
  -5 -10  -4   96.55    4.55
  -5 -10  -5    7.03    4.10
  -5 -10  -5   15.17    5.09
  -5 -10  -5    8.43    3.42
  -5 -10  -6  198.57    5.65
  -5 -10  -6  176.93    4.83
  -5 -10  -6  206.56    5.39
  -5 -10  -7  203.81    5.68
  -5 -10  -7  189.36    5.41
  -5 -10  -7  196.72    4.88
  -5 -10  -8   77.44    4.53
  -5 -10  -8   66.59    5.23
  -5 -10  -8   87.14    4.35
  -5 -10  -9   -4.30    5.44
  -5 -10  -9    4.63    4.09
  -5 -11   0  206.69    4.92
  -5 -11   0  236.69    5.04
  -5 -11   0  229.14    9.40
  -5 -11   0  191.98    8.96
  -5 -11   0  202.91    4.87
  -5 -11  -1   94.82    4.40
  -5 -11  -1  114.65    4.38
  -5 -11  -1  109.51    7.11
  -5 -11  -1   90.98    4.40
  -5 -11  -1  102.82    6.09
  -5 -11  -2    1.33    5.12
  -5 -11  -2    5.74    3.99
  -5 -11  -2   21.61    4.49
  -5 -11  -2   13.24    4.05
  -5 -11  -2   15.91    5.10
  -5 -11  -3   43.62    6.01
  -5 -11  -3   33.96    4.02
  -5 -11  -3   46.81    4.54
  -5 -11  -3   72.03    4.81
  -5 -11  -3   35.71    4.06
  -5 -11  -4   51.48    5.38
  -5 -11  -4   54.86    4.65
  -5 -11  -4   49.87    4.23
  -5 -11  -4   55.47    4.16
  -5 -11  -5  134.00    4.76
  -5 -11  -5  131.30    5.45
  -5 -11  -5  132.42    3.83
  -5 -11  -6  178.40    4.41
  -5 -11  -6  167.49    5.82
  -5 -11  -6  194.97    4.97
  -5 -11  -7   61.31    3.99
  -5 -11  -7   62.03    5.48
  -5 -11  -7   50.59    4.13
   6 -10   1  157.59    8.91
   6 -10   1  153.17    4.87
   6 -10   1  128.14    6.45
   6 -10   2   -7.76    4.10
   6 -10   3   91.57    4.42
   6 -10   4  145.10    4.99
   6 -10   5   53.58    4.51
  -6  10  -5   59.61    3.95
   6  -9   1   22.55    4.57
   6  -9   1   -0.24    5.60
   6  -9   2    6.86    9.25
   6  -9   2   12.58    4.33
   6  -9   2    6.95    6.79
  -6   9  -3    5.33    5.28
   6  -9   3   -7.81    4.92
  -6   9  -3   18.88    4.70
  -6   9  -4  107.02    5.42
   6  -9   4  120.84    4.81
  -6   9  -4  113.73    4.03
  -6   9  -5  280.18    5.86
  -6   9  -5  269.44    6.10
   6  -9   5  274.87    5.74
  -6   9  -6   79.32    4.78
  -6   9  -6  104.83    5.28
   6  -9   6  105.40    5.23
  -6   9  -7   19.78    4.74
   6  -9   7   12.50    4.43
  -6   9  -7   24.14    4.58
  -6   8  -1   84.43    4.41
   6  -8   1   80.57    4.63
  -6   8  -1   70.83    7.02
   6  -8   1   65.21    5.83
  -6   8  -2  458.52    7.95
  -6   8  -2  486.16    6.22
   6  -8   2  511.77    6.47
   6  -8   2  444.10    9.04
  -6   8  -3  452.91    6.20
  -6   8  -3  426.00    7.91
   6  -8   3  474.96    5.41
  -6   8  -4    9.13    5.00
   6  -8   4   23.01    4.82
  -6   8  -4   16.43    4.57
  -6   8  -5  218.63    5.55
  -6   8  -5  184.26    5.92
   6  -8   5  201.14    5.80
  -6   8  -6  302.53    6.03
  -6   8  -6  332.99    5.90
   6  -8   6  288.99    6.04
  -6   8  -7   80.56    5.27
  -6   8  -7   80.99    5.16
   6  -8   7   88.42    4.87
  -6   8  -8   10.25    4.41
  -6   8  -8   28.72    4.82
   6  -8   8    6.19    5.06
   6  -8   9   13.29    4.83
  -6   8  -9    1.03    4.10
  -6   8  -9   19.22    5.22
  -6   7  -1  125.97    7.24
   6  -7   1  121.93    5.08
  -6   7  -1  130.44    6.65
  -6   7  -1  128.53    4.89
   6  -7   1  119.78    5.96
  -6   7  -2   23.85    6.18
   6  -7   2   28.52    5.10
  -6   7  -2   14.16    6.99
  -6   7  -2   19.91    3.46
   6  -7   2   18.23    6.18
   6  -7   3    0.04   12.54
  -6   7  -3    1.26    5.22
  -6   7  -3   -5.08    5.56
   6  -7   3    8.77    3.85
  -6   7  -4    4.74    5.48
  -6   7  -4   17.91    5.29
   6  -7   4   15.94    4.77
  -6   7  -5   -9.13    5.75
   6  -7   5   -5.47    3.87
  -6   7  -5    2.26    5.37
  -6   7  -6   17.03    5.21
   6  -7   6    5.50    4.89
  -6   7  -6    5.80    3.92
  -6   7  -7   60.18    5.83
  -6   7  -7   64.22    4.78
   6  -7   7   37.76    5.66
  -6   7  -8   50.98    4.66
  -6   7  -8   12.57    5.40
   6  -7   8   12.67    5.04
   6  -7   9   28.30    4.72
  -6   7  -9   27.45    3.66
  -6   7  -9   33.39    5.22
  -6   7 -10  108.28    4.50
   6  -7  10   92.78    4.85
  -6   7 -10   80.47    5.95
  -6   7 -11   99.84    4.18
   6  -7  11   63.59    5.02
  -6   7 -11   57.49    5.52
  -6   6  -1  316.45    8.42
   6  -6   1  318.15    5.61
  -6   6  -1  327.91    8.05
  -6   6  -1  292.56    5.53
   6  -6   1  306.55    6.22
  -6   6  -2  125.73    5.05
   6  -6   2  116.93    4.15
  -6   6  -2  133.19    7.15
  -6   6  -2  113.83    6.53
   6  -6   2  122.87    6.28
  -6   6  -3  417.07   11.97
   6  -6   3  363.01    6.18
  -6   6  -3  348.05    6.01
   6  -6   3  345.78   10.48
  -6   6  -3  318.48    8.03
   6  -6   4  369.90    6.38
  -6   6  -4  339.44    4.88
  -6   6  -4  334.90    7.24
  -6   6  -5   88.04    4.50
  -6   6  -5   88.35    5.33
   6  -6   5   77.38    4.21
  -6   6  -6   95.89    4.26
  -6   6  -6   92.55    4.31
   6  -6   6  115.02    5.76
  -6   6  -7  498.09    7.27
  -6   6  -7  500.61    7.44
   6  -6   7  512.72    6.64
  -6   6  -8  418.21    6.68
  -6   6  -8  402.42    7.08
   6  -6   8  402.59    6.73
  -6   6  -9  148.67    5.26
   6  -6   9  109.71    5.20
  -6   6  -9  133.13    6.40
  -6   6 -10   30.52    3.50
   6  -6  10   14.55    4.64
  -6   6 -10   22.87    5.28
  -6   6 -11   15.49    3.82
   6  -6  11   -5.79    5.17
  -6   6 -11   26.92    5.36
  -6   6 -12    7.45    3.96
   6  -6  12   25.99    4.94
  -6   6 -12   24.63    5.12
   6  -5   1 1500.42    9.61
  -6   5  -1 1344.20    8.08
  -6   5  -1 1422.36   13.25
  -6   5  -1 1352.66   13.60
   6  -5   1 1411.03   10.66
   6  -5   2  445.41    5.22
  -6   5  -2  446.94    9.28
  -6   5  -2  413.66    6.19
  -6   5  -2  452.74    9.24
   6  -5   2  397.87    7.93
   6  -5   3  163.98    4.34
  -6   5  -3  163.89    8.37
  -6   5  -3  167.86    6.65
  -6   5  -3  145.91    5.71
   6  -5   3  157.20    8.76
  -6   5  -4   53.72    5.44
  -6   5  -4   51.23   12.45
   6  -5   4   48.79    5.32
  -6   5  -4   56.75    5.74
  -6   5  -5   13.49    4.04
   6  -5   5   21.64    5.70
  -6   5  -5   13.05    5.96
  -6   5  -6   19.31    5.69
  -6   5  -6   27.09    5.79
   6  -5   6   -1.27    4.47
  -6   5  -7   25.36    4.28
   6  -5   7   -1.30    5.84
  -6   5  -7   13.02    5.23
  -6   5  -8  153.03    5.76
  -6   5  -8  151.14    6.62
   6  -5   8  166.79    5.85
   6  -5   9   67.54    4.16
  -6   5  -9   61.27    6.48
  -6   5  -9   52.07    5.37
  -6   5 -10   27.24    4.41
   6  -5  10   16.66    5.53
  -6   5 -10   26.38    5.69
  -6   5 -11  120.32    3.92
   6  -5  11  112.36    5.08
  -6   5 -11  115.75    4.93
  -6   5 -12  184.70    4.95
   6  -5  12  187.29    6.10
  -6   5 -12  229.49    6.94
   6  -4   1  153.42    5.80
  -6   4  -1  143.04    7.68
  -6   4  -1  139.89    5.73
   6  -4   1  152.03    5.99
  -6   4  -2  265.23    6.19
   6  -4   2  307.57    5.07
  -6   4  -2  285.48    9.37
   6  -4   2  295.03    7.45
   6  -4   3   10.71    6.58
  -6   4  -3   17.82    3.96
   6  -4   3   11.39    4.18
  -6   4  -3   26.64    8.86
   6  -4   4  159.77    9.68
  -6   4  -4  148.69    5.83
  -6   4  -4  161.97   10.57
   6  -4   4  161.81    6.33
  -6   4  -5 1366.62   25.97
  -6   4  -5 1316.14   24.73
  -6   4  -5 1179.92    8.44
   6  -4   5 1285.34    8.72
  -6   4  -5 1346.19   12.93
  -6   4  -6 1480.05   11.08
   6  -4   6 1462.65   10.62
  -6   4  -6 1567.67   13.47
   6  -4   7  349.77    5.52
  -6   4  -7  353.31    7.33
  -6   4  -7  371.73    6.74
   6  -4   8  117.64    6.08
  -6   4  -8  128.61    5.78
  -6   4  -8  110.29    4.88
   6  -4   9  640.44    7.55
  -6   4  -9  697.44    8.29
  -6   4  -9  701.83    7.59
  -6   4 -10  463.22    7.90
   6  -4  10  430.89    6.41
  -6   4 -10  424.39    6.73
  -6   4 -11   50.67    6.81
   6  -4  11   79.80    5.35
  -6   4 -11   84.52    4.72
  -6   4 -12   15.60    4.20
  -6   4 -12   16.68    6.20
   6  -4  12   13.87    5.32
  -6   4 -13   11.92    4.54
  -6   4 -13    7.47    6.14
   6  -4  13   13.71    5.21
  -6   3  -1    4.97    3.92
   6  -3   1    2.57    5.64
   6  -3   1   10.32    5.43
  -6   3  -2  837.14    7.69
   6  -3   2  893.22    8.03
  -6   3  -2  840.99   11.19
   6  -3   2  852.11    8.78
   6  -3   3 1373.07   11.40
  -6   3  -3 1321.35    9.36
   6  -3   3 1447.66    8.88
  -6   3  -3 1337.13   14.88
   6  -3   4 1495.25   14.75
   6  -3   4 1502.74   10.38
  -6   3  -4 1370.29   15.85
  -6   3  -4 1375.60    8.89
  -6   3  -5  113.54    9.34
  -6   3  -5   97.09   10.76
   6  -3   5  124.96    4.84
  -6   3  -5  121.14    6.62
  -6   3  -6  136.97    9.54
  -6   3  -6  104.12    4.87
  -6   3  -6  107.73   11.76
   6  -3   6  125.19    6.56
  -6   3  -7    7.88    4.69
  -6   3  -7    8.02    9.50
  -6   3  -7    7.85   11.88
  -6   3  -7    9.39    4.17
   6  -3   7    8.62    5.81
   6  -3   8   26.42    6.08
  -6   3  -8   11.52    6.76
  -6   3  -8   -1.35   11.88
  -6   3  -8    1.91   11.44
  -6   3  -8   -9.00    5.48
   6  -3   9    9.77    5.55
  -6   3  -9   26.26    6.45
  -6   3  -9   13.20   12.42
  -6   3  -9   11.63   10.94
  -6   3  -9   15.95    5.68
   6  -3  10   27.34    5.90
  -6   3 -10   -3.90    4.73
  -6   3 -10   15.95   10.20
  -6   3 -10   11.76    9.40
  -6   3 -10    7.61    5.09
   6  -3  11   43.51    5.82
  -6   3 -11   42.36    4.55
  -6   3 -11   54.96   10.63
  -6   3 -11   55.99    4.85
  -6   3 -11   43.38    8.50
  -6   3 -12    6.61    6.12
   6  -3  12   -9.68    5.66
  -6   3 -12    4.81    9.01
  -6   3 -12   14.24    4.38
  -6   3 -12    2.40    7.06
  -6   3 -13  107.52    4.80
  -6   3 -13   93.06    5.55
   6  -3  13   99.01    5.68
  -6   3 -13  101.20    7.45
  -6   3 -13  109.78    8.70
  -6   3 -14   -3.45    4.46
  -6   3 -14  135.28    4.34
  -6   3 -14  115.08    6.00
   6  -3  14   79.19    5.63
  -6   3 -14  114.20    8.32
  -6   2  -1   11.08    5.54
   6  -2   1   13.41    6.08
   6  -2   1   -4.27    5.44
   6  -2   2  458.34    7.27
  -6   2  -2  412.36    6.83
   6  -2   2  423.36    7.29
   6  -2   3  646.58    8.44
   6  -2   3  700.45    6.52
  -6   2  -3  630.68    7.46
  -6   2  -3  607.53    9.63
   6  -2   4  531.82    9.14
   6  -2   4  529.36    7.42
  -6   2  -4  484.23    9.26
  -6   2  -4  502.06    7.32
  -6   2  -5   16.98    6.60
  -6   2  -5   13.09    8.44
   6  -2   5   23.80    4.73
  -6   2  -6  633.05    8.17
  -6   2  -6  738.03   11.56
  -6   2  -6  603.10    9.51
   6  -2   6  644.20    7.91
   6  -2   7  895.97    7.23
  -6   2  -7  983.17    9.20
  -6   2  -7  993.87   13.52
  -6   2  -7  870.31   10.53
   6  -2   8  807.64    8.34
  -6   2  -8  916.84    8.83
  -6   2  -8  892.66   12.84
  -6   2  -8  800.64   10.19
   6  -2   9  109.39    6.26
  -6   2  -9  142.49    6.75
  -6   2  -9  135.48    7.52
  -6   2  -9  150.72    5.74
  -6   2  -9  111.75    7.03
  -6   2 -10   64.12    6.78
   6  -2  10   77.14    6.25
  -6   2 -10   75.95    6.20
  -6   2 -10   66.17    7.56
  -6   2 -10   58.71    5.54
  -6   2 -11  295.59    7.40
   6  -2  11  310.83    6.56
  -6   2 -11  310.30    5.63
  -6   2 -11  327.52    9.04
  -6   2 -11  324.40    5.07
  -6   2 -12  120.84    6.48
   6  -2  12  120.41    5.55
  -6   2 -12  123.27    6.23
  -6   2 -12  151.34    5.04
  -6   2 -12  138.29    7.85
  -6   2 -13   23.25    5.82
   6  -2  13   20.29    4.95
  -6   2 -13   20.90    6.01
  -6   2 -13   13.28    7.61
  -6   2 -13    4.31    4.36
  -6   2 -14   22.94    5.66
  -6   2 -14   17.35    5.80
   6  -2  14   21.37    5.27
  -6   2 -14   20.05    6.72
  -6   2 -14    2.77    4.15
  -6   1  -1 2113.07   11.84
   6  -1   1 2345.00   12.96
  -6   1  -1 1985.37   13.24
   6  -1   1 2070.23   12.14
   6  -1   2  828.01    8.46
  -6   1  -2  768.92    7.67
  -6   1  -2  735.59    7.51
   6  -1   2  867.61    8.84
   6  -1   3    9.67    6.35
   6  -1   3    6.74    4.74
  -6   1  -3    3.02    6.06
   6  -1   4  657.07    8.71
  -6   1  -4  607.80    7.75
   6  -1   4  658.32    8.02
  -6   1  -4  583.43    8.40
  -6   1  -5 1063.96    8.02
  -6   1  -5 1051.23    9.81
   6  -1   5 1161.76    8.31
   6  -1   6   17.56    7.04
  -6   1  -6    1.98    6.91
  -6   1  -6   16.78    6.88
  -6   1  -6    3.83    7.25
   6  -1   7   99.41    6.80
  -6   1  -7  118.42    6.44
  -6   1  -7  138.67    6.86
  -6   1  -7  118.38    7.39
  -6   1  -8   67.79    6.41
   6  -1   8   38.94    6.48
  -6   1  -8   61.88    7.30
  -6   1  -8   51.25    4.89
   6  -1   9   27.37    6.23
  -6   1  -9   13.88    5.92
  -6   1  -9   23.66    6.78
  -6   1  -9   30.00    5.96
  -6   1 -10   -9.85    5.99
   6  -1  10   17.30    5.73
  -6   1 -10   -2.24    5.60
  -6   1 -10   17.69    4.76
  -6   1 -10   21.54    3.79
  -6   1 -11   -2.61    5.37
   6  -1  11   -4.36    6.14
  -6   1 -11    2.51    5.93
  -6   1 -11   13.11    6.74
  -6   1 -11    4.45    4.56
  -6   1 -12   -6.42    5.10
   6  -1  12    6.07    5.27
  -6   1 -12   10.37    5.59
  -6   1 -12   16.86    6.74
  -6   1 -12  -12.64    5.01
  -6   1 -13    3.48    5.28
   6  -1  13   -4.58    5.44
  -6   1 -13   30.65    5.08
  -6   1 -13    4.17    6.07
  -6   1 -13   16.75    3.38
  -6   1 -14   64.50    5.91
   6  -1  14   77.78    4.79
  -6   1 -14   88.36    5.38
  -6   1 -14   66.65    4.81
  -6   1 -14   81.45    6.60
  -6   0   0  255.23    6.40
   6   0   0  294.13    7.39
  -6   0   0  253.29    6.88
   6   0   0  284.93    6.14
   6   0   1   11.87    6.79
  -6   0  -1   13.08    6.20
  -6   0  -1    7.13    6.31
   6   0   1    1.36    6.02
   6   0   2  132.19    4.96
   6   0   2  159.06    5.33
  -6   0  -2  115.99    6.65
  -6   0  -2  143.01    6.40
   6   0   3   60.85    4.68
  -6   0  -3   67.45    6.02
   6   0   3   76.85    6.67
  -6   0  -3   54.91    6.28
   6   0   4  130.88    6.47
  -6   0  -4  138.75    6.91
   6   0   4  138.15    7.29
   6   0   5   54.67    6.58
  -6   0  -5   61.44    4.63
   6   0   6   90.22    6.97
  -6   0  -6  101.86    6.32
  -6   0  -6   76.08    6.60
  -6   0  -7   54.69    6.18
   6   0   7   56.46    7.12
  -6   0  -7   60.64    6.11
  -6   0  -7   92.13    7.00
   6   0   8  508.57    7.70
  -6   0  -8  599.50    8.58
  -6   0  -8  559.47    6.31
  -6   0  -8  522.10    7.89
   6   0   9 1027.91    8.87
  -6   0  -9 1174.27   12.43
  -6   0  -9 1162.65    9.75
  -6   0  -9 1093.68   10.81
   6   0  10  676.88    6.70
  -6   0 -10  813.74   10.07
  -6   0 -10  720.43    8.62
  -6   0 -10  835.29    8.89
  -6   0 -11    9.86    5.46
   6   0  11   -5.15    6.29
  -6   0 -11   10.13    5.59
  -6   0 -11    0.19    4.55
  -6   0 -11   16.32    4.93
  -6   0 -12  236.01    6.49
   6   0  12  227.11    6.41
  -6   0 -12  271.98    7.25
  -6   0 -12  231.72    6.96
  -6   0 -12  239.58    5.66
  -6   0 -13  221.52    6.03
   6   0  13  201.60    6.20
  -6   0 -13  261.18    7.45
  -6   0 -13  257.02    6.16
  -6   0 -13  182.52    5.73
  -6   0 -14  162.11    5.69
   6   0  14  163.80    5.85
  -6   0 -14  190.37    6.55
  -6   0 -14  194.48    6.30
  -6   0 -14  175.01    5.30
  -6   0 -15   16.83    4.81
   6   0  15   14.42    4.98
  -6   0 -15    8.36    3.65
  -6   0 -15   11.03    3.08
  -6  -1   0  193.07    6.17
   6   1   0  222.04    7.83
  -6  -1   0  172.19    4.79
   6   1   0  203.90    6.30
   6   1   1  436.49    6.94
   6   1   1  469.06    8.52
  -6  -1  -1  355.54    5.54
  -6  -1  -1  418.41    7.29
   6   1   2  169.59    6.77
  -6  -1  -2  167.33    6.94
  -6  -1  -2  174.75    6.60
   6   1   2  184.41    7.39
   6   1   3  729.54    8.43
  -6  -1  -3  738.11    8.26
  -6  -1  -3  674.79    8.17
   6   1   3  758.43    9.05
   6   1   4  360.61    7.72
   6   1   4  346.68    7.32
  -6  -1  -4  367.32    7.12
  -6  -1  -4  350.01    5.58
   6   1   5  206.19    7.79
  -6  -1  -5  232.49    5.15
  -6  -1  -5  239.98    6.73
  -6  -1  -6  944.30    9.51
   6   1   6  843.30    7.69
  -6  -1  -6  918.49    8.59
  -6  -1  -6  978.79    9.01
  -6  -1  -7  802.35    8.89
   6   1   7  766.89    8.98
  -6  -1  -7  892.60    9.54
  -6  -1  -7  815.98    8.85
  -6  -1  -8   54.58    5.75
   6   1   8   58.68    6.93
  -6  -1  -8   53.54    5.43
  -6  -1  -8   63.96    6.75
   6   1   9  171.91    6.81
  -6  -1  -9  199.63    5.92
  -6  -1  -9  196.29    6.52
   6   1  10  320.42    6.87
  -6  -1 -10  430.82    7.43
  -6  -1 -10  430.02    7.19
   6   1  11  202.27    6.40
  -6  -1 -11  228.65    5.93
  -6  -1 -11  213.98    4.98
   6   1  12   34.46    4.36
  -6  -1 -12   47.18    5.47
  -6  -1 -12   36.06    4.64
  -6  -1 -12   69.35    4.95
   6   1  13   33.93    5.05
  -6  -1 -13   39.52    5.36
  -6  -1 -13   17.25    5.46
  -6  -1 -13   22.32    5.08
   6   1  14   40.20    5.14
  -6  -1 -14   27.12    5.53
  -6  -1 -14   32.17    4.82
  -6  -1 -14   25.18    4.69
   6   1  15    0.68    3.57
  -6  -1 -15   -7.49    5.09
  -6  -1 -15   11.26    4.49
  -6  -1 -15    0.79    4.45
  -6  -2   0  712.81    8.30
  -6  -2   0  655.34    7.39
   6   2   0  807.89   10.51
   6   2   0  643.60    7.60
   6   2   1  535.56    7.04
  -6  -2  -1  511.82    6.49
  -6  -2  -1  427.87    7.09
   6   2   1  565.65    9.84
   6   2   2   17.73    8.07
  -6  -2  -2    4.10    6.42
   6   2   2    9.55    5.86
  -6  -2  -2   10.98    5.86
   6   2   3  205.83    5.03
   6   2   3  210.80    8.28
  -6  -2  -3  208.82    6.34
  -6  -2  -3  203.53    5.36
   6   2   4  555.29    9.09
  -6  -2  -4  551.99    8.05
  -6  -2  -4  553.75    7.62
   6   2   5  551.94    9.00
  -6  -2  -5  569.63    7.59
  -6  -2  -5  599.27    7.99
  -6  -2  -6  604.26    7.55
  -6  -2  -6  620.65    7.77
   6   2   6  481.07    8.40
  -6  -2  -6  591.38    6.50
  -6  -2  -7   88.74    6.06
  -6  -2  -7   88.95    6.12
   6   2   7   77.80    7.42
  -6  -2  -7  101.24    6.83
  -6  -2  -8   -2.09    5.97
  -6  -2  -8    7.21    4.04
   6   2   8    3.15    4.92
  -6  -2  -8   32.50    6.59
  -6  -2  -9   68.91    5.54
  -6  -2  -9   78.74    5.65
   6   2   9   70.78    6.49
  -6  -2  -9   91.90    6.44
  -6  -2 -10  740.75    7.15
  -6  -2 -10  801.40    8.79
   6   2  10  651.82    6.48
  -6  -2 -10  781.92    7.11
  -6  -2 -11  743.64    8.31
  -6  -2 -11  758.70    8.98
   6   2  11  630.68    7.53
  -6  -2 -11  755.81    8.27
  -6  -2 -12  245.85    5.68
  -6  -2 -12  249.49    6.19
   6   2  12  227.18    4.81
  -6  -2 -12  256.76    6.16
  -6  -2 -13   23.66    4.59
   6   2  13    3.92    5.13
  -6  -2 -13   20.75    5.03
  -6  -2 -13   18.06    5.51
  -6  -2 -14   88.11    5.45
   6   2  14   96.33    5.49
  -6  -2 -14   89.26    4.35
  -6  -2 -14  118.56    4.68
  -6  -2 -15  146.45    5.61
   6   2  15  126.50    4.77
  -6  -2 -15  154.80    4.28
  -6  -2 -15  112.07    3.92
   6   3   0  150.54    6.39
   6   3   0  141.12    9.26
  -6  -3   0  141.93    6.05
  -6  -3   0  153.60    6.74
   6   3   1  327.72    5.51
   6   3   1  343.14    9.66
  -6  -3  -1  351.10    7.16
  -6  -3  -1  300.19    6.68
   6   3   2  311.59    5.29
   6   3   2  339.76    8.98
  -6  -3  -2  364.98    7.51
  -6  -3  -2  295.30    6.70
   6   3   3  456.59    7.26
   6   3   3  427.44    9.74
  -6  -3  -3  498.18    7.98
  -6  -3  -3  464.69    7.14
   6   3   4 2566.25   16.61
  -6  -3  -4 2935.46   16.43
  -6  -3  -4 2819.95   15.84
  -6  -3  -5 1226.64    8.87
   6   3   5 1073.11   11.02
  -6  -3  -5 1252.53    9.24
  -6  -3  -6   95.82    4.45
   6   3   6   69.31    8.37
  -6  -3  -6   90.42    5.11
  -6  -3  -6   84.69    5.91
  -6  -3  -7  190.02    6.63
  -6  -3  -7  210.35    6.37
   6   3   7  182.67    7.22
  -6  -3  -7  227.01    6.74
  -6  -3  -8  785.03    8.45
  -6  -3  -8  813.27    8.59
   6   3   8  681.19    7.14
  -6  -3  -8  869.25    8.80
  -6  -3  -9  356.92    6.33
  -6  -3  -9  390.41    6.31
   6   3   9  318.30    5.51
  -6  -3  -9  407.39    7.29
  -6  -3 -10    9.47    5.40
  -6  -3 -10    0.70    4.79
   6   3  10   -5.03    4.51
  -6  -3 -10    4.47    4.33
  -6  -3 -11   28.93    5.26
  -6  -3 -11   16.15    4.73
   6   3  11   11.74    4.00
  -6  -3 -11   37.44    5.52
  -6  -3 -12   83.59    5.22
   6   3  12   95.02    3.97
  -6  -3 -12   92.50    4.29
  -6  -3 -13   52.94    4.52
   6   3  13   52.06    4.96
  -6  -3 -13   34.74    3.74
  -6  -3 -13   47.00    6.06
  -6  -3 -14   36.76    4.43
   6   3  14   -2.68    4.82
  -6  -3 -14   13.74    4.85
  -6  -3 -14   57.21    5.75
   6   4   0  510.49    7.21
   6   4   0  505.37   10.89
  -6  -4   0  594.84    8.46
  -6  -4   0  567.42    6.94
   6   4   1  878.63    8.01
  -6  -4  -1  963.43   10.24
   6   4   1  857.53   12.05
  -6  -4  -1  909.40    8.06
   6   4   2 1967.27   11.67
   6   4   2 1963.59   15.79
  -6  -4  -2 2037.16   13.75
  -6  -4  -2 1928.64   10.55
   6   4   3  896.30   11.53
  -6  -4  -3  897.73    9.68
  -6  -4  -3  840.89    6.90
   6   4   4   22.40    8.71
  -6  -4  -4   19.12    6.79
  -6  -4  -4   12.96    5.90
  -6  -4  -5  342.34    6.67
  -6  -4  -5  347.94    5.10
   6   4   5  361.05    9.54
  -6  -4  -5  336.94    7.62
  -6  -4  -6  469.51    6.78
  -6  -4  -6  488.70    6.99
   6   4   6  478.74    7.07
  -6  -4  -6  477.26    7.54
  -6  -4  -7  218.36    6.15
  -6  -4  -7  212.84    4.60
   6   4   7  217.82    7.75
  -6  -4  -7  243.40    6.50
  -6  -4  -8  120.70    4.43
  -6  -4  -8  123.39    5.33
   6   4   8  139.53    5.20
  -6  -4  -8  121.63    6.48
  -6  -4  -9  203.90    6.16
  -6  -4  -9  183.51    4.41
  -6  -4  -9  169.60    5.23
   6   4   9  159.45    6.86
  -6  -4 -10   69.87    6.11
  -6  -4 -10   56.58    5.62
  -6  -4 -10   75.85    3.81
   6   4  10   67.80    4.42
  -6  -4 -11   29.82    5.73
  -6  -4 -11   13.21    4.81
   6   4  11    9.93    5.66
  -6  -4 -11  -10.69    5.36
  -6  -4 -12  144.09    4.52
  -6  -4 -12  132.17    4.25
  -6  -4 -12  139.92    5.09
   6   4  12  129.48    4.22
  -6  -4 -13  190.95    4.50
   6   4  13  155.82    5.59
  -6  -4 -13  204.91    5.99
  -6  -4 -14   24.43    4.44
   6   4  14    0.43    5.08
  -6  -4 -14   27.97    4.54
  -6  -4 -14   42.94    5.69
   6   5   0 1449.59    9.65
  -6  -5   0 1531.05   12.44
   6   5   0 1573.92   17.87
  -6  -5   0 1314.81    9.36
  -6  -5  -1  672.73    8.76
   6   5   1  601.96   10.75
   6   5   1  641.67    7.39
  -6  -5  -1  619.06    5.87
   6   5   2    3.88    5.95
   6   5   2   13.18    8.61
  -6  -5  -2    9.68    6.39
  -6  -5  -2   17.48    5.37
   6   5   3    4.24    7.60
  -6  -5  -3   -0.98    4.40
  -6  -5  -3    0.13    5.41
   6   5   4  144.27    7.79
  -6  -5  -4  128.35    6.18
  -6  -5  -4  106.67    5.88
  -6  -5  -5  116.52    5.72
  -6  -5  -5  132.53    5.33
   6   5   5   89.14    6.12
  -6  -5  -5  125.08    7.02
  -6  -5  -6  162.00    5.78
  -6  -5  -6  136.61    5.30
   6   5   6  126.37    8.13
  -6  -5  -6  162.37    6.37
  -6  -5  -7  553.29    7.92
  -6  -5  -7  578.09    6.91
  -6  -5  -7  554.33    5.72
   6   5   7  577.01    8.42
  -6  -5  -8   30.86    6.07
  -6  -5  -8   30.47    4.93
  -6  -5  -8   27.12    5.06
   6   5   8   24.47    4.75
  -6  -5  -9  175.67    5.92
  -6  -5  -9  184.00    5.82
  -6  -5  -9  191.56    5.17
   6   5   9  185.12    5.05
  -6  -5 -10  191.72    6.21
  -6  -5 -10  173.50    4.40
  -6  -5 -10  190.36    5.59
   6   5  10  162.67    4.66
  -6  -5 -11   83.23    4.34
  -6  -5 -11   81.86    4.89
  -6  -5 -11  110.87    4.78
   6   5  11  100.73    4.18
  -6  -5 -12    9.63    5.51
  -6  -5 -12   14.90    4.52
  -6  -5 -12   19.14    4.63
   6   5  12   14.65    5.25
  -6  -5 -13  141.08    4.29
  -6  -5 -13  134.99    5.30
   6   5  13   81.31    5.44
  -6  -5 -14   96.71    4.42
  -6  -5 -14   89.44    4.06
   6   5  14   80.73    3.80
  -6  -5 -14   93.05    4.87
   6   6   0  350.95    6.67
  -6  -6   0  386.92    8.30
   6   6   0  392.13    9.56
  -6  -6   0  349.37    6.02
   6   6   1  523.14    5.55
  -6  -6  -1  574.75    8.43
   6   6   1  564.73    9.96
  -6  -6  -1  517.44    6.63
   6   6   2   39.89    7.47
  -6  -6  -2   40.77    6.39
  -6  -6  -2   32.20    5.38
   6   6   3   93.17    7.68
  -6  -6  -3  110.57    6.65
  -6  -6  -3   88.47    5.12
  -6  -6  -4  310.94    5.88
   6   6   4  240.35    7.82
  -6  -6  -4  307.42    6.77
  -6  -6  -4  256.80    5.86
  -6  -6  -5  103.86    5.05
  -6  -6  -5  117.27    5.03
  -6  -6  -5   94.75    6.38
   6   6   5  113.08    7.52
  -6  -6  -6   24.63    4.91
  -6  -6  -6    3.47    6.06
  -6  -6  -6   18.71    3.68
   6   6   6   37.39    6.65
  -6  -6  -7  205.96    5.32
  -6  -6  -7  211.20    5.99
  -6  -6  -7  194.01    4.34
   6   6   7  213.33    6.73
  -6  -6  -8  329.15    4.68
  -6  -6  -8  309.31    5.26
  -6  -6  -8  298.51    5.75
   6   6   8  281.27    5.70
  -6  -6  -9   78.54    5.52
  -6  -6  -9  109.27    6.18
  -6  -6  -9  101.89    5.19
   6   6   9   81.23    6.51
  -6  -6 -10   43.63    5.88
  -6  -6 -10   39.61    3.94
  -6  -6 -10   36.82    4.90
   6   6  10   28.28    4.59
  -6  -6 -11   -0.95    5.64
  -6  -6 -11    9.23    4.88
  -6  -6 -11   -3.44    4.54
   6   6  11    5.18    5.30
  -6  -6 -12   21.38    5.00
  -6  -6 -12    3.56    3.55
  -6  -6 -12    6.41    4.03
   6   6  12   25.73    5.23
  -6  -6 -13   79.44    4.02
  -6  -6 -13   60.49    3.84
  -6  -6 -13   64.89    4.33
   6   6  13   63.58    5.16
  -6  -7   0  423.26    8.75
   6   7   0  388.94    6.51
  -6  -7   0  362.80    6.19
  -6  -7  -1  551.04    8.16
   6   7   1  565.03   10.28
  -6  -7  -1  489.69    6.27
   6   7   2  151.34    7.78
  -6  -7  -2  159.94    6.50
  -6  -7  -2  146.74    4.18
  -6  -7  -3   24.73    3.72
   6   7   3   29.74    6.46
  -6  -7  -3   27.89    6.00
  -6  -7  -3   41.21    4.66
  -6  -7  -4   19.69    4.67
  -6  -7  -4   10.95    6.00
   6   7   4    7.78    5.98
  -6  -7  -4    9.79    4.94
  -6  -7  -5   75.23    6.22
  -6  -7  -5   77.00    5.12
  -6  -7  -5   82.14    5.17
   6   7   5   90.82    6.99
  -6  -7  -6   17.56    4.94
  -6  -7  -6   19.41    6.07
  -6  -7  -6   21.65    5.01
   6   7   6   25.26    6.25
  -6  -7  -7  147.01    5.79
  -6  -7  -7  155.47    4.80
   6   7   7  122.05    6.82
  -6  -7  -7  139.70    3.96
  -6  -7  -8  134.50    3.82
  -6  -7  -8  149.68    4.64
  -6  -7  -8  148.07    3.85
   6   7   8  138.53    6.08
  -6  -7  -9    0.07    5.10
  -6  -7  -9   -5.31    5.56
  -6  -7  -9   -5.69    4.57
   6   7   9    3.83    4.52
  -6  -7 -10  110.14    5.45
  -6  -7 -10   79.80    5.84
  -6  -7 -10   89.96    4.50
   6   7  10  102.84    5.67
  -6  -7 -11  272.59    5.77
  -6  -7 -11  279.45    5.14
  -6  -7 -11  240.33    5.07
   6   7  11  234.26    6.22
  -6  -7 -12  216.42    5.48
  -6  -7 -12  262.01    6.20
  -6  -7 -12  232.78    4.77
   6   7  12  199.80    5.62
  -6  -8   0   71.55    8.05
  -6  -8   0   62.66    5.02
  -6  -8  -1    6.91    4.46
  -6  -8  -1   19.43    5.27
  -6  -8  -2  107.09    5.91
  -6  -8  -2   86.97    5.16
  -6  -8  -3   70.40    5.86
  -6  -8  -3   74.07    4.67
   6   8   3   58.84    5.39
  -6  -8  -3   69.58    5.01
  -6  -8  -4   12.29    5.76
  -6  -8  -4    5.70    3.48
   6   8   4   25.16    5.97
  -6  -8  -4   -2.47    4.86
  -6  -8  -5  480.84    7.49
  -6  -8  -5  510.34    6.38
  -6  -8  -5  510.22    6.40
   6   8   5  495.26    7.86
  -6  -8  -6  437.25    6.82
  -6  -8  -6  459.40    5.72
  -6  -8  -6  441.26    5.98
   6   8   6  401.41    7.73
  -6  -8  -7   19.94    4.76
  -6  -8  -7   11.11    5.60
  -6  -8  -7   11.51    4.33
   6   8   7    5.15    4.41
  -6  -8  -8   91.22    4.85
  -6  -8  -8   87.68    5.43
  -6  -8  -8   83.54    4.69
   6   8   8   52.79    5.86
  -6  -8  -9  246.95    4.32
  -6  -8  -9  226.85    6.29
  -6  -8  -9  242.11    4.96
   6   8   9  261.64    6.34
  -6  -8 -10  283.78    4.77
  -6  -8 -10  287.11    6.27
  -6  -8 -10  302.23    4.48
   6   8  10  326.71    6.54
  -6  -8 -11   50.73    4.86
  -6  -8 -11   36.44    5.02
  -6  -8 -11   52.34    4.58
   6   8  11   43.57    5.34
  -6  -9   0  253.28    9.84
  -6  -9   0  253.63    5.43
  -6  -9   0  225.84    8.76
  -6  -9   0  194.22    4.87
  -6  -9  -1   -5.87    4.43
  -6  -9  -1   14.00    5.81
  -6  -9  -1   14.57    4.17
  -6  -9  -2  457.43    5.97
  -6  -9  -2  420.43    7.20
  -6  -9  -2  399.31    5.07
  -6  -9  -3  880.11    8.00
  -6  -9  -3  838.11    9.07
  -6  -9  -3  769.47    7.96
  -6  -9  -4  479.45    7.55
  -6  -9  -4  491.37    6.38
  -6  -9  -4  516.54    6.47
  -6  -9  -5   37.56    4.84
  -6  -9  -5   39.23    5.01
  -6  -9  -5   27.60    4.89
  -6  -9  -6   39.51    4.13
  -6  -9  -6   43.61    4.82
  -6  -9  -6   58.99    4.46
  -6  -9  -7   64.80    5.22
  -6  -9  -7   76.42    4.91
  -6  -9  -7   59.68    3.69
  -6  -9  -8   12.95    4.49
  -6  -9  -8   43.41    4.08
  -6  -9  -8   44.09    4.71
  -6  -9  -9  143.14    5.05
  -6  -9  -9  110.92    3.78
  -6  -9  -9  123.86    4.77
  -6  -9 -10   66.72    4.50
  -6  -9 -10   91.89    4.84
  -6  -9 -10   73.53    4.66
  -6 -10   0   34.63    4.14
  -6 -10   0   42.50    5.02
  -6 -10   0   21.38    4.42
  -6 -10  -1   67.36    4.79
  -6 -10  -1   38.14    4.90
  -6 -10  -1   40.78    6.52
  -6 -10  -1   57.88    7.17
  -6 -10  -1   40.93    4.21
  -6 -10  -2   39.46    4.51
  -6 -10  -2   52.98    5.95
  -6 -10  -2   43.66    5.14
  -6 -10  -2   57.34    4.21
  -6 -10  -3   44.52    4.18
  -6 -10  -3   34.75    3.31
  -6 -10  -3   44.35    5.28
  -6 -10  -4   34.75    5.29
  -6 -10  -4   16.04    3.39
  -6 -10  -4   49.38    4.31
  -6 -10  -5    4.50    5.22
  -6 -10  -5   32.33    4.47
  -6 -10  -5   32.22    4.11
  -6 -10  -6   58.05    3.55
  -6 -10  -6   66.62    4.82
  -6 -10  -6   60.48    3.60
  -6 -10  -7  149.28    3.90
  -6 -10  -7  142.53    5.60
  -6 -10  -7  150.13    4.77
  -6 -10  -8  208.61    4.80
  -6 -10  -8  186.63    5.43
  -6 -10  -8  194.15    5.32
  -6 -11  -1  217.11    8.14
  -6 -11  -1  276.16    9.05
  -6 -11  -2  110.24    4.73
  -6 -11  -2  122.41    3.62
  -6 -11  -2  134.66    6.67
  -6 -11  -2  113.80    6.01
  -6 -11  -2   85.04    4.35
  -6 -11  -3    6.59    4.87
  -6 -11  -3  -11.97    3.97
  -6 -11  -3   -0.24    4.88
  -6 -11  -3    7.33    4.21
  -6 -11  -4  178.63    6.26
  -6 -11  -4  166.01    5.12
  -6 -11  -4  172.62    4.44
  -6 -11  -5  181.13    5.29
  -6 -11  -5  169.29    4.92
  -6 -11  -5  168.23    4.45
  -7   9  -1    6.73    6.90
   7  -9   1    6.12    4.46
   7  -9   1   11.89    5.49
   7  -9   2   88.79    8.75
   7  -9   2   87.26    4.48
  -7   9  -3   11.23    5.32
   7  -9   3   20.55    4.67
  -7   9  -3    8.29    3.20
  -7   9  -4    3.62    4.81
   7  -9   4   14.18    4.72
  -7   9  -4    3.05    4.80
  -7   9  -5   10.09    4.41
  -7   9  -5   20.24    5.36
   7  -9   5   20.92    4.30
  -7   9  -6   22.21    4.33
  -7   9  -6   -8.02    4.33
   7  -9   6    4.32    4.67
  -7   8  -1    3.26    5.32
   7  -8   1    0.69    3.50
  -7   8  -1    3.26    6.54
  -7   8  -1   16.98    4.49
   7  -8   1    1.78    4.54
  -7   8  -2   24.65    5.88
  -7   8  -2   22.20    4.66
  -7   8  -2   26.08    7.86
   7  -8   2   25.77    4.86
   7  -8   2   17.18    6.31
  -7   8  -3  143.58    5.11
  -7   8  -3  143.49    6.22
   7  -8   3  181.45    4.72
  -7   8  -4  114.59    5.91
   7  -8   4  134.25    5.12
  -7   8  -4  113.82    4.72
  -7   8  -5    5.54    4.61
  -7   8  -5   36.18    5.12
   7  -8   5   27.70    4.84
  -7   8  -6  137.85    5.18
  -7   8  -6  142.22    5.11
   7  -8   6  182.26    5.43
  -7   8  -7  122.92    5.07
  -7   8  -7  163.91    5.14
   7  -8   7  145.00    4.75
  -7   8  -8   61.95    4.76
  -7   8  -8   31.34    4.87
   7  -8   8   48.75    4.41
  -7   7  -1   55.54    6.45
   7  -7   1   74.29    4.45
  -7   7  -1   73.49    6.66
  -7   7  -1   57.10    4.39
   7  -7   1   57.34    4.92
  -7   7  -2   11.92    6.22
  -7   7  -2    8.59    4.13
   7  -7   2   17.29    4.58
  -7   7  -2   10.23    6.57
   7  -7   2    3.57    5.28
  -7   7  -3   66.85    3.61
   7  -7   3   67.35    8.37
  -7   7  -3   65.06    6.14
  -7   7  -3   89.47    9.68
   7  -7   3   68.67    5.11
  -7   7  -4   90.22    5.51
  -7   7  -4   90.48    4.81
   7  -7   4   85.92    5.23
  -7   7  -5  122.02    5.51
  -7   7  -5  141.46    4.21
   7  -7   5  143.31    4.24
  -7   7  -6    1.77    5.16
   7  -7   6   12.30    4.60
  -7   7  -6   -9.39    5.32
  -7   7  -7   37.33    4.85
   7  -7   7   57.83    5.45
  -7   7  -7   50.24    5.08
  -7   7  -8   28.22    4.38
  -7   7  -8   16.74    5.42
   7  -7   8   19.82    4.94
   7  -7   9    4.96    4.82
  -7   7  -9   24.34    4.44
  -7   7  -9    9.62    5.81
  -7   7 -10   45.82    4.81
   7  -7  10   63.34    4.43
  -7   7 -10   58.53    5.26
   7  -6   1   50.53    4.46
  -7   6  -1   26.11    5.75
  -7   6  -1   24.05    4.55
   7  -6   1   25.69    4.74
  -7   6  -1   30.55    6.72
  -7   6  -2   98.69    3.55
   7  -6   2  104.83    3.73
  -7   6  -2  120.73    6.31
   7  -6   2  115.14    6.19
  -7   6  -2  104.85    7.05
   7  -6   3   56.66    6.99
  -7   6  -3   68.31    7.58
  -7   6  -3   47.39    4.79
   7  -6   3   63.31    3.74
  -7   6  -3   39.70    6.72
   7  -6   4  478.60    6.47
  -7   6  -4  427.71    5.05
  -7   6  -4  418.74    7.34
  -7   6  -5  446.47    6.18
   7  -6   5  502.74    5.44
  -7   6  -5  439.28    7.42
  -7   6  -6   -3.72    3.98
   7  -6   6   -1.24    4.96
  -7   6  -6   14.25    5.35
  -7   6  -7   95.38    5.79
  -7   6  -7  131.13    5.26
   7  -6   7   93.38    5.44
  -7   6  -8  314.64    6.44
  -7   6  -8  325.83    6.85
   7  -6   8  288.19    6.12
  -7   6  -9  173.77    5.71
   7  -6   9  150.13    5.44
  -7   6  -9  179.02    6.48
  -7   6 -10    7.78    4.34
   7  -6  10    8.58    4.60
  -7   6 -10  -10.12    5.18
  -7   6 -11   31.86    3.58
   7  -6  11   37.00    4.85
  -7   6 -11   17.15    5.06
  -7   5  -1  357.33    5.54
   7  -5   1  401.81    5.78
  -7   5  -1  353.75    7.96
  -7   5  -1  358.04    7.70
   7  -5   1  361.73    6.87
   7  -5   2 1164.59    7.67
  -7   5  -2 1078.59    8.00
  -7   5  -2 1075.05   12.67
  -7   5  -2 1129.01   11.98
   7  -5   2 1148.81   10.54
   7  -5   3   65.80    6.63
   7  -5   3   85.61    5.21
  -7   5  -3   61.78    6.34
  -7   5  -3   52.06    4.93
  -7   5  -3   66.22    6.24
   7  -5   4   27.30    8.08
  -7   5  -4   19.44    3.58
  -7   5  -4   35.75    8.94
   7  -5   4   27.21    4.86
  -7   5  -4   32.25    6.01
  -7   5  -5  325.28    6.32
   7  -5   5  376.93    6.27
  -7   5  -5  355.39    6.95
  -7   5  -6  512.18    7.26
   7  -5   6  535.94    7.10
  -7   5  -6  539.94    7.76
  -7   5  -7   72.48    5.29
  -7   5  -7   68.89    4.42
   7  -5   7   79.58    5.92
  -7   5  -8    4.51    6.06
   7  -5   8    3.60    5.69
   7  -5   9   21.37    5.22
  -7   5  -9    9.58    5.28
  -7   5  -9    6.26    5.09
   7  -5  10    0.50    5.30
  -7   5 -10    0.42    4.62
  -7   5 -10    6.89    5.82
  -7   5 -11   -5.54    3.48
   7  -5  11    4.19    5.10
  -7   5 -11   15.34    4.17
  -7   5 -12   60.52    4.85
   7  -5  12   53.63    4.68
  -7   5 -12   50.50    5.37
   7  -4   1  391.70    5.99
  -7   4  -1  385.27    5.81
  -7   4  -1  352.79    8.81
   7  -4   1  359.80    6.62
   7  -4   2   14.80    3.76
  -7   4  -2   32.77    8.51
  -7   4  -2   26.41    3.52
   7  -4   2   10.22    5.45
   7  -4   3  121.72    7.13
  -7   4  -3   90.45    4.99
   7  -4   3  114.14    5.23
  -7   4  -3  104.34    7.55
   7  -4   4   63.79    6.66
  -7   4  -4   59.26    5.11
  -7   4  -4   36.30    8.53
   7  -4   4   60.25    3.95
  -7   4  -5  165.42    5.44
  -7   4  -5  150.08   10.25
   7  -4   5  148.11    5.95
  -7   4  -6  351.83   18.45
  -7   4  -6  302.33    5.35
   7  -4   6  299.02    6.45
  -7   4  -6  344.61    7.59
  -7   4  -7  525.28    7.10
  -7   4  -7  630.95    8.90
   7  -4   7  597.43    7.48
   7  -4   8  112.54    6.15
  -7   4  -8   85.90    6.11
  -7   4  -8  106.24    5.78
   7  -4   9  119.19    6.00
  -7   4  -9  154.22    5.62
  -7   4  -9  129.18    6.00
   7  -4  10  156.29    5.75
  -7   4 -10  181.68    6.07
  -7   4 -10  181.61    6.15
  -7   4 -11  107.26    4.60
   7  -4  11   89.21    5.64
  -7   4 -11  109.95    5.08
  -7   4 -12   -4.14    5.75
   7  -4  12   14.89    5.27
  -7   4 -12   11.95    4.45
  -7   4 -13  125.95    5.05
  -7   4 -13  132.94    5.49
   7  -4  13  110.16    5.36
   7  -3   1  157.54    5.55
  -7   3  -1  116.69    5.48
   7  -3   1  142.66    5.77
  -7   3  -2    5.02    5.17
   7  -3   2   -3.75    5.80
  -7   3  -2    8.25    7.41
   7  -3   2   10.69    5.40
   7  -3   3  224.23    6.67
  -7   3  -3  223.94    4.52
   7  -3   3  245.26    4.83
  -7   3  -3  222.81    9.43
   7  -3   4  209.44    7.56
  -7   3  -4  197.81    6.12
   7  -3   4  215.60    6.28
  -7   3  -4  229.48    9.71
  -7   3  -5  128.10    9.61
  -7   3  -5  155.76    5.79
   7  -3   5  147.33    6.21
  -7   3  -6   20.74    7.71
  -7   3  -6   25.92    8.92
   7  -3   6   16.20    5.85
  -7   3  -6   34.24    5.83
  -7   3  -7  353.48   10.75
  -7   3  -7  236.73   11.53
   7  -3   7  294.89    6.42
  -7   3  -7  292.82    6.48
   7  -3   8  299.17    6.07
  -7   3  -8  321.23    5.43
  -7   3  -8  364.46   12.99
  -7   3  -8  251.30   12.56
  -7   3  -8  385.16    7.43
   7  -3   9  110.97    5.56
  -7   3  -9  132.15    4.97
  -7   3  -9  132.54   12.06
  -7   3  -9   95.81   11.85
  -7   3  -9  128.08    6.46
  -7   3 -10   13.50    6.19
   7  -3  10   19.10    4.16
  -7   3 -10   16.29   13.33
  -7   3 -10   13.83   11.91
  -7   3 -10   16.22    5.77
  -7   3 -11   16.56    6.03
   7  -3  11   33.68    5.01
  -7   3 -11   14.21   13.28
  -7   3 -11   11.99   11.84
  -7   3 -11   33.11    5.12
  -7   3 -12   26.89    5.79
   7  -3  12    3.49    5.50
  -7   3 -12    3.80    4.84
  -7   3 -13   11.88    4.99
   7  -3  13    2.80    4.56
  -7   3 -13    9.18    4.83
  -7   2  -1  812.82    7.51
   7  -2   1  900.64    8.37
  -7   2  -1  757.59    9.25
   7  -2   1  812.57    7.86
  -7   2  -2  272.24    4.78
   7  -2   2  321.01    5.11
   7  -2   2  295.36    6.37
   7  -2   3  240.32    6.81
  -7   2  -3  224.16    4.65
   7  -2   3  244.86    6.66
  -7   2  -3  233.00    8.10
   7  -2   4   13.88    6.09
   7  -2   4   16.10    5.81
  -7   2  -4   10.36    8.22
  -7   2  -4    7.52    5.89
  -7   2  -5   24.02    7.84
   7  -2   5    9.45    4.45
  -7   2  -5  -10.50    6.11
  -7   2  -6   55.74    5.67
  -7   2  -6   55.07    6.96
  -7   2  -6   48.76    6.75
   7  -2   6   47.17    4.26
   7  -2   7   62.10    5.75
  -7   2  -7   55.09    5.86
  -7   2  -7   76.71    7.06
  -7   2  -7   43.18    7.18
   7  -2   8  203.13    6.34
  -7   2  -8  241.88    6.70
  -7   2  -8  277.50    8.26
  -7   2  -8  216.77    8.15
   7  -2   9   29.89    5.76
  -7   2  -9   42.16    6.11
  -7   2  -9   31.85    7.06
  -7   2  -9   26.94    6.69
   7  -2  10   63.59    4.05
  -7   2 -10   39.84    5.68
  -7   2 -10   52.64    7.09
  -7   2 -10   45.97    5.76
  -7   2 -10   45.63    6.59
   7  -2  11  179.50    5.97
  -7   2 -11  210.45    6.02
  -7   2 -11  175.85    8.14
  -7   2 -11  174.96    4.70
  -7   2 -11  153.49    7.22
   7  -2  12  205.50    4.50
  -7   2 -12  198.55    4.94
  -7   2 -12  261.69    9.27
  -7   2 -12  247.28    5.65
  -7   2 -12  217.27    7.32
  -7   2 -13   50.37    5.22
   7  -2  13   50.06    5.61
  -7   2 -13   63.36    7.54
  -7   2 -13   51.16    5.09
  -7   2 -13   46.40    6.59
  -7   2 -14   31.86    4.96
   7  -2  14   23.61    3.77
  -7   2 -14   19.69    7.65
  -7   2 -14    6.39    4.53
  -7   2 -14   18.12    5.89
  -7   1  -1   34.64    6.01
   7  -1   1   54.32    4.85
  -7   1  -1   22.97    7.22
   7  -1   1   54.50    5.96
   7  -1   2  176.67    6.15
  -7   1  -2  184.53    6.60
   7  -1   2  153.19    7.09
  -7   1  -2  145.92    7.35
   7  -1   3   18.79    6.06
   7  -1   3   18.19    4.56
  -7   1  -3   17.14    4.27
  -7   1  -4   20.76    4.37
   7  -1   4   17.08    6.04
   7  -1   4   33.44    5.97
  -7   1  -5  349.45    5.25
  -7   1  -5  332.36    7.33
   7  -1   5  377.99    7.15
   7  -1   6  330.82    6.69
  -7   1  -6  339.90    6.98
  -7   1  -6  361.89    7.25
  -7   1  -6  332.64    7.16
   7  -1   7   92.55    5.79
  -7   1  -7   83.54    5.80
  -7   1  -7   69.27    6.26
  -7   1  -7   81.65    7.10
   7  -1   8  411.38    6.75
  -7   1  -8  441.67    6.82
  -7   1  -8  495.70    9.14
  -7   1  -8  415.12    7.15
   7  -1   9  635.70    6.26
  -7   1  -9  671.94    6.43
  -7   1  -9  776.47   11.04
  -7   1  -9  690.96    8.91
   7  -1  10  375.25    6.77
  -7   1 -10  443.47    7.16
  -7   1 -10  450.93    8.50
  -7   1 -10  371.87    6.95
  -7   1 -11   44.05    6.08
   7  -1  11   28.86    5.58
  -7   1 -11   36.31    5.90
  -7   1 -11   27.46    6.94
  -7   1 -11   49.43    5.48
  -7   1 -12    0.43    5.92
   7  -1  12   13.73    3.95
  -7   1 -12   20.16    4.20
  -7   1 -12    7.05    6.09
  -7   1 -12   -0.77    4.61
   7  -1  13   -7.06    4.90
  -7   1 -13    7.13    5.56
  -7   1 -13   11.07    4.80
  -7   1 -13   11.14    6.96
  -7   1 -13   -0.68    4.58
  -7   1 -14   27.71    5.76
   7  -1  14    0.62    5.15
  -7   1 -14   42.53    5.05
  -7   1 -14   16.12    6.58
  -7   1 -14   18.96    4.32
  -7   0   0  812.12    8.08
   7   0   0  918.19    9.25
  -7   0   0  762.60    8.07
   7   0   0  834.09    6.80
  -7   0  -1   25.41    6.15
   7   0   1   26.16    7.05
  -7   0  -1    2.34    6.55
   7   0   1   28.24    5.91
   7   0   2  676.50    8.08
   7   0   2  728.90    8.51
  -7   0  -2  657.86    7.74
  -7   0  -2  591.21    6.65
  -7   0  -3 1980.91   11.58
   7   0   3 2096.60   13.29
  -7   0  -3 1792.25   11.85
   7   0   3 2071.13   12.84
   7   0   4 1289.77   10.64
  -7   0  -4 1268.00    8.71
  -7   0  -4 1194.11    9.62
   7   0   4 1356.65   10.10
   7   0   5  -17.36    6.58
  -7   0  -5   33.70    6.04
   7   0   6  162.45    5.00
  -7   0  -6  164.35    5.81
  -7   0  -6  169.86    4.78
   7   0   7   81.40    6.46
  -7   0  -7  120.17    6.71
  -7   0  -7  119.47    4.64
  -7   0  -7   96.06    6.72
   7   0   8  135.71    6.02
  -7   0  -8  167.90    6.54
  -7   0  -8  131.89    6.22
  -7   0  -8  142.91    5.90
  -7   0  -9   88.50    5.99
   7   0   9  104.01    4.50
  -7   0  -9  120.27    6.14
  -7   0  -9  120.87    5.82
  -7   0 -10  116.27    5.91
   7   0  10  105.63    5.55
  -7   0 -10  123.14    6.69
  -7   0 -10  138.35    6.29
  -7   0 -11   16.72    5.29
   7   0  11    3.47    5.27
  -7   0 -11   26.59    5.54
  -7   0 -11   -2.17    6.05
  -7   0 -12   50.90    5.14
   7   0  12   71.80    5.09
  -7   0 -12   47.55    5.62
  -7   0 -12   40.71    5.46
  -7   0 -12   82.07    5.30
  -7   0 -13  242.00    6.28
   7   0  13  225.34    5.48
  -7   0 -13  302.05    7.42
  -7   0 -13  237.18    4.97
  -7   0 -13  293.52    6.56
  -7   0 -14  250.73    6.11
   7   0  14  228.64    4.52
  -7   0 -14  289.37    5.89
  -7   0 -14  285.06    7.57
  -7   0 -14  269.58    5.10
  -7  -1   0  505.36    6.81
   7   1   0  603.00    8.66
  -7  -1   0  490.09    7.24
   7   1   0  557.10    7.21
   7   1   1  724.87    7.78
  -7  -1  -1  755.32    8.27
   7   1   1  836.79    9.38
  -7  -1  -1  696.47    7.88
   7   1   2  224.72    6.55
  -7  -1  -2  191.96    4.89
   7   1   2  253.57    6.05
  -7  -1  -2  228.70    7.07
  -7  -1  -3    1.74    4.48
   7   1   3    7.89    5.91
  -7  -1  -3    8.29    6.08
   7   1   3   -1.53    7.31
   7   1   4   30.74    7.64
   7   1   4   41.17    6.50
  -7  -1  -4   28.12    6.25
  -7  -1  -4   21.47    6.24
   7   1   5  231.86    7.53
  -7  -1  -5  271.07    6.81
  -7  -1  -5  249.50    6.53
   7   1   6  265.32    6.97
  -7  -1  -6  254.37    5.93
  -7  -1  -6  265.88    6.36
  -7  -1  -6  241.92    6.61
   7   1   7  549.47    7.61
  -7  -1  -7  542.03    7.63
  -7  -1  -7  542.22    6.10
  -7  -1  -7  500.55    7.36
  -7  -1  -8  412.32    6.76
   7   1   8  402.31    7.21
  -7  -1  -8  450.10    7.00
  -7  -1  -8  433.86    7.04
   7   1   9   46.77    6.26
  -7  -1  -9   59.11    5.22
  -7  -1  -9   67.91    4.52
   7   1  10  161.13    6.20
  -7  -1 -10  212.05    6.19
  -7  -1 -10  207.07    6.04
   7   1  11  381.42    5.21
  -7  -1 -11  443.36    7.27
  -7  -1 -11  412.60    5.51
   7   1  12  137.56    5.59
  -7  -1 -12  173.73    6.16
  -7  -1 -12  168.39    5.94
  -7  -1 -13   36.78    4.58
   7   1  13   62.24    5.62
  -7  -1 -13   21.13    5.53
  -7  -1 -13   40.52    5.42
  -7  -1 -13   36.77    3.98
  -7  -1 -14    1.55    4.81
   7   1  14   -4.42    3.74
  -7  -1 -14   12.23    5.32
  -7  -1 -14   -5.35    4.06
  -7  -1 -14   16.95    3.58
   7   2   0  699.55    7.15
  -7  -2   0  694.37    7.79
  -7  -2   0  606.31    5.98
   7   2   0  773.24    9.67
   7   2   1  633.17    7.45
  -7  -2  -1  658.68    7.79
  -7  -2  -1  581.49    7.52
   7   2   1  701.32    9.63
   7   2   2  103.87    6.04
   7   2   2   95.07    8.24
  -7  -2  -2  105.22    6.70
  -7  -2  -2   93.60    4.61
   7   2   3   71.76    6.58
   7   2   3   73.59    6.08
  -7  -2  -3   84.48    6.87
  -7  -2  -3   70.38    6.19
   7   2   4 1288.62   10.20
   7   2   4 1344.42   11.60
  -7  -2  -4 1342.98    9.65
  -7  -2  -4 1253.38    9.11
   7   2   5 2049.77   13.66
  -7  -2  -5 2196.92   13.69
  -7  -2  -5 1967.27   13.29
  -7  -2  -6  515.29    7.06
   7   2   6  456.28    6.41
  -7  -2  -6  500.65    6.00
  -7  -2  -6  482.14    7.58
  -7  -2  -7  373.93    6.82
   7   2   7  347.17    7.56
  -7  -2  -7  385.34    6.63
  -7  -2  -7  399.34    6.73
  -7  -2  -8    2.61    5.22
  -7  -2  -8   -9.08    3.89
   7   2   8   20.00    4.55
  -7  -2  -8   -6.39    5.57
  -7  -2  -9   51.92    5.02
   7   2   9   75.36    6.33
  -7  -2  -9   37.63    5.58
  -7  -2  -9   67.65    5.96
  -7  -2 -10   50.46    5.04
   7   2  10   44.87    5.59
  -7  -2 -10   38.69    4.99
  -7  -2 -10   46.19    5.79
  -7  -2 -11   64.21    5.50
  -7  -2 -11   57.21    5.38
   7   2  11   39.51    5.37
  -7  -2 -11   80.35    4.25
  -7  -2 -12   39.50    4.70
   7   2  12   17.09    5.35
  -7  -2 -12   38.92    5.24
  -7  -2 -12   41.60    5.24
  -7  -2 -13   10.33    4.71
  -7  -2 -13    0.16    5.06
   7   2  13    8.28    4.92
  -7  -2 -13    2.49    4.23
  -7  -2 -14   39.07    4.42
  -7  -2 -14   45.50    5.25
   7   2  14   17.55    4.68
  -7  -2 -14   51.37    4.99
  -7  -2 -14   49.44    4.98
   7   3   0  291.13    5.97
   7   3   0  272.35    9.99
  -7  -3   0  262.32    7.28
  -7  -3   0  232.61    4.83
   7   3   1  293.34    4.94
   7   3   1  327.12    9.13
  -7  -3  -1  307.14    6.15
  -7  -3  -1  316.57    6.87
   7   3   2  613.86    5.94
   7   3   2  632.32   10.01
  -7  -3  -2  602.03    8.08
  -7  -3  -2  629.03    7.36
   7   3   3    2.67    5.70
   7   3   3   21.64    8.39
  -7  -3  -3   16.53    6.41
  -7  -3  -3   16.92    4.30
   7   3   4  180.21    8.69
  -7  -3  -4  186.72    7.04
  -7  -3  -4  170.01    5.78
   7   3   5   55.70    8.33
  -7  -3  -5   67.19    4.86
  -7  -3  -5   76.90    5.60
  -7  -3  -6    5.44    5.01
   7   3   6   13.16    7.33
  -7  -3  -6   -5.42    6.16
  -7  -3  -6   27.33    5.23
  -7  -3  -7   40.43    5.35
  -7  -3  -7   19.39    3.89
   7   3   7   38.93    7.01
  -7  -3  -7   24.18    4.32
  -7  -3  -8  226.31    4.66
  -7  -3  -8  229.27    5.96
   7   3   8  173.58    7.56
  -7  -3  -8  236.69    5.19
  -7  -3  -9  339.97    6.35
  -7  -3  -9  341.33    5.97
   7   3   9  254.15    6.76
  -7  -3  -9  342.77    6.55
  -7  -3 -10  131.18    5.15
  -7  -3 -10  126.80    5.52
   7   3  10  118.56    6.14
  -7  -3 -10  141.83    5.72
  -7  -3 -11   10.62    5.23
  -7  -3 -11    4.68    4.91
   7   3  11  -14.32    5.59
  -7  -3 -11  -19.99    5.75
  -7  -3 -12  110.22    5.41
  -7  -3 -12  108.91    5.25
   7   3  12   83.32    5.52
  -7  -3 -12  101.71    5.42
  -7  -3 -13  101.88    4.75
  -7  -3 -13   85.60    4.66
   7   3  13   95.83    5.58
  -7  -3 -13  103.88    5.92
  -7  -3 -14   20.66    5.00
  -7  -3 -14   33.75    4.34
   7   3  14   24.23    5.29
  -7  -3 -14   27.73    4.27
  -7  -3 -14   24.16    3.53
   7   4   0   39.43    5.08
   7   4   0   49.16    9.94
  -7  -4   0   53.25    5.84
  -7  -4   0   54.44    5.35
   7   4   1    8.24    3.95
  -7  -4  -1    7.07    6.22
   7   4   1   -2.62    8.65
  -7  -4  -1   12.08    3.86
   7   4   2   76.26    4.28
   7   4   2   73.47    8.35
  -7  -4  -2   65.71    6.55
  -7  -4  -2   90.09    5.40
   7   4   3  956.60    8.08
   7   4   3  942.04   11.09
  -7  -4  -3 1056.04    9.71
  -7  -4  -3  929.42    8.21
   7   4   4  935.33   10.71
  -7  -4  -4 1027.51    9.68
  -7  -4  -4  885.53    8.23
   7   4   5   -5.72    8.14
  -7  -4  -5   -1.23    4.44
  -7  -4  -5    7.89    3.89
  -7  -4  -6  336.06    6.06
   7   4   6  356.31    8.65
  -7  -4  -6  345.28    7.24
  -7  -4  -6  351.68    6.27
  -7  -4  -7  775.36    7.92
  -7  -4  -7  735.52    7.42
   7   4   7  683.49    7.53
  -7  -4  -7  806.96    8.43
  -7  -4  -8  133.92    4.19
  -7  -4  -8  141.52    4.24
   7   4   8  115.21    7.06
  -7  -4  -8  132.02    6.22
  -7  -4  -9   68.56    5.12
  -7  -4  -9   83.62    3.80
   7   4   9   69.95    4.67
  -7  -4  -9   92.05    6.04
  -7  -4 -10   23.15    4.96
  -7  -4 -10   34.34    5.02
   7   4  10   41.76    6.03
  -7  -4 -10   64.60    5.73
  -7  -4 -11   48.05    4.01
  -7  -4 -11   68.17    5.05
   7   4  11   36.59    4.07
  -7  -4 -11   68.16    5.34
  -7  -4 -12   45.86    4.93
  -7  -4 -12   35.66    4.61
   7   4  12   28.46    5.22
  -7  -4 -12   40.75    5.11
  -7  -4 -13   -2.20    3.59
  -7  -4 -13    5.02    3.50
   7   4  13    1.47    5.10
  -7  -4 -13    2.36    5.43
  -7  -4 -14   12.90    4.26
  -7  -4 -14  -10.37    4.18
   7   4  14   -3.10    3.58
  -7  -4 -14    8.99    4.74
   7   5   0  754.87    7.09
   7   5   0  772.34   12.59
  -7  -5   0  765.08    9.46
  -7  -5   0  722.01    6.85
   7   5   1 1175.27    8.78
  -7  -5  -1 1246.85   10.39
   7   5   1 1079.29   13.62
  -7  -5  -1 1085.03    7.34
   7   5   2   89.17    4.04
  -7  -5  -2  103.48    6.56
   7   5   2   99.57    8.60
  -7  -5  -2   95.95    3.96
   7   5   3  237.60    8.13
  -7  -5  -3  279.12    6.64
  -7  -5  -3  237.57    4.46
   7   5   4  260.83    6.79
  -7  -5  -4  297.82    6.85
  -7  -5  -4  294.69    5.58
  -7  -5  -5  101.00    4.25
   7   5   5   92.41    8.10
  -7  -5  -5  118.58    6.33
  -7  -5  -5   76.48    5.07
  -7  -5  -6   15.18    5.46
  -7  -5  -6   -4.72    5.37
   7   5   6   23.33    5.24
  -7  -5  -6   25.33    5.79
  -7  -5  -7  128.53    5.08
   7   5   7   84.12    7.11
  -7  -5  -7  109.05    4.16
  -7  -5  -7  140.62    5.80
  -7  -5  -8  167.41    5.77
  -7  -5  -8  142.57    5.16
   7   5   8  132.50    7.39
  -7  -5  -8  141.27    6.36
  -7  -5  -9  147.75    5.80
  -7  -5  -9  137.28    5.10
   7   5   9  146.78    6.87
  -7  -5  -9  157.11    6.28
  -7  -5 -10  144.22    5.07
  -7  -5 -10  130.29    5.18
   7   5  10  118.09    6.34
  -7  -5 -10  138.22    5.67
  -7  -5 -11  175.35    5.25
  -7  -5 -11  195.64    4.89
   7   5  11  154.06    5.87
  -7  -5 -11  198.62    6.06
  -7  -5 -12   -8.66    5.15
  -7  -5 -12   15.53    4.26
   7   5  12   18.39    3.88
  -7  -5 -12   29.09    5.55
  -7  -5 -13   23.86    4.43
  -7  -5 -13   28.14    4.16
   7   5  13   22.24    5.07
  -7  -5 -13   14.08    3.92
   7   6   0   42.34    4.86
   7   6   0   32.05    7.76
  -7  -6   0   16.42    6.39
  -7  -6   0   22.93    4.54
   7   6   1   26.62    5.24
  -7  -6  -1   13.02    6.29
   7   6   1   18.40    6.87
  -7  -6  -1    5.51    4.95
  -7  -6  -2    6.24    5.85
   7   6   2   14.85    7.38
  -7  -6  -2    7.55    4.59
   7   6   3   90.35    7.14
  -7  -6  -3   80.98    5.68
  -7  -6  -3  104.97    3.75
   7   6   4  139.72    7.11
  -7  -6  -4  174.62    6.30
  -7  -6  -4  158.14    5.24
  -7  -6  -5  129.36    5.32
   7   6   5  102.60    7.81
  -7  -6  -5  131.51    6.38
  -7  -6  -5  119.37    5.31
  -7  -6  -6   37.61    4.58
   7   6   6   17.70    7.16
  -7  -6  -6   32.93    5.72
  -7  -6  -6   44.35    5.14
  -7  -6  -7   35.68    3.75
  -7  -6  -7   51.08    4.67
   7   6   7   10.56    6.81
  -7  -6  -7   25.37    5.68
  -7  -6  -8  482.28    6.19
  -7  -6  -8  504.36    5.36
   7   6   8  520.81    8.33
  -7  -6  -8  546.40    6.97
  -7  -6  -9  246.86    4.53
  -7  -6  -9  251.50    4.46
   7   6   9  238.21    6.56
  -7  -6  -9  240.46    5.94
  -7  -6 -10   31.07    5.29
  -7  -6 -10   48.27    4.58
   7   6  10   55.80    5.69
  -7  -6 -10   50.46    5.64
  -7  -6 -11    3.76    5.01
  -7  -6 -11   38.08    4.13
   7   6  11   45.32    5.94
  -7  -6 -11   17.64    5.80
  -7  -6 -12  136.53    4.75
  -7  -6 -12  113.72    4.86
   7   6  12   98.57    5.89
  -7  -6 -12  166.73    5.84
  -7  -6 -13   92.02    3.80
  -7  -6 -13  140.29    4.32
   7   6  13  101.62    5.48
  -7  -6 -13  146.11    4.33
   7   7   0    9.51    4.75
   7   7   0   18.48    7.34
  -7  -7   0    9.02    6.53
  -7  -7   0   25.45    3.35
  -7  -7  -1  502.50    8.34
   7   7   1  591.02   10.86
  -7  -7  -1  455.95    5.16
  -7  -7  -2  826.57    8.87
   7   7   2  838.66   11.85
  -7  -7  -2  762.47    6.87
  -7  -7  -3   82.63    5.92
   7   7   3   81.92    6.80
  -7  -7  -3   87.97    4.59
  -7  -7  -4   90.24    3.57
   7   7   4   70.26    6.35
  -7  -7  -4   75.45    5.88
  -7  -7  -4   64.78    4.82
  -7  -7  -5  502.44    6.26
   7   7   5  447.49    8.46
  -7  -7  -5  533.25    7.38
  -7  -7  -5  509.77    6.26
  -7  -7  -6  467.74    5.92
  -7  -7  -6  549.62    5.31
   7   7   6  414.88    8.23
  -7  -7  -6  522.46    7.46
  -7  -7  -7   89.69    4.98
  -7  -7  -7   96.77    4.61
   7   7   7  101.41    6.26
  -7  -7  -7  103.10    5.89
  -7  -7  -8   10.79    5.00
  -7  -7  -8   36.98    4.78
   7   7   8   20.45    5.77
  -7  -7  -8   37.09    5.12
  -7  -7  -9    6.83    5.46
  -7  -7  -9  -15.42    4.69
  -7  -7  -9   16.13    3.41
   7   7   9   13.50    5.71
  -7  -7 -10   90.70    5.06
  -7  -7 -10   64.59    5.29
  -7  -7 -10   79.14    4.87
   7   7  10   56.51    5.57
  -7  -7 -11   85.43    5.01
  -7  -7 -11   83.37    5.19
  -7  -7 -11   92.45    4.31
   7   7  11   84.40    5.88
  -7  -7 -12  117.23    4.23
  -7  -7 -12  112.18    3.79
  -7  -7 -12  113.07    4.77
   7   7  12   94.33    4.21
  -7  -8   0  189.00    7.84
  -7  -8   0  196.24    5.37
  -7  -8  -1   15.38    5.82
  -7  -8  -1    0.75    4.35
  -7  -8  -2  119.50    6.42
   7   8   2  109.42    7.27
  -7  -8  -2  102.78    4.48
  -7  -8  -3   49.90    4.51
  -7  -8  -3   48.71    5.88
   7   8   3   43.71    5.82
  -7  -8  -3   30.51    3.44
  -7  -8  -4   15.18    4.37
   7   8   4   33.38    6.64
  -7  -8  -4   22.60    5.61
  -7  -8  -4   21.79    4.38
  -7  -8  -5  112.31    4.76
   7   8   5   75.41    6.51
  -7  -8  -5   94.98    5.32
  -7  -8  -5   97.12    3.48
  -7  -8  -6  268.44    5.28
   7   8   6  255.18    6.38
  -7  -8  -6  272.97    5.87
  -7  -8  -6  265.71    5.35
  -7  -8  -7  350.21    5.37
  -7  -8  -7  362.52    4.48
   7   8   7  284.62    6.69
  -7  -8  -7  351.46    6.25
  -7  -8  -8   54.05    5.17
  -7  -8  -8   55.50    4.76
  -7  -8  -8   49.21    4.32
   7   8   8   43.24    4.52
  -7  -8  -9   83.08    4.12
  -7  -8  -9   74.15    4.65
  -7  -8  -9   62.02    4.91
   7   8   9   55.60    6.13
  -7  -8 -10  240.06    5.88
  -7  -8 -10  237.53    5.35
  -7  -8 -10  228.91    4.83
   7   8  10  185.99    6.39
  -7  -8 -11  121.25    5.55
  -7  -8 -11  120.35    4.48
  -7  -8 -11   87.73    3.60
   7   8  11   92.98    5.94
  -7  -9   0  188.26    5.31
  -7  -9   0  147.85    4.43
  -7  -9  -1   70.83    6.50
  -7  -9  -1   80.41    4.17
  -7  -9  -2   15.80    4.80
  -7  -9  -2    5.94    5.54
  -7  -9  -2   22.86    4.15
  -7  -9  -3  268.76    4.45
  -7  -9  -3  268.87    6.53
  -7  -9  -3  255.59    5.45
  -7  -9  -4  520.18    6.27
  -7  -9  -4  479.94    7.44
  -7  -9  -4  499.32    6.37
  -7  -9  -5  193.90    4.97
   7   9   5  163.09    6.46
  -7  -9  -5  188.69    6.17
  -7  -9  -5  185.79    3.94
  -7  -9  -6    6.16    4.11
   7   9   6    5.04    5.21
  -7  -9  -6    5.45    5.17
  -7  -9  -6   29.12    4.62
  -7  -9  -7  214.69    5.94
  -7  -9  -7  233.59    5.20
  -7  -9  -7  228.82    4.83
   7   9   7  213.66    6.53
  -7  -9  -8  191.34    5.23
  -7  -9  -8  174.81    5.21
  -7  -9  -8  200.35    4.69
   7   9   8  153.69    5.74
  -7  -9  -9   67.16    4.42
  -7  -9  -9   94.39    4.91
  -7  -9  -9   74.31    3.53
   7   9   9   76.96    5.68
  -7 -10   0   66.29    4.36
  -7 -10   0   73.78    4.44
  -7 -10  -1   89.46    7.27
  -7 -10  -1  149.36    5.35
  -7 -10  -1   76.69    5.09
  -7 -10  -1  118.33    8.15
  -7 -10  -1  106.34    4.25
  -7 -10  -2   57.43    4.59
  -7 -10  -2   71.38    5.72
  -7 -10  -2   54.36    4.22
  -7 -10  -3   89.79    4.82
  -7 -10  -3   91.28    5.96
  -7 -10  -3   73.68    4.43
  -7 -10  -4    5.84    3.23
  -7 -10  -4   22.01    4.85
  -7 -10  -4    5.26    3.96
  -7 -10  -5   -2.31    4.45
  -7 -10  -5    0.75    4.49
  -7 -10  -5    8.08    4.04
  -7 -10  -6   -7.34    3.25
  -7 -10  -6   19.14    3.18
  -7 -10  -6    3.86    4.32
  -7 -10  -7   56.72    4.52
  -7 -10  -7   27.89    3.49
  -7 -10  -7   56.06    4.62
  -8   8  -1   93.17    6.82
  -8   8  -1  143.87    4.72
   8  -8   1  115.42    3.69
  -8   8  -1  147.95    7.41
   8  -8   1  116.83    5.51
  -8   8  -2   51.11    4.12
  -8   8  -2   49.17    5.96
  -8   8  -2   75.05    8.03
   8  -8   2   29.36    4.29
   8  -8   2   46.23    6.58
  -8   8  -3   16.43    4.04
  -8   8  -3   -0.48    5.84
   8  -8   3    8.69    4.50
  -8   8  -4   13.12    5.30
  -8   8  -4    5.70    4.13
   8  -8   4   17.75    4.67
  -8   8  -5   13.10    5.01
   8  -8   5   19.54    4.27
  -8   8  -5   10.91    4.06
  -8   8  -6   19.88    5.05
  -8   8  -6   13.85    4.84
   8  -8   6    5.68    4.76
  -8   8  -7   41.11    5.04
  -8   7  -1   14.21    6.02
   8  -7   1   -6.88    4.18
  -8   7  -1   20.38    6.34
  -8   7  -1   16.74    2.99
   8  -7   1    9.84    4.54
  -8   7  -2    2.77    5.93
  -8   7  -2    5.99    3.96
  -8   7  -2   15.42    6.93
   8  -7   2   -8.23    4.79
   8  -7   2    1.25    5.99
  -8   7  -3   25.96    5.63
   8  -7   3   22.86    7.11
  -8   7  -3   43.17    8.25
   8  -7   3   33.44    4.49
  -8   7  -3   33.14    4.63
  -8   7  -4  157.28    6.15
  -8   7  -4  166.14    4.91
   8  -7   4  165.37    5.46
  -8   7  -5  289.96    6.65
  -8   7  -5  295.96    4.56
   8  -7   5  349.14    5.81
  -8   7  -6   58.78    5.62
  -8   7  -6   44.32    5.07
   8  -7   6   36.77    4.57
  -8   7  -7   13.66    4.48
   8  -7   7    7.05    4.40
  -8   7  -7   -3.49    5.21
  -8   7  -8   -5.67    5.29
  -8   7  -8   20.80    4.41
   8  -7   8   -3.02    4.75
   8  -7   9   72.06    4.97
  -8   7  -9   81.60    4.17
  -8   7  -9   82.75    4.90
  -8   6  -1   77.40    4.38
   8  -6   1   73.31    4.84
  -8   6  -1   56.21    6.06
   8  -6   1   51.04    4.89
  -8   6  -1   48.86    6.55
   8  -6   2  271.76    4.21
  -8   6  -2  288.33    8.06
  -8   6  -2  235.06    7.71
   8  -6   2  259.17    5.99
  -8   6  -2  219.58    4.74
   8  -6   3  177.93    6.46
  -8   6  -3  157.08    4.71
  -8   6  -3  176.61    7.47
   8  -6   3  143.20    5.16
  -8   6  -3  126.14    5.96
  -8   6  -4   74.14    9.99
   8  -6   4   46.74    5.00
  -8   6  -4   31.19    4.56
  -8   6  -4   58.39    6.34
   8  -6   5   77.30    5.07
  -8   6  -5   40.93    4.70
  -8   6  -5   44.15    6.08
  -8   6  -6   13.14    5.24
   8  -6   6   18.03    5.14
  -8   6  -6   29.75    5.71
  -8   6  -7   31.39    4.92
   8  -6   7   19.16    3.56
  -8   6  -7   25.08    5.20
  -8   6  -8   54.92    4.07
   8  -6   8   59.22    5.22
  -8   6  -8   58.04    5.51
  -8   6  -9  195.50    4.67
   8  -6   9  165.56    5.64
  -8   6  -9  191.78    6.16
  -8   6 -10   83.52    4.69
   8  -6  10   77.94    3.68
  -8   6 -10   53.20    5.24
   8  -5   1   25.55    4.79
  -8   5  -1   16.01    6.20
   8  -5   1    9.43    4.76
  -8   5  -1   29.48    3.99
  -8   5  -2   49.14    4.30
   8  -5   2   64.16    3.71
  -8   5  -2   58.33    6.86
   8  -5   2   64.81    5.35
   8  -5   3  249.35    7.39
   8  -5   3  245.07    5.20
  -8   5  -3  245.03    8.06
  -8   5  -3  217.99    3.89
  -8   5  -3  285.48    7.30
  -8   5  -4  130.54    5.07
  -8   5  -4  164.72    8.51
   8  -5   4  144.39    4.93
   8  -5   4  140.54    7.22
  -8   5  -4  155.36    6.57
  -8   5  -5   35.79    4.87
  -8   5  -5   36.43   10.02
   8  -5   5    8.05    4.60
  -8   5  -5   30.23    5.86
  -8   5  -6  316.34    6.21
   8  -5   6  351.66    5.82
  -8   5  -6  350.69    7.62
  -8   5  -7  208.12    4.60
   8  -5   7  229.38    5.96
  -8   5  -7  227.70    6.72
  -8   5  -8   53.60    5.03
  -8   5  -8   60.54    5.34
   8  -5   8   58.64    3.84
   8  -5   9   33.70    4.65
  -8   5  -9    8.76    4.14
  -8   5  -9   15.78    5.23
   8  -5  10   20.94    5.12
  -8   5 -10   15.03    5.93
  -8   5 -10   37.58    5.25
   8  -5  11   -5.13    4.43
  -8   5 -11   15.04    5.27
  -8   5 -11   18.92    5.00
  -8   4  -1  998.62    7.42
   8  -4   1 1139.23    8.46
  -8   4  -1  886.95   10.60
   8  -4   1 1033.90    8.59
   8  -4   2  312.42    4.68
  -8   4  -2  269.57    7.96
  -8   4  -2  316.65    4.31
   8  -4   2  330.68    6.06
   8  -4   3   43.45    6.31
  -8   4  -3   54.12    4.47
   8  -4   3   58.05    5.26
  -8   4  -3   39.29    7.10
   8  -4   4  279.29    6.68
  -8   4  -4  258.63    4.32
  -8   4  -4  177.34    8.65
   8  -4   4  272.30    5.77
  -8   4  -5  158.40    5.38
  -8   4  -5  123.31    9.12
   8  -4   5  166.46    5.24
  -8   4  -6    6.83    8.53
  -8   4  -6    7.52    5.13
  -8   4  -6   10.03    8.60
   8  -4   6  -13.07    4.85
  -8   4  -7   64.29    3.94
  -8   4  -7   87.41    4.68
   8  -4   7   95.49    5.57
   8  -4   8   63.10    3.99
  -8   4  -8   40.95    5.82
  -8   4  -8   46.06    6.14
   8  -4   9   39.37    5.55
  -8   4  -9   42.76    5.88
  -8   4  -9   35.66    5.87
   8  -4  10   61.92    4.86
  -8   4 -10   41.22    4.47
  -8   4 -10   69.93    4.21
   8  -4  11   66.67    5.01
  -8   4 -11   66.46    5.52
  -8   4 -11   82.24    5.59
   8  -4  12   52.26    5.02
  -8   4 -12   32.87    5.30
  -8   4 -12   44.58    4.29
   8  -3   1  163.88    5.88
  -8   3  -1  157.68    5.28
   8  -3   1  161.93    5.59
  -8   3  -2   51.19    3.76
   8  -3   2   29.59    5.53
  -8   3  -2   36.04    7.18
   8  -3   2   58.46    5.87
   8  -3   3   30.45    6.09
  -8   3  -3   17.81    5.00
   8  -3   3   35.91    5.11
  -8   3  -3   16.61    8.38
   8  -3   4   59.56    6.19
  -8   3  -4   67.25    5.03
  -8   3  -4   54.22    7.28
   8  -3   4   74.54    5.11
  -8   3  -5  -15.26    3.83
  -8   3  -5   13.91    8.02
   8  -3   5  -16.07    5.60
  -8   3  -6    8.98    6.34
  -8   3  -6   17.07    8.10
  -8   3  -6   27.26    5.34
   8  -3   6   25.42    5.06
  -8   3  -7   54.38    7.59
  -8   3  -7   46.40    8.79
  -8   3  -7   59.18    5.11
   8  -3   7   44.82    5.07
   8  -3   8  133.00    5.77
  -8   3  -8  199.51    9.41
  -8   3  -8  116.97    9.39
  -8   3  -8  142.77    5.92
  -8   3  -9  141.66    6.01
   8  -3   9  116.34    4.35
  -8   3  -9  163.09   10.62
  -8   3  -9   90.34   10.33
  -8   3  -9  178.32    6.26
  -8   3 -10   -2.95    5.17
   8  -3  10   15.52    5.20
  -8   3 -10    1.21   12.33
  -8   3 -10    3.70   12.27
  -8   3 -10  -11.26    4.47
  -8   3 -11   54.39    5.82
   8  -3  11   27.35    3.79
  -8   3 -11   36.22    4.48
  -8   3 -12   65.98    5.99
   8  -3  12  101.91    5.44
  -8   3 -12  113.37    4.36
  -8   2  -1  271.46    4.42
   8  -2   1  292.49    5.99
  -8   2  -1  254.02    7.90
   8  -2   1  274.28    6.14
  -8   2  -2  394.95    4.86
   8  -2   2  452.64    6.81
   8  -2   2  428.57    6.67
   8  -2   3  174.94    6.09
  -8   2  -3  173.01    5.28
   8  -2   3  170.84    6.16
   8  -2   4   12.20    5.77
  -8   2  -4   -3.64    3.98
  -8   2  -4    5.82    6.87
   8  -2   4    9.30    5.61
  -8   2  -5  209.86    8.53
  -8   2  -5  215.13    4.34
   8  -2   5  255.78    6.23
  -8   2  -6  411.65    8.90
  -8   2  -6  451.04    6.34
   8  -2   6  451.59    5.50
   8  -2   7  117.61    5.87
  -8   2  -7  132.56    5.46
  -8   2  -7  146.79    7.03
  -8   2  -7  119.74    6.66
   8  -2   8    2.18    5.38
  -8   2  -8  -15.33    5.48
  -8   2  -8    8.68    6.67
  -8   2  -8   -7.66    5.95
   8  -2   9   22.86    3.92
  -8   2  -9   44.85    5.59
  -8   2  -9   51.68    6.75
  -8   2  -9   46.63    6.41
   8  -2  10  151.36    5.67
  -8   2 -10  167.27    6.20
  -8   2 -10  218.65    8.04
  -8   2 -10  211.50    5.53
  -8   2 -10  165.28    6.79
  -8   2 -11  142.69    6.01
   8  -2  11  128.77    5.67
  -8   2 -11  203.90    8.86
  -8   2 -11  212.53    6.67
  -8   2 -11  150.44    7.48
  -8   2 -12  181.22    5.90
   8  -2  12  143.11    5.22
  -8   2 -12  178.35    9.66
  -8   2 -12  169.99    5.91
  -8   2 -12  144.23    7.42
  -8   2 -13  105.29    5.23
   8  -2  13   97.64    4.26
  -8   2 -13  127.23    9.04
  -8   2 -13  106.46    4.51
  -8   2 -13   93.95    6.95
  -8   1  -1   28.03    5.70
   8  -1   1   45.37    4.54
  -8   1  -1   43.78    6.19
   8  -1   1   53.36    5.28
   8  -1   2  830.20    6.97
  -8   1  -2  812.55    6.63
   8  -1   2  860.64    8.49
  -8   1  -2  745.09    7.33
   8  -1   3  430.24    6.70
  -8   1  -3  395.43    5.12
   8  -1   3  407.12    7.07
  -8   1  -3  354.57    7.01
   8  -1   4  253.70    6.43
  -8   1  -4  235.52    6.09
   8  -1   4  245.27    6.39
  -8   1  -5  133.11    5.99
   8  -1   5  115.82    6.08
  -8   1  -5  126.22    5.78
   8  -1   6  181.16    4.54
  -8   1  -6  165.66    4.33
  -8   1  -6  155.60    6.51
   8  -1   7  152.51    4.61
  -8   1  -7  171.17    4.58
  -8   1  -7  186.68    6.28
  -8   1  -7  174.66    6.47
   8  -1   8   16.80    5.14
  -8   1  -8   44.97    5.65
  -8   1  -8    9.85    5.70
  -8   1  -8   15.52    6.05
   8  -1   9  145.39    5.62
  -8   1  -9  154.89    5.92
  -8   1  -9  178.18    6.60
  -8   1  -9  170.14    6.62
   8  -1  10  185.36    5.67
  -8   1 -10  225.02    5.70
  -8   1 -10  228.12    7.89
  -8   1 -10  204.66    6.47
   8  -1  11  122.91    5.57
  -8   1 -11  100.34    6.03
  -8   1 -11  136.74    7.16
  -8   1 -11  114.99    5.57
   8  -1  12   29.35    5.39
  -8   1 -12   16.91    4.20
  -8   1 -12    8.22    6.83
  -8   1 -12   -3.20    5.59
  -8   1 -12    7.27    4.87
   8  -1  13   53.05    5.22
  -8   1 -13   52.31    5.57
  -8   1 -13   67.02    7.29
  -8   1 -13   54.47    5.01
  -8   1 -13   53.29    5.76
  -8   0   0   46.82    5.20
   8   0   0   51.09    6.41
  -8   0   0   41.38    4.38
   8   0   0   37.48    3.96
  -8   0  -1  105.63    5.32
   8   0   1  140.85    6.28
  -8   0  -1  121.12    6.26
   8   0   1  126.81    5.74
   8   0   2   37.12    4.10
  -8   0  -2   18.25    5.48
   8   0   2   35.32    6.18
  -8   0  -2   21.24    6.06
   8   0   3  278.22    6.61
  -8   0  -3  237.00    6.53
  -8   0  -3  270.51    6.12
   8   0   3  266.22    6.99
  -8   0  -4  968.94    7.47
   8   0   4 1040.41    9.07
  -8   0  -4  918.76    7.56
   8   0   4 1002.34    8.93
   8   0   5  556.59    7.39
  -8   0  -5  548.21    6.70
  -8   0  -5  535.20    7.20
   8   0   6   -0.81    6.05
  -8   0  -6   14.21    5.28
   8   0   7  464.32    6.91
  -8   0  -7  486.91    7.42
  -8   0  -7  474.76    6.51
   8   0   8  930.73    8.41
  -8   0  -8 1053.65   11.22
  -8   0  -8 1029.77    8.28
  -8   0  -8  925.12    8.92
   8   0   9  174.71    5.51
  -8   0  -9  194.54    6.18
  -8   0  -9  169.98    5.42
  -8   0  -9  170.61    5.77
   8   0  10   22.03    3.79
  -8   0 -10   -0.11    5.49
  -8   0 -10  -13.04    5.08
  -8   0 -10    3.33    5.08
   8   0  11    4.27    4.04
  -8   0 -11    3.02    5.02
  -8   0 -11    9.91    5.47
  -8   0 -11    9.40    5.00
   8   0  12   60.79    5.06
  -8   0 -12   58.18    5.43
  -8   0 -12   38.97    5.93
  -8   0 -12   33.31    5.35
  -8   0 -13   54.26    5.57
   8   0  13   65.51    5.26
  -8   0 -13   60.45    5.02
  -8   0 -13   53.45    6.24
  -8   0 -13   65.87    5.05
  -8  -1   0  482.65    5.55
  -8  -1   0  455.96    5.50
   8   1   0  569.59    8.38
   8   1   0  510.37    6.70
   8   1   1 1258.82    8.26
  -8  -1  -1 1292.52    9.25
  -8  -1  -1 1135.91    9.14
   8   1   1 1386.30   11.16
   8   1   2  891.03    7.89
  -8  -1  -2  914.07    8.41
  -8  -1  -2  755.68    7.99
   8   1   2 1011.21    8.34
   8   1   3  133.64    4.62
  -8  -1  -3  148.49    4.53
  -8  -1  -3  144.01    6.39
   8   1   3  181.69    7.29
   8   1   4  200.52    7.18
   8   1   4  194.23    6.39
  -8  -1  -4  184.51    6.47
  -8  -1  -4  208.08    5.73
   8   1   5  881.99    7.32
  -8  -1  -5  874.78    8.23
  -8  -1  -5  883.85    8.53
   8   1   6   56.63    6.37
  -8  -1  -6   72.28    5.71
  -8  -1  -6   43.31    5.70
   8   1   7  175.99    6.24
  -8  -1  -7  198.54    5.38
  -8  -1  -7  174.70    6.11
  -8  -1  -7  163.35    6.06
   8   1   8  199.34    4.76
  -8  -1  -8  235.39    6.10
  -8  -1  -8  216.64    6.13
  -8  -1  -8  207.85    5.67
   8   1   9  -17.13    5.76
  -8  -1  -9    9.35    5.02
  -8  -1  -9   17.99    5.42
   8   1  10   30.83    4.01
  -8  -1 -10   26.71    5.81
  -8  -1 -10   43.36    3.95
  -8  -1 -11   26.07    4.60
   8   1  11   16.13    5.52
  -8  -1 -11   22.76    5.16
  -8  -1 -11   19.32    4.07
  -8  -1 -12   76.62    5.20
   8   1  12   57.10    5.17
  -8  -1 -12   92.57    5.73
  -8  -1 -12   42.66    5.91
  -8  -1 -13    2.37    4.42
   8   1  13    0.05    5.36
  -8  -1 -13    0.39    5.10
  -8  -1 -13    9.17    5.18
  -8  -1 -14   17.75    4.71
   8   1  14    4.19    4.58
  -8  -1 -14   21.54    5.34
  -8  -1 -14   36.04    5.09
   8   2   0  145.37    5.77
  -8  -2   0  144.09    5.81
  -8  -2   0  120.96    5.90
   8   2   0  164.03    7.88
   8   2   1  474.77    8.50
   8   2   1  408.48    6.38
  -8  -2  -1  424.68    6.84
  -8  -2  -1  360.55    4.97
   8   2   2  406.09    6.49
   8   2   2  449.70    8.31
  -8  -2  -2  367.39    5.99
  -8  -2  -2  378.79    6.54
   8   2   3  287.48    4.90
   8   2   3  310.53    7.90
  -8  -2  -3  307.07    6.72
  -8  -2  -3  269.86    6.17
   8   2   4    9.38    4.14
   8   2   4   30.98    6.61
  -8  -2  -4   19.31    6.09
  -8  -2  -4   15.99    5.61
   8   2   5  365.98    6.06
  -8  -2  -5  391.88    6.51
  -8  -2  -5  343.40    5.13
   8   2   6  108.62    7.02
  -8  -2  -6   85.68    6.12
  -8  -2  -6  105.68    5.40
   8   2   7  204.53    6.84
  -8  -2  -7  209.08    4.45
  -8  -2  -7  205.29    6.04
  -8  -2  -7  203.40    5.83
  -8  -2  -8   13.10    4.68
   8   2   8   31.36    4.46
  -8  -2  -8   17.03    5.16
  -8  -2  -8   30.75    5.31
  -8  -2  -9  378.94    5.32
   8   2   9  359.17    6.35
  -8  -2  -9  368.62    6.59
  -8  -2  -9  350.86    6.12
  -8  -2 -10  220.85    5.53
  -8  -2 -10  268.28    5.67
   8   2  10  237.96    6.17
  -8  -2 -10  258.89    4.75
  -8  -2 -11   53.53    4.86
  -8  -2 -11   70.90    5.27
   8   2  11   70.93    5.58
  -8  -2 -11   62.44    5.01
  -8  -2 -12   17.20    4.40
  -8  -2 -12   24.90    4.86
   8   2  12    9.05    3.65
  -8  -2 -12   12.20    4.77
  -8  -2 -13   30.01    4.92
  -8  -2 -13   25.12    4.58
   8   2  13   35.60    4.84
  -8  -2 -13   33.20    5.58
  -8  -2 -14   59.43    5.48
  -8  -2 -14   42.03    5.13
   8   3   0  618.38    6.78
   8   3   0  623.82   10.19
  -8  -3   0  572.62    7.36
  -8  -3   0  529.16    6.40
   8   3   1   15.58    5.46
   8   3   1    3.48    7.52
  -8  -3  -1    4.19    5.10
  -8  -3  -1    8.74    5.43
  -8  -3  -2  498.00    7.38
   8   3   2  510.06    5.36
   8   3   2  532.94    8.82
  -8  -3  -2  450.18    6.38
   8   3   3  886.59    6.92
  -8  -3  -3  918.26    8.60
   8   3   3  960.08   10.48
  -8  -3  -3  912.88    7.17
   8   3   4  470.83    8.32
  -8  -3  -4  483.57    7.28
  -8  -3  -4  453.90    6.73
   8   3   5   99.73    7.10
  -8  -3  -5  107.52    6.00
  -8  -3  -5  108.35    5.21
  -8  -3  -6  295.23    5.95
   8   3   6  243.85    7.62
  -8  -3  -6  300.93    6.37
  -8  -3  -6  266.18    5.94
  -8  -3  -7   75.20    5.21
   8   3   7   72.99    7.19
  -8  -3  -7   61.50    5.52
  -8  -3  -7   61.36    5.34
  -8  -3  -8   51.40    3.64
   8   3   8   54.79    6.87
  -8  -3  -8   50.37    5.86
  -8  -3  -8   77.78    4.98
  -8  -3  -9    2.76    5.06
  -8  -3  -9    2.62    4.85
   8   3   9   23.08    5.73
  -8  -3  -9   20.12    5.37
  -8  -3 -10   -5.95    4.63
  -8  -3 -10    3.19    4.81
   8   3  10   11.52    4.21
  -8  -3 -10   23.27    5.41
  -8  -3 -11   -4.60    4.76
  -8  -3 -11    4.53    4.68
   8   3  11    6.54    4.01
  -8  -3 -11    2.31    4.98
  -8  -3 -12   89.63    5.25
  -8  -3 -12   98.95    5.11
   8   3  12   42.79    5.09
  -8  -3 -12  122.43    5.67
  -8  -3 -13   53.55    4.43
  -8  -3 -13   54.25    4.39
   8   3  13   44.18    4.72
  -8  -3 -13   51.48    5.48
   8   4   0  132.02    5.52
   8   4   0  130.16    8.27
  -8  -4   0  144.81    6.43
  -8  -4   0  138.77    5.44
   8   4   1   65.50    8.25
   8   4   1   88.91    4.90
  -8  -4  -1   96.83    5.65
  -8  -4  -1   73.07    4.80
   8   4   2    2.43    5.29
  -8  -4  -2   20.87    5.81
   8   4   2  -10.26    8.02
  -8  -4  -2   10.80    3.64
   8   4   3   44.56    5.09
  -8  -4  -3   11.59    5.98
   8   4   3   23.02    7.41
  -8  -4  -3   33.37    5.38
   8   4   4   89.41    5.80
  -8  -4  -4   94.18    5.47
  -8  -4  -4   92.34    4.01
   8   4   5   92.21    7.43
  -8  -4  -5   83.64    5.51
  -8  -4  -5   84.76    5.43
  -8  -4  -6   21.55    3.66
   8   4   6   10.69    7.18
  -8  -4  -6   20.98    5.13
  -8  -4  -6   27.78    5.27
  -8  -4  -7   94.96    4.95
   8   4   7   94.85    7.28
  -8  -4  -7  104.28    5.85
  -8  -4  -7   97.05    4.92
  -8  -4  -8  159.31    5.37
   8   4   8  141.88    5.44
  -8  -4  -8  182.54    6.18
  -8  -4  -8  158.94    5.65
  -8  -4  -9   16.67    4.90
  -8  -4  -9    0.73    4.68
   8   4   9   10.43    6.31
  -8  -4  -9   -3.32    5.72
  -8  -4 -10  218.75    5.92
  -8  -4 -10  202.81    5.20
   8   4  10  198.88    5.02
  -8  -4 -10  207.66    6.28
  -8  -4 -11  449.26    6.82
  -8  -4 -11  495.15    6.88
   8   4  11  451.41    7.09
  -8  -4 -11  533.29    6.90
  -8  -4 -12  256.69    5.93
  -8  -4 -12  298.07    5.43
   8   4  12  234.14    4.84
  -8  -4 -12  286.65    6.53
  -8  -4 -13   28.08    3.41
  -8  -4 -13   33.65    4.54
   8   4  13   -7.77    4.75
  -8  -4 -13   23.50    5.38
   8   5   0   42.57    5.04
   8   5   0   48.01    8.63
  -8  -5   0   35.04    5.83
  -8  -5   0   19.05    4.96
   8   5   1   29.18    3.59
   8   5   1   45.82    7.63
  -8  -5  -1   38.12    4.61
  -8  -5  -1   53.48    5.35
   8   5   2   46.81    3.70
  -8  -5  -2   47.11    5.65
   8   5   2   22.34    7.86
  -8  -5  -2   35.20    4.69
  -8  -5  -3  144.98    5.90
   8   5   3  113.80    7.90
  -8  -5  -3  101.89    5.26
   8   5   4  742.95   10.36
  -8  -5  -4  812.83    8.15
  -8  -5  -4  799.68    7.47
   8   5   5  824.70   10.53
  -8  -5  -5  843.09    8.75
  -8  -5  -5  826.91    7.46
  -8  -5  -6  322.97    4.70
   8   5   6  278.65    8.11
  -8  -5  -6  341.51    6.12
  -8  -5  -6  328.60    6.09
  -8  -5  -7   44.82    5.03
   8   5   7   31.92    5.10
  -8  -5  -7   39.28    5.60
  -8  -5  -7   47.43    4.62
  -8  -5  -8  370.86    6.16
  -8  -5  -8  395.50    6.15
   8   5   8  357.24    6.22
  -8  -5  -8  390.90    6.78
  -8  -5  -9  334.04    5.92
  -8  -5  -9  317.88    4.56
   8   5   9  285.23    5.76
  -8  -5  -9  322.69    5.20
  -8  -5 -10   35.85    3.70
  -8  -5 -10   22.73    4.35
   8   5  10   45.14    4.38
  -8  -5 -10   59.53    3.97
  -8  -5 -11   19.95    3.70
  -8  -5 -11   35.01    4.61
   8   5  11   41.21    5.55
  -8  -5 -11   56.85    5.51
  -8  -5 -12   -6.85    4.23
  -8  -5 -12    4.00    4.30
   8   5  12    3.35    5.65
  -8  -5 -12   -8.51    4.14
  -8  -5 -13    3.69    4.22
  -8  -6   0    5.82    5.51
   8   6   0    2.20    7.42
  -8  -6   0   -0.34    3.29
   8   6   1  109.68    3.85
   8   6   1  139.33    8.83
  -8  -6  -1  112.96    5.00
  -8  -6  -1  131.52    6.41
  -8  -6  -2  154.43    5.74
   8   6   2  124.40    7.72
  -8  -6  -2  132.67    3.62
  -8  -6  -3   98.96    5.62
   8   6   3   99.26    7.00
  -8  -6  -3  117.66    4.77
   8   6   4   44.27    7.55
  -8  -6  -4   36.56    5.63
  -8  -6  -4   45.47    4.77
  -8  -6  -5    9.30    4.50
   8   6   5   -8.19    7.30
  -8  -6  -5   22.55    4.93
  -8  -6  -5   18.87    4.58
  -8  -6  -6   23.10    4.29
   8   6   6    6.13    7.24
  -8  -6  -6    6.16    5.50
  -8  -6  -6   24.73    4.35
  -8  -6  -7   13.75    3.48
   8   6   7    8.17    6.88
  -8  -6  -7   27.25    4.91
  -8  -6  -7   12.49    4.95
  -8  -6  -8  122.26    4.88
  -8  -6  -8  132.43    3.70
   8   6   8  114.17    5.13
  -8  -6  -8  139.83    5.51
  -8  -6  -9  286.16    5.71
  -8  -6  -9  277.35    5.17
   8   6   9  285.78    7.11
  -8  -6  -9  278.59    6.25
  -8  -6 -10   99.72    3.84
  -8  -6 -10  104.10    4.41
   8   6  10   97.71    5.81
  -8  -6 -10   84.58    5.17
  -8  -6 -11   -6.62    3.47
  -8  -6 -11   21.07    4.38
   8   6  11   -1.71    4.27
  -8  -6 -11    9.29    4.55
  -8  -6 -12   62.91    4.72
  -8  -6 -12   50.38    4.41
   8   6  12   61.94    4.12
  -8  -6 -12   87.42    3.86
   8   7   0   28.48    4.61
  -8  -7   0   25.46    6.01
   8   7   0   29.40    7.70
  -8  -7   0   13.85    3.42
   8   7   1   89.82    7.76
  -8  -7  -1   89.45    4.73
  -8  -7  -1   94.16    5.90
  -8  -7  -2  231.41    6.47
   8   7   2  250.87    8.99
  -8  -7  -2  229.80    4.58
  -8  -7  -3  424.72    6.56
   8   7   3  444.27    8.39
  -8  -7  -3  410.04    4.70
  -8  -7  -4   10.86    3.18
  -8  -7  -4   14.92    5.42
   8   7   4   26.51    6.37
  -8  -7  -4   15.35    3.18
  -8  -7  -5  277.59    4.81
   8   7   5  213.19    7.58
  -8  -7  -5  279.21    6.21
  -8  -7  -5  244.29    4.86
  -8  -7  -6  677.79    6.72
   8   7   6  549.66    8.08
  -8  -7  -6  602.57    7.29
  -8  -7  -6  639.06    6.67
  -8  -7  -7  580.86    5.58
   8   7   7  510.15    8.30
  -8  -7  -7  612.01    7.26
  -8  -7  -7  533.08    6.52
  -8  -7  -8  130.94    5.19
  -8  -7  -8  113.43    4.97
   8   7   8  113.03    6.26
  -8  -7  -8  132.26    5.66
  -8  -7  -9   22.66    4.61
  -8  -7  -9    7.13    3.16
   8   7   9   -2.23    6.21
  -8  -7  -9    7.42    3.85
  -8  -7 -10    8.39    5.05
  -8  -7 -10   21.91    4.49
   8   7  10   70.56    6.14
  -8  -7 -10   30.94    3.98
  -8  -7 -11   27.64    4.76
  -8  -7 -11   26.10    3.86
   8   7  11   39.96    4.32
  -8  -7 -11   35.91    5.27
  -8  -8   0  554.26    6.42
  -8  -8   0  598.76   12.84
  -8  -8  -1  310.79    5.27
  -8  -8  -1  324.20    7.45
  -8  -8  -2    1.09    5.42
   8   8   2    2.78    6.75
  -8  -8  -2   11.09    3.24
  -8  -8  -3   50.62    5.08
   8   8   3   58.21    6.16
  -8  -8  -3   53.24    3.46
  -8  -8  -4  114.01    4.31
  -8  -8  -4  107.27    5.50
   8   8   4  102.83    6.07
  -8  -8  -4  106.48    3.42
  -8  -8  -5   40.02    4.00
   8   8   5   21.39    5.63
  -8  -8  -5   28.30    4.68
  -8  -8  -5   18.65    4.17
  -8  -8  -6   -6.96    4.01
   8   8   6    3.35    6.12
  -8  -8  -6    5.14    5.01
  -8  -8  -6   -3.14    3.10
  -8  -8  -7    5.90    4.09
   8   8   7    4.21    5.46
  -8  -8  -7   12.35    4.50
  -8  -8  -7    7.89    3.24
  -8  -8  -8   -3.21    3.44
  -8  -8  -8    2.03    4.49
   8   8   8   11.97    6.00
  -8  -8  -8   10.39    3.68
  -8  -8  -9   12.38    4.85
  -8  -8  -9   19.40    4.44
   8   8   9    2.48    5.36
  -8  -8  -9    1.96    5.00
  -8  -8 -10   47.14    4.61
  -8  -8 -10   36.94    3.95
   8   8  10   29.73    4.55
  -8  -8 -10   27.05    4.55
  -8  -9   0   28.92    3.78
  -8  -9   0   11.49    4.20
  -8  -9  -1    7.45    6.07
  -8  -9  -1   31.70    4.13
  -8  -9  -2    9.72    5.14
  -8  -9  -2   32.87    3.86
  -8  -9  -3   48.57    4.20
  -8  -9  -3   57.92    5.68
  -8  -9  -3   83.74    4.03
  -8  -9  -4   90.82    4.61
  -8  -9  -4   90.78    5.13
   8   9   4   96.47    6.40
  -8  -9  -4   91.24    4.56
  -8  -9  -5   70.73    4.11
  -8  -9  -5   59.68    5.25
   8   9   5   62.78    6.21
  -8  -9  -5   42.82    3.29
  -8  -9  -6   76.88    4.23
   8   9   6   67.17    5.78
  -8  -9  -6   77.63    5.04
  -8  -9  -6   85.65    4.20
  -8  -9  -7   64.62    4.74
   8   9   7   26.93    5.33
  -8  -9  -7   60.46    4.66
  -8  -9  -7   48.30    4.19
  -8  -9  -8  204.89    5.10
  -8  -9  -8  209.75    5.49
  -8  -9  -8  186.05    4.00
  -9   7  -1   12.15    6.33
  -9   7  -1   12.69    2.94
   9  -7   1   19.98    4.64
  -9   7  -1   28.30    6.32
   9  -7   1   20.20    4.40
  -9   7  -2   10.53    6.19
  -9   7  -2    2.93    3.82
  -9   7  -2    5.33    5.47
   9  -7   2   -0.83    4.58
   9  -7   2   -8.09    5.03
  -9   7  -3   11.64    6.24
   9  -7   3    8.83    6.34
  -9   7  -3   15.87    7.59
   9  -7   3    0.98    4.61
  -9   7  -3    6.63    4.01
  -9   7  -4   22.23    5.61
  -9   7  -4   15.94    3.51
   9  -7   4   -3.86    4.31
  -9   7  -5   47.30    5.45
  -9   7  -5   27.68    4.76
   9  -7   5   63.34    4.60
  -9   7  -6   23.82    5.15
  -9   7  -6   37.75    3.48
   9  -7   6   42.94    4.31
  -9   6  -1   -6.76    4.12
   9  -6   1   11.51    3.40
  -9   6  -1    2.82    6.28
  -9   6  -1    7.39    6.24
   9  -6   1   -0.21    4.62
  -9   6  -2  107.54    6.06
   9  -6   2   92.31    3.62
  -9   6  -2   72.10    3.98
  -9   6  -2   77.70    5.87
   9  -6   2   90.01    4.98
   9  -6   3  314.84    8.04
  -9   6  -3  300.54    4.80
  -9   6  -3  339.17    9.18
   9  -6   3  340.13    4.99
  -9   6  -3  236.66    6.77
   9  -6   4  166.38    7.74
  -9   6  -4  188.97    9.11
  -9   6  -4  157.76    4.47
   9  -6   4  155.95    5.30
  -9   6  -4  145.96    6.32
   9  -6   5  -10.26    4.51
  -9   6  -5   10.02    3.40
  -9   6  -5   15.43    5.38
   9  -6   6   32.81    3.65
  -9   6  -6   29.83    5.06
  -9   6  -6   30.98    5.42
  -9   6  -7   54.76    3.76
   9  -6   7   51.15    3.68
  -9   6  -7   50.03    5.06
  -9   6  -8   29.74    3.71
   9  -6   8   36.92    3.52
  -9   6  -8   52.46    5.48
   9  -5   1  159.78    4.94
  -9   5  -1  127.03    6.08
  -9   5  -1  167.14    4.44
   9  -5   1  124.08    5.12
  -9   5  -2    4.51    4.14
   9  -5   2   31.81    4.21
  -9   5  -2    2.34    6.88
   9  -5   2   11.65    4.65
   9  -5   3   26.60    5.96
  -9   5  -3   23.06    6.17
   9  -5   3   35.35    4.70
  -9   5  -3   18.92    3.21
   9  -5   4    8.71    6.00
  -9   5  -4    6.60    7.33
   9  -5   4   -6.52    3.16
  -9   5  -4   11.99    5.37
  -9   5  -4   24.37    4.38
  -9   5  -5   35.66    4.47
  -9   5  -5   20.53    8.17
   9  -5   5   36.42    4.69
  -9   5  -5   25.29    5.38
  -9   5  -6   -1.62    4.51
   9  -5   6    4.56    4.97
  -9   5  -6   17.18    5.25
  -9   5  -7    8.34    5.04
  -9   5  -7    8.26    4.06
   9  -5   7    5.75    5.02
  -9   5  -8   39.23    4.63
  -9   5  -8   38.50    5.17
   9  -5   8   16.22    5.04
   9  -5   9    0.89    4.93
  -9   5  -9    8.78    5.02
  -9   5  -9   15.06    4.90
   9  -5  10   97.14    4.54
  -9   5 -10   95.87    5.20
  -9   5 -10   77.25    5.87
  -9   4  -1   16.47    3.23
   9  -4   1   31.74    4.64
  -9   4  -1   40.77    6.81
   9  -4   1   26.21    5.11
   9  -4   2  101.03    3.83
  -9   4  -2  116.63    3.55
  -9   4  -2   98.14    6.80
   9  -4   2  135.28    5.53
   9  -4   3   10.65    4.75
  -9   4  -3    7.32    6.38
   9  -4   3   16.66    4.51
  -9   4  -3   20.24    3.22
   9  -4   4  175.63    6.84
  -9   4  -4  175.51    4.98
  -9   4  -4  138.12    8.07
   9  -4   4  177.23    4.99
  -9   4  -5  341.01    5.15
  -9   4  -5  244.09    8.81
   9  -4   5  353.52    5.89
  -9   4  -6  170.55    8.11
  -9   4  -6  142.71    5.09
  -9   4  -6  132.72    8.58
   9  -4   6  142.04    4.85
  -9   4  -7    4.03    9.75
  -9   4  -7    4.58    4.49
  -9   4  -7    5.73    9.17
  -9   4  -7   24.04    6.03
   9  -4   7   21.39    4.53
   9  -4   8  191.82    5.16
  -9   4  -8  225.12    6.01
  -9   4  -8  312.32    6.25
   9  -4   9  176.06    5.54
  -9   4  -9  210.68    5.98
  -9   4  -9  246.32    7.18
   9  -4  10   30.04    5.07
  -9   4 -10   45.66    4.10
  -9   4 -10   71.51    5.34
   9  -4  11    8.05    4.24
  -9   4 -11   22.73    5.36
  -9   4 -11   -3.76    4.95
  -9   3  -1  122.43    4.58
   9  -3   1  113.28    5.22
  -9   3  -1  107.34    6.33
   9  -3   1   87.57    4.96
   9  -3   2  448.88    6.47
   9  -3   2  454.89    6.15
  -9   3  -2  430.27    5.88
   9  -3   3  156.44    5.53
  -9   3  -3  125.66    5.03
   9  -3   3  155.61    5.42
  -9   3  -3  138.65    7.37
   9  -3   4   10.16    5.29
  -9   3  -4   10.11    4.52
  -9   3  -4   24.91    6.94
   9  -3   4   29.66    3.75
  -9   3  -5   73.42    3.47
  -9   3  -5   72.65    7.15
   9  -3   5  106.29    4.92
  -9   3  -6  129.46    3.96
  -9   3  -6  128.75    8.44
   9  -3   6  130.66    5.46
  -9   3  -7   36.48    6.34
  -9   3  -7   20.24    4.63
  -9   3  -7   17.14    7.49
   9  -3   7   36.22    5.13
   9  -3   8   47.73    4.91
  -9   3  -8   25.89    7.25
  -9   3  -8   15.86    8.76
  -9   3  -8   28.09    4.79
   9  -3   9   43.40    5.30
  -9   3  -9   32.63    7.98
  -9   3  -9   23.20    8.96
  -9   3  -9   20.30    5.71
  -9   3  -9   28.73    5.03
   9  -3  10   25.19    4.64
  -9   3 -10   15.03   11.52
  -9   3 -10    6.83   11.06
  -9   3 -10   20.11    5.43
  -9   3 -10   17.94    4.02
  -9   3 -11   28.36    4.87
   9  -3  11   19.22    4.56
  -9   3 -11    7.70    4.28
   9  -2   1   -7.65    5.12
  -9   2  -1   12.65    6.44
  -9   2  -1   30.11    4.39
   9  -2   1   26.25    4.86
   9  -2   2   46.66    4.84
  -9   2  -2   55.67    3.69
   9  -2   2   58.26    5.98
  -9   2  -2   34.59    6.71
   9  -2   3  151.61    5.68
  -9   2  -3  161.31    5.38
   9  -2   3  184.40    6.11
   9  -2   4   17.91    4.86
  -9   2  -4   13.71    4.92
  -9   2  -4   11.99    6.36
   9  -2   4   32.44    4.91
   9  -2   5  305.40    6.49
  -9   2  -5  330.32    5.57
  -9   2  -5  290.11    7.50
   9  -2   5  324.12    4.87
  -9   2  -6  497.42    9.23
  -9   2  -6  517.21    6.43
   9  -2   6  502.34    6.69
   9  -2   7  566.51    6.68
  -9   2  -7  605.85    9.92
  -9   2  -7  570.44    9.39
  -9   2  -7  582.47    6.71
   9  -2   8  170.40    5.51
  -9   2  -8  230.07    7.57
  -9   2  -8  183.21    7.64
  -9   2  -8  182.05    5.22
  -9   2  -9   -3.86    4.57
   9  -2   9   17.99    4.87
  -9   2  -9    2.01    6.34
  -9   2  -9    0.56    6.42
  -9   2 -10   61.47    5.54
   9  -2  10   48.82    5.25
  -9   2 -10   61.37    7.37
  -9   2 -10   47.69    7.19
  -9   2 -11  153.58    5.39
   9  -2  11  131.21    5.73
  -9   2 -11  180.64    9.09
  -9   2 -11  200.20    6.99
  -9   2 -11  136.58    7.60
  -9   2 -12   47.62    4.91
   9  -2  12   62.76    4.47
  -9   2 -12   54.63    8.71
  -9   2 -12   35.43    6.59
  -9   2 -12   61.76    5.43
   9  -1   1  738.23    6.59
  -9   1  -1  544.98    7.35
  -9   1  -1  619.63    6.28
   9  -1   1  616.54    6.45
   9  -1   2   19.08    4.85
  -9   1  -2   16.32    4.99
  -9   1  -2   28.68    6.19
   9  -1   2   12.54    5.53
   9  -1   3  474.25    6.31
  -9   1  -3  435.79    6.00
  -9   1  -3  405.04    7.38
   9  -1   3  529.84    7.24
   9  -1   4  625.54    7.00
  -9   1  -4  634.01    7.28
   9  -1   4  702.20    6.49
   9  -1   5  345.78    6.17
  -9   1  -5  314.34    6.05
   9  -1   5  329.12    6.37
   9  -1   6   11.78    5.08
  -9   1  -6    3.14    5.57
  -9   1  -6    5.36    4.82
  -9   1  -7   71.83    5.20
   9  -1   7   52.51    4.08
  -9   1  -7   38.86    5.94
  -9   1  -7   44.53    5.70
   9  -1   8   46.42    4.85
  -9   1  -8   23.36    4.82
  -9   1  -8   36.93    5.31
  -9   1  -8   30.53    5.36
   9  -1   9    7.53    5.16
  -9   1  -9   25.48    4.63
  -9   1  -9   21.16    6.26
  -9   1  -9   18.07    4.98
   9  -1  10   25.88    4.84
  -9   1 -10   13.45    3.57
  -9   1 -10   15.88    6.53
  -9   1 -10   21.89    4.99
  -9   1 -11  102.57    5.11
   9  -1  11   89.63    4.77
  -9   1 -11  122.13    7.07
  -9   1 -11   83.24    5.24
  -9   1 -12   -6.98    3.87
   9  -1  12    8.26    3.79
  -9   1 -12    2.43    6.68
  -9   1 -12   45.38    5.43
  -9   1 -12    8.09    5.54
   9   0   0   17.02    5.95
  -9   0   0   -3.14    4.07
  -9   0   0   18.99    4.47
   9   0   0    1.19    4.62
   9   0   1  137.83    4.88
  -9   0  -1  153.58    4.99
  -9   0  -1  125.95    5.48
   9   0   1  169.59    6.11
   9   0   2   31.40    5.05
  -9   0  -2   10.55    5.16
  -9   0  -2   14.52    5.45
   9   0   2   20.51    5.63
   9   0   3   40.87    4.96
  -9   0  -3   29.91    5.04
  -9   0  -3   20.01    5.69
   9   0   3   39.51    4.39
   9   0   4   86.84    5.67
  -9   0  -4   80.64    5.90
  -9   0  -4   99.51    5.57
   9   0   4   93.35    6.36
   9   0   5  207.78    5.04
  -9   0  -5  177.32    6.00
  -9   0  -5  190.72    5.89
   9   0   6  144.88    6.18
  -9   0  -6  142.22    5.36
   9   0   7   21.10    3.89
  -9   0  -7    8.42    4.74
  -9   0  -7   14.53    4.97
   9   0   8  573.72    6.87
  -9   0  -8  618.39    6.80
  -9   0  -8  594.44    7.84
  -9   0  -8  561.11    7.18
   9   0   9  186.36    5.34
  -9   0  -9  259.99    5.69
  -9   0  -9  227.98    5.91
  -9   0  -9  224.99    6.10
   9   0  10   89.93    4.91
  -9   0 -10   87.07    3.87
  -9   0 -10   96.15    5.55
  -9   0 -10   80.84    4.96
   9   0  11    3.37    4.99
  -9   0 -11   -3.42    5.10
  -9   0 -11    2.26    5.41
  -9   0 -11  -12.61    5.07
   9   0  12  141.72    4.31
  -9   0 -12  154.37    5.43
  -9   0 -12  161.36    6.72
  -9   0 -12  157.30    5.70
  -9   0 -13   51.36    4.81
   9   0  13   27.59    4.91
  -9   0 -13   52.62    6.41
  -9   0 -13   45.71    5.06
  -9   0 -13   22.91    4.94
   9   1   0   42.93    3.85
  -9  -1   0   46.62    5.22
   9   1   0   50.18    6.04
  -9  -1   0   52.76    4.49
   9   1   1  390.72    5.89
  -9  -1  -1  384.33    6.32
  -9  -1  -1  351.09    6.00
   9   1   1  462.72    7.75
   9   1   2  658.54    6.89
  -9  -1  -2  645.18    7.17
  -9  -1  -2  565.04    6.72
   9   1   2  687.14    8.33
   9   1   3  366.25    7.12
   9   1   3  393.02    6.07
  -9  -1  -3  344.61    6.00
  -9  -1  -3  335.08    4.94
   9   1   4   41.99    5.98
   9   1   4   30.34    5.18
  -9  -1  -4   20.97    4.93
  -9  -1  -4   17.76    4.04
  -9  -1  -5  146.23    5.46
   9   1   5  158.62    4.83
  -9  -1  -5  131.67    5.47
   9   1   6  208.43    6.28
  -9  -1  -6  188.93    5.58
  -9  -1  -6  193.48    5.79
   9   1   7   57.39    6.01
  -9  -1  -7   46.63    5.01
  -9  -1  -7   55.00    5.17
  -9  -1  -7   53.14    4.90
   9   1   8    0.46    3.90
  -9  -1  -8   19.40    4.83
  -9  -1  -8   34.24    5.22
  -9  -1  -8   10.57    4.56
   9   1   9  317.78    6.01
  -9  -1  -9  364.28    6.22
  -9  -1  -9  374.53    6.17
   9   1  10   58.96    5.48
  -9  -1 -10   76.41    5.33
  -9  -1 -10   70.79    3.85
   9   1  11   29.25    3.57
  -9  -1 -11   10.02    5.10
  -9  -1 -11    5.13    4.80
  -9  -1 -11   13.17    4.40
   9   1  12   40.44    5.20
  -9  -1 -12   17.89    5.16
  -9  -1 -12   38.07    3.77
  -9  -1 -12   24.78    4.73
   9   1  13   -6.24    5.08
  -9  -1 -13    3.09    5.16
  -9  -1 -13   16.00    5.40
  -9  -1 -13    5.07    4.82
   9   2   0   99.85    4.82
  -9  -2   0   66.21    5.50
  -9  -2   0   66.15    5.56
   9   2   0  102.50    7.04
   9   2   1   -6.40    6.62
   9   2   1   10.99    3.66
  -9  -2  -1  -13.08    4.86
  -9  -2  -1    7.58    5.07
   9   2   2   -8.18    5.30
   9   2   2    1.78    6.92
  -9  -2  -2    7.48    5.30
  -9  -2  -2    4.74    3.72
   9   2   3   -2.10    4.79
   9   2   3   29.07    6.08
  -9  -2  -3   19.18    4.89
  -9  -2  -3   28.12    5.44
  -9  -2  -4   15.53    5.34
   9   2   4   28.64    6.23
   9   2   4   26.15    5.09
  -9  -2  -4   27.48    5.01
   9   2   5   -2.15    6.38
  -9  -2  -5    7.21    5.34
  -9  -2  -5   11.08    4.77
   9   2   6   31.45    6.68
  -9  -2  -6   28.07    5.49
  -9  -2  -6   38.62    4.94
  -9  -2  -7  102.40    5.30
   9   2   7   97.43    6.55
  -9  -2  -7   91.84    5.72
  -9  -2  -7   97.81    5.45
  -9  -2  -8    8.08    4.32
   9   2   8   25.88    5.82
  -9  -2  -8   15.39    3.65
  -9  -2  -8   13.13    4.56
  -9  -2  -9  141.27    4.91
   9   2   9  139.38    6.17
  -9  -2  -9  155.75    4.30
  -9  -2  -9  154.91    4.95
   9   2  10  129.44    5.60
  -9  -2 -10  154.98    5.51
  -9  -2 -10  166.94    5.58
  -9  -2 -10  114.44    5.01
   9   2  11  128.71    5.30
  -9  -2 -11  128.68    4.93
  -9  -2 -11  117.78    5.56
  -9  -2 -11  114.08    5.07
  -9  -2 -12   10.25    4.69
   9   2  12    5.49    3.89
  -9  -2 -12   11.23    5.11
  -9  -2 -12    2.11    4.18
  -9  -2 -13   65.65    5.06
   9   2  13   46.37    3.82
  -9  -2 -13   47.98    4.86
   9   3   0   44.78    4.62
  -9  -3   0   56.72    4.68
   9   3   0   65.36    6.21
  -9  -3   0   53.86    3.84
   9   3   1   23.69    5.37
   9   3   1   31.19    6.57
  -9  -3  -1   24.75    5.02
  -9  -3  -1   39.23    4.72
   9   3   2   78.45    5.35
   9   3   2   64.80    6.88
  -9  -3  -2   57.33    5.72
  -9  -3  -2   58.12    5.42
  -9  -3  -3  288.20    6.28
   9   3   3  272.05    4.61
   9   3   3  319.05    7.29
  -9  -3  -3  283.53    6.11
   9   3   4  423.81    6.04
  -9  -3  -4  451.31    6.99
   9   3   4  461.12    8.31
  -9  -3  -4  411.87    5.95
   9   3   5   53.59    4.86
  -9  -3  -5   41.41    3.98
  -9  -3  -5   40.19    4.96
   9   3   6  261.46    7.25
  -9  -3  -6  248.05    5.62
  -9  -3  -6  228.19    5.58
  -9  -3  -7  423.72    6.09
   9   3   7  409.66    6.21
  -9  -3  -7  470.76    6.34
  -9  -3  -7  420.36    6.24
  -9  -3  -8  248.66    5.48
   9   3   8  202.28    6.50
  -9  -3  -8  260.18    5.80
  -9  -3  -8  242.90    5.24
  -9  -3  -9   38.07    4.40
   9   3   9  -18.17    6.39
  -9  -3  -9   43.34    5.09
  -9  -3  -9   21.86    4.44
  -9  -3 -10   99.24    4.72
   9   3  10  114.87    5.52
  -9  -3 -10   99.80    5.26
  -9  -3 -10  109.18    4.97
  -9  -3 -11  150.18    5.16
   9   3  11  123.47    4.59
  -9  -3 -11  169.06    5.31
  -9  -3 -11  158.52    4.90
  -9  -3 -12   95.60    4.79
  -9  -3 -12  132.09    4.93
   9   3  12   96.73    5.25
  -9  -3 -12  119.11    5.80
   9   4   0   44.95    4.84
  -9  -4   0   46.94    5.13
   9   4   0   24.82    6.84
  -9  -4   0   32.88    4.85
   9   4   1  229.92    5.06
   9   4   1  191.83    7.85
  -9  -4  -1  217.10    5.97
  -9  -4  -1  238.53    5.07
   9   4   2  129.65    5.21
   9   4   2  132.16    7.72
  -9  -4  -2  134.87    4.12
  -9  -4  -2  120.52    5.48
   9   4   3   24.99    4.90
  -9  -4  -3   35.97    4.92
   9   4   3   26.64    6.59
  -9  -4  -3   36.25    4.76
  -9  -4  -4  425.18    6.50
   9   4   4  431.62    7.76
  -9  -4  -4  337.80    5.64
   9   4   5  294.38    7.49
  -9  -4  -5  310.59    5.81
  -9  -4  -5  268.02    5.47
  -9  -4  -6  145.51    4.59
   9   4   6  123.16    6.78
  -9  -4  -6   96.21    5.12
  -9  -4  -6  122.22    3.89
  -9  -4  -7   76.68    4.91
   9   4   7   82.23    5.14
  -9  -4  -7   80.05    4.95
  -9  -4  -7   69.29    5.07
  -9  -4  -8   50.31    4.22
   9   4   8   51.57    5.99
  -9  -4  -8   53.60    5.31
  -9  -4  -8   51.12    4.85
  -9  -4  -9   58.54    4.27
   9   4   9   75.30    6.41
  -9  -4  -9   67.12    5.12
  -9  -4  -9   60.22    5.11
  -9  -4 -10    4.94    4.13
   9   4  10   11.37    4.31
  -9  -4 -10   18.54    5.13
  -9  -4 -10    0.65    4.92
  -9  -4 -11  104.22    5.26
  -9  -4 -11  108.40    4.47
   9   4  11  111.31    6.11
  -9  -4 -11  126.00    5.65
  -9  -4 -12  197.99    5.46
  -9  -4 -12  201.33    4.88
   9   4  12  165.31    4.77
  -9  -4 -12  177.57    5.37
   9   5   0  184.70    4.02
  -9  -5   0  188.36    6.10
   9   5   0  178.32    9.09
  -9  -5   0  190.56    5.08
   9   5   1   84.36    4.79
   9   5   1   45.12    8.24
  -9  -5  -1   64.38    4.94
  -9  -5  -1   45.71    4.32
   9   5   2   -2.06    3.51
   9   5   2    0.79    7.02
  -9  -5  -2    3.73    3.48
  -9  -5  -2   14.41    4.69
  -9  -5  -3   46.07    5.32
   9   5   3   42.19    6.76
  -9  -5  -3   27.79    3.41
  -9  -5  -4  200.97    6.21
   9   5   4  169.83    7.32
  -9  -5  -4  190.10    4.19
  -9  -5  -5  306.19    6.17
   9   5   5  282.73    7.62
  -9  -5  -5  270.71    5.18
  -9  -5  -6  273.83    5.20
   9   5   6  250.40    7.79
  -9  -5  -6  285.96    5.97
  -9  -5  -6  284.67    5.54
  -9  -5  -7   31.82    4.25
   9   5   7   42.45    6.61
  -9  -5  -7   13.04    5.40
  -9  -5  -7   42.77    4.39
  -9  -5  -8   93.60    4.69
   9   5   8   66.97    5.04
  -9  -5  -8   87.29    4.94
  -9  -5  -8   77.03    3.64
  -9  -5  -9  378.51    5.74
   9   5   9  330.93    5.72
  -9  -5  -9  390.06    6.54
  -9  -5  -9  363.12    5.56
  -9  -5 -10  196.91    5.24
   9   5  10  176.58    4.91
  -9  -5 -10  211.66    4.46
  -9  -5 -10  213.70    5.07
  -9  -5 -11   38.91    4.72
  -9  -5 -11   20.43    4.37
   9   5  11   31.89    5.16
  -9  -5 -11   40.62    3.55
  -9  -5 -12   25.40    4.18
  -9  -6   0   20.82    5.72
   9   6   0   22.13    3.36
   9   6   0   20.82    7.97
  -9  -6   0   12.34    3.41
   9   6   1   26.48    3.36
   9   6   1   36.91    7.85
  -9  -6  -1   19.20    5.16
  -9  -6  -1   33.09    4.12
   9   6   2   94.40    7.29
  -9  -6  -2  103.24    4.67
  -9  -6  -2  104.42    5.88
  -9  -6  -3  313.99    5.69
   9   6   3  232.13    7.85
  -9  -6  -3  308.32    5.35
  -9  -6  -4  138.17    5.95
   9   6   4  112.55    7.42
  -9  -6  -4  114.12    4.42
  -9  -6  -5   14.29    3.28
  -9  -6  -5    9.68    4.55
   9   6   5   17.76    6.66
  -9  -6  -5   -2.06    3.24
  -9  -6  -6    7.53    4.65
   9   6   6   29.50    6.50
  -9  -6  -6   15.54    4.95
  -9  -6  -6    0.71    4.57
  -9  -6  -7   52.77    3.55
   9   6   7   42.21    6.79
  -9  -6  -7   76.75    5.15
  -9  -6  -7   74.90    4.77
  -9  -6  -8   72.06    4.75
   9   6   8   84.64    5.17
  -9  -6  -8   90.62    4.14
  -9  -6  -8   94.11    4.83
  -9  -6  -9   66.74    4.32
   9   6   9   48.48    6.53
  -9  -6  -9   25.07    4.91
  -9  -6  -9   38.00    4.28
  -9  -6 -10   37.76    4.07
   9   6  10   45.11    5.44
  -9  -6 -10   62.31    4.79
  -9  -6 -10   38.29    4.94
  -9  -6 -11   27.47    4.66
  -9  -6 -11   16.30    3.01
   9   6  11   13.96    4.27
  -9  -6 -11   32.21    3.62
   9   7   0  248.51    5.07
   9   7   0  288.77   10.64
  -9  -7   0  237.63    7.14
  -9  -7   0  196.03    4.13
  -9  -7  -1  192.88    6.27
   9   7   1  246.87    8.75
  -9  -7  -1  188.15    4.75
  -9  -7  -2   77.44    5.03
   9   7   2   94.86    7.34
  -9  -7  -2   81.23    4.21
  -9  -7  -3  148.73    5.37
   9   7   3  156.98    7.60
  -9  -7  -3  133.07    3.53
  -9  -7  -4   85.21    5.10
   9   7   4   65.95    6.15
  -9  -7  -4   76.47    4.18
  -9  -7  -5    7.23    4.05
  -9  -7  -5   -0.02    4.98
   9   7   5   -3.68    6.71
  -9  -7  -5   -3.04    4.45
  -9  -7  -6   61.81    4.24
  -9  -7  -6   32.79    4.93
   9   7   6    9.23    5.89
  -9  -7  -6   18.58    4.16
  -9  -7  -7  130.55    3.78
   9   7   7  126.51    6.93
  -9  -7  -7  126.16    5.20
  -9  -7  -7  129.73    4.63
  -9  -7  -8   78.08    4.49
   9   7   8   91.10    6.02
  -9  -7  -8   77.77    5.15
  -9  -7  -8   89.32    4.75
  -9  -7  -9   26.86    3.91
   9   7   9    2.64    5.55
  -9  -7  -9    6.88    4.88
  -9  -7  -9   16.65    3.97
  -9  -8   0   16.75    4.13
  -9  -8  -1   44.13    5.76
  -9  -8  -1   40.63    4.64
   9   8   2  104.51    7.23
  -9  -8  -2   85.19    4.57
  -9  -8  -2   77.33    5.58
  -9  -8  -3    2.42    4.81
   9   8   3   -3.63    6.25
  -9  -8  -3  -16.98    4.39
  -9  -8  -4  105.21    3.53
  -9  -8  -4   93.64    5.00
   9   8   4  146.35    7.11
  -9  -8  -4   90.40    3.33
  -9  -8  -5   99.83    4.64
  -9  -8  -5   96.36    5.14
   9   8   5  116.32    6.83
  -9  -8  -5  103.02    4.70
  -9  -8  -6   28.65    4.44
  -9  -8  -6   40.98    4.71
   9   8   6   36.77    6.04
  -9  -8  -6   26.80    4.33
  -9  -8  -7   15.24    4.46
  -9  -8  -7   40.43    4.70
   9   8   7   28.13    5.96
  -9  -8  -7   28.37    4.50
  -9  -8  -8  132.67    4.85
   9   8   8   59.76    6.44
  -9  -8  -8  140.53    4.70
  -9  -8  -8  127.71    4.79
  10  -6   1   54.84    4.80
 -10   6  -1   40.69    5.40
 -10   6  -1   42.99    3.14
 -10   6  -1   47.38    6.19
  10  -6   1   47.72    4.45
  10  -6   2    8.04    5.04
 -10   6  -2   -0.50    3.61
 -10   6  -2   18.52    5.20
  10  -6   2    3.53    4.05
 -10   6  -2   12.40    5.55
  10  -6   3   67.22    5.80
 -10   6  -3   78.86    6.90
  10  -6   3   82.61    3.55
 -10   6  -3   45.59    5.90
 -10   6  -3   69.56    4.35
 -10   6  -4   71.12    4.66
 -10   6  -4   83.30    7.39
  10  -6   4  104.51    3.72
 -10   6  -4   85.29    5.92
 -10   6  -5   25.98    3.25
  10  -6   5   40.34    4.26
 -10   6  -5   50.45    5.44
 -10   5  -1   56.41    3.16
  10  -5   1   81.91    4.46
 -10   5  -1   55.51    6.40
  10  -5   1   76.11    4.67
  10  -5   2   79.52    5.16
 -10   5  -2   55.80    6.39
  10  -5   2   89.81    4.94
 -10   5  -2   99.23    4.41
  10  -5   3    7.58    4.89
 -10   5  -3    4.10    3.20
 -10   5  -3    5.00    6.53
  10  -5   3   22.54    4.43
  10  -5   4  230.23    6.92
 -10   5  -4  209.11    8.23
 -10   5  -4  215.06    4.45
  10  -5   4  213.10    4.83
 -10   5  -4  242.89    6.92
 -10   5  -5  206.74    9.08
  10  -5   5  173.64    5.16
 -10   5  -5  205.21    6.33
 -10   5  -5  143.05    3.81
 -10   5  -6   41.74    4.00
 -10   5  -6   44.87    9.57
 -10   5  -6   14.90    7.38
 -10   5  -6   18.73    6.15
  10  -5   6   39.33    3.42
 -10   5  -7    2.19    4.34
 -10   5  -7   -4.37    4.90
  10  -5   7  -12.17    4.72
 -10   5  -8   14.84    4.39
 -10   5  -8   15.87    4.08
  10  -5   8   16.93    4.08
  10  -4   1   30.01    5.01
 -10   4  -1   21.58    3.83
  10  -4   1   18.51    4.39
  10  -4   2   30.76    4.58
 -10   4  -2   31.68    4.07
 -10   4  -2   22.31    6.48
  10  -4   2   42.85    3.83
  10  -4   3   20.14    4.81
 -10   4  -3   11.35    6.46
  10  -4   3   41.18    3.46
 -10   4  -3   30.75    4.54
  10  -4   4    5.74    4.87
 -10   4  -4   15.16    6.96
  10  -4   4   20.23    3.64
 -10   4  -4   10.80    4.19
 -10   4  -5   81.62    3.39
 -10   4  -5   66.80    7.09
  10  -4   5   90.98    4.58
 -10   4  -6  101.57    7.09
 -10   4  -6   98.93    4.28
 -10   4  -6   83.23    7.65
  10  -4   6   90.31    5.08
 -10   4  -7   54.77    7.33
 -10   4  -7   38.97    4.93
 -10   4  -7   46.75    7.93
  10  -4   7   51.27    4.48
  10  -4   8   49.96    3.57
 -10   4  -8   22.35    4.87
 -10   4  -8   25.41    5.74
  10  -4   9  178.00    5.49
 -10   4  -9  182.34    5.61
 -10   4  -9  226.21    6.99
 -10   3  -1   84.83    4.06
  10  -3   1   46.11    5.17
 -10   3  -1   59.35    6.46
  10  -3   1   70.94    4.78
  10  -3   2  143.88    5.11
  10  -3   2  156.84    5.06
 -10   3  -2  127.82    3.53
  10  -3   3  251.02    5.62
 -10   3  -3  219.77    7.38
  10  -3   3  255.15    5.31
 -10   3  -3  245.35    4.91
  10  -3   4  101.33    5.41
 -10   3  -4   95.58    4.74
 -10   3  -4   83.10    7.30
  10  -3   4   94.85    5.02
 -10   3  -5    7.87    4.18
 -10   3  -5   20.40    6.50
  10  -3   5   23.93    5.07
 -10   3  -6  153.90    4.63
 -10   3  -6  142.65    7.46
  10  -3   6  163.49    4.05
  10  -3   7  214.73    5.32
 -10   3  -7  236.47    7.46
 -10   3  -7  207.56    5.26
 -10   3  -7  158.28    8.28
  10  -3   8  169.70    4.24
 -10   3  -8  240.30    8.76
 -10   3  -8  207.83    5.06
 -10   3  -8  131.40    8.84
  10  -3   9    8.50    4.50
 -10   3  -9   21.45    8.35
 -10   3  -9   12.06    7.83
 -10   3  -9   10.47    4.44
  10  -3  10   -7.40    4.89
 -10   3 -10    3.03    7.12
 -10   3 -10    4.53    4.25
 -10   3 -10   14.84    5.35
 -10   3 -10   26.58    5.09
  10  -2   1  225.98    4.90
 -10   2  -1  264.28    5.28
  10  -2   1  263.33    6.10
 -10   2  -1  221.60    6.11
  10  -2   2   56.97    4.60
 -10   2  -2   59.61    6.54
  10  -2   2   40.60    4.84
 -10   2  -2   51.57    3.42
  10  -2   3   61.17    5.08
 -10   2  -3   24.14    4.23
  10  -2   3   29.29    3.92
  10  -2   4   52.59    5.29
 -10   2  -4   33.00    3.47
 -10   2  -4   19.76    6.83
  10  -2   4   30.65    4.90
  10  -2   5    3.33    4.78
 -10   2  -5    8.62    4.78
 -10   2  -5   17.81    5.88
  10  -2   5   15.56    5.29
 -10   2  -6   39.99    4.60
 -10   2  -6   48.91    5.52
  10  -2   6   23.08    4.83
  10  -2   7  102.80    5.00
 -10   2  -7  111.28    6.21
 -10   2  -7  117.99    5.00
 -10   2  -7   98.71    6.35
  10  -2   8  168.35    4.84
 -10   2  -8  173.71    6.98
 -10   2  -8  142.55    7.39
 -10   2  -8  156.39    3.92
  10  -2   9   15.91    4.83
 -10   2  -9   -6.35    6.09
 -10   2  -9    7.09    6.66
 -10   2  -9    7.23    3.49
  10  -2  10   50.54    3.53
 -10   2 -10   65.51    6.69
 -10   2 -10   41.96    6.37
 -10   2 -10   44.83    4.57
 -10   2 -11  130.09    4.05
  10  -2  11  101.96    5.13
 -10   2 -11  142.66    8.49
 -10   2 -11   92.21    7.01
 -10   2 -11  125.27    5.94
  10  -1   1  129.82    4.59
 -10   1  -1  101.83    5.48
  10  -1   1  141.20    5.61
 -10   1  -1  136.04    3.74
  10  -1   2   98.40    5.02
 -10   1  -2  100.04    4.54
 -10   1  -2   88.72    5.90
  10  -1   2  128.60    5.39
  10  -1   3   -1.64    4.61
 -10   1  -3    4.88    4.60
 -10   1  -3  -17.53    5.83
  10  -1   3   -7.82    5.47
  10  -1   4  323.92    5.75
 -10   1  -4  330.01    5.67
 -10   1  -4  318.13    6.72
  10  -1   4  332.91    6.38
  10  -1   5  306.78    5.87
 -10   1  -5  293.06    5.36
  10  -1   5  311.62    5.94
  10  -1   6   65.90    4.00
 -10   1  -6   52.13    5.13
 -10   1  -6   50.93    5.38
  10  -1   7   34.36    5.29
 -10   1  -7   48.42    5.38
 -10   1  -7   38.97    5.82
 -10   1  -7   37.58    5.23
  10  -1   8  170.93    5.23
 -10   1  -8  196.07    5.99
 -10   1  -8  184.73    6.49
 -10   1  -8  207.82    5.17
 -10   1  -9  107.95    3.90
  10  -1   9  120.39    5.13
 -10   1  -9  105.52    5.55
 -10   1  -9   82.05    5.64
 -10   1 -10   17.95    4.87
  10  -1  10   36.90    4.55
 -10   1 -10   22.13    5.26
 -10   1 -10   11.01    5.41
  10  -1  11   15.87    4.93
 -10   1 -11    5.93    5.77
 -10   1 -11    2.60    4.83
  10   0   0  170.26    4.77
 -10   0   0  168.18    4.42
 -10   0   0  148.46    4.39
  10   0   0  223.25    6.25
  10   0   1   15.18    5.02
 -10   0  -1   22.93    5.50
  10   0   1   30.79    5.81
 -10   0  -1   22.21    4.59
  10   0   2  245.56    5.49
 -10   0  -2  238.58    5.55
 -10   0  -2  208.80    5.56
  10   0   2  247.81    6.04
  10   0   3  189.69    5.43
 -10   0  -3  179.07    5.31
 -10   0  -3  160.65    5.72
  10   0   3  204.56    4.86
  10   0   4   39.40    5.25
  10   0   4   20.53    4.66
 -10   0  -4   50.01    4.67
 -10   0  -4   44.31    4.96
  10   0   5   11.08    5.02
 -10   0  -5    9.64    5.00
 -10   0  -5   23.67    5.05
 -10   0  -6    1.13    3.71
 -10   0  -7   17.80    3.51
  10   0   7   -3.10    4.92
 -10   0  -7   20.02    4.77
 -10   0  -8   -7.66    5.15
  10   0   8    2.06    5.48
 -10   0  -8    1.24    4.38
 -10   0  -8    3.57    4.38
 -10   0  -9   25.11    4.64
  10   0   9    8.61    4.94
 -10   0  -9    9.55    4.86
 -10   0  -9    9.57    4.69
 -10   0 -10   22.59    4.79
  10   0  10   10.77    3.67
 -10   0 -10   23.50    5.27
 -10   0 -10   10.64    5.11
 -10   0 -11    0.06    3.54
  10   0  11   -0.80    4.99
 -10   0 -11    4.90    5.69
 -10   0 -11    3.27    4.79
  10   1   0   21.18    4.80
 -10  -1   0   32.27    4.48
 -10  -1   0   32.04    5.17
  10   1   0   36.31    5.70
  10   1   1   52.18    3.48
 -10  -1  -1   39.14    4.67
 -10  -1  -1   32.19    3.82
  10   1   1   64.06    5.45
  10   1   2   27.48    5.93
  10   1   2   30.11    3.49
 -10  -1  -2    9.66    4.49
 -10  -1  -2   39.25    4.95
  10   1   3    7.40    4.36
  10   1   3    0.45    4.86
 -10  -1  -3    2.64    4.91
 -10  -1  -3   -5.70    5.02
  10   1   4   37.74    5.32
  10   1   4   36.51    5.01
 -10  -1  -4   45.26    4.53
 -10  -1  -4   32.33    3.64
  10   1   5   78.98    6.07
 -10  -1  -5   50.43    5.04
 -10  -1  -5   56.29    3.88
 -10  -1  -6  213.62    5.44
  10   1   6  172.67    5.97
 -10  -1  -6  196.58    5.06
 -10  -1  -7  167.67    5.70
  10   1   7  141.81    6.31
 -10  -1  -7  178.72    5.16
 -10  -1  -7  164.21    5.43
 -10  -1  -8   10.24    4.59
  10   1   8   18.49    5.45
 -10  -1  -8   -9.78    4.76
 -10  -1  -8    7.25    4.90
 -10  -1  -9  110.99    5.40
  10   1   9  121.41    5.71
 -10  -1  -9  114.08    5.06
  10   1  10  124.21    5.39
 -10  -1 -10  173.51    4.24
 -10  -1 -10  160.32    5.51
 -10  -1 -10  155.81    5.04
  10   1  11  145.65    4.93
 -10  -1 -11  130.91    5.30
 -10  -1 -11  142.50    5.55
 -10  -1 -11  150.31    5.19
  10   2   0   69.64    4.97
  10   2   0   65.52    6.37
 -10  -2   0   49.75    4.60
 -10  -2   0   36.11    4.82
  10   2   1  100.68    4.69
  10   2   1  102.31    6.39
 -10  -2  -1   86.35    4.88
 -10  -2  -1   81.37    4.94
  10   2   2   21.69    4.85
  10   2   2   36.25    6.12
 -10  -2  -2    9.52    4.96
 -10  -2  -2   -1.62    5.11
  10   2   3  164.24    3.97
  10   2   3  186.02    6.15
 -10  -2  -3  165.13    4.11
 -10  -2  -3  129.26    5.30
  10   2   4  180.54    5.19
  10   2   4  166.58    6.46
 -10  -2  -4  156.81    4.94
 -10  -2  -4  138.06    5.05
 -10  -2  -5  102.47    3.92
  10   2   5   91.32    5.69
 -10  -2  -5  108.00    5.15
 -10  -2  -6   12.45    4.81
  10   2   6   -3.16    5.82
 -10  -2  -6    9.46    4.71
 -10  -2  -7    5.08    4.55
 -10  -2  -7   13.80    4.10
  10   2   7   31.88    5.37
 -10  -2  -7    5.44    4.67
 -10  -2  -8   32.56    4.65
  10   2   8   26.23    4.01
 -10  -2  -8   27.63    5.01
 -10  -2  -8   17.19    4.30
 -10  -2  -9   51.04    4.72
  10   2   9   38.54    5.43
 -10  -2  -9   64.33    5.26
 -10  -2  -9   62.32    4.32
 -10  -2 -10   28.09    4.04
  10   2  10   27.40    5.19
 -10  -2 -10   55.85    5.12
 -10  -2 -10   54.56    4.69
  10   2  11   10.52    5.41
 -10  -2 -11   30.66    4.51
 -10  -2 -11   46.35    5.31
 -10  -2 -11   39.29    4.75
  10   3   0  111.23    5.16
  10   3   0  100.55    6.54
 -10  -3   0   89.74    4.69
 -10  -3   0   87.94    4.95
  10   3   1   79.21    4.62
  10   3   1   77.42    6.23
 -10  -3  -1   76.08    4.40
 -10  -3  -1   65.67    3.87
  10   3   2  138.25    5.26
  10   3   2  163.18    7.08
 -10  -3  -2  125.57    5.29
 -10  -3  -2  145.83    4.86
  10   3   3   26.85    4.77
  10   3   3   39.69    6.43
 -10  -3  -3   33.60    4.92
 -10  -3  -3   22.67    4.87
  10   3   4    6.20    4.41
  10   3   4    8.26    6.41
 -10  -3  -4    6.46    4.80
 -10  -3  -4   24.55    4.96
 -10  -3  -5    0.60    4.58
  10   3   5   29.45    5.83
 -10  -3  -5   -0.92    3.28
 -10  -3  -6   44.41    5.29
  10   3   6   68.89    4.97
 -10  -3  -6   56.81    5.08
 -10  -3  -7  321.69    4.60
 -10  -3  -7  350.01    5.79
  10   3   7  325.28    7.13
 -10  -3  -7  330.76    5.44
 -10  -3  -8  422.77    6.05
  10   3   8  445.49    5.77
 -10  -3  -8  444.70    6.42
 -10  -3  -8  433.54    5.22
 -10  -3  -9  208.48    5.35
  10   3   9  177.15    6.35
 -10  -3  -9  231.89    5.50
 -10  -3  -9  180.09    4.93
 -10  -3 -10   14.20    4.04
  10   3  10   26.82    4.25
 -10  -3 -10   10.29    4.58
 -10  -3 -10   16.04    4.57
 -10  -3 -11   54.69    4.06
  10   3  11   28.78    5.68
 -10  -3 -11   78.74    5.05
 -10  -3 -11   45.42    4.36
  10   4   0    5.11    4.35
  10   4   0   -1.04    6.44
 -10  -4   0    0.57    4.34
 -10  -4   0   22.28    4.47
  10   4   1   90.40    4.60
 -10  -4  -1   78.82    5.27
  10   4   1   62.81    7.33
 -10  -4  -1  104.71    5.11
  10   4   2  238.93    5.40
  10   4   2  223.18    6.99
 -10  -4  -2  251.37    5.55
 -10  -4  -2  217.66    5.65
  10   4   3  138.54    4.80
  10   4   3  150.86    6.56
 -10  -4  -3  164.76    4.75
 -10  -4  -3  141.69    5.29
 -10  -4  -4    0.36    4.47
  10   4   4   46.35    6.77
 -10  -4  -4   16.61    4.39
 -10  -4  -5  176.31    5.51
  10   4   5  225.83    7.12
 -10  -4  -5  188.98    5.40
 -10  -4  -6  284.84    5.76
  10   4   6  216.80    6.79
 -10  -4  -6  249.00    4.20
 -10  -4  -7  129.48    5.14
 -10  -4  -7  159.75    5.31
  10   4   7  147.24    6.47
 -10  -4  -7  129.59    4.62
 -10  -4  -8    1.48    4.40
  10   4   8   13.22    5.66
 -10  -4  -8    9.40    4.41
 -10  -4  -8    1.63    4.08
 -10  -4  -9   12.41    4.15
  10   4   9   37.46    6.09
 -10  -4  -9   24.06    4.54
 -10  -4  -9   12.88    3.18
 -10  -4 -10    5.00    3.91
  10   4  10   -7.64    5.54
 -10  -4 -10   -4.70    4.24
 -10  -4 -10    9.70    4.52
 -10  -4 -11    7.68    4.25
  10   4  11    2.12    3.88
 -10  -4 -11   12.12    4.47
 -10  -4 -11   24.77    4.35
  10   5   0  275.74    5.29
  10   5   0  300.10    9.01
 -10  -5   0  280.08    5.99
 -10  -5   0  289.88    5.43
  10   5   1  132.43    3.87
 -10  -5  -1  129.77    5.12
  10   5   1   91.83    7.48
 -10  -5  -1  136.82    5.25
  10   5   2   -2.87    4.59
  10   5   2    8.46    7.00
 -10  -5  -2    2.43    4.57
 -10  -5  -2   22.80    4.65
  10   5   3   91.56    7.17
 -10  -5  -3  111.45    3.80
 -10  -5  -3  134.50    4.72
 -10  -5  -4  197.34    5.40
  10   5   4  198.48    6.77
 -10  -5  -4  197.34    4.85
 -10  -5  -5   33.03    5.02
  10   5   5   44.19    6.83
 -10  -5  -5   46.81    4.32
 -10  -5  -6   44.50    3.99
 -10  -5  -6   29.25    4.69
  10   5   6   44.07    6.71
 -10  -5  -6   50.44    4.48
 -10  -5  -7   -1.17    3.98
 -10  -5  -7   12.13    4.23
  10   5   7   -6.47    5.99
 -10  -5  -7    0.96    3.99
 -10  -5  -8   49.24    4.48
  10   5   8   56.24    5.76
 -10  -5  -8   52.95    4.87
 -10  -5  -8   43.11    4.27
 -10  -5  -9   41.01    4.43
  10   5   9   43.56    6.22
 -10  -5  -9   64.46    5.00
 -10  -5  -9   66.04    4.58
 -10  -5 -10   91.22    4.50
  10   5  10   77.89    6.09
 -10  -5 -10  109.07    4.50
 -10  -5 -10  101.89    4.35
  10   6   0   12.07    4.64
 -10  -6   0   13.94    4.60
  10   6   0   17.53    7.52
 -10  -6   0   15.49    4.05
  10   6   1   14.35    4.54
 -10  -6  -1    3.02    4.53
  10   6   1    3.35    6.58
 -10  -6  -1    0.91    3.28
  10   6   2   26.38    7.11
 -10  -6  -2   19.20    4.81
 -10  -6  -2   39.72    4.05
  10   6   3  102.48    6.95
 -10  -6  -3  107.30    4.91
 -10  -6  -3  104.69    5.25
 -10  -6  -4  145.61    5.08
  10   6   4  120.00    6.81
 -10  -6  -4  153.61    3.88
 -10  -6  -5   41.89    4.48
  10   6   5   31.34    6.67
 -10  -6  -5   15.50    4.50
 -10  -6  -6   12.77    4.39
 -10  -6  -6    4.29    4.59
  10   6   6   18.00    6.33
 -10  -6  -6   16.40    3.99
 -10  -6  -7   21.90    3.93
 -10  -6  -7   15.65    4.62
  10   6   7   39.83    6.66
 -10  -6  -7   13.11    3.77
 -10  -6  -8   64.95    3.92
 -10  -6  -8   52.99    4.92
  10   6   8   50.46    6.48
 -10  -6  -8   45.50    4.36
 -10  -6  -9   -2.89    4.20
  10   6   9    9.78    5.51
 -10  -6  -9   15.23    4.66
 -10  -6  -9   15.14    3.80
  10   7   2  146.45    7.29
 -10  -7  -2  118.47    5.67
 -10  -7  -2   97.21    4.12
  10   7   3   19.04    6.51
 -10  -7  -3   12.51    4.27
 -10  -7  -3   13.73    4.58
 -10  -7  -4   62.37    4.83
  10   7   4   65.28    6.99
 -10  -7  -4   55.74    4.00
 -10  -7  -5   66.43    4.13
 -10  -7  -5   52.85    4.64
  10   7   5   31.96    6.41
 -10  -7  -5   58.58    4.05
 -10  -7  -6   35.43    3.89
 -10  -7  -6   36.87    4.53
  10   7   6   24.55    5.94
 -10  -7  -6   14.28    4.37
 -10  -7  -7   11.06    4.00
 -10  -7  -7   16.75    4.08
 -10  -7  -7   30.66    4.09
  11  -4   2    6.84    4.38
 -11   4  -2   18.57    3.48
 -11   4  -2   32.62    5.96
  11  -4   2    8.64    4.02
  11  -4   3  143.39    5.35
 -11   4  -3  110.94    3.94
 -11   4  -3  103.32    6.96
  11  -4   3  144.96    4.65
  11  -4   4  135.93    5.27
 -11   4  -4   88.52    6.61
 -11   4  -4  109.21    3.44
  11  -4   4  128.09    5.19
 -11   4  -5   13.42    6.21
  11  -4   5    6.99    4.73
 -11   4  -5   21.78    3.15
 -11   4  -6   17.65    5.72
  11  -3   1   39.17    4.30
 -11   3  -1   51.10    5.31
  11  -3   1   53.49    3.74
 -11   3  -1   52.01    3.11
  11  -3   2   97.79    4.24
 -11   3  -2  101.23    3.35
  11  -3   2  110.95    5.11
  11  -3   3   98.42    4.83
 -11   3  -3  111.29    6.56
 -11   3  -3  116.54    4.04
  11  -3   3  133.40    4.02
  11  -3   4  108.98    5.03
 -11   3  -4   87.84    6.59
  11  -3   4   97.68    4.93
 -11   3  -4   96.86    4.48
 -11   3  -5   21.93    4.48
 -11   3  -5   15.52    6.38
  11  -3   5   -4.47    4.92
 -11   3  -6    3.88    4.42
 -11   3  -6   17.29    5.99
  11  -3   6   22.98    4.94
  11  -3   7   34.50    4.38
 -11   3  -7   24.85    5.72
 -11   3  -7   35.76    3.37
 -11   3  -7   40.16    6.91
  11  -2   1  124.27    4.78
 -11   2  -1  127.80    4.65
 -11   2  -1  112.53    6.01
  11  -2   1  145.89    5.20
  11  -2   2  166.51    4.61
 -11   2  -2  152.45    4.32
 -11   2  -2  153.81    5.75
  11  -2   2  148.31    5.21
  11  -2   3    8.56    4.19
  11  -2   3   23.67    4.38
 -11   2  -3   39.26    3.92
  11  -2   4   16.75    4.51
 -11   2  -4    2.63    4.31
 -11   2  -4    8.05    5.58
  11  -2   4   24.35    4.87
 -11   2  -5   44.01    3.37
 -11   2  -5   28.81    5.98
  11  -2   5   47.74    4.78
  11  -2   6    7.77    4.54
 -11   2  -6   16.24    3.36
 -11   2  -6   15.59    6.08
  11  -2   7   20.55    4.86
 -11   2  -7   10.60    4.96
 -11   2  -7   29.34    4.29
 -11   2  -7    9.43    5.61
  11  -2   8   11.09    4.85
 -11   2  -8   12.09    5.37
 -11   2  -8    7.72    3.29
 -11   2  -8   18.49    6.26
 -11   2  -9   12.38    5.94
 -11   2  -9   14.17    4.09
  11  -1   1   13.43    3.98
 -11   1  -1   -3.20    4.27
 -11   1  -1    9.64    5.02
  11  -1   1   10.85    5.48
  11  -1   2   19.86    4.57
 -11   1  -2   28.27    4.89
 -11   1  -2   32.71    4.02
  11  -1   2   36.14    5.48
  11  -1   3   16.19    3.99
 -11   1  -3    8.52    4.44
 -11   1  -3   10.54    5.39
  11  -1   3   -4.25    3.92
  11  -1   4    1.43    4.64
 -11   1  -4   20.86    4.52
 -11   1  -4   24.38    5.37
  11  -1   4   13.16    5.17
  11  -1   5   61.79    5.21
 -11   1  -5   48.78    4.26
  11  -1   6   41.06    5.08
 -11   1  -6   31.11    4.76
 -11   1  -6   43.48    5.34
  11  -1   7   -8.42    5.06
 -11   1  -7   15.15    4.78
 -11   1  -7    3.11    4.01
 -11   1  -7   -0.29    5.51
  11  -1   8   18.32    5.10
 -11   1  -8   50.20    4.89
 -11   1  -8   40.10    5.43
 -11   1  -8   39.83    4.83
  11  -1   9  104.75    5.18
 -11   1  -9  111.02    5.93
 -11   1  -9   93.16    6.11
 -11   1  -9  114.25    4.52
  11   0   0   -4.33    3.92
 -11   0   0    4.49    3.91
 -11   0   0   27.27    3.43
  11   0   0    3.31    5.58
  11   0   1   75.24    4.14
 -11   0  -1   62.42    4.36
 -11   0  -1   55.62    4.81
  11   0   1   62.18    5.75
  11   0   2    6.79    3.25
 -11   0  -2    8.84    4.64
  11   0   2    1.59    4.97
 -11   0  -2   19.70    4.22
  11   0   3   62.96    5.04
  11   0   3   53.29    4.68
 -11   0  -3   38.13    4.23
 -11   0  -3   21.66    4.78
  11   0   4   68.18    5.50
  11   0   4   49.22    4.66
 -11   0  -4   53.55    4.83
 -11   0  -4   25.06    5.05
  11   0   5   -7.29    5.30
 -11   0  -5   20.22    4.13
 -11   0  -5    6.33    4.97
  11   0   6  137.79    4.26
 -11   0  -6  137.55    4.98
 -11   0  -6  131.58    5.12
  11   0   7  231.26    4.50
 -11   0  -7  225.50    5.47
 -11   0  -7  242.52    5.22
  11   0   8   65.10    4.75
 -11   0  -8   52.29    4.68
 -11   0  -8   56.21    4.94
 -11   0  -8   51.04    3.47
 -11   0  -9   -2.23    4.17
  11   0   9    9.17    4.48
 -11   0  -9   11.04    4.59
 -11   0  -9    8.06    4.61
  11   1   0  109.03    4.52
 -11  -1   0  143.77    4.57
 -11  -1   0  119.19    4.82
  11   1   0  161.66    5.56
  11   1   1  226.71    5.81
  11   1   1  206.23    5.00
 -11  -1  -1  168.63    5.49
 -11  -1  -1  178.66    4.70
  11   1   2   29.86    5.16
  11   1   2   21.59    3.35
 -11  -1  -2   20.72    4.32
 -11  -1  -2   20.30    4.94
  11   1   3   53.54    5.22
  11   1   3   46.61    4.24
 -11  -1  -3   34.29    4.81
 -11  -1  -3   59.86    4.62
  11   1   4   85.74    4.52
  11   1   4   68.37    5.41
 -11  -1  -4  112.93    4.56
 -11  -1  -4   76.83    4.67
  11   1   5  172.64    6.07
 -11  -1  -5  181.00    4.13
 -11  -1  -5  196.11    5.30
  11   1   6  146.38    5.26
 -11  -1  -6  129.70    5.23
 -11  -1  -6  114.70    5.24
  11   1   7   40.34    3.94
 -11  -1  -7   26.98    4.60
 -11  -1  -7   37.16    4.50
 -11  -1  -7   25.75    4.63
 -11  -1  -8   -8.94    4.15
  11   1   8   23.22    5.14
 -11  -1  -8    4.79    4.41
 -11  -1  -8    2.68    4.11
 -11  -1  -9   21.79    4.53
  11   1   9   11.15    5.02
 -11  -1  -9   10.65    3.79
 -11  -1 -10   83.54    4.21
  11   1  10   67.96    5.15
 -11  -1 -10   34.68    4.68
 -11  -1 -10   51.59    4.67
  11   2   0   13.60    4.22
  11   2   0   12.28    5.56
 -11  -2   0   13.08    3.93
 -11  -2   0    8.72    4.70
  11   2   1   29.22    4.20
  11   2   1   23.53    5.31
 -11  -2  -1   23.67    3.80
 -11  -2  -1   31.38    4.22
  11   2   2    0.80    4.46
  11   2   2   -5.47    5.67
 -11  -2  -2    0.72    4.18
 -11  -2  -2  -17.51    5.02
  11   2   3   71.54    4.36
  11   2   3   44.88    5.82
 -11  -2  -3   58.24    4.19
 -11  -2  -3   56.09    4.45
  11   2   4   63.10    4.67
  11   2   4   68.61    6.16
 -11  -2  -4   62.11    4.85
 -11  -2  -4   67.05    4.55
  11   2   5  151.04    6.40
 -11  -2  -5  180.10    5.22
 -11  -2  -5  154.86    5.20
  11   2   6   16.79    4.44
 -11  -2  -6   21.89    4.70
 -11  -2  -6   40.43    4.83
 -11  -2  -7   20.90    4.93
 -11  -2  -7   15.88    4.44
  11   2   7   25.60    5.68
 -11  -2  -7   23.38    4.45
 -11  -2  -8  101.19    4.47
 -11  -2  -8   83.36    4.59
  11   2   8   85.56    4.28
 -11  -2  -8   96.86    4.68
 -11  -2  -9  139.00    4.94
 -11  -2  -9  149.86    4.26
  11   2   9  144.18    5.57
 -11  -2  -9  129.44    4.43
  11   3   0   39.14    4.53
  11   3   0   20.00    6.10
 -11  -3   0   21.24    4.04
 -11  -3   0   19.66    4.82
  11   3   1  167.14    4.96
  11   3   1  175.70    7.03
 -11  -3  -1  163.45    4.17
 -11  -3  -1  175.66    4.79
  11   3   2  605.91    6.10
  11   3   2  579.71    8.47
 -11  -3  -2  538.77    6.22
 -11  -3  -2  575.76    6.71
  11   3   3  288.22    5.50
  11   3   3  351.34    7.20
 -11  -3  -3  276.53    5.44
 -11  -3  -3  288.75    4.73
  11   3   4   47.18    6.08
 -11  -3  -4   20.36    4.61
 -11  -3  -4   42.66    4.67
  11   3   5  -12.97    5.90
 -11  -3  -5    3.35    4.51
 -11  -3  -5    5.35    4.19
 -11  -3  -6   57.86    4.34
  11   3   6   44.81    6.33
 -11  -3  -6   19.30    4.17
 -11  -3  -7   47.37    3.59
 -11  -3  -7   19.08    4.47
  11   3   7   11.35    5.84
 -11  -3  -7   40.19    4.13
 -11  -3  -8   35.60    4.28
 -11  -3  -8   45.50    4.37
  11   3   8   48.97    5.88
 -11  -3  -8   39.74    4.65
 -11  -3  -9   31.26    4.09
 -11  -3  -9   43.74    3.81
  11   3   9   28.03    4.11
 -11  -3  -9   16.24    4.58
  11   4   1   32.50    4.14
  11   4   1   22.35    6.29
 -11  -4  -1    9.28    4.54
 -11  -4  -1   20.76    4.27
  11   4   2   16.52    4.59
  11   4   2   39.22    5.60
 -11  -4  -2   31.13    3.90
 -11  -4  -2   17.60    3.38
  11   4   3   -0.32    3.12
  11   4   3    9.43    5.99
 -11  -4  -3   15.11    4.25
 -11  -4  -3   27.12    4.50
  11   4   4   11.58    5.59
 -11  -4  -4   27.08    4.53
 -11  -4  -4   34.39    3.99
 -11  -4  -5   -8.33    3.95
  11   4   5    1.72    6.32
 -11  -4  -5    6.57    3.98
 -11  -4  -6   33.58    3.34
  11   4   6   48.95    5.71
 -11  -4  -6   37.60    4.02
 -11  -4  -7  126.73    4.99
 -11  -4  -7  132.86    4.51
  11   4   7  166.24    5.82
 -11  -4  -7   95.61    4.26
 -11  -4  -8   15.34    4.15
 -11  -4  -8   11.26    4.12
  11   4   8   12.23    5.50
 -11  -4  -8   18.41    3.11
  11   5   2   39.54    3.92
 -11  -5  -2   30.20    4.17
  11   5   2   25.07    6.27
 -11  -5  -2   14.83    3.27
  11   5   3   22.86    6.57
 -11  -5  -3   36.72    4.58
 -11  -5  -3   60.04    4.55
  11   5   4  201.64    6.46
 -11  -5  -4  228.32    4.63
 -11  -5  -4  196.00    5.51
 -11  -5  -5  116.25    4.38
  11   5   5  101.57    6.08
 -11  -5  -5  101.07    3.53
 -11  -5  -6   17.34    4.10
 -11  -5  -6   26.64    3.86
  11   5   6    4.25    6.45
 -11  -5  -6   19.97    3.20
 -11  -5  -7   19.21    3.64
 -11  -5  -7    3.96    4.58
  11   5   7   28.96    5.99
 -11  -5  -7   11.75    3.08
   0   0   0    0.00    0.00
_computing_structure_solution     'SHELXT 2014/5 (Sheldrick, 2014)'
;
_shelx_hkl_checksum              6730
_shelx_res_file
;
TITL no_787_a.res in P-1
    no_787_a - Kopie.res
    created by SHELXL-2018/3 at 08:38:24 on 23-May-2019
REM Old TITL no_787 in P-1
REM SHELXT solution in P-1
REM R1 0.082,  Rweak 0.011,  Alpha 0.057,  Orientation as input
REM Formula found by SHELXT:  C10 Cl5 Ga Sn
CELL  0.71073   8.7572   9.1310  11.2966   85.424   72.805   86.886
ZERR    1.000   0.0004   0.0004   0.0005    0.003    0.003    0.004
LATT  1
SFAC C H CL GA SN
UNIT 20 28 10 2 2
L.S. 10
SIZE 0.61 0.13 0.03
TEMP -60
ACTA
LIST 6
FMAP 2
PLAN 30
BOND $H
Conn 20 2.5 Sn1
HTAB C10 Cl3
HTAB C7 Cl4_$2
EQIV $2 1-x, 1-y, 1-z
EQIV $1 1-x, -y, 1-z
MPLA 4 Sn1 Cl1 Sn1_$1 Cl1_$1
MPLA 6 C1 C2 C3 C4 C5 C6 Sn1
MPLA 3 Sn1 Cl3 Cl4_$2
WGHT    0.017600    0.910500
FVAR       0.60951
SN1   5    0.521998    0.165973    0.601939    11.00000    0.03005    0.02753 =
         0.02689   -0.00417   -0.00647   -0.00228
GA1   4    0.781032    0.413107    0.326152    11.00000    0.03199    0.02486 =
         0.03540   -0.00194   -0.00417   -0.00005
CL1   3    0.298753    0.014943    0.559112    11.00000    0.02315    0.03729 =
         0.03878   -0.01397   -0.00226   -0.00135
CL2   3    0.524176    0.363309    0.374342    11.00000    0.03404    0.04204 =
         0.04266   -0.00310   -0.00906   -0.00566
CL3   3    0.862314    0.326000    0.481572    11.00000    0.05975    0.05329 =
         0.06524    0.01648   -0.03440   -0.01632
CL4   3    0.801448    0.650043    0.309485    11.00000    0.03630    0.02497 =
         0.07073    0.00208   -0.00010   -0.00082
CL5   3    0.905669    0.319915    0.154237    11.00000    0.05960    0.06601 =
         0.05534   -0.02479    0.00727    0.00522
C1    1    0.622564   -0.050563    0.767046    11.00000    0.04232    0.03542 =
         0.03114   -0.00288   -0.00803    0.00672
AFIX  43
H1    2    0.670505   -0.133397    0.724495    11.00000   -1.20000
AFIX   0
C2    1    0.458885   -0.043501    0.818838    11.00000    0.03956    0.03209 =
         0.02914    0.00165   -0.01158   -0.00736
AFIX  43
H2    2    0.397444   -0.121308    0.810744    11.00000   -1.20000
AFIX   0
C3    1    0.382947    0.077254    0.883073    11.00000    0.02776    0.03811 =
         0.02401    0.00109   -0.00760   -0.00167
C4    1    0.477169    0.193547    0.892176    11.00000    0.03462    0.03941 =
         0.02541   -0.00721   -0.00808    0.00006
C5    1    0.644271    0.185318    0.839097    11.00000    0.03174    0.04398 =
         0.03095   -0.00332   -0.01277   -0.00683
C6    1    0.718199    0.061785    0.776273    11.00000    0.02789    0.04706 =
         0.03067    0.00164   -0.00764    0.00376
C7    1    0.204617    0.078525    0.940028    11.00000    0.02927    0.05787 =
         0.03710    0.00439   -0.00308   -0.00525
AFIX 137
H71   2    0.156274    0.160251    0.902162    11.00000   -1.50000
H72   2    0.179189    0.089092    1.028578    11.00000   -1.50000
H73   2    0.163275   -0.012949    0.926109    11.00000   -1.50000
AFIX   0
C8    1    0.398272    0.325531    0.960223    11.00000    0.05216    0.04827 =
         0.05043   -0.02166   -0.01087    0.00289
AFIX 137
H81   2    0.426066    0.413765    0.905725    11.00000   -1.50000
H82   2    0.434745    0.332000    1.032732    11.00000   -1.50000
H83   2    0.283145    0.315915    0.986078    11.00000   -1.50000
AFIX   0
C9    1    0.744867    0.310541    0.850550    11.00000    0.04668    0.06534 =
         0.06373   -0.01270   -0.01815   -0.02065
AFIX 137
H91   2    0.857192    0.285182    0.814368    11.00000   -1.50000
H92   2    0.725155    0.327596    0.937538    11.00000   -1.50000
H93   2    0.716585    0.398926    0.807067    11.00000   -1.50000
AFIX   0
C10   1    0.897159    0.047333    0.717647    11.00000    0.02769    0.06576 =
         0.04917    0.01061   -0.00844    0.00504
AFIX 137
H101  2    0.923751   -0.046929    0.681388    11.00000   -1.50000
H102  2    0.951087    0.053946    0.780598    11.00000   -1.50000
H103  2    0.931353    0.125718    0.653377    11.00000   -1.50000
AFIX   0
HKLF 4
REM  no_787_a.res in P-1
REM wR2 = 0.0685, GooF = S = 1.224, Restrained GooF = 1.224 for all data
REM R1 = 0.0333 for 4242 Fo > 4sig(Fo) and 0.0393 for all 4638 data
REM 158 parameters refined using 0 restraints
END
WGHT      0.0176      0.9105
REM Highest difference peak  0.712,  deepest hole -0.502,  1-sigma level  0.088
Q1    1   0.4330  0.1732  0.6655  11.00000  0.05    0.71
Q2    1   0.6090  0.1625  0.5417  11.00000  0.05    0.70
Q3    1   0.4290  0.1200  0.5936  11.00000  0.05    0.65
Q4    1   0.6118  0.2048  0.6128  11.00000  0.05    0.59
Q5    1   0.5719  0.1032  0.6447  11.00000  0.05    0.50
Q6    1   0.9650  0.3333  0.2041  11.00000  0.05    0.49
Q7    1   0.9467  0.3188  0.4257  11.00000  0.05    0.49
Q8    1   0.4692  0.2214  0.5592  11.00000  0.05    0.48
Q9    1   0.6609  0.3732  0.3327  11.00000  0.05    0.47
Q10   1   0.2980  0.0738  0.8987  11.00000  0.05    0.46
Q11   1   0.5091  0.2584  0.5919  11.00000  0.05    0.42
Q12   1   0.4168  0.0370  0.8364  11.00000  0.05    0.42
Q13   1   0.9444  0.3970  0.1377  11.00000  0.05    0.39
Q14   1   0.8216  0.3463  0.7436  11.00000  0.05    0.37
Q15   1   0.6741  0.0342  0.7370  11.00000  0.05    0.36
Q16   1   0.8031  0.5395  0.3247  11.00000  0.05    0.36
Q17   1   0.5018  0.4231  0.3376  11.00000  0.05    0.36
Q18   1   0.1723 -0.0030  0.9985  11.00000  0.05    0.35
Q19   1   0.8713  0.4590  0.3134  11.00000  0.05    0.34
Q20   1   0.8617  0.4131  0.2633  11.00000  0.05    0.33
Q21   1   0.8444  0.2401  0.8995  11.00000  0.05    0.33
Q22   1   0.7099  0.6207  0.3266  11.00000  0.05    0.33
Q23   1   0.6913  0.4283  0.3980  11.00000  0.05    0.33
Q24   1   0.5614  0.1839  0.8611  11.00000  0.05    0.32
Q25   1   0.8212  0.3647  0.4030  11.00000  0.05    0.32
Q26   1   0.3086  0.3831  0.9324  11.00000  0.05    0.32
Q27   1   0.7526  0.4987  0.2929  11.00000  0.05    0.31
Q28   1   0.6851  0.1128  0.8184  11.00000  0.05    0.31
Q29   1   0.3655 -0.1305  0.5263  11.00000  0.05    0.29
Q30   1   0.5414 -0.0433  0.7735  11.00000  0.05    0.29
;
_shelx_res_checksum              43475
loop_
_space_group_symop_operation_xyz
'x, y, z'
'-x, -y, -z'
loop_
_atom_site_type_symbol
_atom_site_label
_atom_site_fract_x
_atom_site_fract_y
_atom_site_fract_z
_atom_site_U_iso_or_equiv
_atom_site_adp_type
_atom_site_calc_flag
_atom_site_occupancy
Sn Sn1 0.52200(3) 0.16597(2) 0.60194(2) 0.02838(6) Uani d 1
Ga Ga1 0.78103(4) 0.41311(3) 0.32615(3) 0.03202(8) Uani d 1
Cl Cl1 0.29875(9) 0.01494(8) 0.55911(7) 0.03389(15) Uani d 1
Cl Cl2 0.52418(10) 0.36331(9) 0.37434(8) 0.03987(17) Uani d 1
Cl Cl3 0.86231(14) 0.32600(11) 0.48157(11) 0.0565(3) Uani d 1
Cl Cl4 0.80145(11) 0.65004(8) 0.30948(10) 0.0477(2) Uani d 1
Cl Cl5 0.90567(15) 0.31991(13) 0.15424(11) 0.0646(3) Uani d 1
C C1 0.6226(4) -0.0506(4) 0.7670(3) 0.0372(7) Uani d 1
H H1 0.670505 -0.133397 0.724495 0.045 Uiso calc 1
C C2 0.4589(4) -0.0435(3) 0.8188(3) 0.0332(6) Uani d 1
H H2 0.397444 -0.121308 0.810744 0.040 Uiso calc 1
C C3 0.3829(4) 0.0773(3) 0.8831(3) 0.0301(6) Uani d 1
C C4 0.4772(4) 0.1935(4) 0.8922(3) 0.0331(6) Uani d 1
C C5 0.6443(4) 0.1853(4) 0.8391(3) 0.0345(6) Uani d 1
C C6 0.7182(4) 0.0618(4) 0.7763(3) 0.0358(7) Uani d 1
C C7 0.2046(4) 0.0785(4) 0.9400(3) 0.0431(8) Uani d 1
H H71 0.156274 0.160251 0.902162 0.065 Uiso calc 1
H H72 0.179189 0.089092 1.028578 0.065 Uiso calc 1
H H73 0.163275 -0.012949 0.926109 0.065 Uiso calc 1
C C8 0.3983(5) 0.3255(4) 0.9602(4) 0.0503(9) Uani d 1
H H81 0.426066 0.413765 0.905725 0.075 Uiso calc 1
H H82 0.434745 0.332000 1.032732 0.075 Uiso calc 1
H H83 0.283145 0.315915 0.986078 0.075 Uiso calc 1
C C9 0.7449(5) 0.3105(5) 0.8505(4) 0.0570(11) Uani d 1
H H91 0.857192 0.285182 0.814368 0.085 Uiso calc 1
H H92 0.725155 0.327596 0.937538 0.085 Uiso calc 1
H H93 0.716585 0.398926 0.807067 0.085 Uiso calc 1
C C10 0.8972(4) 0.0473(5) 0.7176(4) 0.0492(9) Uani d 1
H H101 0.923751 -0.046929 0.681388 0.074 Uiso calc 1
H H102 0.951087 0.053946 0.780598 0.074 Uiso calc 1
H H103 0.931353 0.125718 0.653377 0.074 Uiso calc 1
loop_
_atom_site_aniso_label
_atom_site_aniso_U_11
_atom_site_aniso_U_22
_atom_site_aniso_U_33
_atom_site_aniso_U_12
_atom_site_aniso_U_13
_atom_site_aniso_U_23
Sn1 0.03005(11) 0.02753(10) 0.02689(10) -0.00228(7) -0.00647(8) -0.00417(7)
Ga1 0.03199(18) 0.02486(15) 0.03540(18) -0.00005(13) -0.00417(14) -0.00194(13)
Cl1 0.0231(3) 0.0373(4) 0.0388(4) -0.0013(3) -0.0023(3) -0.0140(3)
Cl2 0.0340(4) 0.0420(4) 0.0427(4) -0.0057(3) -0.0091(3) -0.0031(3)
Cl3 0.0597(6) 0.0533(5) 0.0652(6) -0.0163(5) -0.0344(5) 0.0165(5)
Cl4 0.0363(4) 0.0250(3) 0.0707(6) -0.0008(3) -0.0001(4) 0.0021(3)
Cl5 0.0596(6) 0.0660(6) 0.0553(6) 0.0052(5) 0.0073(5) -0.0248(5)
C1 0.0423(18) 0.0354(16) 0.0311(15) 0.0067(14) -0.0080(14) -0.0029(12)
C2 0.0396(17) 0.0321(14) 0.0291(14) -0.0074(12) -0.0116(13) 0.0016(11)
C3 0.0278(14) 0.0381(15) 0.0240(13) -0.0017(12) -0.0076(11) 0.0011(11)
C4 0.0346(16) 0.0394(15) 0.0254(13) 0.0001(12) -0.0081(12) -0.0072(11)
C5 0.0317(15) 0.0440(17) 0.0309(14) -0.0068(13) -0.0128(13) -0.0033(12)
C6 0.0279(15) 0.0471(17) 0.0307(14) 0.0038(13) -0.0076(12) 0.0016(13)
C7 0.0293(16) 0.058(2) 0.0371(17) -0.0052(15) -0.0031(14) 0.0044(15)
C8 0.052(2) 0.048(2) 0.050(2) 0.0029(17) -0.0109(18) -0.0217(17)
C9 0.047(2) 0.065(3) 0.064(3) -0.0206(19) -0.018(2) -0.013(2)
C10 0.0277(17) 0.066(2) 0.049(2) 0.0050(16) -0.0084(15) 0.0106(18)
loop_
_atom_type_symbol
_atom_type_description
_atom_type_scat_dispersion_real
_atom_type_scat_dispersion_imag
_atom_type_scat_source
C C 0.0033 0.0016 'International Tables Vol C Tables 4.2.6.8 and 6.1.1.4'
H H 0.0000 0.0000 'International Tables Vol C Tables 4.2.6.8 and 6.1.1.4'
Cl Cl 0.1484 0.1585 'International Tables Vol C Tables 4.2.6.8 and 6.1.1.4'
Ga Ga 0.2307 1.6083 'International Tables Vol C Tables 4.2.6.8 and 6.1.1.4'
Sn Sn -0.6537 1.4246 'International Tables Vol C Tables 4.2.6.8 and 6.1.1.4'
loop_
_geom_angle_atom_site_label_1
_geom_angle_atom_site_label_2
_geom_angle_atom_site_label_3
_geom_angle_site_symmetry_1
_geom_angle_site_symmetry_3
_geom_angle
Cl1 Sn1 Cl1 . 2_656 79.76(2)
Cl1 Sn1 Cl2 . . 88.37(3)
Cl1 Sn1 Cl2 2_656 . 84.56(3)
Cl1 Sn1 Cl4 . 2_666 73.00(2)
Cl1 Sn1 Cl4 2_656 2_666 147.47(3)
Cl1 Sn1 Cl3 . . 146.02(3)
Cl1 Sn1 Cl3 2_656 . 74.35(3)
Cl2 Sn1 Cl3 . . 67.82(2)
Cl2 Sn1 Cl4 . 2_666 77.33(2)
Cl4 Sn1 Cl3 2_666 . 121.37(3)
Cl1 Sn1 C1 . . 98.21(7)
Cl1 Sn1 C1 2_656 . 79.15(7)
Cl1 Sn1 C2 . . 80.68(7)
Cl1 Sn1 C2 2_656 . 96.61(7)
Cl1 Sn1 C3 . . 88.88(6)
Cl1 Sn1 C3 2_656 . 123.05(6)
Cl1 Sn1 C4 . . 113.52(6)
Cl1 Sn1 C4 2_656 . 131.84(6)
Cl1 Sn1 C5 . . 133.20(6)
Cl1 Sn1 C5 2_656 . 112.86(6)
Cl1 Sn1 C6 . . 125.01(7)
Cl1 Sn1 C6 2_656 . 87.73(7)
Cl2 Sn1 C1 . . 161.00(7)
Cl2 Sn1 C2 . . 168.57(7)
Cl2 Sn1 C3 . . 151.20(6)
Cl2 Sn1 C4 . . 138.75(6)
Cl2 Sn1 C5 . . 135.87(6)
Cl2 Sn1 C6 . . 143.69(7)
C1 Sn1 Cl3 . . 98.11(7)
C2 Sn1 Cl3 . . 123.48(7)
C3 Sn1 Cl3 . . 123.69(6)
C4 Sn1 Cl3 . . 100.17(6)
C5 Sn1 Cl3 . . 78.09(6)
C6 Sn1 Cl3 . . 75.93(7)
C1 Sn1 Cl4 . 2_666 121.62(7)
C2 Sn1 Cl4 . 2_666 96.19(7)
C3 Sn1 Cl4 . 2_666 74.45(6)
Cl4 Sn1 C4 2_666 . 76.64(6)
Cl4 Sn1 C5 2_666 . 98.82(7)
C6 Sn1 Cl4 . 2_666 122.46(6)
Sn1 C1 H1 . . 110.6
Sn1 C2 H2 . . 111.6
Sn1 C3 C7 . . 119.1(2)
Sn1 C4 C8 . . 123.0(2)
Sn1 C5 C9 . . 121.9(2)
Sn1 C6 C10 . . 116.1(2)
Cl5 Ga1 Cl3 . . 113.84(5)
Cl5 Ga1 Cl4 . . 110.73(5)
Cl3 Ga1 Cl4 . . 108.39(4)
Cl5 Ga1 Cl2 . . 109.01(4)
Cl3 Ga1 Cl2 . . 106.43(4)
Cl4 Ga1 Cl2 . . 108.21(4)
Sn1 Cl1 Sn1 . 2_656 100.24(2)
Ga1 Cl2 Sn1 . . 95.14(3)
Ga1 Cl3 Sn1 . . 89.58(3)
Ga1 Cl4 Sn1 . 2_666 115.87(3)
C2 C1 C6 . . 121.5(3)
C2 C1 H1 . . 119.2
C6 C1 H1 . . 119.2
C1 C2 C3 . . 121.1(3)
C1 C2 H2 . . 119.5
C3 C2 H2 . . 119.5
C2 C3 C4 . . 118.4(3)
C2 C3 C7 . . 119.1(3)
C4 C3 C7 . . 122.5(3)
C3 C4 C5 . . 120.1(3)
C3 C4 C8 . . 119.5(3)
C5 C4 C8 . . 120.4(3)
C6 C5 C4 . . 120.4(3)
C6 C5 C9 . . 119.9(3)
C4 C5 C9 . . 119.7(3)
C1 C6 C5 . . 118.4(3)
C1 C6 C10 . . 119.0(3)
C5 C6 C10 . . 122.6(3)
C3 C7 H71 . . 109.5
C3 C7 H72 . . 109.5
H71 C7 H72 . . 109.5
C3 C7 H73 . . 109.5
H71 C7 H73 . . 109.5
H72 C7 H73 . . 109.5
C4 C8 H81 . . 109.5
C4 C8 H82 . . 109.5
H81 C8 H82 . . 109.5
C4 C8 H83 . . 109.5
H81 C8 H83 . . 109.5
H82 C8 H83 . . 109.5
C5 C9 H91 . . 109.5
C5 C9 H92 . . 109.5
H91 C9 H92 . . 109.5
C5 C9 H93 . . 109.5
H91 C9 H93 . . 109.5
H92 C9 H93 . . 109.5
C6 C10 H101 . . 109.5
C6 C10 H102 . . 109.5
H101 C10 H102 . . 109.5
C6 C10 H103 . . 109.5
H101 C10 H103 . . 109.5
H102 C10 H103 . . 109.5
loop_
_geom_bond_atom_site_label_1
_geom_bond_atom_site_label_2
_geom_bond_site_symmetry_2
_geom_bond_distance
Sn1 Cl1 . 2.6299(8)
Sn1 Cl1 2_656 2.6481(7)
Sn1 Cl2 . 3.0155(9)
Sn1 Cl3 . 3.2597(11)
Sn1 Cl4 2_666 3.1499(9)
Sn1 C1 . 2.891(3)
Sn1 C2 . 2.921(3)
Sn1 C3 . 3.104(3)
Sn1 C4 . 3.214(3)
Sn1 C5 . 3.185(3)
Sn1 C6 . 3.043(3)
Sn1 Ga1 . 3.8987(4)
Sn1 Sn1 2_656 4.0503(4)
Ga1 Cl2 . 2.2159(9)
Ga1 Cl3 . 2.1625(10)
Ga1 Cl4 . 2.1691(8)
Ga1 Cl5 . 2.1439(10)
C1 C2 . 1.379(5)
C1 C6 . 1.388(5)
C1 H1 . 0.9400
C2 C3 . 1.395(4)
C2 H2 . 0.9400
C3 C4 . 1.408(4)
C3 C7 . 1.503(4)
C4 C5 . 1.408(5)
C4 C8 . 1.505(5)
C5 C6 . 1.404(5)
C5 C9 . 1.517(5)
C6 C10 . 1.513(5)
C7 H71 . 0.9700
C7 H72 . 0.9700
C7 H73 . 0.9700
C8 H81 . 0.9700
C8 H82 . 0.9700
C8 H83 . 0.9700
C9 H91 . 0.9700
C9 H92 . 0.9700
C9 H93 . 0.9700
C10 H101 . 0.9700
C10 H102 . 0.9700
C10 H103 . 0.9700
loop_
_geom_hbond_atom_site_label_D
_geom_hbond_atom_site_label_H
_geom_hbond_atom_site_label_A
_geom_hbond_site_symmetry_A
_geom_hbond_distance_DH
_geom_hbond_distance_HA
_geom_hbond_distance_DA
_geom_hbond_angle_DHA
_geom_hbond_publ_flag
C10 H103 Cl3 . 0.97 2.74 3.605(4) 149.4 yes
C7 H71 Cl4 2_666 0.97 2.78 3.612(4) 144.1 yes

_cod_database_fobs_code 2242994
