#------------------------------------------------------------------------------
#$Date: 2018-07-20 10:04:38 +0300 (Fri, 20 Jul 2018) $
#$Revision: 209165 $
#$URL: file:///home/coder/svn-repositories/cod/cif/2/24/25/2242569.cif $
#------------------------------------------------------------------------------
#
# This file is available in the Crystallography Open Database (COD),
# http://www.crystallography.net/. The original data for this entry
# were provided by IUCr Journals, http://journals.iucr.org/.
#
# The file may be used within the scientific community so long as
# proper attribution is given to the journal article from which the
# data were obtained.
#
data_2242569
loop_
_publ_author_name
'Bairagi, Keshab M.'
'Kumar, Vipin B. S.'
'Bhandary, Subhrajyoti'
'Venugopala, Katharigatta N.'
'Nayak, Susanta K.'
_publ_section_title
;
 Structural analysis of 2-iodobenzamide and
 2-iodo-<i>N</i>-phenylbenzamide
;
_journal_coeditor_code           SJ5558
_journal_issue                   8
_journal_name_full               'Acta Crystallographica Section E'
_journal_page_first              1130
_journal_page_last               1133
_journal_paper_doi               10.1107/S2056989018010162
_journal_volume                  74
_journal_year                    2018
_chemical_formula_iupac          'C13 H10 I N O'
_chemical_formula_moiety         'C13 H10 I N O'
_chemical_formula_sum            'C13 H10 I N O'
_chemical_formula_weight         323.12
_chemical_name_common            Benzamide
_chemical_name_systematic
;
2-Iodo-<i>N</i>-phenylbenzamide
;
_space_group_crystal_system      triclinic
_space_group_IT_number           2
_space_group_name_Hall           '-P 1'
_space_group_name_H-M_alt        'P -1'
_symmetry_space_group_name_Hall  '-P 1'
_symmetry_space_group_name_H-M   'P -1'
_atom_sites_solution_hydrogens   geom
_cell_angle_alpha                66.034(2)
_cell_angle_beta                 78.882(2)
_cell_angle_gamma                85.760(2)
_cell_formula_units_Z            2
_cell_length_a                   5.1225(2)
_cell_length_b                   10.4572(4)
_cell_length_c                   12.2167(5)
_cell_measurement_reflns_used    2309
_cell_measurement_temperature    120(2)
_cell_measurement_theta_max      26.0
_cell_measurement_theta_min      1.9
_cell_volume                     586.76(4)
_computing_cell_refinement
;
SAINT (Bruker, 2014)
;
_computing_data_collection
;
APEX2 (Bruker, 2014)
;
_computing_data_reduction
;
SAINT (Bruker, 2014)
;
_computing_molecular_graphics
;
PLATON (Spek, 2009) and Mercury (Macrae <i>et al.</i>, 2008)
;
_computing_publication_material
;
WinGX (Farrugia, 2012) and PLATON (Spek, 2009)
;
_computing_structure_refinement
;
SHELXL2014 (Sheldrick, 2015)
;
_computing_structure_solution
;
SHELXS14 (Sheldrick, 2008)
;
_diffrn_ambient_temperature      120(2)
_diffrn_measured_fraction_theta_full 1.000
_diffrn_measured_fraction_theta_max 0.999
_diffrn_measurement_device_type  'Bruker Kappa APEXII DUO'
_diffrn_measurement_method       \w
_diffrn_radiation_monochromator  graphite
_diffrn_radiation_source         'fine-focus sealed tube'
_diffrn_radiation_type           MoK\a
_diffrn_radiation_wavelength     0.71073
_diffrn_reflns_av_R_equivalents  0.0176
_diffrn_reflns_limit_h_max       6
_diffrn_reflns_limit_h_min       -6
_diffrn_reflns_limit_k_max       12
_diffrn_reflns_limit_k_min       -12
_diffrn_reflns_limit_l_max       14
_diffrn_reflns_limit_l_min       -15
_diffrn_reflns_number            13292
_diffrn_reflns_theta_full        25.242
_diffrn_reflns_theta_max         25.995
_diffrn_reflns_theta_min         1.854
_diffrn_standards_number         0
_exptl_absorpt_coefficient_mu    2.706
_exptl_absorpt_correction_T_max  0.570
_exptl_absorpt_correction_T_min  0.546
_exptl_absorpt_correction_type   multi-scan
_exptl_absorpt_process_details
;
(SADABS; Bruker, 2014)
;
_exptl_crystal_colour            colorless
_exptl_crystal_density_diffrn    1.829
_exptl_crystal_description       plate
_exptl_crystal_F_000             312
_exptl_crystal_size_max          0.230
_exptl_crystal_size_mid          0.220
_exptl_crystal_size_min          0.210
_refine_diff_density_max         0.814
_refine_diff_density_min         -0.479
_refine_ls_extinction_method     none
_refine_ls_goodness_of_fit_ref   1.076
_refine_ls_hydrogen_treatment    constr
_refine_ls_matrix_type           full
_refine_ls_number_parameters     145
_refine_ls_number_reflns         2309
_refine_ls_number_restraints     0
_refine_ls_restrained_S_all      1.076
_refine_ls_R_factor_all          0.0172
_refine_ls_R_factor_gt           0.0168
_refine_ls_shift/su_max          0.000
_refine_ls_shift/su_mean         0.000
_refine_ls_structure_factor_coef Fsqd
_refine_ls_weighting_details
'w=1/[\s^2^(Fo^2^)+(0.0207P)^2^+0.7193P] where P=(Fo^2^+2Fc^2^)/3'
_refine_ls_weighting_scheme      calc
_refine_ls_wR_factor_gt          0.0421
_refine_ls_wR_factor_ref         0.0422
_reflns_number_gt                2278
_reflns_number_total             2309
_reflns_threshold_expression     'I > 2\s(I)'
_cod_data_source_file            sj5558sup1.cif
_cod_data_source_block           II
_cod_database_code               2242569
_shelx_space_group_comment
;
The symmetry employed for this shelxl refinement is uniquely defined
by the following loop, which should always be used as a source of
symmetry information in preference to the above space-group names.
They are only intended as comments.
;
_shelx_estimated_absorpt_t_min   0.575
_shelx_estimated_absorpt_t_max   0.600
_shelx_hkl_file
;
  -1   0   0   21.79    0.54
  -1   0   0   22.19    0.48
  -1   0   0   21.87    0.51
  -1   0   0   22.53    0.53
  -1   0   0   22.17    0.47
  -1   0   0   21.89    0.48
  -1   0   0   21.80    0.56
   1   0   0   21.51    0.55
   1   0   0   22.33    0.47
   1   0   0   23.71    0.52
   1   0   0   21.57    0.58
   1   0   0   21.57    0.52
   1   0   0   23.46    0.55
   1   0   0   22.15    0.47
   1   0   0   22.69    0.47
  -2   0   0  304.31    5.61
  -2   0   0  312.02    5.79
  -2   0   0  305.88    5.82
  -2   0   0  300.16    5.62
  -2   0   0  303.12    5.70
  -2   0   0  303.64    5.73
  -2   0   0  302.28    5.74
   2   0   0  300.03    5.59
   2   0   0  305.89    5.81
   2   0   0  307.92    5.74
   2   0   0  292.85    5.85
  -3   0   0  243.57    4.80
  -3   0   0  241.27    4.61
  -3   0   0  244.12    4.68
  -3   0   0  240.11    4.56
  -3   0   0  240.91    4.73
  -3   0   0  242.00    4.55
   3   0   0  242.83    4.64
   3   0   0  244.61    4.84
   3   0   0  234.24    4.58
   3   0   0  230.56    4.88
   3   0   0  239.62    4.73
  -4   0   0    0.11    0.12
  -4   0   0    0.15    0.14
  -4   0   0    0.16    0.12
  -4   0   0    0.10    0.13
  -4   0   0    0.03    0.12
  -4   0   0    0.03    0.10
   4   0   0    0.17    0.11
   4   0   0    0.42    0.17
   4   0   0    0.12    0.11
   4   0   0    0.34    0.13
  -5   0   0  181.66    3.98
  -5   0   0  187.37    3.79
  -5   0   0  180.90    4.11
  -5   0   0  184.66    3.91
   5   0   0  183.18    3.68
   5   0   0  181.43    3.84
  -6   0   0    2.15    0.35
  -6   0   0    2.27    0.40
   6   0   0    2.42    0.31
  -7   0   0    8.22    0.63
   7  -1   0    1.73    0.32
  -7   1   0    1.96    0.39
   6  -1   0   18.91    0.73
   6  -1   0   18.73    0.73
  -6   1   0   18.78    0.79
   5  -1   0   59.17    1.44
  -5   1   0   56.08    1.37
  -5   1   0   58.31    1.56
  -5   1   0   57.20    1.59
  -5   1   0   55.12    1.39
  -5   1   0   56.43    1.71
  -5   1   0   57.75    1.47
   4  -1   0    0.17    0.10
   4  -1   0    0.17    0.11
   4  -1   0    0.31    0.15
   4  -1   0    0.46    0.16
   4  -1   0    0.22    0.12
   4  -1   0    0.25    0.13
  -4   1   0    0.01    0.11
  -4   1   0    0.03    0.11
  -4   1   0    0.04    0.13
  -4   1   0    0.24    0.12
  -4   1   0    0.40    0.12
  -4   1   0    0.30    0.13
   3  -1   0  131.33    2.69
   3  -1   0  133.42    2.62
   3  -1   0  136.70    2.92
   3  -1   0  137.29    2.73
   3  -1   0  135.21    2.81
   3  -1   0  131.25    3.01
  -3   1   0  134.74    2.63
  -3   1   0  134.56    2.74
  -3   1   0  136.76    2.86
  -3   1   0  134.83    2.70
  -3   1   0  132.35    2.76
  -3   1   0  132.85    2.64
   2  -1   0   77.02    1.63
   2  -1   0   76.23    1.70
   2  -1   0   74.04    1.77
   2  -1   0   76.39    1.52
  -2   1   0   76.77    1.65
  -2   1   0   76.13    1.52
  -2   1   0   74.95    1.51
  -2   1   0   76.24    1.59
  -2   1   0   78.52    1.71
  -2   1   0   77.99    1.58
  -2   1   0   77.10    1.64
   1  -1   0   11.81    0.33
   1  -1   0   11.99    0.30
   1  -1   0   12.16    0.29
   1  -1   0   11.47    0.30
   1  -1   0   13.41    0.38
   1  -1   0   11.81    0.40
   1  -1   0   13.75    0.35
  -1   1   0   12.18    0.33
  -1   1   0   12.72    0.31
  -1   1   0   11.52    0.29
  -1   1   0   11.27    0.28
  -1   1   0   12.31    0.34
  -1   1   0   12.54    0.37
   0  -1   0  173.99    3.33
   0   1   0  169.73    3.35
   0   1   0  168.70    3.38
  -1  -1   0   56.24    1.19
  -1  -1   0   57.74    1.17
  -1  -1   0   56.56    1.23
  -1  -1   0   56.87    1.21
   1   1   0   58.72    1.24
   1   1   0   55.53    1.17
   1   1   0   59.48    1.20
   1   1   0   56.43    1.21
  -2  -1   0  154.47    3.05
  -2  -1   0  156.52    2.96
  -2  -1   0  156.03    3.14
  -2  -1   0  154.00    2.95
  -2  -1   0  158.42    3.12
   2   1   0  156.69    3.17
   2   1   0  156.92    3.09
  -3  -1   0  202.73    4.12
  -3  -1   0  204.91    4.04
  -3  -1   0  202.93    3.90
  -3  -1   0  207.55    3.92
  -3  -1   0  205.27    4.17
   3   1   0  208.59    3.99
   3   1   0  203.55    4.20
   3   1   0  203.14    3.90
   3   1   0  203.84    4.09
  -4  -1   0   10.05    0.42
  -4  -1   0    9.60    0.48
  -4  -1   0    9.16    0.54
  -4  -1   0    9.67    0.52
  -4  -1   0   10.87    0.42
  -4  -1   0    9.99    0.45
   4   1   0    9.12    0.55
   4   1   0    9.73    0.44
   4   1   0   10.24    0.40
   4   1   0    9.97    0.51
  -5  -1   0   80.54    2.19
  -5  -1   0   80.19    2.01
  -5  -1   0   76.22    2.06
  -5  -1   0   79.62    1.89
   5   1   0   81.19    1.93
  -6  -1   0    7.46    0.53
  -6  -1   0    8.51    0.64
  -7  -1   0   29.06    1.12
   7  -2   0   11.59    0.65
  -7   2   0   10.87    0.69
   6  -2   0   35.65    1.11
  -6   2   0   34.87    1.13
   5  -2   0   50.08    1.34
  -5   2   0   48.99    1.55
  -5   2   0   50.10    1.23
  -5   2   0   50.95    1.42
  -5   2   0   50.58    1.34
  -5   2   0   51.47    1.26
   4  -2   0    4.78    0.41
   4  -2   0    4.91    0.33
   4  -2   0    4.54    0.28
   4  -2   0    4.73    0.36
  -4   2   0    4.73    0.39
  -4   2   0    4.73    0.33
  -4   2   0    4.85    0.28
  -4   2   0    5.30    0.34
  -4   2   0    4.44    0.28
  -4   2   0    5.09    0.35
   3  -2   0  213.24    4.35
   3  -2   0  208.74    4.12
   3  -2   0  214.12    4.20
   3  -2   0  208.34    4.05
   3  -2   0  208.82    4.49
   3  -2   0  211.64    4.23
  -3   2   0  216.64    4.14
  -3   2   0  219.38    4.19
  -3   2   0  210.61    4.13
  -3   2   0  208.91    4.03
  -3   2   0  212.88    4.25
  -3   2   0  210.66    4.10
  -3   2   0  210.68    4.02
   2  -2   0   72.19    1.55
   2  -2   0   68.31    1.69
   2  -2   0   71.80    1.62
  -2   2   0   70.60    1.52
  -2   2   0   71.95    1.50
  -2   2   0   68.95    1.40
  -2   2   0   70.13    1.45
  -2   2   0   67.67    1.39
  -2   2   0   70.12    1.46
   1  -2   0  870.36   16.01
   1  -2   0  834.56   16.16
   1  -2   0  881.09   16.00
   1  -2   0  905.70   16.69
   1  -2   0  904.38   16.38
   1  -2   0  832.82   16.01
   1  -2   0  841.37   16.72
  -1   2   0  874.41   16.04
  -1   2   0  853.84   16.62
  -1   2   0  880.42   16.18
  -1   2   0  869.98   16.51
   0  -2   0   17.40    0.48
   0  -2   0   16.92    0.45
   0   2   0   16.94    0.48
   0   2   0   16.68    0.44
  -1  -2   0  183.48    3.53
  -1  -2   0  188.27    3.59
  -1  -2   0  182.47    3.59
  -1  -2   0  180.41    3.46
  -1  -2   0  182.13    3.53
  -1  -2   0  187.13    3.53
  -1  -2   0  180.18    3.51
   1   2   0  193.16    3.60
   1   2   0  176.90    3.52
   1   2   0  193.80    3.54
   1   2   0  175.84    3.47
  -2  -2   0  466.46    8.68
  -2  -2   0  461.50    8.76
  -2  -2   0  463.24    8.66
  -2  -2   0  465.96    8.68
  -2  -2   0  464.52    8.77
   2   2   0  467.62    8.74
   2   2   0  466.90    8.83
   2   2   0  479.70    8.69
  -3  -2   0   27.57    0.91
  -3  -2   0   28.88    0.90
  -3  -2   0   28.99    0.83
  -3  -2   0   29.13    0.71
  -3  -2   0   29.29    0.72
   3   2   0   29.22    0.88
   3   2   0   30.42    0.78
   3   2   0   29.20    0.96
  -4  -2   0  209.43    4.01
  -4  -2   0  200.09    4.37
  -4  -2   0  205.49    4.32
  -4  -2   0  205.79    4.21
  -4  -2   0  210.76    4.04
   4   2   0  206.81    4.45
   4   2   0  202.98    4.29
   4   2   0  208.05    4.13
  -5  -2   0   20.45    1.17
  -5  -2   0   19.90    0.88
  -5  -2   0   20.60    1.02
   5   2   0   20.08    0.75
  -6  -2   0    2.49    0.44
   6   2   0    2.62    0.38
   6  -3   0   37.02    1.19
  -6   3   0   38.22    1.17
   5  -3   0   42.90    1.34
   5  -3   0   41.98    1.14
   5  -3   0   46.23    1.27
  -5   3   0   44.89    1.21
  -5   3   0   47.55    1.46
  -5   3   0   44.94    1.30
   4  -3   0   32.19    0.85
   4  -3   0   30.14    0.98
   4  -3   0   29.82    0.90
   4  -3   0   31.12    1.01
   4  -3   0   30.67    1.10
   4  -3   0   30.85    1.41
  -4   3   0   29.90    1.01
  -4   3   0   29.70    0.86
  -4   3   0   31.43    0.92
  -4   3   0   29.78    0.94
   3  -3   0   99.36    2.15
   3  -3   0   94.35    2.14
   3  -3   0   93.06    2.03
   3  -3   0   95.60    2.25
   3  -3   0   93.94    2.39
  -3   3   0   94.11    2.01
  -3   3   0   96.41    2.11
  -3   3   0  102.30    2.10
  -3   3   0   92.97    1.97
  -3   3   0   93.37    1.98
   2  -3   0   89.89    1.92
   2  -3   0   89.28    2.00
   2  -3   0   88.13    2.08
   2  -3   0   88.60    1.91
  -2   3   0   89.48    1.84
  -2   3   0   84.88    1.76
  -2   3   0   85.02    1.75
  -2   3   0   87.20    1.82
   1  -3   0  219.39    4.40
   1  -3   0  229.33    4.41
   1  -3   0  231.39    4.33
  -1   3   0  223.10    4.38
  -1   3   0  219.96    4.31
   0  -3   0  688.02   13.22
   0  -3   0  691.97   13.03
   0   3   0  680.52   13.51
   0   3   0  694.21   13.27
  -1  -3   0    2.21    0.18
  -1  -3   0    2.06    0.17
  -1  -3   0    2.05    0.19
  -1  -3   0    2.24    0.17
  -1  -3   0    2.14    0.14
  -1  -3   0    2.09    0.16
  -1  -3   0    1.96    0.16
  -1  -3   0    1.80    0.18
  -1  -3   0    2.13    0.17
  -2  -3   0  324.76    6.10
  -2  -3   0  314.85    6.15
  -2  -3   0  319.17    6.06
  -2  -3   0  321.19    6.07
  -2  -3   0  317.44    6.16
   2   3   0  326.71    6.16
   2   3   0  327.65    6.26
   2   3   0  311.99    5.96
  -3  -3   0   33.83    0.93
  -3  -3   0   34.32    1.03
  -3  -3   0   35.07    0.96
  -3  -3   0   35.43    0.96
  -3  -3   0   33.65    1.04
  -3  -3   0   34.18    0.80
  -3  -3   0   35.60    0.81
   3   3   0   34.17    0.87
   3   3   0   34.62    1.01
   3   3   0   33.69    1.09
  -4  -3   0  102.05    2.11
  -4  -3   0  103.88    2.48
  -4  -3   0  101.04    2.44
  -4  -3   0  103.16    2.14
  -4  -3   0  101.32    2.32
   4   3   0  102.32    2.23
   4   3   0   99.95    2.40
   4   3   0   99.65    2.53
  -5  -3   0  117.53    2.90
   5   3   0  120.38    2.67
  -6  -3   0    3.77    0.53
   6   3   0    3.13    0.41
   6  -4   0   65.22    1.78
  -6   4   0   65.58    1.67
   5  -4   0   11.92    0.67
   5  -4   0   13.29    0.64
  -5   4   0   12.47    0.56
   4  -4   0   59.20    1.62
   4  -4   0   62.27    1.66
   4  -4   0   58.18    1.93
   4  -4   0   61.09    1.78
   4  -4   0   62.81    1.54
  -4   4   0   61.50    1.49
  -4   4   0   63.97    1.58
  -4   4   0   62.96    1.44
  -4   4   0   63.46    1.62
   3  -4   0  206.27    4.15
   3  -4   0  211.93    4.30
   3  -4   0  210.66    4.43
   3  -4   0  213.75    4.28
   3  -4   0  211.59    4.60
  -3   4   0  217.00    4.21
  -3   4   0  205.77    4.06
  -3   4   0  206.41    4.16
  -3   4   0  206.27    4.03
   2  -4   0   17.48    0.62
   2  -4   0   17.66    0.48
   2  -4   0   17.55    0.62
   2  -4   0   17.33    0.49
   2  -4   0   17.72    0.69
   2  -4   0   17.66    0.75
  -2   4   0   16.69    0.46
  -2   4   0   17.16    0.54
  -2   4   0   16.73    0.50
   1  -4   0  135.66    2.72
   1  -4   0  133.06    2.86
   1  -4   0  134.30    2.77
  -1   4   0  133.47    2.60
   0  -4   0  147.65    3.07
   0  -4   0  147.46    2.98
  -1  -4   0   26.12    0.76
  -1  -4   0   25.90    0.72
  -1  -4   0   26.26    0.71
  -1  -4   0   25.75    0.68
  -1  -4   0   25.64    0.74
  -1  -4   0   25.93    0.63
  -1  -4   0   27.13    0.83
  -2  -4   0  108.07    2.36
  -2  -4   0  109.55    2.34
  -2  -4   0  109.10    2.48
  -2  -4   0  109.88    2.30
  -2  -4   0  109.79    2.34
  -2  -4   0  108.74    2.25
  -2  -4   0  109.69    2.38
   2   4   0  108.77    2.15
  -3  -4   0    0.78    0.17
  -3  -4   0    0.89    0.18
  -3  -4   0    0.45    0.15
  -3  -4   0    0.57    0.18
  -3  -4   0    0.63    0.16
  -3  -4   0    0.58    0.21
  -3  -4   0    0.65    0.17
   3   4   0    0.60    0.12
   3   4   0    0.48    0.19
   3   4   0    0.50    0.17
  -4  -4   0    8.55    0.38
  -4  -4   0    9.22    0.49
  -4  -4   0    8.56    0.37
  -4  -4   0    9.33    0.57
  -4  -4   0    7.85    0.52
   4   4   0   10.04    0.55
   4   4   0    8.66    0.42
   4   4   0    9.22    0.60
  -5  -4   0   49.64    1.59
   5   4   0   49.87    1.37
  -6  -4   0   16.32    0.93
   6   4   0   15.61    0.74
   6  -5   0   26.01    1.03
   6  -5   0   23.46    1.19
  -6   5   0   25.67    0.87
   5  -5   0    1.49    0.34
   5  -5   0    1.71    0.32
  -5   5   0    2.10    0.27
   4  -5   0   20.59    0.95
   4  -5   0   20.67    1.09
   4  -5   0   21.27    0.87
   4  -5   0   22.13    0.88
   4  -5   0   21.48    0.78
  -4   5   0   21.68    0.81
  -4   5   0   20.78    0.64
   3  -5   0  229.76    4.78
   3  -5   0  228.86    5.09
   3  -5   0  230.86    4.94
   3  -5   0  232.91    4.76
   3  -5   0  240.04    4.76
  -3   5   0  236.12    4.67
   2  -5   0   30.28    1.09
   2  -5   0   32.10    0.94
   2  -5   0   30.51    0.75
   2  -5   0   29.46    1.03
   2  -5   0   30.99    0.96
   2  -5   0   30.36    0.77
  -2   5   0   31.34    0.85
   1  -5   0  284.18    5.58
   1  -5   0  288.64    5.71
   1  -5   0  279.40    5.50
  -1   5   0  285.77    5.36
   0  -5   0   22.06    0.78
   0  -5   0   19.89    0.54
   0  -5   0   22.15    0.71
   0   5   0   19.84    0.46
  -1  -5   0  171.82    3.44
  -1  -5   0  170.35    3.32
  -1  -5   0  175.81    3.40
  -1  -5   0  169.83    3.26
  -1  -5   0  169.59    3.60
  -1  -5   0  169.22    3.46
  -1  -5   0  171.05    3.49
   1   5   0  163.70    3.16
  -2  -5   0  343.15    6.48
  -2  -5   0  341.80    6.68
  -2  -5   0  342.29    6.64
  -2  -5   0  344.52    6.59
  -2  -5   0  348.36    6.64
  -2  -5   0  340.47    6.82
  -2  -5   0  343.07    6.59
   2   5   0  336.08    6.37
  -3  -5   0   16.75    0.79
  -3  -5   0   16.42    0.64
  -3  -5   0   16.00    0.60
  -3  -5   0   15.86    0.66
  -3  -5   0   15.75    0.69
  -3  -5   0   16.02    0.69
  -3  -5   0   16.85    0.70
   3   5   0   16.02    0.52
  -4  -5   0  146.52    2.95
  -4  -5   0  143.24    3.17
  -4  -5   0  149.75    3.37
  -4  -5   0  148.43    3.19
  -4  -5   0  145.22    3.22
  -4  -5   0  147.09    3.36
  -4  -5   0  147.99    2.93
   4   5   0  145.04    3.06
  -5  -5   0    5.39    0.60
   5   5   0    6.15    0.41
  -6  -5   0   24.81    1.18
   6   5   0   23.89    0.94
   6  -6   0   13.12    0.78
   6  -6   0   12.00    0.84
   5  -6   0    0.53    0.27
   5  -6   0    0.66    0.28
   4  -6   0   68.43    1.91
   4  -6   0   69.91    2.31
  -4   6   0   73.96    1.87
   3  -6   0    1.94    0.32
   3  -6   0    2.43    0.45
   3  -6   0    2.54    0.39
   3  -6   0    2.00    0.39
  -3   6   0    1.99    0.27
   2  -6   0   44.85    1.26
   2  -6   0   45.18    1.06
   2  -6   0   45.13    1.49
   2  -6   0   44.92    1.43
   2  -6   0   45.35    1.32
   2  -6   0   46.36    1.05
  -2   6   0   47.04    1.17
  -2   6   0   45.26    1.16
   1  -6   0  147.94    3.22
   1  -6   0  151.24    3.13
   1  -6   0  150.36    3.36
  -1   6   0  151.43    2.97
   0  -6   0   11.93    0.60
   0  -6   0   12.76    0.56
   0  -6   0   11.53    0.45
   0   6   0   11.49    0.33
  -1  -6   0  184.11    3.65
  -1  -6   0  188.45    4.03
  -1  -6   0  191.32    3.82
  -1  -6   0  185.52    3.58
  -1  -6   0  189.60    3.74
  -1  -6   0  184.37    3.85
  -1  -6   0  185.86    3.88
   1   6   0  186.52    3.50
  -2  -6   0   87.57    2.21
  -2  -6   0   84.76    2.00
  -2  -6   0   84.50    1.94
  -2  -6   0   83.86    1.99
  -2  -6   0   88.41    2.05
  -2  -6   0   86.99    2.08
   2   6   0   83.05    1.74
  -3  -6   0    0.81    0.23
  -3  -6   0    0.63    0.23
  -3  -6   0    0.44    0.18
  -3  -6   0    0.41    0.15
  -3  -6   0    0.21    0.16
  -3  -6   0    0.17    0.13
  -3  -6   0    0.00    0.12
   3   6   0    0.63    0.14
  -4  -6   0  157.03    3.35
  -4  -6   0  154.21    3.39
  -4  -6   0  153.28    3.55
  -4  -6   0  154.10    3.34
  -4  -6   0  160.85    3.55
  -4  -6   0  153.66    3.44
   4   6   0  151.21    3.22
  -5  -6   0   15.79    0.89
   5   6   0   17.18    0.71
  -6  -6   0   15.41    0.97
   6   6   0   16.17    0.77
   6  -7   0   28.71    1.33
   6  -7   0   29.64    1.22
   5  -7   0    1.42    0.39
   4  -7   0  123.07    3.53
   4  -7   0  128.00    3.05
  -4   7   0  126.63    2.93
   3  -7   0    8.32    0.56
   3  -7   0    8.62    0.74
   3  -7   0    8.53    0.58
   3  -7   0    9.36    0.67
  -3   7   0    8.74    0.49
   2  -7   0   48.09    1.47
   2  -7   0   48.90    1.60
   2  -7   0   51.17    1.71
   2  -7   0   48.05    1.38
   2  -7   0   47.74    1.14
  -2   7   0   49.33    1.28
  -2   7   0   51.07    1.30
   1  -7   0  144.00    3.19
   1  -7   0  141.42    3.05
   1  -7   0  143.49    3.34
  -1   7   0  144.09    2.89
   0  -7   0   -0.01    0.10
   0  -7   0    0.19    0.14
   0  -7   0   -0.07    0.10
   0  -7   0    0.32    0.19
   0  -7   0    0.08    0.12
   0   7   0    0.20    0.07
  -1  -7   0  237.00    5.10
  -1  -7   0  244.81    4.75
  -1  -7   0  236.16    4.93
  -1  -7   0  241.71    4.85
  -1  -7   0  240.81    4.90
   1   7   0  240.27    4.51
  -2  -7   0    1.96    0.26
  -2  -7   0    2.56    0.32
  -2  -7   0    2.16    0.23
  -2  -7   0    4.40    0.42
  -2  -7   0    3.84    0.42
  -2  -7   0    2.11    0.37
  -2  -7   0    2.70    0.38
   2   7   0    2.54    0.18
  -3  -7   0   36.02    1.16
  -3  -7   0   37.23    1.18
  -3  -7   0   37.69    1.23
  -3  -7   0   37.69    1.22
  -3  -7   0   35.95    1.05
   3   7   0   36.90    0.96
  -4  -7   0   47.97    1.56
  -4  -7   0   48.70    1.38
  -4  -7   0   49.82    1.47
  -4  -7   0   48.99    1.53
  -4  -7   0   48.83    1.50
   4   7   0   46.73    1.27
  -5  -7   0    0.27    0.26
   5   7   0    0.10    0.15
  -6  -7   0   33.99    1.47
   6   7   0   33.31    1.18
   5  -8   0    2.34    0.48
   4  -8   0   22.84    1.03
   4  -8   0   22.48    1.37
  -4   8   0   21.88    0.94
   3  -8   0   25.70    1.36
   3  -8   0   26.30    1.04
  -3   8   0   27.91    0.98
   2  -8   0   14.94    0.72
   2  -8   0   16.75    0.90
   2  -8   0   15.79    0.98
   2  -8   0   16.19    0.80
  -2   8   0   16.00    0.64
   1  -8   0   59.63    1.69
   1  -8   0   60.34    1.84
   1  -8   0   57.66    1.56
  -1   8   0   60.10    1.40
   0  -8   0   13.34    0.67
   0  -8   0   12.66    0.56
   0  -8   0   13.15    0.62
   0  -8   0   13.24    0.75
   0  -8   0   13.47    0.66
   0   8   0   13.17    0.43
  -1  -8   0   62.29    1.87
  -1  -8   0   60.27    1.64
  -1  -8   0   62.59    1.74
  -1  -8   0   64.83    1.71
   1   8   0   61.94    1.33
  -2  -8   0   45.90    1.36
  -2  -8   0   45.22    1.40
  -2  -8   0   44.96    1.31
   2   8   0   44.48    1.06
  -3  -8   0   68.95    1.89
  -3  -8   0   70.18    1.96
  -3  -8   0   72.75    1.95
   3   8   0   72.53    1.64
  -4  -8   0   58.32    1.79
  -4  -8   0   57.30    1.75
  -4  -8   0   55.38    1.68
   4   8   0   56.73    1.47
  -5  -8   0    8.11    0.71
  -5  -8   0    8.28    0.84
  -5  -8   0    8.14    0.61
   5   8   0    7.29    0.48
   5  -9   0   32.70    1.42
   4  -9   0   27.26    1.20
   4  -9   0   27.94    1.61
  -4   9   0   28.80    1.14
   3  -9   0    1.00    0.29
   3  -9   0    1.20    0.46
  -3   9   0    1.12    0.27
   2  -9   0   91.48    2.30
   2  -9   0   88.83    2.74
  -2   9   0   89.37    2.14
   1  -9   0   38.31    1.21
  -1   9   0   39.10    1.07
   0  -9   0   56.37    1.56
   0  -9   0   54.34    1.45
   0  -9   0   53.40    1.59
   0   9   0   54.60    1.27
  -1  -9   0   36.81    1.25
  -1  -9   0   37.22    1.21
   1   9   0   37.13    0.92
  -2  -9   0    6.63    0.52
  -2  -9   0    6.63    0.63
  -2  -9   0    6.23    0.46
   2   9   0    6.49    0.33
  -3  -9   0   51.37    1.58
  -3  -9   0   50.27    1.63
  -3  -9   0   49.06    1.56
   3   9   0   51.15    1.28
  -4  -9   0   28.01    1.19
  -4  -9   0   27.87    1.13
  -4  -9   0   28.43    1.19
   4   9   0   26.90    0.91
  -5  -9   0    3.11    0.49
  -5  -9   0    4.72    0.62
  -5  -9   0    5.09    0.66
   5   9   0    5.08    0.51
   4 -10   0   37.71    1.47
  -4  10   0   36.65    1.38
   3 -10   0    1.83    0.56
   3 -10   0    1.39    0.37
  -3  10   0    1.33    0.28
   2 -10   0   89.47    2.29
   2 -10   0   80.32    2.71
  -2  10   0   85.63    2.12
   1 -10   0   40.13    1.28
  -1  10   0   38.83    1.13
   0 -10   0   18.27    0.83
   0 -10   0   17.97    0.87
   0  10   0   19.27    0.64
  -1 -10   0  118.64    2.95
  -1 -10   0  123.57    2.90
   1  10   0  120.59    2.52
  -2 -10   0    1.94    0.38
  -2 -10   0    1.92    0.38
   2  10   0    1.32    0.20
  -3 -10   0   59.88    1.87
  -3 -10   0   57.32    1.78
  -3 -10   0   57.73    1.77
   3  10   0   57.53    1.46
  -4 -10   0    9.13    0.73
  -4 -10   0    9.16    0.68
  -4 -10   0    8.71    0.72
   4  10   0    8.55    0.50
   4 -11   0    6.27    0.78
  -4  11   0    6.09    0.66
   3 -11   0    3.99    0.61
  -3  11   0    3.98    0.51
   2 -11   0   25.94    1.51
   2 -11   0   28.52    1.15
  -2  11   0   26.42    1.01
   1 -11   0    2.34    0.42
   1 -11   0    2.14    0.41
   1 -11   0    1.97    0.38
  -1  11   0    2.43    0.33
   0 -11   0   17.96    0.87
   0 -11   0   17.96    0.91
   0  11   0   16.66    0.65
  -1 -11   0   38.84    1.36
  -1 -11   0   38.97    1.42
   1  11   0   39.60    1.08
  -2 -11   0    4.49    0.60
  -2 -11   0    4.77    0.65
   2  11   0    3.75    0.30
  -3 -11   0   35.33    1.44
  -3 -11   0   35.74    1.38
   3  11   0   35.95    1.07
  -4 -11   0    3.09    0.53
  -4 -11   0    3.02    0.56
   4  11   0    2.79    0.36
   3 -12   0   12.94    0.90
  -3  12   0   12.63    0.77
   2 -12   0   33.99    1.34
  -2  12   0   31.27    1.18
   1 -12   0    2.84    0.48
   1 -12   0    2.31    0.46
   1 -12   0    2.87    0.52
  -1  12   0    2.76    0.36
   0 -12   0   64.53    2.02
   0 -12   0   64.12    1.94
   0  12   0   63.96    1.65
  -1 -12   0   10.91    0.71
  -1 -12   0    9.11    0.70
   1  12   0    9.04    0.49
  -2 -12   0   21.99    1.06
  -2 -12   0   21.19    1.08
   2  12   0   22.02    0.79
  -3 -12   0   31.82    1.43
  -3 -12   0   36.23    1.43
   3  12   0   33.95    1.08
   1 -13   0    3.16    0.58
   1 -13   0    3.38    0.54
  -1  13   0    3.20    0.43
   0 -13   0   25.35    1.18
   0 -13   0   23.79    1.10
   0  13   0   24.11    0.93
  -1 -13   0    8.63    0.85
  -1 -13   0    9.18    0.92
   1  13   0    8.43    0.51
   0  13  -1    3.26    0.38
   0 -13   1    2.57    0.47
   0 -13   1    2.77    0.51
   2  12  -1   35.12    1.05
  -2 -12   1   35.32    1.39
  -2 -12   1   35.54    1.45
   1  12  -1   13.51    0.57
  -1 -12   1   12.53    0.84
  -1 -12   1   12.63    0.80
   0  12  -1   14.80    0.64
   0 -12   1   14.44    0.90
   0 -12   1   13.19    0.82
  -1  12  -1   30.48    1.04
   1 -12   1   29.69    1.31
   1 -12   1   30.51    1.25
  -2  12  -1    2.18    0.37
   2 -12   1    2.16    0.46
   3  11  -1    0.10    0.14
  -3 -11   1    0.19    0.28
  -3 -11   1    0.17    0.28
   2  11  -1   34.57    0.97
  -2 -11   1   34.98    1.32
  -2 -11   1   32.00    1.33
   1  11  -1    6.59    0.37
  -1 -11   1    6.91    0.74
  -1 -11   1    6.77    0.69
   0  11  -1   13.42    0.56
   0 -11   1   13.46    0.79
   0 -11   1   14.54    0.85
  -1  11  -1   31.84    1.01
   1 -11   1   31.81    1.19
   1 -11   1   30.57    1.21
   1 -11   1   30.26    1.26
  -2  11  -1    0.41    0.21
   2 -11   1    0.54    0.28
  -3  11  -1   39.52    1.39
   3 -11   1   40.66    1.53
   4  10  -1   13.22    0.62
  -4 -10   1   12.89    0.86
  -4 -10   1   14.62    0.90
  -4 -10   1   11.41    0.78
   3  10  -1   12.93    0.55
  -3 -10   1   13.72    0.85
  -3 -10   1   14.62    0.82
   2  10  -1   60.25    1.41
  -2 -10   1   61.55    1.88
  -2 -10   1   59.57    1.81
   1  10  -1    3.10    0.23
  -1 -10   1    3.53    0.49
  -1 -10   1    3.94    0.54
   0  10  -1   32.59    0.89
   0 -10   1   31.65    1.17
   0 -10   1   34.81    1.26
  -1  10  -1   36.41    1.05
   1 -10   1   36.26    1.23
  -2  10  -1   13.30    0.64
   2 -10   1   13.31    1.03
   2 -10   1   13.88    0.78
  -3  10  -1   25.63    1.02
   3 -10   1   25.04    1.50
   3 -10   1   26.30    1.14
  -4  10  -1    5.21    0.59
   4 -10   1    5.19    0.69
   4   9  -1   27.95    0.91
  -4  -9   1   28.98    1.23
  -4  -9   1   27.11    1.19
  -4  -9   1   24.66    1.10
   3   9  -1   23.87    0.74
  -3  -9   1   23.18    1.01
  -3  -9   1   22.02    1.03
  -3  -9   1   23.13    0.99
   2   9  -1   96.09    2.03
  -2  -9   1   97.43    2.52
  -2  -9   1   97.86    2.46
   1   9  -1    2.07    0.17
  -1  -9   1    2.47    0.37
  -1  -9   1    2.55    0.39
   0   9  -1   61.92    1.37
   0  -9   1   62.48    1.79
   0  -9   1   61.13    1.72
   0  -9   1   64.37    1.63
  -1   9  -1   65.06    1.52
   1  -9   1   62.61    1.71
  -2   9  -1    7.44    0.44
   2  -9   1    5.90    0.71
   2  -9   1    6.16    0.52
  -3   9  -1   34.72    1.17
   3  -9   1   34.07    1.65
   3  -9   1   35.22    1.30
  -4   9  -1    2.38    0.42
   4  -9   1    1.57    0.56
   4  -9   1    1.84    0.42
  -5   9  -1   22.17    1.06
   5  -9   1   20.96    1.14
   5   8  -1   31.42    1.07
  -5  -8   1   34.38    1.41
  -5  -8   1   32.92    1.30
  -5  -8   1   31.60    1.23
   4   8  -1   11.44    0.53
  -4  -8   1   13.53    0.82
  -4  -8   1   11.17    0.69
  -4  -8   1   12.69    0.76
   3   8  -1   40.26    1.03
  -3  -8   1   39.48    1.35
  -3  -8   1   40.62    1.35
  -3  -8   1   39.14    1.30
   2   8  -1   36.52    0.87
  -2  -8   1   36.11    1.20
  -2  -8   1   35.87    1.24
  -2  -8   1   36.14    1.17
   1   8  -1    4.31    0.20
  -1  -8   1    4.57    0.50
  -1  -8   1    3.39    0.44
  -1  -8   1    4.70    0.47
  -1  -8   1    4.23    0.55
   0   8  -1  107.50    2.12
   0  -8   1  105.10    2.55
   0  -8   1  106.63    2.76
   0  -8   1  106.75    2.60
   0  -8   1  109.22    2.51
   0  -8   1  104.94    2.38
  -1   8  -1   18.24    0.59
   1  -8   1   18.55    0.83
   1  -8   1   18.31    0.75
   1  -8   1   18.79    0.93
  -2   8  -1   26.52    0.85
   2  -8   1   26.28    1.24
   2  -8   1   26.82    1.06
   2  -8   1   26.83    1.18
   2  -8   1   27.79    1.01
  -3   8  -1   47.88    1.41
   3  -8   1   47.42    1.87
   3  -8   1   49.53    1.54
  -4   8  -1    0.08    0.15
   4  -8   1   -0.09    0.30
   4  -8   1    0.07    0.19
  -5   8  -1   29.45    1.20
   5  -8   1   28.88    1.28
   5   7  -1   57.65    1.59
  -5  -7   1   61.98    1.96
   4   7  -1    0.55    0.16
  -4  -7   1    1.03    0.29
  -4  -7   1    0.82    0.29
  -4  -7   1    0.54    0.26
   3   7  -1  116.15    2.39
  -3  -7   1  115.28    2.75
  -3  -7   1  113.07    2.53
  -3  -7   1  112.19    2.68
  -3  -7   1  116.41    2.68
  -3  -7   1  115.80    2.74
   2   7  -1   35.75    0.83
  -2  -7   1   35.81    1.12
  -2  -7   1   34.46    1.35
  -2  -7   1   36.95    1.18
  -2  -7   1   35.89    1.20
  -2  -7   1   36.32    1.14
  -2  -7   1   36.21    1.20
  -2  -7   1   35.81    1.31
  -1  -7   1   22.03    0.85
  -1  -7   1   21.25    0.84
  -1  -7   1   20.88    0.79
  -1  -7   1   21.24    0.93
  -1  -7   1   20.76    0.72
   0   7  -1  228.34    4.40
   0  -7   1  241.40    4.70
   0  -7   1  238.21    4.82
   0  -7   1  239.98    5.07
   0  -7   1  233.01    4.87
   0  -7   1  241.79    4.91
  -1   7  -1    0.63    0.11
   1  -7   1    0.48    0.19
   1  -7   1    0.44    0.18
   1  -7   1    0.69    0.23
  -2   7  -1  140.61    2.97
   2  -7   1  140.23    3.40
   2  -7   1  141.67    3.24
   2  -7   1  146.88    3.15
   2  -7   1  140.32    3.48
  -3   7  -1   82.01    2.00
   3  -7   1   85.89    2.50
   3  -7   1   81.93    2.19
   3  -7   1   83.22    2.13
   3  -7   1   81.06    2.34
  -4   7  -1    3.16    0.40
   4  -7   1    2.90    0.57
   4  -7   1    4.01    0.53
  -5   7  -1   45.36    1.50
   5  -7   1   46.17    1.60
   6  -7   1    5.20    0.73
   6   6  -1   14.17    0.72
  -6  -6   1   14.77    0.96
   5   6  -1   46.78    1.33
  -5  -6   1   45.33    1.61
   4   6  -1    1.01    0.19
  -4  -6   1    0.99    0.25
  -4  -6   1    0.49    0.23
  -4  -6   1    1.12    0.28
  -4  -6   1    0.96    0.24
  -4  -6   1    1.06    0.22
   3   6  -1   76.11    1.66
  -3  -6   1   77.79    1.99
  -3  -6   1   77.11    1.94
  -3  -6   1   76.84    1.89
  -3  -6   1   74.42    1.79
  -3  -6   1   74.78    1.93
   2   6  -1   87.78    1.79
  -2  -6   1   89.29    2.19
  -2  -6   1   93.69    2.14
  -2  -6   1   93.46    2.13
  -2  -6   1   90.07    1.96
  -2  -6   1   89.10    2.06
  -2  -6   1   89.10    2.32
  -2  -6   1   91.95    2.16
  -1  -6   1   56.05    1.48
  -1  -6   1   56.54    1.49
  -1  -6   1   54.89    1.30
  -1  -6   1   54.62    1.59
  -1  -6   1   54.13    1.35
  -1  -6   1   56.02    1.23
  -1  -6   1   55.13    1.43
   0  -6   1  144.04    3.22
   0  -6   1  138.82    2.82
   0  -6   1  143.22    2.92
   0  -6   1  142.41    3.08
  -1   6  -1    0.31    0.07
   1  -6   1    0.32    0.15
   1  -6   1    0.05    0.10
   1  -6   1    0.46    0.19
  -2   6  -1   71.30    1.63
  -2   6  -1   71.41    1.63
   2  -6   1   70.87    1.99
   2  -6   1   70.63    1.83
   2  -6   1   69.09    1.94
   2  -6   1   72.52    1.77
  -3   6  -1   63.26    1.59
   3  -6   1   64.18    1.99
   3  -6   1   62.02    1.69
   3  -6   1   62.66    1.73
   3  -6   1   64.33    1.87
  -4   6  -1   23.36    0.88
   4  -6   1   22.89    0.96
   4  -6   1   22.82    0.97
   4  -6   1   21.34    1.06
   4  -6   1   22.15    1.20
  -5   6  -1   50.26    1.53
   5  -6   1   46.25    1.57
   6  -6   1    2.43    0.44
   6  -6   1    2.56    0.50
   6   5  -1   43.79    1.38
  -6  -5   1   44.15    1.66
   5   5  -1   31.43    1.02
  -5  -5   1   32.02    1.27
   4   5  -1    9.00    0.43
  -4  -5   1   10.03    0.53
  -4  -5   1    9.28    0.54
  -4  -5   1    8.86    0.59
  -4  -5   1    8.25    0.50
  -4  -5   1    9.09    0.59
   3   5  -1   69.70    1.54
  -3  -5   1   71.39    1.81
  -3  -5   1   69.17    1.84
  -3  -5   1   72.91    1.69
  -3  -5   1   70.40    1.71
  -3  -5   1   70.71    1.83
  -3  -5   1   70.33    1.75
  -3  -5   1   68.76    1.97
   2   5  -1   33.01    0.76
  -2  -5   1   35.31    1.15
  -2  -5   1   34.61    0.99
  -2  -5   1   34.67    0.99
  -2  -5   1   34.41    1.02
  -2  -5   1   35.09    0.91
  -2  -5   1   35.46    1.07
  -2  -5   1   34.25    1.02
  -1  -5   1  195.13    4.11
  -1  -5   1  197.26    3.76
  -1  -5   1  194.29    3.88
  -1  -5   1  195.70    3.99
  -1  -5   1  193.06    3.98
  -1  -5   1  198.02    3.84
  -1  -5   1  197.87    3.95
   0  -5   1   50.53    1.37
   0  -5   1   48.89    1.10
   0  -5   1   48.68    1.26
   0  -5   1   48.31    1.16
  -1   5  -1    7.38    0.26
   1  -5   1    7.62    0.45
   1  -5   1    7.10    0.36
   1  -5   1    7.25    0.40
  -2   5  -1   87.12    1.91
  -2   5  -1   89.78    1.92
   2  -5   1   88.69    2.08
   2  -5   1   87.98    2.22
   2  -5   1   90.46    2.21
   2  -5   1   88.45    2.04
  -3   5  -1    5.41    0.34
   3  -5   1    5.92    0.41
   3  -5   1    5.07    0.44
   3  -5   1    5.25    0.41
   3  -5   1    5.90    0.54
  -4   5  -1   93.97    2.21
   4  -5   1   94.10    2.32
   4  -5   1   93.19    2.69
   4  -5   1   93.32    2.45
   4  -5   1   91.51    2.29
   5  -5   1   23.19    0.98
   5  -5   1   21.85    0.89
   6  -5   1    0.50    0.28
   6  -5   1    0.74    0.31
   6   4  -1   32.20    1.12
  -6  -4   1   32.32    1.36
   5   4  -1   35.00    1.08
  -5  -4   1   35.32    1.31
   4   4  -1   39.79    1.07
  -4  -4   1   40.93    1.18
  -4  -4   1   40.02    0.97
  -4  -4   1   39.18    1.30
  -4  -4   1   37.80    1.27
  -4  -4   1   38.71    0.98
   3   4  -1  234.66    5.00
   3   4  -1  235.82    4.57
   3   4  -1  238.44    4.86
  -3  -4   1  239.86    4.86
  -3  -4   1  238.15    5.01
  -3  -4   1  235.43    4.86
  -3  -4   1  236.69    4.86
  -3  -4   1  238.09    4.71
  -3  -4   1  237.71    4.74
  -3  -4   1  239.09    4.71
   2   4  -1    0.12    0.06
  -2  -4   1    0.09    0.10
  -2  -4   1    0.08    0.09
  -2  -4   1    0.01    0.12
  -2  -4   1    0.05    0.09
  -2  -4   1    0.02    0.08
  -2  -4   1    0.19    0.11
  -2  -4   1    0.03    0.11
  -1  -4   1  199.16    3.93
  -1  -4   1  199.23    3.92
  -1  -4   1  201.98    3.82
  -1  -4   1  203.46    4.10
  -1  -4   1  200.12    3.89
  -1  -4   1  196.87    3.96
  -1  -4   1  198.54    3.99
   0  -4   1  224.24    4.37
   0  -4   1  221.27    4.22
   0  -4   1  224.66    4.47
  -1   4  -1   25.20    0.59
   1  -4   1   26.41    0.83
   1  -4   1   26.67    0.77
   1  -4   1   25.71    0.74
  -2   4  -1  446.12    8.29
  -2   4  -1  450.13    8.37
  -2   4  -1  441.90    8.39
   2  -4   1  446.01    8.53
   2  -4   1  454.55    8.74
   2  -4   1  455.26    8.53
   2  -4   1  450.87    8.65
  -3   4  -1    3.10    0.26
  -3   4  -1    3.96    0.28
  -3   4  -1    3.45    0.24
   3  -4   1    4.51    0.44
   3  -4   1    3.73    0.34
   3  -4   1    3.75    0.33
   3  -4   1    3.81    0.30
   3  -4   1    3.97    0.30
  -4   4  -1   53.96    1.41
  -4   4  -1   50.62    1.30
  -4   4  -1   51.51    1.42
  -4   4  -1   51.77    1.21
   4  -4   1   53.58    1.37
   4  -4   1   52.15    1.47
   4  -4   1   49.96    1.54
   4  -4   1   51.99    1.45
   4  -4   1   53.52    1.78
  -5   4  -1   46.00    1.20
   5  -4   1   47.24    1.46
   5  -4   1   48.25    1.37
  -6   4  -1    5.60    0.42
   6  -4   1    5.64    0.56
   6   3  -1   41.51    1.32
  -6  -3   1   41.64    1.54
   5   3  -1    2.94    0.34
  -5  -3   1    2.81    0.42
   4   3  -1   50.50    1.58
   4   3  -1   50.37    1.27
   4   3  -1   50.33    1.46
  -4  -3   1   48.65    1.46
  -4  -3   1   49.98    1.37
  -4  -3   1   51.94    1.52
  -4  -3   1   51.24    1.19
  -4  -3   1   50.48    1.17
   3   3  -1  233.68    4.49
   3   3  -1  233.10    4.73
   3   3  -1  233.27    4.87
  -3  -3   1  233.16    4.61
  -3  -3   1  235.09    4.61
  -3  -3   1  229.91    4.73
  -3  -3   1  235.23    4.76
  -3  -3   1  232.54    4.57
   2   3  -1    5.86    0.22
   2   3  -1    5.23    0.31
   2   3  -1    5.83    0.37
  -2  -3   1    5.63    0.33
  -2  -3   1    5.32    0.32
  -2  -3   1    5.74    0.29
  -2  -3   1    6.49    0.30
  -2  -3   1    5.74    0.30
  -1  -3   1  306.76    5.84
  -1  -3   1  308.67    5.98
  -1  -3   1  309.17    5.89
  -1  -3   1  313.50    5.87
  -1  -3   1  303.11    5.86
  -1  -3   1  312.84    5.85
  -1  -3   1  312.27    5.78
   0   3  -1  253.19    4.89
   0   3  -1  251.12    4.81
   0   3  -1  245.17    4.72
   0   3  -1  244.42    4.68
   0  -3   1  252.39    4.68
   0  -3   1  261.31    4.91
   0  -3   1  258.91    4.83
   0  -3   1  254.81    4.72
  -1   3  -1   60.43    1.41
  -1   3  -1   62.36    1.24
  -1   3  -1   60.16    1.35
   1  -3   1   63.65    1.38
   1  -3   1   63.61    1.45
   1  -3   1   60.23    1.22
  -2   3  -1  268.79    5.15
  -2   3  -1  269.71    5.16
  -2   3  -1  270.02    5.09
   2  -3   1  274.39    5.33
   2  -3   1  277.88    5.24
   2  -3   1  269.70    5.42
   2  -3   1  271.04    5.25
  -3   3  -1    1.38    0.20
  -3   3  -1    1.56    0.18
  -3   3  -1    1.67    0.22
  -3   3  -1    1.61    0.19
   3  -3   1    2.81    0.28
   3  -3   1    2.00    0.26
   3  -3   1    1.55    0.24
   3  -3   1    1.94    0.34
   3  -3   1    2.07    0.30
  -4   3  -1   24.00    0.76
  -4   3  -1   23.79    0.80
  -4   3  -1   24.43    0.86
  -4   3  -1   22.34    0.68
   4  -3   1   21.30    0.81
   4  -3   1   23.48    0.92
   4  -3   1   22.56    0.76
   4  -3   1   22.91    0.70
   4  -3   1   21.94    1.03
   4  -3   1   23.12    0.82
  -5   3  -1   46.59    1.32
  -5   3  -1   45.50    1.20
  -5   3  -1   45.07    1.45
   5  -3   1   45.14    1.37
   5  -3   1   46.55    1.31
  -6   3  -1    7.97    0.51
   6  -3   1    6.37    0.52
   6   2  -1   76.42    2.00
  -6  -2   1   76.34    2.23
   5   2  -1    0.93    0.22
  -5  -2   1    0.63    0.25
   4   2  -1   69.95    1.84
   4   2  -1   69.25    1.95
   4   2  -1   70.88    1.67
  -4  -2   1   70.02    1.89
  -4  -2   1   71.13    1.55
  -4  -2   1   72.12    1.57
  -4  -2   1   72.27    1.85
  -4  -2   1   70.19    1.74
   3   2  -1   73.37    1.87
   3   2  -1   73.71    1.77
   3   2  -1   73.18    1.60
  -3  -2   1   73.68    1.81
  -3  -2   1   73.54    1.69
  -3  -2   1   74.79    1.52
  -3  -2   1   72.72    1.77
  -3  -2   1   73.15    1.51
   2   2  -1   45.03    1.13
   2   2  -1   44.39    0.97
   2   2  -1   46.19    1.22
  -2  -2   1   45.22    1.14
  -2  -2   1   44.73    1.15
  -2  -2   1   45.97    1.06
  -2  -2   1   46.29    1.04
  -2  -2   1   44.49    1.07
   1   2  -1  532.60   10.04
   1   2  -1  532.21    9.95
  -1  -2   1  512.70    9.86
  -1  -2   1  515.60    9.76
  -1  -2   1  516.51    9.88
  -1  -2   1  511.88    9.63
  -1  -2   1  519.69   10.07
   0   2  -1   12.24    0.35
   0   2  -1   12.35    0.40
   0   2  -1   11.93    0.32
   0   2  -1   12.32    0.37
   0  -2   1   13.42    0.41
   0  -2   1   11.49    0.33
   0  -2   1   13.20    0.32
   0  -2   1   12.89    0.35
   0  -2   1   13.11    0.38
   0  -2   1   11.63    0.36
  -1   2  -1  498.96    9.17
  -1   2  -1  501.45    9.11
   1  -2   1  478.30    9.41
   1  -2   1  471.42    9.10
   1  -2   1  472.71    8.99
   1  -2   1  476.62    9.28
   1  -2   1  492.03    9.54
  -2   2  -1   67.60    1.44
  -2   2  -1   67.15    1.42
  -2   2  -1   60.85    1.32
  -2   2  -1   65.17    1.37
   2  -2   1   72.00    1.58
   2  -2   1   66.74    1.44
   2  -2   1   64.94    1.49
   2  -2   1   63.04    1.60
  -3   2  -1   17.82    0.57
  -3   2  -1   17.60    0.55
  -3   2  -1   18.30    0.59
  -3   2  -1   17.65    0.63
   3  -2   1   17.15    0.62
   3  -2   1   16.57    0.75
   3  -2   1   17.35    0.56
   3  -2   1   17.38    0.66
   3  -2   1   17.85    0.61
  -4   2  -1  219.89    4.35
  -4   2  -1  211.03    4.14
  -4   2  -1  220.31    4.36
  -4   2  -1  216.86    4.50
  -4   2  -1  222.29    4.27
  -4   2  -1  222.74    4.38
   4  -2   1  215.62    4.56
   4  -2   1  212.93    4.78
   4  -2   1  218.76    4.40
   4  -2   1  214.72    4.32
   4  -2   1  212.68    4.42
   4  -2   1  216.74    4.23
  -5   2  -1   13.79    0.73
  -5   2  -1   12.83    0.56
  -5   2  -1   12.21    0.61
   5  -2   1   12.03    0.70
   5  -2   1   12.49    0.64
   5  -2   1   12.59    0.59
   5  -2   1   11.28    0.49
  -6   2  -1   36.66    1.14
   6  -2   1   36.96    1.17
  -7   2  -1   10.99    0.66
   7  -2   1   12.05    0.69
   7  -2   1   11.53    0.67
  -6  -1   1   19.04    0.96
   5   1  -1    9.16    0.49
  -5  -1   1    7.74    0.55
   4   1  -1  165.96    3.78
   4   1  -1  173.25    3.49
   4   1  -1  167.86    3.64
  -4  -1   1  170.45    3.35
  -4  -1   1  168.30    3.54
  -4  -1   1  170.34    3.72
  -4  -1   1  168.12    3.64
  -4  -1   1  171.68    3.37
   3   1  -1   46.85    1.08
   3   1  -1   44.23    1.18
   3   1  -1   45.13    1.28
  -3  -1   1   43.12    1.12
  -3  -1   1   44.85    1.01
  -3  -1   1   42.08    1.17
  -3  -1   1   44.18    1.23
  -3  -1   1   44.34    0.99
   2   1  -1  194.39    3.80
   2   1  -1  200.58    3.67
   2   1  -1  190.54    3.88
  -2  -1   1  195.71    3.81
  -2  -1   1  188.57    3.83
  -2  -1   1  188.34    3.74
   1   1  -1  221.56    4.18
   1   1  -1  223.81    4.24
   1   1  -1  218.55    4.19
  -1  -1   1  221.51    4.19
  -1  -1   1  218.30    4.14
  -1  -1   1  219.42    4.18
  -1  -1   1  220.59    4.24
  -1  -1   1  222.37    4.20
   0   1  -1    0.80    0.11
   0   1  -1    0.17    0.08
   0   1  -1    0.88    0.09
   0   1  -1    0.22    0.09
   0  -1   1    0.62    0.11
   0  -1   1    0.28    0.08
   0  -1   1    0.47    0.10
   0  -1   1    0.48    0.09
   0  -1   1    0.66    0.09
   0  -1   1    0.20    0.09
  -1   1  -1  882.87   15.89
  -1   1  -1  879.08   16.08
  -1   1  -1  849.09   16.09
  -1   1  -1  855.82   15.94
   1  -1   1  864.00   15.93
   1  -1   1  814.59   15.86
   1  -1   1  819.07   16.05
   1  -1   1  830.72   16.32
   1  -1   1  858.75   16.11
  -2   1  -1  191.47    3.64
  -2   1  -1  192.06    3.56
  -2   1  -1  182.01    3.46
  -2   1  -1  186.24    3.55
  -2   1  -1  182.63    3.47
   2  -1   1  182.11    3.77
   2  -1   1  184.09    3.58
   2  -1   1  186.94    3.65
  -3   1  -1   40.40    0.97
  -3   1  -1   41.58    1.11
  -3   1  -1   42.04    1.03
  -3   1  -1   40.98    0.92
  -3   1  -1   42.26    1.04
  -3   1  -1   40.49    0.93
  -3   1  -1   40.30    1.03
   3  -1   1   39.99    0.99
   3  -1   1   40.46    0.94
   3  -1   1   41.52    1.06
   3  -1   1   40.98    1.13
   3  -1   1   39.67    1.24
  -4   1  -1  251.25    4.87
  -4   1  -1  251.36    4.80
  -4   1  -1  255.98    4.78
  -4   1  -1  251.69    4.99
  -4   1  -1  249.54    5.13
  -4   1  -1  251.96    4.97
   4  -1   1  248.36    4.79
   4  -1   1  246.31    5.13
   4  -1   1  249.37    4.90
   4  -1   1  245.64    4.92
   4  -1   1  249.43    5.01
  -5   1  -1    7.79    0.38
  -5   1  -1    7.01    0.48
  -5   1  -1    7.88    0.39
  -5   1  -1    7.31    0.44
  -5   1  -1    7.63    0.57
  -5   1  -1    7.78    0.49
   5  -1   1    7.19    0.43
   5  -1   1    7.00    0.52
   5  -1   1    6.84    0.46
  -6   1  -1   52.62    1.46
   6  -1   1   53.02    1.44
  -7   1  -1   32.89    1.16
   7  -1   1   32.56    1.09
  -6   0   1   15.85    0.84
  -6   0   1   16.33    0.74
   5   0  -1    6.31    0.35
   5   0  -1    6.65    0.43
  -5   0   1    5.46    0.51
  -5   0   1    5.62    0.47
  -5   0   1    5.27    0.43
  -5   0   1    5.86    0.41
   4   0  -1  217.31    4.65
   4   0  -1  219.20    4.51
   4   0  -1  214.31    4.20
   4   0  -1  215.97    4.35
   4   0  -1  221.45    4.22
  -4   0   1  220.09    4.41
  -4   0   1  218.06    4.58
  -4   0   1  215.34    4.31
  -4   0   1  216.71    4.48
  -4   0   1  215.15    4.25
  -4   0   1  218.60    4.23
   3   0  -1   53.67    1.18
   3   0  -1   54.46    1.36
   3   0  -1   54.24    1.45
   3   0  -1   48.78    1.58
   3   0  -1   56.08    1.27
  -3   0   1   53.62    1.34
  -3   0   1   55.10    1.18
  -3   0   1   52.00    1.36
  -3   0   1   55.85    1.30
  -3   0   1   54.88    1.20
  -3   0   1   54.60    1.40
   2   0  -1   96.03    2.00
   2   0  -1   96.87    2.14
   2   0  -1  102.09    2.10
   2   0  -1  101.99    2.17
  -2   0   1  100.46    2.12
  -2   0   1  100.72    1.94
  -2   0   1  101.12    2.09
  -2   0   1  102.61    1.95
  -2   0   1   99.50    2.04
   1   0  -1  315.81    6.00
   1   0  -1  315.27    5.89
   1   0  -1  304.58    6.09
   1   0  -1  317.95    6.07
   1   0  -1  315.38    5.94
  -1   0   1  310.70    5.85
  -1   0   1  311.31    5.90
  -1   0   1  319.89    5.96
  -1   0   1  318.32    5.89
   0   0  -1    0.01    0.04
   0   0  -1    0.10    0.07
   0   0  -1    0.01    0.05
   0   0  -1    0.06    0.06
   0   0   1    0.28    0.08
   0   0   1    0.30    0.07
   0   0   1    0.06    0.05
   0   0   1    0.05    0.05
  -1   0  -1  337.64    6.43
  -1   0  -1  361.99    6.59
  -1   0  -1  341.24    6.40
  -1   0  -1  338.08    6.39
  -1   0  -1  337.22    6.51
  -1   0  -1  361.38    6.73
   1   0   1  349.34    6.43
   1   0   1  343.34    6.47
   1   0   1  325.74    6.44
   1   0   1  349.35    6.71
   1   0   1  336.49    6.71
   1   0   1  343.50    6.44
   1   0   1  330.02    6.45
   1   0   1  338.45    6.61
  -2   0  -1   79.24    1.56
  -2   0  -1   78.94    1.55
  -2   0  -1   80.11    1.63
  -2   0  -1   78.65    1.65
  -2   0  -1   79.31    1.70
   2   0   1   77.76    1.56
   2   0   1   78.40    1.63
   2   0   1   78.00    1.69
   2   0   1   78.31    1.80
  -3   0  -1   91.28    1.90
  -3   0  -1   91.50    1.86
  -3   0  -1   91.20    1.84
  -3   0  -1   90.70    1.96
  -3   0  -1   90.47    2.00
  -3   0  -1   91.68    2.08
   3   0   1   88.40    2.18
   3   0   1   93.33    1.92
   3   0   1   92.06    1.99
   3   0   1   92.35    1.84
   3   0   1   90.10    2.06
   3   0   1   93.43    1.94
  -4   0  -1   67.48    1.70
  -4   0  -1   70.25    1.53
  -4   0  -1   70.78    1.59
  -4   0  -1   67.78    1.66
  -4   0  -1   68.44    1.80
  -4   0  -1   70.63    1.51
   4   0   1   70.12    1.58
   4   0   1   68.23    1.47
   4   0   1   68.00    1.79
   4   0   1   67.47    1.68
  -5   0  -1    0.93    0.25
  -5   0  -1    1.24    0.22
  -5   0  -1    1.16    0.22
  -5   0  -1    1.48    0.26
  -5   0  -1    0.98    0.28
  -5   0  -1    0.65    0.23
   5   0   1    1.15    0.24
   5   0   1    0.76    0.19
   5   0   1    1.09    0.22
   5   0   1    1.09    0.26
  -6   0  -1   33.69    1.10
   6   0   1   33.52    1.02
  -7   0  -1   19.20    0.88
   7   0   1   16.66    0.72
   6  -1  -1   68.22    1.65
  -6   1   1   70.55    1.82
   5  -1  -1   47.19    1.21
  -5   1   1   45.80    1.37
  -5   1   1   46.89    1.41
  -5   1   1   48.01    1.31
  -5   1   1   47.59    1.53
   4  -1  -1   91.43    2.35
   4  -1  -1  100.20    2.47
   4  -1  -1   99.55    2.12
   4  -1  -1   97.80    2.20
   4  -1  -1   99.66    2.33
  -4   1   1   99.77    2.28
  -4   1   1  100.05    2.11
  -4   1   1  102.46    2.40
  -4   1   1  102.33    2.25
  -4   1   1  100.85    2.09
  -4   1   1   99.80    2.17
   3  -1  -1    9.80    0.38
   3  -1  -1   10.99    0.42
   3  -1  -1    9.58    0.45
   3  -1  -1    9.66    0.53
   3  -1  -1   10.10    0.41
   3  -1  -1   10.31    0.52
  -3   1   1   10.20    0.36
  -3   1   1   10.26    0.49
  -3   1   1   10.58    0.37
  -3   1   1   10.53    0.44
  -3   1   1   10.66    0.43
  -3   1   1   10.34    0.41
   2  -1  -1  109.21    2.11
   2  -1  -1  107.53    2.38
   2  -1  -1  110.16    2.23
   2  -1  -1  111.77    2.36
   2  -1  -1  111.87    2.28
  -2   1   1  110.17    2.20
  -2   1   1  109.23    2.23
  -2   1   1  109.50    2.14
  -2   1   1  108.59    2.13
  -2   1   1  110.91    2.28
   1  -1  -1  874.80   16.64
   1  -1  -1  865.76   15.95
   1  -1  -1  854.63   16.71
   1  -1  -1  878.90   16.16
   1  -1  -1  859.73   15.98
   1  -1  -1  877.06   16.37
   1  -1  -1  867.24   16.40
  -1   1   1  867.74   16.41
  -1   1   1  862.39   16.61
  -1   1   1  868.54   16.11
  -1   1   1  842.96   15.95
  -1   1   1  869.89   16.29
  -1   1   1  843.65   15.93
   0  -1  -1  135.12    2.63
   0  -1  -1  140.20    2.64
   0  -1  -1  138.34    2.62
   0  -1  -1  149.22    2.69
   0  -1  -1  143.38    2.83
   0  -1  -1  144.51    2.77
   0  -1  -1  138.23    2.63
   0  -1  -1  147.75    2.72
   0   1   1  144.62    2.72
   0   1   1  136.97    2.62
   0   1   1  139.41    2.64
   0   1   1  136.66    2.65
   0   1   1  142.07    2.70
   0   1   1  141.87    2.64
   0   1   1  136.17    2.64
   0   1   1  143.70    2.80
  -1  -1  -1   44.45    0.94
  -1  -1  -1   41.33    0.86
  -1  -1  -1   43.01    0.85
  -1  -1  -1   44.96    0.90
  -1  -1  -1   42.80    0.85
   1   1   1   40.44    0.92
   1   1   1   42.47    0.85
   1   1   1   41.32    0.89
   1   1   1   42.45    0.85
   1   1   1   41.42    0.85
   1   1   1   41.37    0.84
   1   1   1   44.81    0.93
   1   1   1   44.71    0.90
  -2  -1  -1   15.49    0.46
  -2  -1  -1   14.85    0.46
  -2  -1  -1   15.18    0.40
  -2  -1  -1   14.28    0.50
  -2  -1  -1   15.09    0.49
  -2  -1  -1   15.12    0.51
  -2  -1  -1   15.37    0.40
   2   1   1   15.49    0.39
   2   1   1   15.35    0.50
   2   1   1   15.68    0.39
   2   1   1   15.63    0.47
  -3  -1  -1  144.33    3.10
  -3  -1  -1  146.50    2.85
  -3  -1  -1  149.37    3.00
  -3  -1  -1  148.46    2.92
  -3  -1  -1  144.32    3.04
  -3  -1  -1  146.51    2.86
   3   1   1  143.81    3.00
   3   1   1  150.71    2.94
   3   1   1  146.89    2.89
   3   1   1  147.98    2.90
   3   1   1  145.25    3.09
  -4  -1  -1  119.63    2.40
  -4  -1  -1  115.86    2.57
  -4  -1  -1  118.46    2.48
  -4  -1  -1  113.39    2.63
  -4  -1  -1  115.79    2.72
  -4  -1  -1  120.13    2.42
   4   1   1  117.65    2.43
   4   1   1  114.96    2.59
   4   1   1  116.92    2.72
   4   1   1  121.19    2.52
  -5  -1  -1   25.35    0.93
  -5  -1  -1   24.96    1.04
  -5  -1  -1   25.89    0.99
  -5  -1  -1   27.36    0.87
   5   1   1   24.98    1.05
   5   1   1   26.54    0.96
   5   1   1   27.02    0.80
   5   1   1   26.80    0.89
  -6  -1  -1   52.41    1.47
  -6  -1  -1   49.89    1.64
   6   1   1   52.47    1.32
  -7  -1  -1    3.89    0.51
   6  -2  -1   11.30    0.56
  -6   2   1    9.77    0.61
   5  -2  -1   39.68    1.11
  -5   2   1   38.91    1.20
  -5   2   1   39.58    1.35
  -5   2   1   39.37    1.14
   4  -2  -1   74.75    1.61
   4  -2  -1   76.73    1.90
   4  -2  -1   74.93    1.77
   4  -2  -1   72.60    2.00
   4  -2  -1   77.11    1.73
  -4   2   1   75.22    1.73
  -4   2   1   76.48    1.65
  -4   2   1   76.94    1.79
  -4   2   1   76.35    1.81
  -4   2   1   76.05    1.66
  -4   2   1   74.79    1.91
   3  -2  -1    3.23    0.23
   3  -2  -1    3.69    0.32
   3  -2  -1    3.93    0.25
   3  -2  -1    3.63    0.28
   3  -2  -1    3.79    0.27
   3  -2  -1    3.50    0.21
   3  -2  -1    3.78    0.36
  -3   2   1    3.47    0.25
  -3   2   1    3.89    0.25
  -3   2   1    3.84    0.23
  -3   2   1    3.65    0.25
  -3   2   1    3.62    0.22
  -3   2   1    3.57    0.29
   2  -2  -1  411.66    7.99
   2  -2  -1  418.88    7.82
   2  -2  -1  416.62    7.91
  -2   2   1  423.92    7.79
  -2   2   1  407.85    7.78
  -2   2   1  428.23    7.72
  -2   2   1  409.47    7.80
  -2   2   1  408.86    7.71
   1  -2  -1  220.94    4.21
   1  -2  -1  224.40    4.14
   1  -2  -1  224.93    4.11
   1  -2  -1  221.81    4.27
   1  -2  -1  223.98    4.10
   1  -2  -1  224.08    4.10
   1  -2  -1  217.21    4.31
  -1   2   1  212.70    4.09
  -1   2   1  224.35    4.10
  -1   2   1  210.34    4.08
  -1   2   1  226.94    4.27
  -1   2   1  215.82    4.14
  -1   2   1  225.09    4.21
  -1   2   1  224.49    4.13
   0  -2  -1  422.74    8.26
   0  -2  -1  423.34    8.06
   0   2   1  428.80    8.46
   0   2   1  428.81    8.34
  -1  -2  -1  596.33   11.18
  -1  -2  -1  584.29   10.98
  -1  -2  -1  602.47   11.31
  -1  -2  -1  590.36   11.03
  -1  -2  -1  614.27   11.19
  -1  -2  -1  584.46   11.07
  -1  -2  -1  588.57   11.00
   1   2   1  566.15   11.14
   1   2   1  564.51   10.95
  -2  -2  -1   30.99    0.83
  -2  -2  -1   29.94    0.68
  -2  -2  -1   29.91    0.82
  -2  -2  -1   28.97    0.83
  -2  -2  -1   30.28    0.86
  -2  -2  -1   30.34    0.76
  -2  -2  -1   30.23    0.76
  -2  -2  -1   30.49    0.68
  -2  -2  -1   29.60    0.77
   2   2   1   30.94    0.70
   2   2   1   33.05    0.76
   2   2   1   30.79    0.84
   2   2   1   30.71    0.79
  -3  -2  -1  218.66    4.12
  -3  -2  -1  217.21    4.10
  -3  -2  -1  211.05    4.34
  -3  -2  -1  214.07    4.25
  -3  -2  -1  213.12    4.37
   3   2   1  215.09    4.29
   3   2   1  219.11    4.41
   3   2   1  217.99    4.19
   3   2   1  216.83    4.11
  -4  -2  -1   99.53    2.08
  -4  -2  -1   99.26    2.05
  -4  -2  -1   97.19    2.38
  -4  -2  -1   95.20    2.31
  -4  -2  -1   96.79    2.12
  -4  -2  -1   98.09    2.24
   4   2   1   97.97    2.40
   4   2   1   98.14    2.28
   4   2   1  100.91    2.17
   4   2   1  100.31    2.05
  -5  -2  -1   13.91    0.66
  -5  -2  -1   13.00    0.74
  -5  -2  -1   13.69    0.60
  -5  -2  -1   13.59    0.71
   5   2   1   14.00    0.61
   5   2   1   13.49    0.50
  -6  -2  -1   67.73    1.77
  -6  -2  -1   66.15    2.00
  -7  -2  -1    3.00    0.52
  -7  -2  -1    4.04    0.51
   6  -3  -1    0.59    0.23
  -6   3   1    0.76    0.26
   5  -3  -1   49.14    1.34
  -5   3   1   48.10    1.22
  -5   3   1   49.49    1.32
  -5   3   1   49.76    1.40
  -5   3   1   48.76    1.25
  -5   3   1   50.50    1.55
   4  -3  -1  106.21    2.31
   4  -3  -1  106.49    2.63
   4  -3  -1  105.53    2.49
   4  -3  -1  105.56    2.42
   4  -3  -1  103.20    2.20
  -4   3   1  105.75    2.21
  -4   3   1  104.70    2.28
  -4   3   1  105.70    2.19
  -4   3   1  107.18    2.34
  -4   3   1  108.51    2.48
   3  -3  -1   15.15    0.61
   3  -3  -1   15.70    0.60
   3  -3  -1   15.40    0.75
   3  -3  -1   15.03    0.53
   3  -3  -1   16.11    0.69
  -3   3   1   17.12    0.58
  -3   3   1   16.68    0.54
  -3   3   1   15.68    0.52
  -3   3   1   15.48    0.46
  -3   3   1   15.80    0.60
  -3   3   1   15.91    0.53
   2  -3  -1  535.44   10.00
   2  -3  -1  524.95   10.03
   2  -3  -1  524.76   10.13
   2  -3  -1  517.27   10.22
  -2   3   1  540.85    9.97
  -2   3   1  541.19   10.16
  -2   3   1  537.97    9.95
  -2   3   1  565.58    9.97
   1  -3  -1   13.76    0.36
   1  -3  -1   13.95    0.46
   1  -3  -1   14.44    0.54
   1  -3  -1   13.47    0.50
   1  -3  -1   14.12    0.36
  -1   3   1   12.99    0.48
  -1   3   1   13.12    0.44
   0  -3  -1  102.07    2.06
   0  -3  -1  102.88    2.12
   0   3   1  100.88    2.11
   0   3   1  100.11    2.05
  -1  -3  -1  947.32   22.98
  -1  -3  -1  973.84   17.80
  -1  -3  -1  988.00   17.99
  -1  -3  -1 1000.00   17.84
  -1  -3  -1  977.50   17.93
  -1  -3  -1  995.00   18.32
  -1  -3  -1  951.83   18.22
  -1  -3  -1  952.38   17.68
  -1  -3  -1  946.35   17.89
   1   3   1  949.72   18.21
   1   3   1  863.71   17.66
   1   3   1  954.73   18.57
   1   3   1  866.34   17.91
  -2  -3  -1    3.84    0.26
  -2  -3  -1    4.18    0.29
  -2  -3  -1    3.82    0.26
  -2  -3  -1    3.98    0.23
  -2  -3  -1    4.55    0.25
  -2  -3  -1    4.21    0.26
  -2  -3  -1    3.83    0.18
  -2  -3  -1    4.13    0.25
   2   3   1    3.98    0.28
   2   3   1    3.75    0.19
   2   3   1    4.53    0.26
  -3  -3  -1  317.89    5.81
  -3  -3  -1  309.93    5.79
  -3  -3  -1  308.77    6.09
  -3  -3  -1  305.71    6.07
  -3  -3  -1  308.78    5.95
   3   3   1  307.52    6.02
   3   3   1  306.20    5.88
   3   3   1  308.88    6.14
  -4  -3  -1   10.51    0.59
  -4  -3  -1   10.90    0.52
  -4  -3  -1   11.15    0.44
  -4  -3  -1   11.54    0.43
  -4  -3  -1   11.01    0.59
   4   3   1   11.63    0.56
   4   3   1   11.15    0.48
   4   3   1   10.56    0.60
  -5  -3  -1    8.73    0.59
   5   3   1    8.88    0.48
  -6  -3  -1   53.34    1.76
   6   3   1   54.41    1.55
  -7  -3  -1    0.42    0.35
   6  -4  -1    1.25    0.29
  -6   4   1    1.51    0.30
   5  -4  -1   47.00    1.47
   5  -4  -1   47.09    1.34
  -5   4   1   49.32    1.30
   4  -4  -1   35.11    0.95
   4  -4  -1   35.85    1.14
   4  -4  -1   35.08    1.16
   4  -4  -1   36.84    1.29
   4  -4  -1   35.70    1.04
  -4   4   1   37.36    1.02
  -4   4   1   35.95    1.12
  -4   4   1   37.08    0.99
   3  -4  -1   14.19    0.75
   3  -4  -1   14.79    0.61
   3  -4  -1   14.19    0.53
   3  -4  -1   14.17    0.61
   3  -4  -1   14.62    0.69
  -3   4   1   15.50    0.57
  -3   4   1   14.61    0.49
  -3   4   1   13.71    0.54
  -3   4   1   14.16    0.49
   2  -4  -1  195.78    3.91
   2  -4  -1  191.35    4.04
   2  -4  -1  191.85    3.93
   2  -4  -1  199.37    4.18
  -2   4   1  201.49    3.83
  -2   4   1  194.36    3.75
  -2   4   1  193.14    3.69
  -2   4   1  193.44    3.72
   1  -4  -1    2.77    0.27
   1  -4  -1    2.24    0.24
   1  -4  -1    2.34    0.21
   1  -4  -1    2.64    0.14
   1  -4  -1    1.73    0.22
   1  -4  -1    2.24    0.14
  -1   4   1    2.08    0.16
   0  -4  -1  183.32    3.63
   0  -4  -1  185.29    3.72
  -1  -4  -1   57.79    1.40
  -1  -4  -1   56.56    1.31
  -1  -4  -1   54.30    1.21
  -1  -4  -1   55.03    1.16
  -1  -4  -1   55.61    1.27
  -1  -4  -1   57.17    1.27
  -1  -4  -1   56.21    1.29
   1   4   1   57.46    1.17
  -2  -4  -1  148.04    3.01
  -2  -4  -1  147.57    3.04
  -2  -4  -1  151.21    3.08
  -2  -4  -1  149.20    3.05
  -2  -4  -1  151.19    2.97
  -2  -4  -1  148.38    3.17
  -2  -4  -1  151.96    3.09
   2   4   1  147.99    2.90
  -3  -4  -1  193.91    4.01
  -3  -4  -1  196.96    4.15
  -3  -4  -1  196.27    3.92
  -3  -4  -1  194.57    4.05
  -3  -4  -1  195.58    4.06
  -3  -4  -1  197.22    3.74
  -3  -4  -1  203.42    3.76
  -3  -4  -1  197.35    3.97
  -3  -4  -1  193.20    3.93
   3   4   1  190.33    3.84
   3   4   1  196.74    4.02
   3   4   1  195.64    4.15
  -4  -4  -1    8.68    0.54
  -4  -4  -1    8.59    0.38
  -4  -4  -1   10.06    0.58
  -4  -4  -1    8.86    0.39
  -4  -4  -1    8.72    0.48
   4   4   1    9.15    0.58
   4   4   1    8.81    0.51
   4   4   1    8.74    0.42
  -5  -4  -1   67.81    1.97
   5   4   1   71.65    1.76
  -6  -4  -1   42.09    1.54
   6   4   1   42.31    1.32
   6  -5  -1    1.17    0.32
  -6   5   1    1.49    0.32
   5  -5  -1   47.25    1.36
   5  -5  -1   44.89    1.48
  -5   5   1   44.96    1.22
   4  -5  -1    8.95    0.50
   4  -5  -1    9.01    0.57
   4  -5  -1    8.42    0.54
   4  -5  -1    9.56    0.64
  -4   5   1    9.19    0.43
  -4   5   1    9.94    0.52
   3  -5  -1   83.44    2.00
   3  -5  -1   81.06    2.14
   3  -5  -1   83.42    2.31
   3  -5  -1   83.95    1.87
   3  -5  -1   82.19    2.02
  -3   5   1   78.49    1.83
  -3   5   1   89.89    1.95
  -3   5   1   79.30    1.75
   2  -5  -1   52.12    1.50
   2  -5  -1   52.60    1.40
   2  -5  -1   52.46    1.18
   2  -5  -1   54.18    1.37
   2  -5  -1   53.56    1.20
   2  -5  -1   53.12    1.58
  -2   5   1   55.07    1.29
   1  -5  -1    4.42    0.32
   1  -5  -1    6.70    0.37
   1  -5  -1    6.67    0.42
  -1   5   1    4.63    0.24
   0  -5  -1  379.88    7.25
   0  -5  -1  373.77    7.07
   0  -5  -1  375.08    7.10
   0  -5  -1  365.86    6.91
   0  -5  -1  373.37    7.13
   0   5   1  368.64    6.88
  -1  -5  -1   27.62    0.81
  -1  -5  -1   25.75    0.68
  -1  -5  -1   26.50    0.79
  -1  -5  -1   26.46    0.77
  -1  -5  -1   28.11    0.89
  -1  -5  -1   27.15    0.75
  -1  -5  -1   26.23    0.64
   1   5   1   27.21    0.63
  -2  -5  -1  187.28    3.64
  -2  -5  -1  187.75    3.95
  -2  -5  -1  188.69    3.83
  -2  -5  -1  190.15    3.80
  -2  -5  -1  188.54    3.74
  -2  -5  -1  184.74    3.78
  -2  -5  -1  183.74    3.74
   2   5   1  178.98    3.57
  -3  -5  -1  108.88    2.42
  -3  -5  -1  110.04    2.47
  -3  -5  -1  107.55    2.32
  -3  -5  -1  107.56    2.59
  -3  -5  -1  106.99    2.45
  -3  -5  -1  106.23    2.37
  -3  -5  -1  105.72    2.47
   3   5   1  106.71    2.24
  -4  -5  -1    8.89    0.49
  -4  -5  -1    8.63    0.56
  -4  -5  -1    8.42    0.48
  -4  -5  -1    8.69    0.54
  -4  -5  -1    8.54    0.56
  -4  -5  -1    8.86    0.39
  -4  -5  -1    8.89    0.51
  -4  -5  -1    8.78    0.38
  -4  -5  -1    8.73    0.61
   4   5   1    8.44    0.59
   4   5   1    9.18    0.54
   4   5   1    8.67    0.43
  -5  -5  -1  128.52    3.18
   5   5   1  133.38    2.91
  -6  -5  -1   17.24    0.98
   6   5   1   16.35    0.76
   6  -6  -1   11.33    0.81
   6  -6  -1   11.48    0.73
  -6   6   1   11.04    0.58
   5  -6  -1   50.79    1.66
   5  -6  -1   53.38    1.54
  -5   6   1   51.20    1.31
   4  -6  -1   30.27    1.47
   4  -6  -1   31.18    1.13
   4  -6  -1   31.53    1.03
  -4   6   1   31.08    1.05
   3  -6  -1  156.94    3.45
   3  -6  -1  160.96    3.87
   3  -6  -1  153.81    3.51
   3  -6  -1  158.92    3.69
   3  -6  -1  160.32    3.48
  -3   6   1  159.24    3.36
   2  -6  -1  103.21    2.42
   2  -6  -1   99.23    2.34
   2  -6  -1  105.89    2.14
   2  -6  -1  104.94    2.66
   2  -6  -1  104.30    2.15
   2  -6  -1  103.82    2.57
  -2   6   1  105.88    2.27
   1  -6  -1   16.23    0.73
   1  -6  -1   17.02    0.62
   1  -6  -1   16.56    0.66
  -1   6   1   16.43    0.53
   0  -6  -1  191.12    4.09
   0  -6  -1  192.63    3.97
   0  -6  -1  196.96    3.90
   0  -6  -1  193.94    3.93
   0  -6  -1  196.05    3.82
   0   6   1  188.97    3.68
  -1  -6  -1   92.93    1.94
  -1  -6  -1   92.90    1.88
  -1  -6  -1   96.09    2.17
  -1  -6  -1   95.22    2.14
  -1  -6  -1   95.39    2.29
  -1  -6  -1   92.15    2.09
  -1  -6  -1   95.53    2.04
   1   6   1   97.06    1.89
  -2  -6  -1   40.96    1.21
  -2  -6  -1   42.41    1.04
  -2  -6  -1   43.71    1.13
  -2  -6  -1   44.28    1.19
  -2  -6  -1   42.79    1.20
  -2  -6  -1   42.88    1.33
  -2  -6  -1   42.86    1.17
   2   6   1   42.44    0.99
  -3  -6  -1   74.98    1.74
  -3  -6  -1   75.28    1.88
  -3  -6  -1   75.15    2.06
  -3  -6  -1   75.97    1.92
  -3  -6  -1   75.24    1.93
  -3  -6  -1   73.46    1.82
  -3  -6  -1   76.07    1.87
   3   6   1   74.70    1.67
  -4  -6  -1    5.82    0.46
  -4  -6  -1    5.61    0.49
  -4  -6  -1    5.61    0.49
  -4  -6  -1    6.09    0.32
  -4  -6  -1    5.50    0.41
  -4  -6  -1    5.60    0.43
  -4  -6  -1    5.96    0.33
   4   6   1    6.14    0.36
  -5  -6  -1   56.36    1.78
   5   6   1   55.48    1.51
  -6  -6  -1    6.32    0.74
   6   6   1    5.06    0.44
   6  -7  -1    7.54    0.66
   6  -7  -1    6.41    0.78
   5  -7  -1   37.63    1.45
   5  -7  -1   41.30    1.35
   4  -7  -1    0.26    0.28
   4  -7  -1   -0.02    0.21
  -4   7   1    0.26    0.16
   3  -7  -1   51.72    1.59
   3  -7  -1   52.65    1.54
   3  -7  -1   54.18    1.89
   3  -7  -1   52.73    1.74
  -3   7   1   54.02    1.45
   2  -7  -1   89.09    2.23
   2  -7  -1   89.69    2.14
   2  -7  -1   89.29    2.39
   2  -7  -1   89.29    2.50
   2  -7  -1   88.00    1.91
   2  -7  -1   88.91    1.90
  -2   7   1   91.45    2.05
  -2   7   1   87.28    2.03
   1  -7  -1   27.43    0.89
   1  -7  -1   29.44    1.00
   1  -7  -1   29.79    1.11
  -1   7   1   28.64    0.80
   0  -7  -1  146.02    3.01
   0  -7  -1  145.22    3.34
   0  -7  -1  146.52    3.15
   0  -7  -1  144.93    3.20
   0  -7  -1  149.09    3.10
   0   7   1  145.38    2.88
  -1  -7  -1    2.28    0.26
  -1  -7  -1    1.79    0.32
  -1  -7  -1    2.36    0.31
  -1  -7  -1    1.96    0.31
  -1  -7  -1    2.03    0.29
   1   7   1    1.67    0.14
  -2  -7  -1   71.90    1.60
  -2  -7  -1   72.90    1.79
  -2  -7  -1   71.17    1.82
  -2  -7  -1   71.19    1.86
  -2  -7  -1   73.12    1.70
  -2  -7  -1   73.02    1.78
  -2  -7  -1   70.30    1.98
   2   7   1   72.52    1.56
  -3  -7  -1   91.12    2.38
  -3  -7  -1   90.80    2.19
  -3  -7  -1   89.52    2.18
  -3  -7  -1   90.91    2.25
  -3  -7  -1   89.46    2.53
  -3  -7  -1   92.41    2.25
  -3  -7  -1   89.74    2.05
   3   7   1   91.61    1.98
  -4  -7  -1   30.32    1.06
  -4  -7  -1   30.74    0.84
  -4  -7  -1   30.13    1.12
  -4  -7  -1   29.58    0.99
  -4  -7  -1   30.28    1.15
  -4  -7  -1   29.40    1.09
  -4  -7  -1   30.06    0.85
   4   7   1   28.07    0.90
  -5  -7  -1   30.86    1.28
   5   7   1   31.24    1.03
  -6  -7  -1    1.92    0.43
   6   7   1    2.13    0.37
   5  -8  -1   33.00    1.38
   4  -8  -1   39.60    1.42
   4  -8  -1   40.18    1.84
  -4   8   1   38.50    1.31
   3  -8  -1   39.96    1.34
   3  -8  -1   39.31    1.70
  -3   8   1   41.56    1.25
   2  -8  -1   11.20    0.75
   2  -8  -1   10.65    0.65
   2  -8  -1   12.01    0.87
   2  -8  -1   11.37    0.45
   2  -8  -1   10.78    0.60
   2  -8  -1   11.49    0.47
  -2   8   1   10.78    0.53
  -2   8   1   11.36    0.54
   1  -8  -1   73.68    2.09
   1  -8  -1   70.44    1.91
   1  -8  -1   69.65    1.77
  -1   8   1   72.40    1.66
   0  -8  -1  155.22    3.24
   0  -8  -1  156.38    3.46
   0  -8  -1  156.19    3.33
   0  -8  -1  156.59    3.39
   0  -8  -1  155.55    3.62
   0   8   1  151.36    3.08
  -1  -8  -1   27.24    0.95
  -1  -8  -1   24.74    0.95
  -1  -8  -1   25.46    0.81
  -1  -8  -1   26.37    0.91
  -1  -8  -1   24.86    1.05
   1   8   1   26.66    0.70
  -2  -8  -1  125.49    2.87
  -2  -8  -1  120.41    3.07
  -2  -8  -1  123.51    2.81
  -2  -8  -1  125.22    2.78
  -2  -8  -1  119.22    2.90
   2   8   1  126.98    2.54
  -3  -8  -1   53.34    1.57
  -3  -8  -1   52.49    1.53
  -3  -8  -1   54.47    1.60
   3   8   1   52.61    1.31
  -4  -8  -1   25.70    1.08
  -4  -8  -1   23.93    0.98
  -4  -8  -1   21.87    0.98
   4   8   1   23.75    0.82
  -5  -8  -1   54.93    1.75
  -5  -8  -1   55.89    1.86
  -5  -8  -1   54.42    1.69
   5   8   1   56.85    1.56
   5  -9  -1   12.87    0.93
   4  -9  -1    3.00    0.70
   4  -9  -1    2.35    0.45
  -4   9   1    2.71    0.43
   3  -9  -1   74.64    2.10
   3  -9  -1   74.48    2.62
  -3   9   1   78.53    2.04
   2  -9  -1    1.65    0.27
   2  -9  -1    1.62    0.25
   2  -9  -1    1.22    0.32
   2  -9  -1    1.52    0.47
  -2   9   1    1.26    0.25
   1  -9  -1  113.51    2.63
  -1   9   1  113.24    2.48
   0  -9  -1   63.63    1.61
   0  -9  -1   63.21    1.69
   0  -9  -1   61.86    1.73
   0   9   1   64.13    1.47
  -1  -9  -1    3.58    0.41
  -1  -9  -1    3.59    0.44
   1   9   1    3.38    0.23
  -2  -9  -1  133.67    3.09
  -2  -9  -1  135.06    3.16
  -2  -9  -1  134.91    3.03
   2   9   1  136.05    2.78
  -3  -9  -1    3.52    0.44
  -3  -9  -1    4.89    0.55
  -3  -9  -1    4.27    0.50
   3   9   1    3.65    0.29
  -4  -9  -1   34.83    1.33
  -4  -9  -1   35.31    1.34
  -4  -9  -1   36.01    1.30
   4   9   1   35.48    1.08
  -5  -9  -1   35.13    1.40
  -5  -9  -1   38.12    1.51
  -5  -9  -1   37.34    1.38
   5   9   1   36.08    1.19
   4 -10  -1    1.13    0.39
   4 -10  -1    0.92    0.51
  -4  10   1    0.72    0.27
   3 -10  -1   38.60    1.40
   3 -10  -1   36.80    1.85
  -3  10   1   39.07    1.32
   2 -10  -1    0.88    0.29
   2 -10  -1    1.07    0.48
  -2  10   1    0.91    0.23
   1 -10  -1   47.51    1.47
   1 -10  -1   50.23    1.55
   1 -10  -1   50.62    1.49
  -1  10   1   47.92    1.33
   0 -10  -1    4.98    0.54
   0 -10  -1    3.22    0.46
   0 -10  -1    5.43    0.56
   0  10   1    4.10    0.30
  -1 -10  -1    3.65    0.45
  -1 -10  -1    3.85    0.49
   1  10   1    4.22    0.29
  -2 -10  -1   73.28    2.01
  -2 -10  -1   74.31    2.07
   2  10   1   73.02    1.71
  -3 -10  -1    0.56    0.24
  -3 -10  -1    0.46    0.25
  -3 -10  -1    0.73    0.28
   3  10   1    0.54    0.18
  -4 -10  -1   44.20    1.58
  -4 -10  -1   44.14    1.53
  -4 -10  -1   43.37    1.58
   4  10   1   42.12    1.27
   4 -11  -1   27.48    1.32
  -4  11   1   27.31    1.21
   3 -11  -1   18.94    1.60
   3 -11  -1   22.49    1.10
  -3  11   1   21.95    0.98
   2 -11  -1    3.72    0.77
   2 -11  -1    3.88    0.53
  -2  11   1    3.86    0.44
   1 -11  -1   38.43    1.30
   1 -11  -1   37.39    1.29
   1 -11  -1   38.14    1.36
  -1  11   1   36.60    1.15
   0 -11  -1   10.09    0.68
   0 -11  -1    9.03    0.62
   0  11   1    8.76    0.47
  -1 -11  -1   62.51    1.82
  -1 -11  -1   64.49    1.90
   1  11   1   61.35    1.53
  -2 -11  -1   29.87    1.22
  -2 -11  -1   30.75    1.19
   2  11   1   29.13    0.92
  -3 -11  -1    1.10    0.31
  -3 -11  -1    2.38    0.47
   3  11   1    2.14    0.29
  -4 -11  -1   32.20    1.36
  -4 -11  -1   33.78    1.41
  -4 -11  -1   31.15    1.31
   4  11   1   29.78    1.05
   3 -12  -1   18.53    1.07
  -3  12   1   20.66    0.99
   2 -12  -1   14.20    0.89
   2 -12  -1   14.63    0.88
   2 -12  -1   14.04    0.84
  -2  12   1   12.69    0.73
  -2  12   1   13.07    0.73
   1 -12  -1   38.98    1.46
   1 -12  -1   39.42    1.40
   1 -12  -1   39.21    1.39
  -1  12   1   39.89    1.26
   0 -12  -1   23.58    1.04
   0 -12  -1   25.32    1.12
   0  12   1   24.69    0.89
  -1 -12  -1   45.67    1.59
  -1 -12  -1   45.79    1.53
   1  12   1   44.52    1.27
  -2 -12  -1   24.05    1.09
  -2 -12  -1   25.30    1.16
   2  12   1   23.89    0.86
  -3 -12  -1    3.26    0.59
  -3 -12  -1    2.87    0.51
   3  12   1    2.48    0.35
   2 -13  -1   15.11    0.90
   2 -13  -1   15.85    0.97
   2 -13  -1   13.61    0.92
  -2  13   1   12.84    0.78
  -2  13   1   14.78    0.82
   1 -13  -1   24.99    1.14
   1 -13  -1   24.80    1.20
  -1  13   1   24.36    1.00
   0 -13  -1    0.88    0.31
   0 -13  -1    0.77    0.32
   0  13   1    0.66    0.21
  -1 -13  -1   17.23    0.97
  -1 -13  -1   17.05    0.92
   1  13   1   17.16    0.75
  -2 -13  -1   11.25    0.79
  -2 -13  -1   10.39    0.81
   2  12  -2    8.37    0.45
  -2 -12   2    9.48    1.00
  -2 -12   2    8.86    0.91
   1  12  -2   20.87    0.72
  -1 -12   2   20.59    1.02
  -1 -12   2   21.35    1.09
   0  12  -2   16.46    0.66
   0 -12   2   15.13    0.95
   0 -12   2   17.58    0.95
  -1  12  -2    2.03    0.31
   1 -12   2    1.28    0.42
   1 -12   2    1.55    0.42
  -2  12  -2   22.71    0.97
   2 -12   2   24.17    1.14
   3  11  -2   28.72    0.92
  -3 -11   2   30.84    1.36
  -3 -11   2   29.90    1.27
   2  11  -2    1.38    0.22
  -2 -11   2    0.83    0.33
  -2 -11   2    1.06    0.33
   1  11  -2   34.44    0.92
  -1 -11   2   32.60    1.27
  -1 -11   2   32.40    1.33
   0  11  -2   14.45    0.55
   0 -11   2   13.91    0.85
   0 -11   2   13.49    0.81
  -1  11  -2    7.64    0.45
   1 -11   2    8.16    0.81
   1 -11   2    7.33    0.72
   1 -11   2    7.61    0.61
  -2  11  -2   32.00    1.12
   2 -11   2   34.43    1.33
  -3  11  -2    0.94    0.27
   3 -11   2    1.33    0.40
   4  10  -2   12.88    0.60
  -4 -10   2   12.15    0.85
  -4 -10   2   12.71    0.88
  -4 -10   2   12.81    0.82
   3  10  -2   41.60    1.11
  -3 -10   2   37.45    1.41
  -3 -10   2   41.59    1.54
   2  10  -2    7.84    0.37
  -2 -10   2    7.69    0.64
  -2 -10   2    8.27    0.63
   1  10  -2   57.68    1.27
  -1 -10   2   56.11    1.70
  -1 -10   2   54.49    1.74
   0  10  -2   22.31    0.65
   0 -10   2   22.41    1.02
   0 -10   2   20.72    0.95
  -1  10  -2   32.68    0.97
   1 -10   2   35.33    1.22
  -2  10  -2   57.37    1.56
   2 -10   2   56.10    2.10
   2 -10   2   58.52    1.76
  -3  10  -2    2.49    0.37
   3 -10   2    1.96    0.44
  -4  10  -2   17.31    0.91
   4 -10   2   17.38    1.00
   4   9  -2   37.18    1.09
  -4  -9   2   37.03    1.37
  -4  -9   2   38.30    1.47
  -4  -9   2   33.52    1.37
   3   9  -2   23.64    0.72
  -3  -9   2   21.55    0.98
  -3  -9   2   21.17    1.03
  -3  -9   2   22.25    1.01
   2   9  -2    4.77    0.25
  -2  -9   2    5.44    0.60
  -2  -9   2    3.98    0.55
   1   9  -2   50.07    1.06
  -1  -9   2   45.58    1.46
  -1  -9   2   48.47    1.54
   0   9  -2    2.66    0.18
   0  -9   2    3.08    0.43
   0  -9   2    2.58    0.43
  -1   9  -2   48.09    1.20
   1  -9   2   49.21    1.45
  -2   9  -2   28.19    0.92
   2  -9   2   26.14    1.31
   2  -9   2   29.89    1.11
  -3   9  -2    1.17    0.25
   3  -9   2    1.13    0.31
   3  -9   2    1.28    0.47
  -4   9  -2   48.62    1.57
   4  -9   2   45.74    1.65
  -5   9  -2    3.10    0.50
   5  -9   2    2.64    0.53
   5   8  -2    0.36    0.17
  -5  -8   2    0.30    0.30
   4   8  -2   64.25    1.60
  -4  -8   2   65.56    1.88
  -4  -8   2   63.03    1.92
  -4  -8   2   65.53    2.00
   3   8  -2   12.82    0.48
  -3  -8   2   13.60    0.75
  -3  -8   2   10.77    0.70
  -3  -8   2   12.69    0.70
   2   8  -2   33.00    0.78
  -2  -8   2   34.60    1.14
  -2  -8   2   31.40    1.18
  -2  -8   2   32.98    1.15
  -1  -8   2   86.06    2.24
  -1  -8   2   87.36    2.18
   0  -8   2    5.05    0.45
   0  -8   2    5.35    0.51
   0  -8   2    4.98    0.54
   0  -8   2    4.49    0.36
   0  -8   2    4.51    0.57
  -1   8  -2   98.58    2.05
   1  -8   2   96.93    2.48
   1  -8   2   99.08    2.66
   1  -8   2   99.42    2.35
  -2   8  -2    4.86    0.33
   2  -8   2    4.77    0.53
   2  -8   2    4.88    0.60
   2  -8   2    3.94    0.56
   2  -8   2    5.30    0.48
  -3   8  -2   22.58    0.85
   3  -8   2   19.30    1.14
   3  -8   2   20.12    0.92
  -4   8  -2   51.17    1.59
   4  -8   2   51.96    1.71
   4  -8   2   53.61    2.13
  -5   8  -2   -0.06    0.19
   5  -8   2    0.14    0.26
   5   7  -2    1.23    0.24
  -5  -7   2    1.07    0.35
   4   7  -2   51.88    1.35
  -4  -7   2   53.77    1.58
  -4  -7   2   54.81    1.73
  -4  -7   2   51.97    1.62
   3   7  -2    5.57    0.29
  -3  -7   2    6.60    0.48
  -3  -7   2    5.58    0.51
  -3  -7   2    5.82    0.49
  -3  -7   2    5.46    0.49
  -3  -7   2    5.69    0.44
   2   7  -2   67.20    1.39
  -2  -7   2   67.17    1.80
  -2  -7   2   71.33    1.81
  -2  -7   2   69.62    1.86
  -1  -7   2  112.98    2.67
  -1  -7   2  113.43    2.84
  -1  -7   2  112.17    2.49
  -1  -7   2  109.97    2.60
  -1  -7   2  114.29    2.68
   0  -7   2    0.61    0.17
   0  -7   2    1.05    0.26
   0  -7   2    0.76    0.25
  -1   7  -2  107.02    2.15
   1  -7   2  106.89    2.71
   1  -7   2  108.98    2.57
   1  -7   2  106.64    2.44
  -2   7  -2   42.23    1.13
   2  -7   2   44.44    1.55
   2  -7   2   45.47    1.34
   2  -7   2   45.03    1.53
   2  -7   2   44.58    1.39
  -3   7  -2   47.57    1.30
   3  -7   2   47.87    1.44
   3  -7   2   47.87    1.70
   3  -7   2   44.04    1.58
   3  -7   2   43.52    1.44
   3  -7   2   41.95    1.16
   3  -7   2   43.71    1.15
  -4   7  -2   40.33    1.31
   4  -7   2   44.17    1.80
   4  -7   2   41.59    1.42
  -5   7  -2    0.92    0.27
   5  -7   2    0.69    0.32
   5   6  -2   26.97    0.93
  -5  -6   2   27.28    1.21
   4   6  -2   57.08    1.42
  -4  -6   2   57.75    1.64
  -4  -6   2   56.10    1.58
  -4  -6   2   57.84    1.76
   3   6  -2    0.47    0.12
  -3  -6   2    0.53    0.21
  -3  -6   2    0.63    0.22
  -3  -6   2    0.53    0.19
  -3  -6   2    0.58    0.19
  -3  -6   2    0.41    0.16
  -2  -6   2   81.25    2.25
  -2  -6   2   85.61    2.05
  -2  -6   2   84.20    2.02
  -2  -6   2   84.06    2.12
  -2  -6   2   85.86    1.89
  -2  -6   2   81.69    2.05
  -2  -6   2   84.99    2.01
  -1  -6   2   63.42    1.40
  -1  -6   2   61.36    1.76
  -1  -6   2   65.10    1.62
  -1  -6   2   60.95    1.53
  -1  -6   2   62.85    1.49
  -1  -6   2   62.13    1.65
  -1  -6   2   63.21    1.65
   0  -6   2   47.58    1.05
   0  -6   2   46.72    1.13
   0  -6   2   45.59    1.41
   0  -6   2   46.33    1.19
   0  -6   2   46.06    1.11
   0  -6   2   47.05    1.31
  -1   6  -2   78.74    1.58
   1  -6   2   79.27    1.95
   1  -6   2   78.85    1.86
   1  -6   2   80.18    2.08
  -2   6  -2   12.89    0.48
   2  -6   2   12.99    0.62
   2  -6   2   12.38    0.69
   2  -6   2   12.11    0.69
   2  -6   2   11.59    0.58
  -3   6  -2   33.10    0.99
   3  -6   2   32.17    1.09
   3  -6   2   32.32    1.30
   3  -6   2   31.62    1.20
   3  -6   2   30.71    1.08
  -4   6  -2   15.39    0.69
   4  -6   2   15.71    1.01
   4  -6   2   14.34    0.75
  -5   6  -2    2.67    0.39
   5  -6   2    3.76    0.53
   6  -6   2   18.26    1.00
   6   5  -2    8.55    0.57
  -6  -5   2    9.87    0.79
   5   5  -2   41.67    1.24
  -5  -5   2   42.50    1.52
   4   5  -2   55.35    1.40
  -4  -5   2   55.59    1.55
  -4  -5   2   55.88    1.53
  -4  -5   2   57.19    1.70
  -4  -5   2   58.33    1.71
  -4  -5   2   55.51    1.50
   3   5  -2    0.20    0.08
  -3  -5   2    0.31    0.16
  -3  -5   2    0.23    0.14
  -3  -5   2    0.22    0.13
  -3  -5   2    0.09    0.14
  -3  -5   2    0.17    0.15
  -3  -5   2   -0.06    0.16
  -3  -5   2    0.09    0.12
  -2  -5   2  158.06    3.49
  -2  -5   2  161.15    3.39
  -2  -5   2  166.93    3.31
  -2  -5   2  161.27    3.43
  -2  -5   2  166.79    3.47
  -2  -5   2  166.12    3.43
  -2  -5   2  160.15    3.63
  -1  -5   2   72.39    1.72
  -1  -5   2   72.59    1.56
  -1  -5   2   72.53    1.68
  -1  -5   2   71.10    1.75
  -1  -5   2   70.75    1.86
  -1  -5   2   72.45    1.64
  -1  -5   2   73.06    1.76
   0  -5   2  241.97    4.68
   0  -5   2  250.27    4.69
   0  -5   2  244.74    5.00
   0  -5   2  242.48    4.86
   0  -5   2  246.03    4.61
   0  -5   2  241.71    4.74
   1  -5   2  247.15    4.92
   1  -5   2  244.78    4.85
   1  -5   2  247.35    5.05
  -2   5  -2    4.38    0.27
  -2   5  -2    4.20    0.25
  -2   5  -2    4.29    0.23
  -2   5  -2    4.43    0.25
   2  -5   2    4.21    0.33
   2  -5   2    4.38    0.38
   2  -5   2    4.26    0.39
   2  -5   2    3.83    0.31
  -3   5  -2  161.05    3.33
   3  -5   2  159.90    3.59
   3  -5   2  159.37    3.45
   3  -5   2  159.23    3.47
   3  -5   2  162.82    3.75
  -4   5  -2   48.76    1.37
   4  -5   2   49.76    1.78
   4  -5   2   48.03    1.46
  -5   5  -2   22.29    0.92
   5  -5   2   23.69    1.01
   6  -5   2   39.21    1.34
   6  -5   2   36.69    1.41
   6   4  -2    0.02    0.14
  -6  -4   2    0.18    0.27
   5   4  -2   28.93    0.97
  -5  -4   2   29.39    1.19
   4   4  -2   41.49    1.11
  -4  -4   2   41.67    1.23
  -4  -4   2   41.79    1.37
  -4  -4   2   41.59    1.36
  -4  -4   2   41.99    1.17
   3   4  -2   18.50    0.56
   3   4  -2   19.79    0.79
   3   4  -2   19.33    0.86
  -3  -4   2   19.45    0.69
  -3  -4   2   18.60    0.67
  -3  -4   2   19.37    0.87
  -3  -4   2   20.45    0.72
  -3  -4   2   18.60    0.77
  -3  -4   2   19.97    0.79
  -3  -4   2   19.41    0.79
   2   4  -2  275.56    5.52
   2   4  -2  270.10    5.36
  -2  -4   2  272.21    5.33
  -2  -4   2  272.96    5.34
  -2  -4   2  264.11    5.23
  -2  -4   2  273.76    5.20
  -2  -4   2  269.53    5.27
  -2  -4   2  257.06    5.33
  -2  -4   2  264.01    5.48
  -1  -4   2    3.35    0.25
  -1  -4   2    2.64    0.24
  -1  -4   2    3.20    0.24
  -1  -4   2    2.98    0.23
  -1  -4   2    2.86    0.20
  -1  -4   2    3.01    0.28
  -1  -4   2    2.90    0.30
   0   4  -2   40.87    0.95
   0   4  -2   40.81    0.97
   0   4  -2   39.70    0.91
   0  -4   2   39.78    1.12
   0  -4   2   39.61    0.96
   0  -4   2   39.16    0.94
   0  -4   2   38.97    0.90
   0  -4   2   40.74    1.05
  -1   4  -2  203.69    3.99
  -1   4  -2  202.09    3.91
   1  -4   2  210.36    4.21
   1  -4   2  202.68    4.05
   1  -4   2  209.65    4.10
  -2   4  -2    3.03    0.22
  -2   4  -2    2.91    0.19
  -2   4  -2    2.90    0.19
   2  -4   2    2.88    0.30
   2  -4   2    2.94    0.26
   2  -4   2    2.90    0.29
   2  -4   2    3.09    0.26
  -3   4  -2  201.48    3.97
  -3   4  -2  195.43    3.86
  -3   4  -2  193.14    3.96
   3  -4   2  200.85    4.04
   3  -4   2  194.52    4.33
   3  -4   2  195.44    4.07
   3  -4   2  198.77    4.16
  -4   4  -2   42.58    1.16
  -4   4  -2   43.09    1.22
  -4   4  -2   42.77    1.28
   4  -4   2   42.84    1.57
   4  -4   2   42.60    1.30
   4  -4   2   43.34    1.30
   4  -4   2   42.76    1.41
  -5   4  -2   12.06    0.64
   5  -4   2   12.84    0.70
   5  -4   2   12.12    0.63
   6  -4   2   48.09    1.49
   6   3  -2    1.64    0.31
  -6  -3   2    1.68    0.40
   5   3  -2   62.70    1.62
  -5  -3   2   60.17    1.84
   4   3  -2   57.25    1.43
  -4  -3   2   58.20    1.33
  -4  -3   2   58.18    1.66
  -4  -3   2   59.05    1.70
  -4  -3   2   57.72    1.54
  -4  -3   2   58.56    1.31
   3   3  -2   72.60    1.58
   3   3  -2   74.05    1.84
   3   3  -2   75.05    1.97
  -3  -3   2   74.54    1.70
  -3  -3   2   71.35    1.84
  -3  -3   2   72.69    1.72
  -3  -3   2   70.41    1.83
  -3  -3   2   76.16    1.68
   2   3  -2  222.06    4.48
   2   3  -2  220.47    4.35
   2   3  -2  209.92    4.02
  -2  -3   2  215.07    4.24
  -2  -3   2  214.42    4.22
  -2  -3   2  214.97    4.20
  -2  -3   2  213.95    4.34
  -2  -3   2  218.22    4.34
   1   3  -2    9.55    0.40
  -1  -3   2    9.39    0.37
  -1  -3   2    9.35    0.40
  -1  -3   2    9.31    0.44
  -1  -3   2    9.24    0.39
  -1  -3   2    9.15    0.38
  -1  -3   2    9.29    0.34
  -1  -3   2    9.39    0.39
   0   3  -2  168.00    3.35
   0   3  -2  164.76    3.41
   0   3  -2  170.30    3.34
   0   3  -2  171.70    3.27
   0   3  -2  166.36    3.29
   0  -3   2  176.69    3.34
   0  -3   2  172.60    3.44
   0  -3   2  171.31    3.36
   0  -3   2  173.54    3.27
   0  -3   2  171.47    3.29
  -1   3  -2   72.53    1.48
  -1   3  -2   70.96    1.54
   1  -3   2   72.39    1.57
   1  -3   2   71.02    1.57
   1  -3   2   71.44    1.64
  -2   3  -2  124.78    2.61
  -2   3  -2  134.70    2.69
  -2   3  -2  135.30    2.62
   2  -3   2  130.65    2.87
   2  -3   2  133.32    2.80
   2  -3   2  134.20    2.76
   2  -3   2  135.04    2.72
  -3   3  -2   87.00    1.87
  -3   3  -2   87.72    1.97
  -3   3  -2   87.81    1.93
   3  -3   2   84.62    1.90
   3  -3   2   86.08    1.94
   3  -3   2   86.45    2.03
   3  -3   2   86.61    2.23
   3  -3   2   88.10    2.00
  -4   3  -2    9.98    0.50
  -4   3  -2   10.66    0.41
  -4   3  -2   10.16    0.54
  -4   3  -2    9.75    0.47
   4  -3   2   10.48    0.54
   4  -3   2   10.66    0.72
   4  -3   2   10.20    0.49
   4  -3   2   10.36    0.51
   4  -3   2   10.44    0.57
  -5   3  -2   56.09    1.51
  -5   3  -2   57.30    1.67
  -5   3  -2   56.36    1.36
   5  -3   2   54.13    1.58
   5  -3   2   57.01    1.52
  -6   3  -2   17.23    0.68
   6  -3   2   18.40    0.82
   6   2  -2    3.35    0.41
  -6  -2   2    3.34    0.55
   5   2  -2   80.40    1.93
  -5  -2   2   75.54    2.12
   4   2  -2   21.65    0.71
   4   2  -2   21.69    0.96
   4   2  -2   21.06    0.86
  -4  -2   2   20.34    0.88
  -4  -2   2   21.94    0.65
  -4  -2   2   21.49    0.63
  -4  -2   2   21.39    0.79
  -4  -2   2   21.16    0.86
   3   2  -2   86.46    2.05
   3   2  -2   89.27    2.19
   3   2  -2   86.24    1.84
  -3  -2   2   85.06    1.94
  -3  -2   2   86.32    2.05
  -3  -2   2   84.80    2.06
   2   2  -2   90.65    2.11
   2   2  -2   90.86    2.01
   2   2  -2   90.65    1.78
  -2  -2   2   90.65    2.02
  -2  -2   2   90.48    1.89
  -2  -2   2   91.37    1.87
  -2  -2   2   89.66    2.03
  -2  -2   2   90.93    1.93
   1   2  -2   18.81    0.57
   1   2  -2   18.72    0.57
   1   2  -2   18.59    0.62
  -1  -2   2   18.74    0.57
  -1  -2   2   18.31    0.57
  -1  -2   2   18.55    0.52
  -1  -2   2   18.52    0.55
  -1  -2   2   18.68    0.58
   0   2  -2  656.89   12.63
   0   2  -2  664.11   13.12
   0   2  -2  657.33   12.73
   0   2  -2  670.00   12.84
   0  -2   2  714.32   12.91
   0  -2   2  616.35   12.77
   0  -2   2  680.94   12.93
   0  -2   2  693.35   12.98
   0  -2   2  695.40   12.69
   0  -2   2  687.80   12.78
   0  -2   2  703.27   12.73
   0  -2   2  610.76   12.54
  -1   2  -2  131.60    2.52
  -1   2  -2  129.59    2.56
  -1   2  -2  130.94    2.50
  -1   2  -2  130.57    2.57
   1  -2   2  129.75    2.54
   1  -2   2  129.49    2.59
   1  -2   2  124.25    2.55
  -2   2  -2  145.71    2.98
  -2   2  -2  155.26    3.05
  -2   2  -2  144.66    3.04
  -2   2  -2  153.96    2.97
  -2   2  -2  149.73    2.97
   2  -2   2  155.13    3.00
   2  -2   2  158.77    3.07
   2  -2   2  150.85    3.19
   2  -2   2  156.57    3.07
  -3   2  -2  136.29    2.76
  -3   2  -2  130.94    2.68
  -3   2  -2  138.59    2.90
  -3   2  -2  141.69    2.80
  -3   2  -2  139.43    2.83
   3  -2   2  132.13    2.77
   3  -2   2  138.04    2.82
   3  -2   2  137.09    3.13
   3  -2   2  138.81    2.87
   3  -2   2  140.66    2.92
  -4   2  -2    0.87    0.18
  -4   2  -2    1.10    0.23
  -4   2  -2    1.14    0.18
  -4   2  -2    0.73    0.17
   4  -2   2    0.96    0.18
   4  -2   2    1.29    0.25
   4  -2   2    0.72    0.21
   4  -2   2    0.88    0.29
   4  -2   2    1.07    0.20
   4  -2   2    0.83    0.19
  -5   2  -2  171.44    3.73
  -5   2  -2  178.57    3.59
  -5   2  -2  174.93    3.93
   5  -2   2  177.80    3.70
  -6   2  -2   16.73    0.70
   6  -2   2   17.48    0.77
  -7   2  -2   18.96    0.81
   7  -2   2   19.72    0.88
   6   1  -2   11.52    0.65
  -6  -1   2   12.12    0.78
   5   1  -2   63.09    1.65
  -5  -1   2   64.54    1.84
   4   1  -2    0.01    0.12
   4   1  -2    0.17    0.11
   4   1  -2    0.10    0.12
  -4  -1   2    0.43    0.14
  -4  -1   2    0.24    0.12
  -4  -1   2    0.60    0.19
  -4  -1   2    0.14    0.14
  -4  -1   2    0.24    0.17
   3   1  -2  238.94    4.53
   3   1  -2  235.96    4.71
   3   1  -2  237.42    4.85
  -3  -1   2  235.85    4.42
  -3  -1   2  231.20    4.70
  -3  -1   2  226.93    4.74
  -3  -1   2  228.43    4.60
  -3  -1   2  233.53    4.43
   2   1  -2  186.07    3.47
   2   1  -2  181.54    3.74
   2   1  -2  184.84    3.65
  -2  -1   2  180.27    3.48
  -2  -1   2  181.79    3.50
  -2  -1   2  180.86    3.58
  -2  -1   2  182.62    3.68
  -2  -1   2  180.12    3.64
   1   1  -2   58.31    1.27
   1   1  -2   58.98    1.29
   1   1  -2   57.30    1.33
  -1  -1   2   58.76    1.24
  -1  -1   2   57.64    1.28
  -1  -1   2   59.09    1.29
  -1  -1   2   57.60    1.33
  -1  -1   2   58.93    1.31
   0   1  -2  438.22    8.44
   0   1  -2  435.75    8.51
   0  -1   2  454.13    8.48
   0  -1   2  471.12    8.61
   0  -1   2  424.42    8.30
   0  -1   2  433.23    8.59
   0  -1   2  459.62    8.58
   0  -1   2  461.79    8.48
   0  -1   2  460.35    8.62
   0  -1   2  462.54    8.57
  -1   1  -2    4.96    0.20
  -1   1  -2    5.02    0.18
  -1   1  -2    5.33    0.23
  -1   1  -2    5.06    0.20
   1  -1   2    5.00    0.18
   1  -1   2    5.00    0.23
   1  -1   2    4.76    0.20
   1  -1   2    5.11    0.20
  -2   1  -2   65.29    1.34
  -2   1  -2   62.01    1.37
  -2   1  -2   63.29    1.33
  -2   1  -2   61.18    1.32
  -2   1  -2   63.99    1.35
  -2   1  -2   64.87    1.41
  -2   1  -2   59.34    1.26
   2  -1   2   62.44    1.52
   2  -1   2   61.47    1.37
   2  -1   2   62.80    1.32
  -3   1  -2  155.67    3.24
  -3   1  -2  157.35    3.14
  -3   1  -2  155.95    3.14
  -3   1  -2  150.82    3.05
  -3   1  -2  154.04    2.99
  -3   1  -2  160.66    3.17
   3  -1   2  155.42    3.04
   3  -1   2  157.47    3.16
   3  -1   2  161.64    3.24
   3  -1   2  159.46    3.15
   3  -1   2  154.22    3.11
   3  -1   2  153.57    3.43
  -4   1  -2    2.59    0.30
  -4   1  -2    2.72    0.22
  -4   1  -2    2.88    0.33
  -4   1  -2    3.00    0.24
  -4   1  -2    2.68    0.30
  -4   1  -2    3.24    0.38
  -4   1  -2    2.86    0.27
   4  -1   2    4.01    0.36
   4  -1   2    3.03    0.28
   4  -1   2    2.82    0.31
   4  -1   2    2.73    0.32
   4  -1   2    2.60    0.34
   4  -1   2    2.58    0.41
  -5   1  -2   42.17    1.26
  -5   1  -2   43.26    1.15
  -5   1  -2   43.19    1.41
   5  -1   2   39.53    1.06
   5  -1   2   42.38    1.19
  -6   1  -2    4.56    0.45
   6  -1   2    4.60    0.47
  -7   1  -2    6.28    0.52
   7  -1   2    6.28    0.54
  -6   0   2   14.38    0.82
   5   0  -2   80.41    1.96
  -5   0   2   78.89    2.10
   4   0  -2    0.05    0.13
   4   0  -2    0.04    0.10
   4   0  -2    0.37    0.15
  -4   0   2    0.03    0.10
  -4   0   2    0.16    0.13
  -4   0   2   -0.10    0.10
  -4   0   2    0.24    0.13
  -4   0   2    0.24    0.16
   3   0  -2  214.11    4.47
   3   0  -2  214.46    4.34
   3   0  -2  217.63    4.18
  -3   0   2  209.82    4.31
  -3   0   2  212.74    4.08
  -3   0   2  211.77    4.24
  -3   0   2  215.44    4.10
  -3   0   2  215.91    4.38
   2   0  -2  231.65    4.53
   2   0  -2  230.11    4.62
   2   0  -2  235.53    4.39
  -2   0   2  229.52    4.32
  -2   0   2  231.25    4.32
  -2   0   2  232.01    4.46
  -2   0   2  232.52    4.56
  -2   0   2  233.62    4.52
   1   0  -2  280.50    5.11
   1   0  -2  263.79    5.13
   1   0  -2  262.80    5.08
  -1   0   2  270.03    5.05
  -1   0   2  266.12    5.14
  -1   0   2  273.02    5.16
  -1   0   2  270.61    5.09
  -1   0   2  275.13    5.10
  -1   0   2  267.52    5.11
   0   0  -2  618.66   11.35
   0   0  -2  615.04   11.71
   0   0  -2  610.56   11.42
   0   0  -2  618.67   11.51
   0   0   2  592.94   11.81
   0   0   2  606.21   11.34
   0   0   2  611.16   11.46
   0   0   2  581.87   11.51
  -1   0  -2    8.41    0.27
  -1   0  -2    8.42    0.30
   1   0   2    7.77    0.26
   1   0   2    8.15    0.31
   1   0   2    8.30    0.30
  -2   0  -2  365.92    6.85
  -2   0  -2  365.98    6.74
  -2   0  -2  361.73    6.77
  -2   0  -2  360.71    6.75
  -2   0  -2  365.20    6.79
  -2   0  -2  359.20    6.79
  -2   0  -2  365.01    6.77
   2   0   2  362.06    6.78
   2   0   2  357.32    6.73
   2   0   2  366.62    6.70
   2   0   2  361.46    6.97
  -3   0  -2  175.02    3.48
  -3   0  -2  180.22    3.68
  -3   0  -2  179.75    3.42
  -3   0  -2  178.82    3.56
  -3   0  -2  179.30    3.60
  -3   0  -2  177.23    3.43
  -3   0  -2  188.29    3.58
   3   0   2  177.04    3.54
   3   0   2  178.37    3.52
   3   0   2  181.13    3.45
   3   0   2  179.54    3.63
   3   0   2  175.65    3.83
  -4   0  -2  125.00    2.65
  -4   0  -2  123.43    2.45
  -4   0  -2  122.73    2.54
  -4   0  -2  124.48    2.69
  -4   0  -2  119.24    2.78
  -4   0  -2  121.72    2.47
   4   0   2  121.97    2.57
   4   0   2  120.86    2.46
   4   0   2  119.87    2.73
   4   0   2  120.21    2.63
   4   0   2  121.05    2.57
  -5   0  -2   54.76    1.28
  -5   0  -2   54.83    1.30
  -5   0  -2   50.84    1.47
  -5   0  -2   52.63    1.63
  -5   0  -2   54.62    1.38
  -5   0  -2   52.63    1.52
   5   0   2   54.11    1.39
  -6   0  -2    0.44    0.21
   6   0   2   -0.06    0.17
  -7   0  -2   22.00    0.93
   7   0   2   23.37    0.89
  -6   1   2   30.42    1.07
   5  -1  -2   72.38    1.81
   5  -1  -2   71.13    1.60
  -5   1   2   70.41    1.85
  -5   1   2   72.38    2.03
  -5   1   2   68.49    1.89
  -5   1   2   70.83    1.76
   4  -1  -2   28.51    0.89
   4  -1  -2   28.19    0.78
   4  -1  -2   29.63    1.01
   4  -1  -2   30.14    1.11
  -4   1   2   29.71    0.97
  -4   1   2   28.40    0.92
  -4   1   2   29.63    1.04
  -4   1   2   29.61    0.80
  -4   1   2   29.39    0.87
  -4   1   2   29.40    0.82
   3  -1  -2   80.63    1.72
   3  -1  -2   81.79    1.80
   3  -1  -2   83.43    1.82
   3  -1  -2   81.41    1.92
   3  -1  -2   82.91    2.03
  -3   1   2   83.41    1.78
  -3   1   2   83.76    1.89
  -3   1   2   82.03    1.83
  -3   1   2   82.60    1.71
  -3   1   2   81.51    1.73
  -3   1   2   84.33    1.95
   2  -1  -2    0.18    0.09
   2  -1  -2    0.18    0.07
   2  -1  -2    0.17    0.10
   2  -1  -2    0.69    0.13
   2  -1  -2    0.35    0.13
   2  -1  -2    0.20    0.07
  -2   1   2    0.27    0.09
  -2   1   2    0.32    0.08
  -2   1   2    0.59    0.12
  -2   1   2    0.06    0.07
  -2   1   2    0.01    0.08
   1  -1  -2  257.55    4.89
   1  -1  -2  254.74    4.83
   1  -1  -2  264.00    4.83
   1  -1  -2  253.39    5.00
  -1   1   2  257.36    4.84
  -1   1   2  259.52    4.90
  -1   1   2  253.57    4.75
  -1   1   2  253.30    4.72
  -1   1   2  255.07    4.79
  -1   1   2  255.35    4.84
   0  -1  -2  237.21    4.35
   0  -1  -2  230.34    4.48
   0  -1  -2  237.37    4.40
   0   1   2  234.41    4.60
   0   1   2  229.77    4.39
   0   1   2  231.57    4.43
   0   1   2  233.86    4.50
  -1  -1  -2   20.21    0.44
  -1  -1  -2   20.51    0.50
  -1  -1  -2   20.02    0.44
  -1  -1  -2   19.84    0.46
  -1  -1  -2   20.57    0.53
  -1  -1  -2   19.47    0.46
  -1  -1  -2   19.31    0.44
  -1  -1  -2   19.56    0.44
  -1  -1  -2   20.45    0.45
   1   1   2   21.59    0.47
   1   1   2   20.23    0.53
   1   1   2   19.83    0.45
   1   1   2   21.06    0.45
   1   1   2   20.32    0.45
   1   1   2   19.70    0.44
   1   1   2   20.24    0.49
  -2  -1  -2  387.98    7.18
  -2  -1  -2  374.70    7.07
  -2  -1  -2  375.36    7.12
  -2  -1  -2  384.49    7.15
  -2  -1  -2  385.61    7.10
  -2  -1  -2  376.19    7.04
  -2  -1  -2  369.08    7.00
   2   1   2  385.29    7.15
   2   1   2  381.50    7.01
   2   1   2  382.58    7.11
  -3  -1  -2   68.90    1.43
  -3  -1  -2   67.22    1.59
  -3  -1  -2   69.60    1.48
  -3  -1  -2   67.84    1.55
  -3  -1  -2   65.55    1.64
  -3  -1  -2   68.76    1.42
   3   1   2   68.85    1.42
   3   1   2   68.91    1.43
   3   1   2   66.74    1.59
   3   1   2   68.29    1.49
   3   1   2   66.77    1.52
  -4  -1  -2   95.09    2.30
  -4  -1  -2   96.43    1.99
  -4  -1  -2   93.74    2.05
  -4  -1  -2   97.61    1.97
  -4  -1  -2   91.42    2.20
  -4  -1  -2   93.52    2.14
   4   1   2   93.69    1.93
   4   1   2   93.86    2.24
   4   1   2   94.06    2.04
   4   1   2   94.83    1.95
   4   1   2   92.56    2.13
   4   1   2   96.88    2.06
   4   1   2   91.63    2.07
  -5  -1  -2  149.19    3.52
  -5  -1  -2  158.09    3.22
  -5  -1  -2  155.18    3.09
  -5  -1  -2  154.14    3.12
  -5  -1  -2  148.68    3.41
  -5  -1  -2  151.27    3.34
   5   1   2  149.56    3.33
   5   1   2  147.85    3.48
   5   1   2  153.97    3.16
  -6  -1  -2    6.13    0.65
  -6  -1  -2    5.51    0.48
   6   1   2    5.53    0.42
  -7  -1  -2   52.32    1.56
   6  -2  -2   63.35    1.56
  -6   2   2   64.25    1.73
   5  -2  -2   20.47    0.71
  -5   2   2   21.63    0.95
  -5   2   2   21.08    0.82
  -5   2   2   20.07    0.77
   4  -2  -2   44.98    1.33
   4  -2  -2   45.25    1.44
   4  -2  -2   43.97    1.13
   4  -2  -2   47.21    1.22
   4  -2  -2   44.01    1.23
  -4   2   2   45.27    1.10
  -4   2   2   44.27    1.18
  -4   2   2   45.08    1.12
  -4   2   2   45.53    1.23
  -4   2   2   43.83    1.24
  -4   2   2   45.86    1.35
   3  -2  -2  223.57    4.94
   3  -2  -2  243.34    4.68
   3  -2  -2  234.73    4.60
   3  -2  -2  242.23    4.71
   3  -2  -2  239.10    4.81
   3  -2  -2  239.69    4.94
  -3   2   2  237.26    4.70
  -3   2   2  241.29    4.63
  -3   2   2  246.90    4.81
  -3   2   2  239.65    4.56
  -3   2   2  239.95    4.58
  -3   2   2  245.07    4.68
   2  -2  -2   11.42    0.41
   2  -2  -2   11.74    0.46
   2  -2  -2   11.67    0.53
   2  -2  -2   11.43    0.50
   2  -2  -2   11.22    0.37
   2  -2  -2   11.47    0.34
  -2   2   2   11.81    0.41
  -2   2   2   11.76    0.36
  -2   2   2   12.88    0.46
  -2   2   2   11.78    0.40
  -2   2   2   11.78    0.36
   1  -2  -2  637.81   12.44
   1  -2  -2  667.95   12.08
   1  -2  -2  645.24   12.27
   1  -2  -2  657.64   12.00
   1  -2  -2  649.22   11.94
   1  -2  -2  644.11   11.91
   1  -2  -2  658.30   12.52
  -1   2   2  558.34   11.96
  -1   2   2  654.36   12.45
  -1   2   2  663.66   12.24
  -1   2   2  634.17   11.94
  -1   2   2  654.62   11.91
  -1   2   2  577.96   11.94
  -1   2   2  662.82   12.03
  -1   2   2  648.51   12.19
  -1   2   2  641.83   11.92
  -1   2   2  635.30   11.94
   0  -2  -2  138.86    2.60
   0  -2  -2  137.36    2.62
   0  -2  -2  143.39    2.66
   0  -2  -2  139.29    2.59
   0  -2  -2  138.83    2.66
   0  -2  -2  137.84    2.60
   0  -2  -2  141.18    2.70
   0  -2  -2  138.61    2.61
   0   2   2  144.47    2.65
   0   2   2  132.31    2.59
   0   2   2  139.81    2.60
   0   2   2  137.03    2.59
   0   2   2  132.93    2.58
   0   2   2  143.19    2.71
   0   2   2  140.84    2.61
   0   2   2  145.35    2.67
  -1  -2  -2  334.79    6.18
  -1  -2  -2  323.76    6.21
  -1  -2  -2  352.12    6.38
  -1  -2  -2  333.81    6.21
  -1  -2  -2  352.23    6.30
  -1  -2  -2  345.23    6.24
  -1  -2  -2  330.90    6.17
  -1  -2  -2  337.87    6.17
  -1  -2  -2  320.73    6.20
   1   2   2  320.60    6.21
   1   2   2  332.64    6.18
   1   2   2  327.85    6.30
   1   2   2  341.85    6.53
   1   2   2  344.93    6.37
   1   2   2  319.88    6.20
   1   2   2  328.45    6.29
   1   2   2  333.50    6.13
  -2  -2  -2  461.07    8.54
  -2  -2  -2  469.07    8.64
  -2  -2  -2  447.40    8.43
  -2  -2  -2  447.57    8.44
  -2  -2  -2  459.34    8.61
   2   2   2  472.31    8.88
   2   2   2  457.20    8.42
   2   2   2  453.28    8.54
   2   2   2  478.12    8.76
   2   2   2  452.15    8.47
  -3  -2  -2    0.13    0.10
  -3  -2  -2    0.23    0.08
  -3  -2  -2    0.60    0.16
  -3  -2  -2    0.05    0.10
  -3  -2  -2    0.00    0.09
  -3  -2  -2    0.42    0.11
   3   2   2    0.25    0.11
   3   2   2    0.11    0.10
   3   2   2    0.26    0.10
  -4  -2  -2   81.57    1.72
  -4  -2  -2   76.62    1.87
  -4  -2  -2   78.33    1.78
  -4  -2  -2   81.60    1.74
  -4  -2  -2   76.47    1.95
  -4  -2  -2   78.59    2.02
   4   2   2   83.62    1.76
   4   2   2   79.82    1.81
   4   2   2   78.33    1.88
   4   2   2   79.04    2.00
  -5  -2  -2   53.59    1.67
  -5  -2  -2   52.84    1.51
  -5  -2  -2   53.77    1.60
  -5  -2  -2   56.46    1.42
   5   2   2   53.72    1.43
   5   2   2   54.07    1.53
   5   2   2   54.35    1.65
   5   2   2   55.29    1.34
  -6  -2  -2    7.70    0.53
  -6  -2  -2    6.79    0.62
   6   2   2    7.69    0.45
  -7  -2  -2   36.48    1.26
  -7  -2  -2   36.36    1.48
   6  -3  -2   42.91    1.24
  -6   3   2   43.11    1.32
   5  -3  -2    2.22    0.30
  -5   3   2    2.23    0.38
  -5   3   2    2.72    0.37
  -5   3   2    2.46    0.35
   4  -3  -2   19.70    0.76
   4  -3  -2   19.29    0.58
   4  -3  -2   19.26    0.66
   4  -3  -2   19.03    0.80
   4  -3  -2   19.34    0.89
  -4   3   2   20.61    0.81
  -4   3   2   18.28    0.68
  -4   3   2   19.05    0.62
  -4   3   2   20.03    0.62
  -4   3   2   19.06    0.68
   3  -3  -2  208.54    3.97
   3  -3  -2  200.38    4.08
   3  -3  -2  203.61    4.23
   3  -3  -2  207.98    4.18
   3  -3  -2  200.81    4.04
   3  -3  -2  199.21    4.44
   3  -3  -2  204.59    4.37
  -3   3   2  204.28    3.97
  -3   3   2  210.67    4.07
  -3   3   2  210.08    4.19
  -3   3   2  229.56    4.18
  -3   3   2  203.24    4.05
  -3   3   2  208.02    4.08
  -3   3   2  207.28    3.99
   2  -3  -2   22.24    0.69
   2  -3  -2   22.50    0.82
   2  -3  -2   21.05    0.69
   2  -3  -2   21.65    0.61
   2  -3  -2   22.02    0.59
   2  -3  -2   22.63    0.77
  -2   3   2   22.66    0.56
  -2   3   2   21.26    0.59
  -2   3   2   22.48    0.59
  -2   3   2   22.87    0.65
  -2   3   2   22.59    0.61
  -2   3   2   22.52    0.57
   1  -3  -2  172.61    3.23
   1  -3  -2  168.46    3.34
   1  -3  -2  174.33    3.18
   1  -3  -2  166.72    3.19
   1  -3  -2  170.26    3.20
   1  -3  -2  168.81    3.41
   1  -3  -2  171.93    3.48
  -1   3   2  166.82    3.40
  -1   3   2  165.77    3.17
  -1   3   2  164.66    3.18
  -1   3   2  172.09    3.17
  -1   3   2  167.90    3.33
  -1   3   2  169.28    3.21
   0  -3  -2  114.75    2.20
   0  -3  -2  120.47    2.33
   0  -3  -2  114.46    2.21
   0  -3  -2  114.94    2.20
   0  -3  -2  116.21    2.20
   0  -3  -2  117.98    2.38
   0   3   2  120.96    2.39
   0   3   2  115.50    2.32
   0   3   2  113.11    2.18
  -1  -3  -2    1.53    0.10
  -1  -3  -2    1.95    0.17
  -1  -3  -2    1.27    0.10
  -1  -3  -2    1.74    0.14
  -1  -3  -2    1.99    0.15
  -1  -3  -2    1.88    0.14
  -1  -3  -2    1.59    0.12
  -1  -3  -2    2.17    0.17
  -1  -3  -2    1.92    0.16
   1   3   2    1.57    0.15
   1   3   2    1.68    0.14
  -2  -3  -2  303.09    5.92
  -2  -3  -2  303.13    5.72
  -2  -3  -2  311.24    5.95
  -2  -3  -2  309.54    5.85
  -2  -3  -2  312.05    5.92
  -2  -3  -2  313.86    5.87
  -2  -3  -2  312.51    5.88
  -2  -3  -2  310.03    5.83
  -2  -3  -2  300.07    5.73
   2   3   2  309.29    5.76
   2   3   2  315.37    5.80
  -3  -3  -2    1.15    0.16
  -3  -3  -2    1.88    0.28
  -3  -3  -2    1.27    0.22
  -3  -3  -2    2.07    0.26
  -3  -3  -2    1.28    0.17
  -3  -3  -2    0.47    0.13
   3   3   2    1.22    0.19
  -4  -3  -2  157.50    3.46
  -4  -3  -2  156.57    3.50
  -4  -3  -2  156.88    3.23
  -4  -3  -2  162.45    3.18
  -4  -3  -2  163.17    3.16
  -4  -3  -2  154.59    3.33
   4   3   2  159.47    3.13
   4   3   2  158.11    3.26
   4   3   2  156.22    3.36
   4   3   2  156.69    3.49
  -5  -3  -2   26.46    1.04
  -5  -3  -2   24.63    0.84
  -5  -3  -2   24.17    1.05
  -5  -3  -2   24.51    0.93
   5   3   2   26.31    0.74
   5   3   2   25.60    0.87
   5   3   2   23.84    0.93
   5   3   2   25.85    1.05
  -6  -3  -2   35.22    1.38
  -6  -3  -2   36.52    1.18
  -7  -3  -2   41.05    1.37
  -7  -3  -2   41.87    1.64
   6  -4  -2   26.67    0.96
  -6   4   2   25.51    0.97
   5  -4  -2    6.69    0.53
   5  -4  -2    6.23    0.44
  -5   4   2    6.06    0.45
   4  -4  -2   86.78    2.17
   4  -4  -2   86.17    1.97
   4  -4  -2   84.57    1.86
   4  -4  -2   86.12    2.11
   4  -4  -2   86.00    2.33
  -4   4   2   85.12    1.85
  -4   4   2   86.16    1.97
  -4   4   2   83.63    1.83
  -4   4   2   86.44    2.10
  -4   4   2   86.69    1.95
   3  -4  -2   82.73    1.99
   3  -4  -2   81.41    2.22
   3  -4  -2   82.98    1.96
   3  -4  -2   81.52    2.11
   3  -4  -2   81.02    1.82
  -3   4   2   83.99    1.89
  -3   4   2   86.96    1.89
  -3   4   2   82.26    1.78
  -3   4   2   79.29    1.72
  -3   4   2   81.36    1.71
   2  -4  -2  163.40    3.45
   2  -4  -2  163.74    3.30
   2  -4  -2  169.64    3.66
   2  -4  -2  169.05    3.42
   2  -4  -2  162.96    3.56
  -2   4   2  169.13    3.19
  -2   4   2  166.09    3.20
  -2   4   2  171.38    3.35
  -2   4   2  169.91    3.22
  -2   4   2  167.62    3.26
  -2   4   2  170.16    3.29
   1  -4  -2  170.83    3.48
   1  -4  -2  171.92    3.44
   1  -4  -2  174.30    3.30
   1  -4  -2  169.11    3.57
   1  -4  -2  169.63    3.64
   1  -4  -2  171.10    3.29
  -1   4   2  189.18    3.50
  -1   4   2  171.44    3.30
   0  -4  -2   32.74    0.70
   0  -4  -2   30.69    0.69
   0  -4  -2   32.36    0.70
   0  -4  -2   32.75    0.82
   0  -4  -2   32.95    0.85
   0  -4  -2   32.18    0.79
   0  -4  -2   31.33    0.69
   0  -4  -2   33.03    0.92
   0   4   2   34.84    1.03
   0   4   2   33.77    0.93
  -1  -4  -2  171.14    3.45
  -1  -4  -2  179.46    3.45
  -1  -4  -2  180.84    3.49
  -1  -4  -2  175.59    3.33
  -1  -4  -2  175.20    3.44
  -1  -4  -2  178.51    3.57
  -1  -4  -2  172.42    3.38
   1   4   2  179.15    3.37
  -2  -4  -2   80.32    1.78
  -2  -4  -2   80.68    1.77
  -2  -4  -2   81.60    1.78
  -2  -4  -2   79.37    1.69
  -2  -4  -2   79.50    1.80
  -2  -4  -2   77.59    1.58
  -2  -4  -2   77.25    1.73
  -2  -4  -2   80.46    1.86
  -2  -4  -2   80.34    1.60
   2   4   2   80.26    1.66
  -3  -4  -2   26.58    0.83
  -3  -4  -2   26.08    0.82
  -3  -4  -2   26.57    0.79
  -3  -4  -2   26.48    0.88
  -3  -4  -2   26.12    0.90
  -3  -4  -2   26.87    0.68
  -3  -4  -2   27.14    0.81
  -3  -4  -2   25.39    0.87
  -3  -4  -2   26.60    0.69
   3   4   2   26.71    0.75
   3   4   2   27.43    0.93
   3   4   2   26.67    0.84
  -4  -4  -2   96.91    2.03
  -4  -4  -2   97.91    2.01
  -4  -4  -2   94.29    2.19
  -4  -4  -2   94.27    2.35
  -4  -4  -2   93.95    2.24
  -4  -4  -2   95.07    2.33
  -4  -4  -2   94.83    2.38
   4   4   2   94.38    2.37
   4   4   2   94.78    2.12
   4   4   2   94.14    2.24
  -5  -4  -2   21.08    0.95
   5   4   2   20.60    0.77
  -6  -4  -2   20.71    1.05
   6   4   2   20.75    0.93
   6  -5  -2   26.15    0.99
  -6   5   2   23.94    0.92
   5  -5  -2    1.06    0.31
   5  -5  -2    1.04    0.27
  -5   5   2    1.47    0.28
   4  -5  -2  106.82    2.42
   4  -5  -2  108.50    2.59
  -4   5   2  107.19    2.33
   3  -5  -2   65.01    1.72
   3  -5  -2   64.42    1.56
   3  -5  -2   64.89    1.69
   3  -5  -2   65.26    1.85
   3  -5  -2   65.40    1.96
  -3   5   2   65.04    1.54
  -3   5   2   66.65    1.49
  -3   5   2   64.40    1.45
  -3   5   2   68.87    1.62
   2  -5  -2   79.24    2.09
   2  -5  -2   77.08    1.70
   2  -5  -2   75.45    1.85
   2  -5  -2   73.98    1.79
   2  -5  -2   75.31    1.95
  -2   5   2   79.62    1.74
   1  -5  -2  379.14    7.10
   1  -5  -2  387.04    7.10
   1  -5  -2  381.51    7.54
   1  -5  -2  373.53    7.27
   1  -5  -2  380.00    7.35
   1  -5  -2  379.21    7.47
  -1   5   2  401.51    7.22
  -1   5   2  383.64    7.07
   0  -5  -2   97.33    2.20
   0  -5  -2   94.68    1.92
   0  -5  -2   94.53    2.09
   0  -5  -2   96.73    2.02
   0  -5  -2   95.59    2.04
   0   5   2   93.70    1.92
  -1  -5  -2  663.79   12.45
  -1  -5  -2  670.55   12.54
  -1  -5  -2  671.18   12.51
  -1  -5  -2  673.40   12.39
  -1  -5  -2  671.84   12.57
  -1  -5  -2  691.51   12.50
  -1  -5  -2  677.50   12.69
   1   5   2  683.12   12.57
  -2  -5  -2  252.59    5.15
  -2  -5  -2  255.91    4.89
  -2  -5  -2  258.26    4.99
  -2  -5  -2  256.47    5.04
  -2  -5  -2  255.05    5.02
  -2  -5  -2  256.41    4.99
  -2  -5  -2  256.06    5.04
   2   5   2  255.41    4.87
  -3  -5  -2   23.23    0.88
  -3  -5  -2   22.58    0.81
  -3  -5  -2   23.47    0.63
  -3  -5  -2   24.12    0.78
  -3  -5  -2   23.14    0.80
  -3  -5  -2   23.44    0.84
  -3  -5  -2   22.14    0.72
  -3  -5  -2   23.66    0.62
  -3  -5  -2   22.63    0.79
   3   5   2   23.11    0.69
  -4  -5  -2  138.52    2.99
  -4  -5  -2  139.17    3.17
  -4  -5  -2  139.76    2.81
  -4  -5  -2  139.18    2.79
  -4  -5  -2  132.59    3.14
  -4  -5  -2  137.35    3.09
  -4  -5  -2  137.15    3.25
   4   5   2  136.33    2.91
  -5  -5  -2    9.57    0.67
   5   5   2   10.48    0.54
  -6  -5  -2   46.94    1.67
   6   5   2   44.06    1.39
   6  -6  -2   18.97    0.89
   6  -6  -2   18.97    1.04
  -6   6   2   21.13    0.83
   5  -6  -2    7.45    0.73
   5  -6  -2    8.62    0.59
  -5   6   2    8.40    0.49
   4  -6  -2   68.02    1.88
   4  -6  -2   66.89    1.72
  -4   6   2   67.54    1.58
   3  -6  -2    6.23    0.41
   3  -6  -2    7.01    0.48
   3  -6  -2    7.46    0.65
   3  -6  -2    6.03    0.51
   3  -6  -2    5.62    0.44
  -3   6   2    6.16    0.39
  -3   6   2    6.44    0.34
   2  -6  -2   20.12    0.79
   2  -6  -2   21.23    0.89
   2  -6  -2   20.33    0.68
   2  -6  -2   21.04    0.63
   2  -6  -2   20.41    0.76
   2  -6  -2   21.50    0.62
   2  -6  -2   21.98    0.99
  -2   6   2   21.19    0.70
   1  -6  -2  132.63    2.60
   1  -6  -2  133.00    3.02
   1  -6  -2  134.25    2.81
   1  -6  -2  131.30    2.89
   1  -6  -2  134.13    2.62
  -1   6   2  132.89    2.72
   0  -6  -2   21.67    0.71
   0  -6  -2   21.83    0.76
   0  -6  -2   21.81    0.83
   0  -6  -2   21.15    0.68
   0  -6  -2   22.74    0.70
   0   6   2   21.16    0.60
  -1  -6  -2  123.62    2.69
  -1  -6  -2  122.82    2.80
  -1  -6  -2  124.15    2.41
  -1  -6  -2  122.12    2.65
  -1  -6  -2  122.02    2.61
  -1  -6  -2  124.09    2.46
  -1  -6  -2  128.44    2.58
   1   6   2  124.73    2.46
  -2  -6  -2   50.52    1.18
  -2  -6  -2   50.55    1.34
  -2  -6  -2   51.71    1.27
  -2  -6  -2   52.13    1.37
  -2  -6  -2   50.31    1.47
  -2  -6  -2   50.13    1.30
  -2  -6  -2   52.10    1.34
   2   6   2   49.74    1.17
  -3  -6  -2   10.77    0.39
  -3  -6  -2   10.76    0.54
  -3  -6  -2   10.67    0.47
  -3  -6  -2   10.24    0.53
  -3  -6  -2   10.49    0.55
  -3  -6  -2   10.76    0.52
  -3  -6  -2    9.56    0.59
  -3  -6  -2   10.77    0.38
  -3  -6  -2   10.63    0.56
   3   6   2   10.25    0.43
  -4  -6  -2  125.04    3.35
  -4  -6  -2  124.22    2.94
  -4  -6  -2  123.31    2.81
  -4  -6  -2  126.13    2.78
  -4  -6  -2  117.98    3.23
  -4  -6  -2  127.58    2.57
  -4  -6  -2  127.39    2.98
  -4  -6  -2  127.68    2.59
  -4  -6  -2  121.60    2.86
   4   6   2  125.86    2.70
  -5  -6  -2    0.22    0.22
   5   6   2    0.05    0.13
  -6  -6  -2   31.25    1.36
   6   6   2   31.25    1.11
   6  -7  -2   15.03    0.85
   6  -7  -2   14.09    0.96
  -6   7   2   14.06    0.65
   5  -7  -2    4.95    0.65
   5  -7  -2    6.82    0.64
  -5   7   2    5.86    0.42
   4  -7  -2   78.96    1.98
   4  -7  -2   74.86    2.11
  -4   7   2   77.33    2.19
   3  -7  -2    0.52    0.29
   3  -7  -2    0.55    0.26
   3  -7  -2    0.37    0.19
   3  -7  -2    0.23    0.18
   3  -7  -2    0.17    0.17
  -3   7   2    0.49    0.16
   2  -7  -2  108.29    2.62
   2  -7  -2  110.75    2.93
   2  -7  -2  109.86    2.30
   2  -7  -2  111.89    2.55
   2  -7  -2  109.78    2.32
   2  -7  -2  107.05    2.76
  -2   7   2  113.27    2.46
  -2   7   2  114.67    2.47
   1  -7  -2   95.78    1.93
   1  -7  -2   93.71    2.39
   1  -7  -2   94.95    1.95
   1  -7  -2   92.51    2.15
   1  -7  -2   94.01    2.26
  -1   7   2   96.55    2.06
   0  -7  -2  107.42    2.34
   0  -7  -2  106.25    2.45
   0  -7  -2  105.57    2.29
   0  -7  -2  104.46    2.38
   0  -7  -2  106.16    2.58
   0   7   2  106.63    2.20
  -1  -7  -2  148.92    3.41
  -1  -7  -2  152.02    3.24
  -1  -7  -2  160.20    3.18
  -1  -7  -2  151.15    3.19
  -1  -7  -2  147.84    3.27
  -1  -7  -2  153.28    3.12
   1   7   2  150.30    3.00
  -2  -7  -2    1.70    0.26
  -2  -7  -2    1.64    0.32
  -2  -7  -2    1.46    0.25
  -2  -7  -2    1.22    0.17
  -2  -7  -2    1.97    0.31
  -2  -7  -2    1.61    0.26
  -2  -7  -2    1.77    0.23
   2   7   2    1.56    0.19
  -3  -7  -2  191.38    4.33
  -3  -7  -2  191.84    3.74
  -3  -7  -2  195.19    3.92
  -3  -7  -2  190.16    4.15
  -3  -7  -2  192.54    3.76
  -3  -7  -2  190.29    4.06
  -3  -7  -2  194.18    4.06
  -3  -7  -2  197.18    4.15
  -3  -7  -2  194.61    4.12
   3   7   2  200.72    3.89
  -4  -7  -2   78.85    2.04
  -4  -7  -2   74.86    1.85
  -4  -7  -2   73.97    1.98
  -4  -7  -2   75.59    2.06
  -4  -7  -2   71.77    1.72
  -4  -7  -2   74.30    1.93
  -4  -7  -2   73.35    1.76
   4   7   2   71.60    1.78
  -5  -7  -2   22.74    1.07
   5   7   2   21.51    0.84
  -6  -7  -2   32.85    1.43
   6   7   2   32.72    1.16
   5  -8  -2   11.03    0.84
   5  -8  -2   12.70    0.79
   4  -8  -2   38.71    1.40
  -4   8   2   36.63    1.26
   3  -8  -2    0.78    0.36
   3  -8  -2    0.82    0.27
  -3   8   2    0.70    0.21
   2  -8  -2   88.98    2.59
   2  -8  -2   88.62    2.16
   2  -8  -2   85.66    1.89
   2  -8  -2   82.42    2.38
   2  -8  -2   85.54    1.91
   2  -8  -2   83.78    2.23
  -2   8   2   85.86    2.04
  -2   8   2   87.07    2.05
   1  -8  -2   50.12    1.18
   1  -8  -2   50.10    1.62
   1  -8  -2   53.61    1.42
   1  -8  -2   50.35    1.49
   1  -8  -2   51.18    1.17
  -1   8   2   53.49    1.31
   0  -8  -2   13.65    0.74
   0  -8  -2   12.82    0.62
   0  -8  -2   13.29    0.60
   0  -8  -2   13.65    0.56
   0  -8  -2   12.47    0.64
   0   8   2   13.64    0.49
  -1  -8  -2  156.31    3.22
  -1  -8  -2  158.45    3.32
  -1  -8  -2  152.65    3.42
  -1  -8  -2  150.37    3.58
  -1  -8  -2  152.81    3.36
   1   8   2  158.17    3.11
  -2  -8  -2   21.69    0.80
  -2  -8  -2   20.83    0.81
  -2  -8  -2   21.25    0.85
  -2  -8  -2   20.14    0.85
  -2  -8  -2   20.00    0.94
   2   8   2   21.42    0.65
  -3  -8  -2  118.71    2.79
  -3  -8  -2  115.66    2.78
  -3  -8  -2  118.78    2.74
   3   8   2  116.09    2.52
  -4  -8  -2   37.40    1.34
  -4  -8  -2   36.78    1.25
  -4  -8  -2   36.71    1.29
   4   8   2   37.19    1.10
  -5  -8  -2    6.41    0.68
   5   8   2    5.64    0.43
  -6  -8  -2   60.10    2.05
   6   8   2   55.63    1.68
   5  -9  -2   41.16    1.64
   5  -9  -2   44.80    1.71
   4  -9  -2   18.67    0.99
  -4   9   2   18.62    0.90
   3  -9  -2    0.84    0.30
   3  -9  -2    1.83    0.52
  -3   9   2    0.91    0.24
   2  -9  -2   92.38    2.06
   2  -9  -2   92.18    2.08
   2  -9  -2   95.56    2.89
   2  -9  -2   94.69    2.36
  -2   9   2   91.51    2.23
  -2   9   2   95.24    2.26
   1  -9  -2    9.50    0.55
   1  -9  -2    9.97    0.41
   1  -9  -2    9.47    0.40
  -1   9   2   10.38    0.49
   0  -9  -2   56.27    1.82
   0  -9  -2   59.13    1.63
   0  -9  -2   60.54    1.54
   0  -9  -2   59.70    1.59
   0  -9  -2   59.41    1.70
   0   9   2   57.58    1.41
  -1  -9  -2   48.17    1.38
  -1  -9  -2   46.56    1.41
  -1  -9  -2   49.06    1.85
  -1  -9  -2   47.66    2.00
   1   9   2   46.26    1.18
  -2  -9  -2    0.64    0.20
  -2  -9  -2    0.58    0.21
  -2  -9  -2    0.62    0.22
   2   9   2    0.50    0.13
  -3  -9  -2   30.61    1.12
  -3  -9  -2   30.76    1.15
  -3  -9  -2   29.63    1.09
   3   9   2   29.22    0.90
  -4  -9  -2    0.86    0.30
  -4  -9  -2    0.60    0.23
  -4  -9  -2    0.74    0.29
   4   9   2    0.83    0.22
  -5  -9  -2    9.78    0.68
  -5  -9  -2    8.67    0.68
  -5  -9  -2    9.92    0.78
   5   9   2    8.76    0.55
   4 -10  -2   17.66    1.01
  -4  10   2   15.35    0.86
   3 -10  -2    9.68    0.71
   3 -10  -2    9.16    0.99
  -3  10   2    9.67    0.63
   2 -10  -2   75.61    2.10
   2 -10  -2   79.65    2.67
  -2  10   2   74.33    1.98
  -2  10   2   77.66    1.99
   1 -10  -2    5.24    0.54
   1 -10  -2    4.96    0.32
   1 -10  -2    6.25    0.58
   1 -10  -2    4.37    0.30
   1 -10  -2    4.96    0.44
  -1  10   2    4.99    0.37
   0 -10  -2   75.61    1.91
   0 -10  -2   75.90    1.97
   0 -10  -2   76.97    2.04
   0  10   2   73.88    1.78
  -1 -10  -2   76.62    2.00
  -1 -10  -2   77.49    2.06
   1  10   2   75.96    1.77
  -2 -10  -2   28.46    1.11
  -2 -10  -2   28.02    1.06
   2  10   2   28.59    0.87
  -3 -10  -2  100.76    2.62
  -3 -10  -2  100.91    2.56
  -3 -10  -2  101.95    2.56
   3  10   2   96.82    2.27
  -4 -10  -2    7.99    0.69
  -4 -10  -2    8.77    0.84
  -4 -10  -2    8.77    0.78
   4  10   2    8.69    0.51
  -5 -10  -2   41.93    1.64
  -5 -10  -2   42.11    1.54
  -5 -10  -2   43.05    1.60
   5  10   2   41.00    1.33
   4 -11  -2    6.16    0.80
  -4  11   2    6.01    0.69
   3 -11  -2   33.14    1.87
   3 -11  -2   36.07    1.43
  -3  11   2   36.22    1.33
   2 -11  -2   29.35    1.62
   2 -11  -2   27.35    1.16
  -2  11   2   28.93    1.08
  -2  11   2   28.86    1.08
   1 -11  -2    6.15    0.59
   1 -11  -2    5.97    0.64
   1 -11  -2    6.69    0.67
  -1  11   2    5.20    0.40
   0 -11  -2   38.83    1.31
   0 -11  -2   40.80    1.39
   0  11   2   37.07    1.12
  -1 -11  -2   36.41    1.27
  -1 -11  -2   36.66    1.31
   1  11   2   37.66    1.08
  -2 -11  -2   21.67    1.01
  -2 -11  -2   22.09    0.97
   2  11   2   22.72    0.80
  -3 -11  -2   46.65    1.57
  -3 -11  -2   48.26    1.65
   3  11   2   47.25    1.33
  -4 -11  -2    5.99    0.66
  -4 -11  -2    6.41    0.72
  -4 -11  -2    7.58    0.78
   4  11   2    6.43    0.47
   3 -12  -2   20.22    1.12
  -3  12   2   20.89    1.02
   2 -12  -2   25.32    1.09
   2 -12  -2   22.09    1.09
   2 -12  -2   24.66    1.14
  -2  12   2   22.90    1.00
  -2  12   2   24.41    1.03
   1 -12  -2    5.43    0.59
   1 -12  -2    5.45    0.63
   1 -12  -2    5.52    0.66
   1 -12  -2    5.10    0.80
  -1  12   2    5.21    0.44
   0 -12  -2   70.89    2.07
   0 -12  -2   71.46    2.00
   0  12   2   71.88    1.85
  -1 -12  -2    1.66    0.39
  -1 -12  -2    1.95    0.42
   1  12   2    2.47    0.33
  -2 -12  -2   33.35    1.27
  -2 -12  -2   31.48    1.30
   2  12   2   33.04    1.05
  -3 -12  -2   19.76    1.00
  -3 -12  -2   19.39    1.04
   3  12   2   20.34    0.81
   2 -13  -2    5.45    0.75
   2 -13  -2    7.00    0.79
   2 -13  -2    7.15    0.75
  -2  13   2    6.68    0.58
  -2  13   2    6.58    0.57
   1 -13  -2    0.00    0.33
   1 -13  -2    0.12    0.28
   1 -13  -2   -0.04    0.25
  -1  13   2    0.38    0.18
   0 -13  -2   33.83    1.34
   0 -13  -2   33.45    1.28
   0  13   2   32.61    1.14
  -1 -13  -2    0.05    0.22
  -1 -13  -2    0.27    0.26
   1  13   2    0.22    0.18
  -2 -13  -2   20.28    1.03
  -2 -13  -2   19.59    1.07
   2  13   2   20.74    0.84
   0 -14  -2   15.75    0.91
   0 -14  -2   16.07    0.98
   0  14   2   17.22    0.83
   0  12  -3   12.78    0.56
   0 -12   3   12.32    0.83
   0 -12   3   10.50    0.84
  -1  12  -3   19.07    0.78
   1 -12   3   17.61    1.05
   1 -12   3   18.30    1.00
   2  11  -3   36.46    0.97
  -2 -11   3   34.08    1.42
  -2 -11   3   34.31    1.38
   1  11  -3    1.18    0.18
  -1 -11   3    1.30    0.37
  -1 -11   3    0.47    0.30
   0  11  -3   28.30    0.82
   0 -11   3   29.28    1.21
   0 -11   3   27.44    1.23
  -1  11  -3   19.38    0.74
   1 -11   3   21.95    1.41
   1 -11   3   19.67    1.04
   1 -11   3   19.00    0.98
  -2  11  -3    1.43    0.30
   2 -11   3    1.01    0.34
  -3  11  -3   24.25    1.03
   3 -11   3   22.86    1.16
   3  10  -3   18.41    0.65
  -3 -10   3   18.32    0.95
  -3 -10   3   18.33    1.02
   2  10  -3   28.26    0.76
  -2 -10   3   26.38    1.19
  -2 -10   3   28.20    1.17
   1  10  -3    0.23    0.10
  -1 -10   3    0.43    0.26
  -1 -10   3    0.06    0.21
   0  10  -3   36.71    0.91
   0 -10   3   36.04    1.32
   0 -10   3   37.36    1.39
  -1  10  -3   14.07    0.56
   1 -10   3   15.00    0.79
  -2  10  -3   13.75    0.64
   2 -10   3   11.89    0.76
  -3  10  -3   16.37    0.79
   3 -10   3   17.05    0.94
  -4  10  -3    0.30    0.25
   4 -10   3    0.72    0.35
   4   9  -3    4.70    0.36
  -4  -9   3    4.20    0.60
   3   9  -3   48.22    1.20
  -3  -9   3   49.38    1.60
  -3  -9   3   46.00    1.63
  -3  -9   3   49.42    1.64
   2   9  -3   30.61    0.76
  -2  -9   3   30.57    1.23
  -2  -9   3   31.68    1.20
  -1  -9   3    1.80    0.40
  -1  -9   3    1.17    0.31
   0  -9   3   55.42    1.71
   0  -9   3   55.73    1.65
  -1   9  -3   13.84    0.50
   1  -9   3   14.52    0.73
  -2   9  -3   40.85    1.16
   2  -9   3   36.93    1.56
   2  -9   3   40.41    1.37
  -3   9  -3   35.31    1.17
   3  -9   3   35.45    1.34
   3  -9   3   34.65    1.61
  -4   9  -3    0.81    0.28
   4  -9   3    0.96    0.36
   4   8  -3    1.03    0.21
  -4  -8   3    1.00    0.32
   3   8  -3   24.79    0.72
  -3  -8   3   24.85    1.02
  -3  -8   3   25.28    1.08
  -3  -8   3   25.36    1.08
  -2  -8   3   32.15    1.13
  -2  -8   3   31.86    1.19
  -2  -8   3   31.40    1.15
  -1  -8   3   19.39    0.88
  -1  -8   3   19.45    0.84
   0  -8   3   95.82    2.37
   0  -8   3   97.31    2.25
   0  -8   3   93.63    2.41
  -1   8  -3    1.90    0.18
   1  -8   3    1.98    0.37
   1  -8   3    1.87    0.35
   1  -8   3    1.98    0.42
  -2   8  -3   33.84    1.00
   2  -8   3   35.91    1.22
  -3   8  -3   39.15    1.20
   3  -8   3   38.83    1.59
   3  -8   3   36.79    1.34
  -4   8  -3    1.00    0.29
   4  -8   3    0.51    0.38
   4  -8   3    1.07    0.34
  -5   8  -3   25.19    1.10
   5  -8   3   24.50    1.20
   5   7  -3   31.58    1.05
  -5  -7   3   32.61    1.40
   4   7  -3    6.03    0.38
  -4  -7   3    6.55    0.61
   3   7  -3   55.50    1.27
  -3  -7   3   53.78    1.63
  -3  -7   3   54.99    1.59
  -3  -7   3   56.39    1.69
  -2  -7   3   22.69    0.91
  -2  -7   3   23.97    0.92
  -2  -7   3   24.18    0.96
  -1  -7   3   66.38    1.81
  -1  -7   3   62.12    1.72
  -1  -7   3   64.99    1.95
  -1  -7   3   65.53    1.65
  -1  -7   3   65.28    1.80
   0  -7   3  100.48    2.27
   0  -7   3   99.33    2.43
   0  -7   3   98.93    2.59
   1  -7   3    2.82    0.44
   1  -7   3    3.16    0.41
   1  -7   3    2.85    0.37
  -2   7  -3   66.71    1.55
   2  -7   3   63.06    1.96
   2  -7   3   64.24    1.83
   2  -7   3   71.32    1.81
  -3   7  -3   34.02    1.04
   3  -7   3   31.59    1.17
   3  -7   3   33.16    1.38
  -4   7  -3   26.16    0.99
   4  -7   3   24.82    1.08
   4  -7   3   27.80    1.40
  -5   7  -3   32.18    1.22
   5  -7   3   32.91    1.34
   5  -7   3   32.53    1.69
   5   6  -3   25.25    0.91
  -5  -6   3   25.47    1.18
   4   6  -3   10.84    0.50
  -4  -6   3   11.90    0.74
   3   6  -3  120.09    2.48
  -3  -6   3  124.17    2.91
  -3  -6   3  123.84    2.73
  -3  -6   3  122.51    2.84
  -3  -6   3  123.35    2.92
  -3  -6   3  123.33    2.79
  -2  -6   3    9.03    0.64
  -2  -6   3    9.95    0.53
  -2  -6   3   10.10    0.57
  -2  -6   3    9.26    0.57
  -2  -6   3    9.32    0.54
  -2  -6   3    9.78    0.46
  -2  -6   3   10.04    0.54
  -1  -6   3   64.16    1.57
  -1  -6   3   63.22    1.47
  -1  -6   3   65.22    1.61
  -1  -6   3   64.48    1.66
  -1  -6   3   64.90    1.72
  -1  -6   3   63.15    1.70
  -1  -6   3   65.20    1.86
   0  -6   3   61.08    1.51
   0  -6   3   60.33    1.62
   0  -6   3   61.77    1.75
   0  -6   3   62.91    1.75
   1  -6   3   10.28    0.62
   1  -6   3   10.50    0.51
   1  -6   3   10.43    0.56
  -2   6  -3  142.95    2.87
   2  -6   3  137.79    3.29
   2  -6   3  149.08    3.14
   2  -6   3  134.47    3.13
  -3   6  -3    6.28    0.39
   3  -6   3    6.71    0.61
   3  -6   3    7.37    0.51
  -4   6  -3   41.49    1.27
   4  -6   3   39.75    1.38
   4  -6   3   43.62    1.71
  -5   6  -3   35.75    1.25
   5  -6   3   38.19    1.75
   5  -6   3   38.08    1.39
   6  -6   3    0.07    0.25
   5   5  -3    4.69    0.39
  -5  -5   3    4.47    0.57
   4   5  -3   23.34    0.77
  -4  -5   3   25.21    1.05
   3   5  -3   76.36    1.69
  -3  -5   3   78.03    1.91
  -3  -5   3   82.62    1.94
  -3  -5   3   80.71    2.08
  -3  -5   3   84.12    2.10
  -3  -5   3   78.36    1.96
  -2  -5   3    0.55    0.20
  -2  -5   3    0.92    0.22
  -2  -5   3    0.91    0.23
  -2  -5   3    0.95    0.22
  -2  -5   3    1.06    0.23
  -2  -5   3    0.83    0.17
  -2  -5   3    1.00    0.23
  -1  -5   3  145.12    3.17
  -1  -5   3  143.61    3.06
  -1  -5   3  142.98    3.29
  -1  -5   3  145.76    2.96
  -1  -5   3  151.64    2.96
  -1  -5   3  146.91    3.17
  -1  -5   3  149.38    3.09
  -1  -5   3  148.39    3.12
   0   5  -3   69.26    1.51
   0   5  -3   70.04    1.58
   0   5  -3   71.08    1.61
   0  -5   3   70.71    1.58
   0  -5   3   69.12    1.70
   0  -5   3   69.04    1.61
   0  -5   3   68.35    1.50
   0  -5   3   70.20    1.82
   0  -5   3   67.85    1.58
  -1   5  -3   34.50    0.94
  -1   5  -3   33.68    0.86
   1  -5   3   36.97    1.06
   1  -5   3   34.18    1.00
   1  -5   3   34.34    0.88
   1  -5   3   34.89    0.96
   1  -5   3   38.75    1.17
  -2   5  -3  134.97    2.99
  -2   5  -3  144.57    2.83
  -2   5  -3  143.52    2.84
  -2   5  -3  133.11    2.96
   2  -5   3  142.97    3.20
   2  -5   3  142.16    3.06
   2  -5   3  145.51    3.07
   2  -5   3  141.58    3.16
  -3   5  -3    0.51    0.13
   3  -5   3    1.05    0.27
   3  -5   3    0.68    0.19
   3  -5   3    0.33    0.22
   3  -5   3    0.23    0.17
  -4   5  -3   56.61    1.52
   4  -5   3   56.03    1.63
   4  -5   3   57.18    1.94
  -5   5  -3   21.37    0.89
   5  -5   3   20.70    1.24
   5  -5   3   21.14    0.96
   6  -5   3    3.13    0.50
   6   4  -3   44.61    1.43
  -6  -4   3   47.36    1.74
   5   4  -3    5.06    0.40
  -5  -4   3    5.43    0.61
   4   4  -3   36.19    1.01
  -4  -4   3   36.47    1.15
  -4  -4   3   35.16    1.26
  -4  -4   3   38.19    1.31
   3   4  -3   74.67    1.62
   3   4  -3   76.17    2.11
   3   4  -3   77.10    1.98
  -3  -4   3   76.45    1.99
  -3  -4   3   76.40    1.98
  -3  -4   3   72.42    1.94
  -3  -4   3   77.24    1.84
  -3  -4   3   77.53    2.13
  -3  -4   3   76.67    1.78
  -3  -4   3   76.16    1.82
   2   4  -3    2.99    0.35
   2   4  -3    2.78    0.38
  -2  -4   3    3.07    0.36
  -2  -4   3    2.74    0.33
  -2  -4   3    3.06    0.39
  -2  -4   3    3.86    0.37
  -2  -4   3    2.99    0.29
  -2  -4   3    3.31    0.34
  -2  -4   3    2.48    0.30
   1   4  -3  298.04    5.67
  -1  -4   3  284.35    5.69
  -1  -4   3  288.46    5.65
  -1  -4   3  291.16    5.65
  -1  -4   3  293.21    5.55
  -1  -4   3  287.18    5.81
  -1  -4   3  290.39    5.69
  -1  -4   3  289.99    5.64
   0   4  -3   67.02    1.46
   0   4  -3   66.16    1.49
   0   4  -3   68.43    1.56
   0  -4   3   64.43    1.47
   0  -4   3   64.22    1.49
   0  -4   3   67.80    1.57
   0  -4   3   68.13    1.67
   0  -4   3   65.64    1.53
   0  -4   3   65.91    1.44
  -1   4  -3   60.88    1.35
  -1   4  -3   60.71    1.44
   1  -4   3   61.65    1.56
   1  -4   3   62.47    1.48
   1  -4   3   59.89    1.45
  -2   4  -3   83.22    1.87
  -2   4  -3   81.66    1.75
  -2   4  -3   85.68    1.78
   2  -4   3   82.30    1.93
   2  -4   3   85.37    1.91
   2  -4   3   84.29    2.01
   2  -4   3   82.13    2.02
  -3   4  -3    3.02    0.25
  -3   4  -3    2.92    0.28
  -3   4  -3    3.07    0.25
   3  -4   3    3.02    0.31
   3  -4   3    3.77    0.43
   3  -4   3    2.57    0.33
   3  -4   3    3.11    0.28
  -4   4  -3   69.15    1.74
   4  -4   3   71.90    2.17
   4  -4   3   69.35    1.85
  -5   4  -3   15.70    0.72
   5  -4   3   14.56    0.76
   5  -4   3   13.48    1.12
   6  -4   3   24.38    1.01
   6  -4   3   25.08    1.08
   6   3  -3   14.68    0.75
  -6  -3   3   16.39    0.97
   5   3  -3    2.55    0.34
  -5  -3   3    2.32    0.43
   4   3  -3   69.54    1.64
  -4  -3   3   70.05    1.78
  -4  -3   3   67.37    1.89
  -4  -3   3   67.68    1.92
   3   3  -3   82.99    2.18
   3   3  -3   84.59    2.06
   3   3  -3   80.98    1.75
  -3  -3   3   81.94    1.84
  -3  -3   3   81.21    2.07
  -3  -3   3   83.32    1.87
  -3  -3   3   80.43    2.04
  -3  -3   3   82.78    1.93
   2   3  -3   40.83    1.16
   2   3  -3   40.31    1.25
  -2  -3   3   41.76    1.18
  -2  -3   3   42.20    1.07
  -2  -3   3   42.18    1.04
  -2  -3   3   40.57    1.15
  -2  -3   3   42.34    1.08
   1   3  -3  130.54    2.69
  -1  -3   3  126.73    2.68
  -1  -3   3  127.33    2.78
  -1  -3   3  130.48    2.70
  -1  -3   3  125.92    2.62
  -1  -3   3  126.11    2.65
  -1  -3   3  126.15    2.67
  -1  -3   3  130.20    2.60
   0   3  -3   10.88    0.39
   0   3  -3   10.87    0.41
   0   3  -3   11.04    0.44
   0  -3   3   11.10    0.39
   0  -3   3   10.83    0.44
   0  -3   3   10.47    0.46
   0  -3   3   10.97    0.42
  -1   3  -3  242.42    4.61
  -1   3  -3  234.02    4.55
  -1   3  -3  242.52    4.69
  -1   3  -3  243.34    4.60
  -1   3  -3  237.50    4.68
   1  -3   3  242.17    4.66
   1  -3   3  239.42    4.68
   1  -3   3  244.38    4.74
  -2   3  -3  139.60    2.84
  -2   3  -3  138.49    2.74
  -2   3  -3  130.48    2.69
   2  -3   3  137.57    2.88
   2  -3   3  135.90    2.94
   2  -3   3  138.63    2.79
   2  -3   3  138.96    2.87
  -3   3  -3   12.88    0.48
  -3   3  -3   12.61    0.49
  -3   3  -3   13.08    0.54
   3  -3   3   12.34    0.49
   3  -3   3   12.93    0.56
   3  -3   3   12.51    0.68
   3  -3   3   12.23    0.56
  -4   3  -3   77.01    1.96
  -4   3  -3   79.99    1.84
  -4   3  -3   79.29    1.88
   4  -3   3   77.51    2.25
   4  -3   3   77.62    1.95
  -5   3  -3    7.12    0.55
  -5   3  -3    5.96    0.44
  -5   3  -3    6.92    0.36
  -5   3  -3    6.61    0.46
   5  -3   3    7.01    0.48
   5  -3   3    5.62    0.48
  -6   3  -3   23.54    0.77
   6  -3   3   23.29    0.95
   6   2  -3   39.05    1.29
  -6  -2   3   38.11    1.49
   5   2  -3    0.28    0.16
  -5  -2   3    0.13    0.20
   4   2  -3  143.65    3.00
  -4  -2   3  142.04    3.12
  -4  -2   3  142.33    2.86
  -4  -2   3  142.16    3.30
  -4  -2   3  143.35    2.88
  -4  -2   3  140.33    3.25
   3   2  -3   58.72    1.65
   3   2  -3   58.68    1.53
   3   2  -3   56.40    1.28
  -3  -2   3   54.16    1.49
  -3  -2   3   54.15    1.29
  -3  -2   3   53.85    1.40
  -3  -2   3   55.10    1.54
  -3  -2   3   55.23    1.32
   2   2  -3  165.70    3.40
   2   2  -3  164.17    3.51
   2   2  -3  165.20    3.10
   2   2  -3  161.86    3.41
  -2  -2   3  163.41    3.40
  -2  -2   3  162.50    3.21
  -2  -2   3  167.10    3.44
  -2  -2   3  163.87    3.24
  -2  -2   3  164.78    3.32
   1   2  -3  187.63    3.76
   1   2  -3  187.29    3.84
   1   2  -3  187.75    3.78
  -1  -2   3  193.88    3.67
  -1  -2   3  191.92    3.70
  -1  -2   3  195.03    3.82
  -1  -2   3  186.82    3.77
  -1  -2   3  191.77    3.71
   0   2  -3    5.48    0.27
   0   2  -3    4.76    0.25
   0   2  -3    4.60    0.28
   0  -2   3    4.99    0.24
   0  -2   3    5.14    0.30
   0  -2   3    4.86    0.24
   0  -2   3    4.76    0.27
   0  -2   3    5.12    0.27
   0  -2   3    5.31    0.26
  -1   2  -3  449.58    8.17
  -1   2  -3  437.56    8.48
  -1   2  -3  456.39    8.33
  -1   2  -3  440.83    8.35
  -1   2  -3  437.41    8.20
   1  -2   3  443.66    8.31
   1  -2   3  429.14    8.39
  -2   2  -3  214.77    4.24
  -2   2  -3  210.89    4.12
  -2   2  -3  217.98    4.15
  -2   2  -3  215.22    4.13
  -2   2  -3  208.67    4.18
  -2   2  -3  212.15    4.11
   2  -2   3  217.21    4.35
   2  -2   3  223.53    4.26
   2  -2   3  221.01    4.14
   2  -2   3  218.07    4.20
  -3   2  -3   96.61    2.16
  -3   2  -3   97.66    2.06
  -3   2  -3   96.60    2.07
  -3   2  -3   93.42    2.02
   3  -2   3   94.62    2.10
   3  -2   3   94.57    2.03
   3  -2   3   93.89    2.13
   3  -2   3   96.51    2.36
  -4   2  -3  164.18    3.39
  -4   2  -3  159.95    3.50
  -4   2  -3  160.31    3.17
  -4   2  -3  162.09    3.36
   4  -2   3  158.45    3.32
   4  -2   3  161.94    3.42
   4  -2   3  161.82    3.23
   4  -2   3  158.61    3.77
  -5   2  -3    9.53    0.63
  -5   2  -3    9.49    0.45
  -5   2  -3    9.47    0.54
   5  -2   3    9.61    0.57
   5  -2   3   10.07    0.54
  -6   2  -3   28.37    0.92
   6  -2   3   28.95    1.05
  -7   2  -3   21.13    0.83
   7  -2   3   21.63    0.95
   6   1  -3   35.56    1.21
  -6  -1   3   33.18    1.36
   5   1  -3    7.21    0.47
  -5  -1   3    8.18    0.59
   4   1  -3   95.92    2.95
   4   1  -3  102.04    2.75
   4   1  -3   93.92    2.12
  -4  -1   3   92.37    2.01
  -4  -1   3   91.51    2.36
  -4  -1   3   93.55    2.21
  -4  -1   3   92.49    1.99
  -4  -1   3   93.36    2.32
   3   1  -3    8.66    0.53
   3   1  -3    8.34    0.46
   3   1  -3    8.62    0.37
  -3  -1   3    7.65    0.47
  -3  -1   3    8.16    0.42
  -3  -1   3    7.85    0.45
   2   1  -3   60.94    1.55
   2   1  -3   62.44    1.27
   2   1  -3   59.99    1.47
   2   1  -3   61.07    1.46
  -2  -1   3   60.07    1.46
  -2  -1   3   59.58    1.29
  -2  -1   3   60.67    1.28
  -2  -1   3   58.63    1.39
  -2  -1   3   59.45    1.49
   1   1  -3  500.22    9.42
   1   1  -3  505.32    9.56
   1   1  -3  506.64    9.33
   1   1  -3  489.50    9.33
   1   1  -3  488.58    9.41
  -1  -1   3  504.23    9.62
  -1  -1   3  505.30    9.83
  -1  -1   3  517.09    9.55
   0   1  -3   27.90    0.72
   0   1  -3   28.17    0.71
   0   1  -3   28.90    0.73
   0   1  -3   27.33    0.78
   0   1  -3   27.75    0.67
   0  -1   3   29.22    0.67
   0  -1   3   27.97    0.71
   0  -1   3   28.66    0.71
   0  -1   3   27.89    0.79
   0  -1   3   29.23    0.74
   0  -1   3   29.13    0.67
  -1   1  -3  204.28    3.79
  -1   1  -3  199.46    3.84
  -1   1  -3  208.08    3.85
  -1   1  -3  200.25    3.91
  -1   1  -3  195.56    3.84
   1  -1   3  196.31    3.75
  -2   1  -3    9.55    0.29
  -2   1  -3    9.24    0.32
  -2   1  -3    7.98    0.31
  -2   1  -3    8.50    0.38
  -2   1  -3    8.55    0.33
   2  -1   3    8.36    0.29
   2  -1   3    8.73    0.43
   2  -1   3    8.42    0.31
   2  -1   3    8.58    0.36
  -3   1  -3   50.39    1.23
  -3   1  -3   49.95    1.12
  -3   1  -3   51.97    1.24
  -3   1  -3   52.68    1.34
  -3   1  -3   53.15    1.25
   3  -1   3   50.57    1.47
   3  -1   3   51.53    1.27
   3  -1   3   51.02    1.19
   3  -1   3   51.93    1.21
   3  -1   3   52.07    1.26
  -4   1  -3  145.54    3.08
  -4   1  -3  149.24    3.10
  -4   1  -3  144.78    2.93
  -4   1  -3  152.82    3.11
  -4   1  -3  148.64    3.24
   4  -1   3  141.97    3.03
   4  -1   3  145.59    3.03
   4  -1   3  141.47    3.07
   4  -1   3  142.56    3.13
   4  -1   3  143.70    3.44
   4  -1   3  149.08    2.95
  -5   1  -3    1.21    0.26
  -5   1  -3    1.16    0.29
  -5   1  -3    0.53    0.18
   5  -1   3    0.23    0.17
   5  -1   3    0.47    0.17
  -6   1  -3   47.75    1.30
   6  -1   3   47.26    1.39
  -7   1  -3   10.45    0.63
   7  -1   3    9.88    0.65
   7  -1   3    9.12    0.63
   6   0  -3    5.95    0.49
  -6   0   3    5.47    0.61
   5   0  -3   47.93    1.38
  -5   0   3   47.76    1.51
   4   0  -3  105.44    2.68
   4   0  -3  108.92    2.35
   4   0  -3  107.53    2.54
  -4   0   3  103.87    2.49
  -4   0   3  105.02    2.40
  -4   0   3  103.09    2.56
  -4   0   3  103.76    2.20
  -4   0   3  104.00    2.22
   3   0  -3    0.28    0.13
   3   0  -3    0.42    0.12
   3   0  -3    0.07    0.11
   3   0  -3    0.15    0.10
  -3   0   3    0.53    0.18
  -3   0   3    0.28    0.13
  -3   0   3    0.28    0.12
  -3   0   3    0.23    0.10
  -3   0   3    0.42    0.15
   2   0  -3  160.12    3.25
   2   0  -3  163.17    3.09
   2   0  -3  155.56    3.25
   2   0  -3  161.13    3.36
  -2   0   3  159.52    3.19
  -2   0   3  157.19    3.29
  -2   0   3  157.52    3.25
   1   0  -3  155.45    3.21
   1   0  -3  167.83    3.16
   1   0  -3  157.88    3.15
   1   0  -3  164.01    3.24
  -1   0   3  163.42    3.14
  -1   0   3  158.59    3.16
  -1   0   3  156.98    3.22
  -1   0   3  164.27    3.23
   0   0  -3  243.66    4.60
   0   0  -3  237.98    4.57
   0   0  -3  245.47    4.60
   0   0  -3  239.65    4.54
   0   0  -3  238.41    4.65
   0   0   3  241.73    4.48
   0   0   3  241.57    4.51
  -1   0  -3  305.38    5.76
  -1   0  -3  300.79    5.68
  -1   0  -3  308.26    5.72
   1   0   3  303.77    5.87
  -2   0  -3    0.29    0.11
  -2   0  -3    0.19    0.09
  -2   0  -3    0.69    0.11
  -2   0  -3    0.24    0.09
  -2   0  -3    0.20    0.10
  -2   0  -3    0.26    0.08
  -2   0  -3    0.33    0.07
   2   0   3    0.36    0.09
   2   0   3    0.35    0.08
   2   0   3    0.36    0.08
   2   0   3    0.53    0.16
  -3   0  -3  160.03    3.19
  -3   0  -3  151.98    3.32
  -3   0  -3  152.73    3.05
  -3   0  -3  163.31    3.17
  -3   0  -3  152.36    3.21
  -3   0  -3  157.11    3.16
  -3   0  -3  155.25    3.27
   3   0   3  155.91    3.09
   3   0   3  157.46    3.16
   3   0   3  155.87    3.04
   3   0   3  154.89    3.43
   3   0   3  157.24    3.11
  -4   0  -3   68.90    1.46
  -4   0  -3   68.07    1.44
  -4   0  -3   66.84    1.52
  -4   0  -3   70.46    1.64
  -4   0  -3   67.52    1.67
  -4   0  -3   66.46    1.63
  -4   0  -3   64.06    1.75
   4   0   3   64.93    1.66
   4   0   3   65.25    1.58
   4   0   3   67.94    1.94
   4   0   3   68.68    1.59
   4   0   3   66.63    1.58
   4   0   3   67.14    1.49
  -5   0  -3   58.37    1.75
  -5   0  -3   60.83    1.48
  -5   0  -3   58.78    1.60
  -5   0  -3   59.66    1.64
   5   0   3   58.77    1.40
   5   0   3   58.61    1.51
  -6   0  -3   84.58    1.99
   6   0   3   82.09    2.03
   6   0   3   80.18    2.00
  -7   0  -3    1.93    0.36
   7   0   3    1.93    0.38
   5  -1  -3   26.15    0.93
  -5   1   3   24.91    1.00
   4  -1  -3  123.88    2.89
   4  -1  -3  124.59    3.05
   4  -1  -3  125.92    2.73
  -4   1   3  125.85    2.93
  -4   1   3  125.25    2.61
  -4   1   3  125.03    2.58
  -4   1   3  127.66    2.85
  -4   1   3  125.21    2.76
   3  -1  -3    0.08    0.10
   3  -1  -3    0.15    0.09
   3  -1  -3    0.13    0.12
   3  -1  -3    0.31    0.13
  -3   1   3    0.10    0.11
  -3   1   3    0.12    0.10
  -3   1   3    0.73    0.14
  -3   1   3    0.54    0.12
  -3   1   3    0.17    0.12
  -3   1   3   -0.07    0.08
   2  -1  -3  429.24    8.94
   2  -1  -3  477.26    8.93
   2  -1  -3  490.65    8.81
   2  -1  -3  473.72    8.91
   2  -1  -3  487.28    9.05
  -2   1   3  482.61    8.97
  -2   1   3  470.33    8.76
  -2   1   3  470.25    8.90
  -2   1   3  481.58    8.85
  -2   1   3  473.79    8.84
   1  -1  -3   27.83    0.70
   1  -1  -3   27.92    0.72
   1  -1  -3   27.83    0.76
   1  -1  -3   27.76    0.77
   1  -1  -3   29.12    0.76
  -1   1   3   27.52    0.77
  -1   1   3   28.40    0.70
  -1   1   3   28.03    0.72
  -1   1   3   28.16    0.76
   0  -1  -3   76.07    1.54
   0  -1  -3   75.16    1.49
   0  -1  -3   80.29    1.57
   0  -1  -3   74.83    1.45
   0  -1  -3   75.35    1.61
   0   1   3   70.47    1.52
   0   1   3   76.09    1.49
   0   1   3   75.43    1.46
   0   1   3   68.80    1.52
   0   1   3   69.52    1.58
  -1  -1  -3  522.30    9.52
  -1  -1  -3  523.77    9.69
  -1  -1  -3  529.12    9.54
   1   1   3  474.37    9.41
   1   1   3  472.02    9.44
   1   1   3  503.41    9.35
  -2  -1  -3   61.24    1.41
  -2  -1  -3   61.87    1.34
  -2  -1  -3   61.11    1.34
  -2  -1  -3   60.69    1.23
  -2  -1  -3   60.12    1.26
  -2  -1  -3   61.32    1.23
  -2  -1  -3   61.06    1.30
   2   1   3   60.94    1.26
   2   1   3   62.09    1.25
   2   1   3   59.41    1.49
   2   1   3   62.27    1.29
  -3  -1  -3  340.27    6.65
  -3  -1  -3  341.67    6.43
  -3  -1  -3  343.75    6.36
  -3  -1  -3  339.45    6.58
  -3  -1  -3  342.77    6.51
  -3  -1  -3  337.89    6.52
  -3  -1  -3  348.47    6.38
   3   1   3  348.19    6.47
   3   1   3  334.72    6.44
   3   1   3  337.54    6.52
   3   1   3  346.66    6.39
  -4  -1  -3   40.57    1.13
  -4  -1  -3   40.69    0.98
  -4  -1  -3   39.08    1.23
  -4  -1  -3   40.77    1.19
  -4  -1  -3   39.65    1.03
  -4  -1  -3   40.35    0.96
   4   1   3   39.43    0.98
   4   1   3   39.90    0.97
   4   1   3   39.87    1.16
   4   1   3   39.56    1.07
   4   1   3   40.68    1.06
  -5  -1  -3   11.45    0.60
  -5  -1  -3   10.62    0.67
  -5  -1  -3   11.36    0.48
  -5  -1  -3   11.74    0.47
  -5  -1  -3   11.04    0.64
  -5  -1  -3   12.81    0.56
   5   1   3   11.84    0.53
   5   1   3   11.93    0.55
  -6  -1  -3   59.15    1.83
  -6  -1  -3   62.76    1.63
   6   1   3   62.50    1.60
  -7  -1  -3    1.95    0.38
   7   1   3    2.55    0.39
  -6   2   3    3.94    0.50
   5  -2  -3   41.48    1.30
   5  -2  -3   43.43    1.10
  -5   2   3   41.75    1.34
  -5   2   3   42.93    1.25
   4  -2  -3   28.99    1.03
   4  -2  -3   30.20    0.95
   4  -2  -3   28.86    0.80
   4  -2  -3   29.60    1.14
   4  -2  -3   29.74    0.92
  -4   2   3   29.69    0.93
  -4   2   3   29.40    0.90
  -4   2   3   28.03    0.83
  -4   2   3   28.56    0.96
  -4   2   3   28.75    1.04
  -4   2   3   29.67    0.82
   3  -2  -3   19.00    0.56
   3  -2  -3   18.97    0.72
   3  -2  -3   18.44    0.66
   3  -2  -3   19.32    0.80
   3  -2  -3   19.93    0.64
  -3   2   3   19.05    0.56
  -3   2   3   19.86    0.73
  -3   2   3   18.65    0.61
  -3   2   3   18.80    0.57
  -3   2   3   19.45    0.67
  -3   2   3   19.75    0.64
   2  -2  -3  308.46    5.72
   2  -2  -3  291.07    5.90
   2  -2  -3  301.66    5.92
   2  -2  -3  293.77    5.62
   2  -2  -3  303.00    5.76
   2  -2  -3  304.79    5.77
   2  -2  -3  298.92    5.81
  -2   2   3  303.63    5.81
  -2   2   3  299.76    5.61
  -2   2   3  299.41    5.63
  -2   2   3  300.12    5.75
  -2   2   3  305.26    5.71
   1  -2  -3   68.88    1.59
   1  -2  -3   70.33    1.53
   1  -2  -3   70.27    1.59
   1  -2  -3   69.59    1.47
   1  -2  -3   72.68    1.53
   1  -2  -3   70.47    1.54
  -1   2   3   73.38    1.54
  -1   2   3   71.11    1.47
  -1   2   3   71.54    1.42
  -1   2   3   70.48    1.59
  -1   2   3   71.73    1.53
  -1   2   3   70.70    1.41
   0  -2  -3  145.10    2.71
   0  -2  -3  147.76    2.89
   0  -2  -3  162.43    2.88
   0  -2  -3  147.62    2.82
   0  -2  -3  143.60    2.72
   0  -2  -3  145.82    2.72
   0  -2  -3  145.00    2.72
   0   2   3  149.41    2.74
   0   2   3  149.97    2.84
   0   2   3  138.34    2.73
   0   2   3  140.59    2.86
   0   2   3  151.40    2.80
   0   2   3  147.15    2.73
   0   2   3  139.14    2.72
   0   2   3  140.33    2.80
  -1  -2  -3  292.38    5.24
  -1  -2  -3  294.47    5.33
  -1  -2  -3  275.44    5.18
  -1  -2  -3  286.80    5.31
  -1  -2  -3  279.09    5.18
  -1  -2  -3  276.74    5.17
  -1  -2  -3  290.31    5.20
  -1  -2  -3  286.78    5.25
   1   2   3  267.52    5.26
   1   2   3  289.20    5.30
   1   2   3  295.32    5.25
   1   2   3  270.12    5.18
   1   2   3  260.09    5.22
   1   2   3  274.70    5.19
  -2  -2  -3    8.57    0.38
  -2  -2  -3    8.60    0.33
  -2  -2  -3    8.45    0.33
  -2  -2  -3    8.41    0.30
  -2  -2  -3    8.26    0.33
  -2  -2  -3    8.55    0.28
  -2  -2  -3    8.30    0.30
  -2  -2  -3    8.59    0.37
  -2  -2  -3    8.96    0.28
   2   2   3    8.80    0.29
   2   2   3    8.92    0.34
   2   2   3    9.19    0.29
   2   2   3    9.30    0.31
  -3  -2  -3  189.89    3.60
  -3  -2  -3  185.82    3.86
  -3  -2  -3  189.75    3.66
  -3  -2  -3  188.63    3.75
  -3  -2  -3  189.25    3.61
  -3  -2  -3  183.60    3.82
   3   2   3  189.30    3.69
   3   2   3  181.78    3.68
   3   2   3  187.93    3.59
   3   2   3  187.17    3.60
   3   2   3  188.73    3.78
   3   2   3  188.27    3.66
  -4  -2  -3   20.30    0.74
  -4  -2  -3   20.73    0.63
  -4  -2  -3   20.71    0.80
  -4  -2  -3   20.68    0.67
  -4  -2  -3   20.56    0.61
  -4  -2  -3   20.20    0.83
   4   2   3   21.62    0.70
   4   2   3   22.13    0.73
   4   2   3   21.44    0.60
   4   2   3   22.12    0.68
   4   2   3   20.22    0.78
   4   2   3   20.69    0.61
  -5  -2  -3   11.38    0.66
  -5  -2  -3   12.86    0.52
  -5  -2  -3   12.56    0.57
  -5  -2  -3   12.29    0.62
  -5  -2  -3   11.81    0.49
  -5  -2  -3   11.42    0.69
   5   2   3   11.52    0.52
  -6  -2  -3   20.49    1.00
  -6  -2  -3   21.94    0.86
   6   2   3   20.58    0.77
  -7  -2  -3    0.89    0.38
  -7  -2  -3    1.81    0.39
   7   2   3    2.22    0.34
   6  -3  -3    0.51    0.22
   6  -3  -3    0.51    0.21
  -6   3   3    0.13    0.23
   5  -3  -3   94.03    2.14
  -5   3   3   98.98    2.32
  -5   3   3   95.25    2.25
  -5   3   3   94.09    2.48
   4  -3  -3   32.31    0.99
   4  -3  -3   32.34    1.05
   4  -3  -3   32.22    1.11
   4  -3  -3   32.75    1.23
   4  -3  -3   33.08    0.92
  -4   3   3   33.19    1.11
  -4   3   3   33.03    0.89
  -4   3   3   33.35    0.97
  -4   3   3   32.37    0.90
  -4   3   3   32.28    0.99
  -4   3   3   32.05    1.01
   3  -3  -3   72.77    1.67
   3  -3  -3   71.44    1.51
   3  -3  -3   72.34    1.79
   3  -3  -3   72.26    1.92
   3  -3  -3   71.09    1.73
   3  -3  -3   71.87    1.60
  -3   3   3   71.43    1.67
  -3   3   3   71.64    1.56
  -3   3   3   73.62    1.64
  -3   3   3   72.70    1.58
  -3   3   3   73.62    1.65
  -3   3   3   74.04    1.76
   2  -3  -3  156.89    3.20
   2  -3  -3  155.05    3.33
   2  -3  -3  153.91    3.22
   2  -3  -3  153.29    3.38
   2  -3  -3  159.36    3.13
   2  -3  -3  161.60    3.13
   2  -3  -3  151.15    3.06
  -2   3   3  161.75    3.09
  -2   3   3  162.82    3.18
  -2   3   3  157.17    3.03
  -2   3   3  152.32    3.09
  -2   3   3  158.70    3.12
  -2   3   3  155.71    3.04
   1  -3  -3    4.79    0.32
   1  -3  -3    4.76    0.26
   1  -3  -3    4.68    0.29
   1  -3  -3    4.49    0.24
  -1   3   3    4.39    0.20
  -1   3   3    4.51    0.20
  -1   3   3    4.74    0.21
  -1   3   3    4.53    0.23
   0  -3  -3  564.92   10.47
   0  -3  -3  556.38   10.54
   0  -3  -3  587.88   10.67
   0  -3  -3  602.12   10.46
   0  -3  -3  567.17   10.50
   0  -3  -3  574.85   10.88
   0  -3  -3  562.44   10.45
   0   3   3  594.92   11.08
   0   3   3  495.97   10.47
   0   3   3  590.51   10.81
   0   3   3  572.68   10.48
   0   3   3  566.99   10.48
   0   3   3  519.75   10.53
   0   3   3  570.20   10.69
   0   3   3  567.05   10.56
  -1  -3  -3  217.43    4.16
  -1  -3  -3  217.14    4.14
  -1  -3  -3  222.85    4.10
  -1  -3  -3  224.38    4.19
  -1  -3  -3  221.90    4.12
  -1  -3  -3  224.50    4.13
  -1  -3  -3  213.01    4.05
  -1  -3  -3  220.21    4.19
  -1  -3  -3  210.76    4.04
   1   3   3  218.09    4.13
   1   3   3  219.10    4.19
   1   3   3  211.27    4.06
   1   3   3  209.37    4.05
  -2  -3  -3  181.63    3.52
  -2  -3  -3  168.80    3.52
  -2  -3  -3  178.45    3.50
  -2  -3  -3  180.06    3.46
  -2  -3  -3  173.16    3.46
  -2  -3  -3  182.25    3.45
  -2  -3  -3  178.22    3.47
  -2  -3  -3  179.51    3.55
  -2  -3  -3  179.03    3.37
  -2  -3  -3  178.48    3.56
  -2  -3  -3  176.15    3.36
   2   3   3  172.95    3.35
   2   3   3  175.59    3.41
   2   3   3  177.30    3.35
  -3  -3  -3  177.96    3.66
  -3  -3  -3  179.30    3.72
  -3  -3  -3  175.41    3.70
  -3  -3  -3  174.22    3.51
  -3  -3  -3  179.37    3.58
  -3  -3  -3  179.20    3.45
  -3  -3  -3  176.46    3.46
  -3  -3  -3  180.47    3.60
   3   3   3  181.84    3.51
   3   3   3  181.20    3.59
   3   3   3  181.42    3.55
   3   3   3  183.38    3.69
  -4  -3  -3   16.41    0.75
  -4  -3  -3   16.08    0.73
  -4  -3  -3   16.86    0.67
  -4  -3  -3   18.60    0.56
  -4  -3  -3   16.79    0.60
  -4  -3  -3   18.90    0.58
   4   3   3   17.59    0.59
   4   3   3   17.00    0.62
   4   3   3   17.00    0.65
   4   3   3   16.27    0.71
  -5  -3  -3  141.90    3.30
  -5  -3  -3  139.62    3.36
  -5  -3  -3  141.91    3.18
  -5  -3  -3  142.53    3.03
   5   3   3  137.25    3.06
   5   3   3  144.89    2.94
  -6  -3  -3   49.24    1.71
  -6  -3  -3   56.45    1.52
   6   3   3   52.31    1.33
  -7  -3  -3   10.19    0.67
  -7  -3  -3    9.93    0.83
   6  -4  -3    9.18    0.54
  -6   4   3    8.47    0.59
   5  -4  -3   36.69    1.28
   5  -4  -3   37.18    1.10
  -5   4   3   37.93    1.15
   4  -4  -3   46.23    1.21
   4  -4  -3   46.22    1.22
   4  -4  -3   46.90    1.39
  -4   4   3   48.34    1.16
  -4   4   3   45.81    1.25
  -4   4   3   46.90    1.38
  -4   4   3   48.19    1.18
  -4   4   3   47.25    1.25
   3  -4  -3   80.98    2.46
   3  -4  -3   84.39    1.87
   3  -4  -3   84.73    2.02
   3  -4  -3   84.35    1.91
   3  -4  -3   85.65    2.06
   3  -4  -3   84.44    2.18
  -3   4   3   85.42    1.80
  -3   4   3   82.50    1.87
  -3   4   3   88.93    1.98
  -3   4   3   83.59    1.86
  -3   4   3   88.47    1.87
  -3   4   3   85.58    1.79
   2  -4  -3  148.90    3.21
   2  -4  -3  149.51    3.41
   2  -4  -3  149.33    3.32
   2  -4  -3  147.22    3.05
   2  -4  -3  149.80    3.04
   2  -4  -3  154.90    3.20
  -2   4   3  156.65    3.10
  -2   4   3  158.05    3.02
  -2   4   3  151.41    3.05
  -2   4   3  178.64    3.31
  -2   4   3  151.47    2.99
  -2   4   3  156.95    2.99
   1  -4  -3   51.86    1.23
   1  -4  -3   52.01    1.10
   1  -4  -3   47.27    1.12
   1  -4  -3   51.42    1.33
   1  -4  -3   51.54    1.09
   1  -4  -3   51.07    1.15
   1  -4  -3   47.55    1.07
   1  -4  -3   50.68    1.24
   1  -4  -3   53.18    1.43
  -1   4   3   51.43    1.07
  -1   4   3   52.04    1.10
  -1   4   3   50.18    1.12
  -1   4   3   51.13    1.08
  -1   4   3   52.00    1.06
   0  -4  -3  332.96    5.92
   0  -4  -3  278.20    5.86
   0  -4  -3  311.92    5.81
   0  -4  -3  327.86    5.98
   0  -4  -3  327.56    6.07
   0  -4  -3  310.58    5.82
   0  -4  -3  285.95    5.89
   0   4   3  329.61    6.08
   0   4   3  315.21    5.79
   0   4   3  325.06    6.19
   0   4   3  312.03    5.79
  -1  -4  -3  133.79    2.60
  -1  -4  -3  136.92    2.71
  -1  -4  -3  134.94    2.73
  -1  -4  -3  140.19    2.75
  -1  -4  -3  140.66    2.83
  -1  -4  -3  141.29    2.77
  -1  -4  -3  136.57    2.70
  -1  -4  -3  134.05    2.61
  -1  -4  -3  138.75    2.64
   1   4   3  136.22    2.76
   1   4   3  132.59    2.64
   1   4   3  137.44    2.84
  -2  -4  -3  177.10    3.58
  -2  -4  -3  180.99    3.63
  -2  -4  -3  177.35    3.40
  -2  -4  -3  177.16    3.61
  -2  -4  -3  179.28    3.49
  -2  -4  -3  178.61    3.56
  -2  -4  -3  176.93    3.39
  -2  -4  -3  179.12    3.54
  -2  -4  -3  177.48    3.53
   2   4   3  183.75    3.48
   2   4   3  177.67    3.43
  -3  -4  -3  227.21    4.60
  -3  -4  -3  223.91    4.46
  -3  -4  -3  228.52    4.60
  -3  -4  -3  226.83    4.31
  -3  -4  -3  228.04    4.49
  -3  -4  -3  220.40    4.59
  -3  -4  -3  226.07    4.33
  -3  -4  -3  221.82    4.38
   3   4   3  230.88    4.34
   3   4   3  228.79    4.42
  -4  -4  -3    0.18    0.13
  -4  -4  -3    0.23    0.11
  -4  -4  -3    0.22    0.12
  -4  -4  -3    0.10    0.14
  -4  -4  -3    0.04    0.15
  -4  -4  -3    0.22    0.15
  -4  -4  -3    0.07    0.18
  -4  -4  -3    0.15    0.12
   4   4   3    0.26    0.13
   4   4   3    0.60    0.15
   4   4   3    0.18    0.12
   4   4   3    0.27    0.14
  -5  -4  -3   99.96    2.58
  -5  -4  -3  100.67    2.30
   5   4   3  102.18    2.35
  -6  -4  -3   46.44    1.39
  -6  -4  -3   46.63    1.65
  -7  -4  -3    3.46    0.60
  -7  -4  -3    3.64    0.49
   6  -5  -3   11.90    0.65
  -6   5   3   10.23    0.64
   5  -5  -3   39.63    1.20
   5  -5  -3   38.02    1.37
  -5   5   3   42.09    1.21
   4  -5  -3    0.24    0.13
   4  -5  -3    0.06    0.16
   4  -5  -3    0.26    0.18
  -4   5   3    0.26    0.16
  -4   5   3    0.36    0.14
  -4   5   3    0.18    0.11
   3  -5  -3  116.02    2.47
   3  -5  -3  112.92    2.82
   3  -5  -3  113.49    2.67
   3  -5  -3  115.91    2.96
   3  -5  -3  114.78    2.64
  -3   5   3  115.75    2.39
  -3   5   3  114.19    2.50
  -3   5   3  120.18    2.54
  -3   5   3  117.35    2.44
   2  -5  -3  106.16    2.27
   2  -5  -3  104.43    2.43
   2  -5  -3  107.64    2.41
   2  -5  -3  113.00    2.73
   2  -5  -3  104.53    2.55
  -2   5   3  107.89    2.23
  -2   5   3  112.30    2.32
  -2   5   3  108.61    2.14
  -2   5   3  110.48    2.23
  -2   5   3  108.56    2.16
   1  -5  -3   14.81    0.55
   1  -5  -3   14.57    0.63
   1  -5  -3   14.84    0.57
   1  -5  -3   14.82    0.44
   1  -5  -3   15.93    0.71
   1  -5  -3   14.99    0.45
  -1   5   3   14.65    0.49
  -1   5   3   15.02    0.45
   0  -5  -3  172.72    3.38
   0  -5  -3  183.74    3.50
   0  -5  -3  174.48    3.58
   0  -5  -3  175.32    3.68
   0  -5  -3  175.03    3.37
   0  -5  -3  187.00    3.47
   0  -5  -3  178.73    3.52
   0   5   3  176.16    3.38
   0   5   3  179.28    3.46
  -1  -5  -3    9.59    0.39
  -1  -5  -3    9.44    0.41
  -1  -5  -3    8.89    0.32
  -1  -5  -3    8.80    0.36
  -1  -5  -3   11.20    0.44
  -1  -5  -3   10.82    0.49
  -1  -5  -3   10.15    0.31
  -1  -5  -3    9.92    0.30
  -1  -5  -3    9.45    0.40
   1   5   3   10.13    0.36
   1   5   3    9.69    0.31
  -2  -5  -3  150.18    2.91
  -2  -5  -3  152.49    3.23
  -2  -5  -3  154.25    3.01
  -2  -5  -3  151.03    3.09
  -2  -5  -3  152.03    3.12
  -2  -5  -3  148.11    2.92
  -2  -5  -3  149.32    3.08
  -2  -5  -3  151.31    3.15
  -2  -5  -3  151.25    3.12
   2   5   3  152.44    3.00
  -3  -5  -3  130.57    2.82
  -3  -5  -3  131.56    2.94
  -3  -5  -3  131.15    2.87
  -3  -5  -3  130.23    2.82
  -3  -5  -3  132.16    2.61
  -3  -5  -3  124.48    2.73
  -3  -5  -3  131.82    2.90
  -3  -5  -3  130.77    2.74
  -3  -5  -3  131.05    2.59
  -3  -5  -3  128.44    2.77
   3   5   3  132.10    2.70
  -4  -5  -3   28.47    1.04
  -4  -5  -3   25.77    0.99
  -4  -5  -3   25.55    0.74
  -4  -5  -3   26.24    0.89
  -4  -5  -3   26.31    0.76
  -4  -5  -3   26.12    1.00
  -4  -5  -3   25.64    0.91
   4   5   3   26.12    0.83
  -5  -5  -3   56.49    1.75
   5   5   3   56.26    1.51
  -6  -5  -3    0.67    0.33
   6  -6  -3    3.00    0.44
  -6   6   3    2.90    0.42
   5  -6  -3   62.59    1.94
   5  -6  -3   66.39    1.76
  -5   6   3   66.80    1.67
   4  -6  -3    5.58    0.49
   4  -6  -3    5.17    0.55
  -4   6   3    4.55    0.37
   3  -6  -3   96.05    2.32
   3  -6  -3   94.04    2.14
   3  -6  -3   92.10    2.34
   3  -6  -3   96.18    2.66
   3  -6  -3   91.40    2.49
  -3   6   3   97.85    2.21
  -3   6   3   96.72    2.06
   2  -6  -3   45.15    1.51
   2  -6  -3   42.58    1.38
   2  -6  -3   44.71    1.26
   2  -6  -3   42.75    1.12
   2  -6  -3   42.53    1.27
  -2   6   3   44.20    1.05
  -2   6   3   44.14    1.16
   1  -6  -3   18.65    0.53
   1  -6  -3   18.95    0.54
   1  -6  -3   18.11    0.77
   1  -6  -3   17.91    0.70
   1  -6  -3   18.67    0.67
   1  -6  -3   18.91    0.85
  -1   6   3   18.50    0.51
  -1   6   3   19.09    0.61
   0  -6  -3  291.79    5.85
   0  -6  -3  298.07    5.59
   0  -6  -3  293.88    5.97
   0  -6  -3  310.67    5.68
   0  -6  -3  296.60    5.58
   0  -6  -3  292.93    5.75
   0  -6  -3  301.97    5.78
   0  -6  -3  303.29    5.75
   0   6   3  302.32    5.68
  -1  -6  -3    8.82    0.46
  -1  -6  -3    9.81    0.32
  -1  -6  -3    9.38    0.52
  -1  -6  -3    9.21    0.32
  -1  -6  -3    9.97    0.45
  -1  -6  -3    9.12    0.31
  -1  -6  -3    9.51    0.43
  -1  -6  -3    9.46    0.36
  -1  -6  -3    9.16    0.42
   1   6   3    9.38    0.36
  -2  -6  -3   93.45    1.96
  -2  -6  -3   92.14    2.13
  -2  -6  -3   93.01    2.12
  -2  -6  -3   92.57    2.25
  -2  -6  -3   92.27    2.08
  -2  -6  -3   93.05    1.88
  -2  -6  -3   96.35    2.14
  -2  -6  -3   94.75    2.06
  -2  -6  -3   93.31    1.89
   2   6   3   93.59    1.98
  -3  -6  -3   35.13    1.08
  -3  -6  -3   35.83    0.98
  -3  -6  -3   34.86    1.08
  -3  -6  -3   34.89    1.07
  -3  -6  -3   34.46    1.17
  -3  -6  -3   34.33    0.87
  -3  -6  -3   35.54    1.05
  -3  -6  -3   34.03    1.11
  -3  -6  -3   35.36    0.86
   3   6   3   34.82    0.95
  -4  -6  -3   27.70    0.98
  -4  -6  -3   26.63    0.90
  -4  -6  -3   25.84    1.01
  -4  -6  -3   25.74    0.77
  -4  -6  -3   26.54    0.93
  -4  -6  -3   25.98    1.06
  -4  -6  -3   25.78    0.75
  -4  -6  -3   24.92    1.02
  -4  -6  -3   26.24    0.96
   4   6   3   28.82    0.87
  -5  -6  -3  102.17    2.67
   5   6   3   99.35    2.36
  -6  -6  -3   -0.23    0.24
   6   6   3    0.29    0.19
   5  -7  -3   20.14    0.90
   5  -7  -3   18.88    1.01
  -5   7   3   19.30    0.75
   4  -7  -3    3.56    0.50
   4  -7  -3    3.88    0.45
  -4   7   3    3.75    0.36
   3  -7  -3   67.06    1.85
   3  -7  -3   65.97    1.68
   3  -7  -3   69.24    2.22
  -3   7   3   67.69    1.73
   2  -7  -3   18.30    0.59
   2  -7  -3   17.33    0.86
   2  -7  -3   17.29    0.74
   2  -7  -3   17.23    0.66
   2  -7  -3   17.51    0.60
   2  -7  -3   19.33    1.00
   2  -7  -3   17.11    0.77
  -2   7   3   18.65    0.68
   1  -7  -3  154.54    3.20
   1  -7  -3  149.52    3.52
   1  -7  -3  145.66    3.41
   1  -7  -3  147.15    2.95
   1  -7  -3  149.32    3.27
   1  -7  -3  145.63    2.94
  -1   7   3  150.63    3.09
   0  -7  -3  191.40    3.85
   0  -7  -3  191.12    3.63
   0  -7  -3  188.97    3.73
   0  -7  -3  185.00    4.09
   0  -7  -3  191.83    3.89
   0  -7  -3  194.65    3.85
   0  -7  -3  182.78    3.96
   0  -7  -3  193.94    3.65
   0   7   3  192.44    3.76
  -1  -7  -3    2.26    0.27
  -1  -7  -3    2.30    0.30
  -1  -7  -3    2.09    0.25
  -1  -7  -3    2.41    0.35
  -1  -7  -3    2.14    0.26
  -1  -7  -3    2.28    0.29
   1   7   3    2.19    0.19
  -2  -7  -3  173.02    3.58
  -2  -7  -3  168.53    3.28
  -2  -7  -3  170.86    3.59
  -2  -7  -3  168.03    3.45
  -2  -7  -3  168.91    3.62
  -2  -7  -3  171.36    3.54
  -2  -7  -3  169.45    3.35
  -2  -7  -3  167.30    3.75
   2   7   3  169.37    3.39
  -3  -7  -3   36.36    0.91
  -3  -7  -3   35.40    0.89
  -3  -7  -3   35.95    1.18
  -3  -7  -3   36.69    1.02
  -3  -7  -3   37.64    1.13
  -3  -7  -3   37.08    1.13
  -3  -7  -3   36.30    1.28
  -3  -7  -3   35.76    1.16
  -3  -7  -3   35.16    1.14
   3   7   3   37.69    1.01
  -4  -7  -3   39.06    1.35
  -4  -7  -3   41.00    1.32
  -4  -7  -3   39.37    1.18
  -4  -7  -3   40.20    1.29
  -4  -7  -3   39.14    1.23
   4   7   3   37.94    1.12
  -5  -7  -3   51.70    1.74
   5   7   3   56.22    1.53
  -6  -7  -3    0.98    0.38
   6   7   3    0.59    0.23
   5  -8  -3   11.33    0.74
   5  -8  -3   10.76    0.81
   4  -8  -3   15.27    0.75
   4  -8  -3   13.58    0.83
   3  -8  -3   85.70    2.15
   3  -8  -3   86.90    2.27
   3  -8  -3   85.01    2.68
  -3   8   3   84.27    2.12
   2  -8  -3    5.02    0.45
   2  -8  -3    6.44    0.49
   2  -8  -3    6.32    0.67
   2  -8  -3    5.38    0.35
   2  -8  -3    5.62    0.54
   2  -8  -3    6.10    0.35
  -2   8   3    6.14    0.41
   1  -8  -3  157.43    3.55
   1  -8  -3  162.76    3.45
   1  -8  -3  160.48    3.73
   1  -8  -3  159.42    3.17
   1  -8  -3  157.27    3.19
  -1   8   3  163.08    3.34
   0  -8  -3   39.14    0.93
   0  -8  -3   40.02    1.17
   0  -8  -3   40.11    1.35
   0  -8  -3   39.82    0.95
   0  -8  -3   39.63    1.12
   0  -8  -3   39.37    1.23
   0  -8  -3   39.59    1.13
   0   8   3   40.13    1.05
  -1  -8  -3    5.21    0.42
  -1  -8  -3    5.23    0.25
  -1  -8  -3    5.58    0.37
  -1  -8  -3    5.11    0.47
  -1  -8  -3    6.15    0.42
  -1  -8  -3    5.54    0.39
   1   8   3    6.35    0.32
  -2  -8  -3  187.37    4.06
  -2  -8  -3  186.57    4.23
  -2  -8  -3  189.19    3.97
  -2  -8  -3  190.01    4.03
  -2  -8  -3  192.48    3.99
   2   8   3  193.76    3.81
  -3  -8  -3   34.95    1.17
  -3  -8  -3   33.79    1.11
  -3  -8  -3   34.87    0.90
  -3  -8  -3   34.65    0.88
  -3  -8  -3   33.62    1.17
   3   8   3   33.76    0.98
  -4  -8  -3   58.74    1.77
  -4  -8  -3   56.22    1.65
  -4  -8  -3   59.30    1.63
  -4  -8  -3   56.56    1.70
  -4  -8  -3   60.27    1.83
   4   8   3   57.76    1.51
  -5  -8  -3   16.45    0.95
   5   8   3   17.98    0.77
  -6  -8  -3    0.88    0.37
   6   8   3    0.96    0.28
   5  -9  -3    7.44    0.73
   5  -9  -3    6.13    0.78
   4  -9  -3   18.34    0.99
   4  -9  -3   20.00    1.01
   3  -9  -3   48.49    1.58
   3  -9  -3   47.71    2.02
  -3   9   3   49.25    1.47
   2  -9  -3    0.74    0.25
   2  -9  -3    0.79    0.26
   2  -9  -3    0.49    0.26
   2  -9  -3    1.10    0.43
  -2   9   3    0.68    0.20
  -2   9   3    0.52    0.22
   1  -9  -3   70.41    1.62
   1  -9  -3   71.75    1.65
   1  -9  -3   76.70    2.42
   1  -9  -3   74.63    1.89
   1  -9  -3   78.90    2.77
   1  -9  -3   72.48    1.89
   1  -9  -3   72.64    1.84
  -1   9   3   72.58    1.79
   0  -9  -3   23.07    0.94
   0  -9  -3   23.06    0.65
   0  -9  -3   22.78    1.03
   0  -9  -3   23.79    0.90
   0  -9  -3   22.50    0.83
   0  -9  -3   24.85    0.87
   0   9   3   22.18    0.74
  -1  -9  -3   65.77    1.85
  -1  -9  -3   67.29    2.01
  -1  -9  -3   68.91    1.79
  -1  -9  -3   68.43    1.74
   1   9   3   69.05    1.60
  -2  -9  -3   89.24    2.28
  -2  -9  -3   90.66    2.23
  -2  -9  -3   93.48    2.23
   2   9   3   93.38    2.06
  -3  -9  -3    3.79    0.28
  -3  -9  -3    3.18    0.27
  -3  -9  -3    4.04    0.48
  -3  -9  -3    4.13    0.46
  -3  -9  -3    3.76    0.46
   3   9   3    4.45    0.33
  -4  -9  -3   63.16    1.91
  -4  -9  -3   62.07    1.81
  -4  -9  -3   61.56    1.86
   4   9   3   62.73    1.63
  -5  -9  -3   31.34    1.24
  -5  -9  -3   27.81    1.27
  -5  -9  -3   27.81    1.14
   5   9   3   26.13    1.00
   4 -10  -3   17.31    1.02
   3 -10  -3   24.33    1.49
   3 -10  -3   25.50    1.12
  -3  10   3   24.77    1.01
   2 -10  -3   18.71    0.91
   2 -10  -3   18.40    1.23
  -2  10   3   18.88    0.81
  -2  10   3   18.08    0.80
   1 -10  -3   56.42    1.38
   1 -10  -3   56.40    1.41
   1 -10  -3   59.66    1.68
   1 -10  -3   58.64    1.66
   1 -10  -3   60.37    1.62
  -1  10   3   59.69    1.57
   0 -10  -3   17.17    0.58
   0 -10  -3   17.71    0.57
   0 -10  -3   16.83    0.75
   0 -10  -3   18.24    0.79
   0 -10  -3   16.99    0.81
   0  10   3   17.92    0.68
  -1 -10  -3   71.40    1.85
  -1 -10  -3   69.33    1.89
   1  10   3   68.36    1.67
  -2 -10  -3   60.03    1.74
  -2 -10  -3   58.97    1.68
   2  10   3   57.63    1.49
  -3 -10  -3   17.77    0.84
  -3 -10  -3   16.75    0.86
  -3 -10  -3   17.22    0.85
   3  10   3   16.50    0.68
  -4 -10  -3   65.63    1.97
  -4 -10  -3   63.11    1.96
  -4 -10  -3   62.14    1.88
   4  10   3   61.62    1.67
  -5 -10  -3   22.93    1.12
  -5 -10  -3   23.24    1.08
  -5 -10  -3   22.79    1.18
   5  10   3   22.23    0.93
   4 -11  -3   21.64    1.18
   3 -11  -3   25.51    1.19
  -3  11   3   24.76    1.07
   2 -11  -3   15.91    0.88
   2 -11  -3   16.31    1.22
  -2  11   3   15.15    0.76
  -2  11   3   15.79    0.77
   1 -11  -3   65.05    1.80
   1 -11  -3   65.70    1.86
   1 -11  -3   64.83    1.85
  -1  11   3   62.11    1.72
   0 -11  -3    1.39    0.31
   0 -11  -3    1.41    0.31
   0 -11  -3    1.22    0.32
   0 -11  -3    1.69    0.35
   0  11   3    1.13    0.24
  -1 -11  -3   39.52    1.30
  -1 -11  -3   39.93    1.36
   1  11   3   39.97    1.16
  -2 -11  -3   30.46    1.20
  -2 -11  -3   32.11    1.17
   2  11   3   30.65    0.98
  -3 -11  -3    2.51    0.44
  -3 -11  -3    3.49    0.49
   3  11   3    2.49    0.33
  -4 -11  -3   31.21    1.34
  -4 -11  -3   31.38    1.28
  -4 -11  -3   32.27    1.33
   4  11   3   32.66    1.11
   3 -12  -3    4.23    0.67
  -3  12   3    2.88    0.45
   2 -12  -3   10.59    0.77
   2 -12  -3    9.31    0.67
   2 -12  -3    9.98    1.09
   2 -12  -3    9.82    0.73
  -2  12   3    9.99    0.65
  -2  12   3   10.23    0.66
   1 -12  -3   36.68    1.30
   1 -12  -3   37.25    1.36
   1 -12  -3   37.17    1.73
   1 -12  -3   37.89    1.36
  -1  12   3   35.65    1.23
   0 -12  -3    0.29    0.21
   0 -12  -3    0.38    0.23
   0  12   3    0.14    0.16
  -1 -12  -3   53.78    1.66
  -1 -12  -3   54.25    1.71
   1  12   3   53.27    1.49
  -2 -12  -3    9.51    0.70
  -2 -12  -3    8.57    0.64
   2  12   3    8.09    0.50
  -3 -12  -3    9.94    0.75
  -3 -12  -3   10.34    0.72
   3  12   3    9.47    0.57
  -4 -12  -3   31.22    1.39
  -4 -12  -3   32.57    1.35
   4  12   3   31.45    1.14
   2 -13  -3   25.22    1.13
   2 -13  -3   26.74    1.23
   2 -13  -3   26.39    1.25
  -2  13   3   26.74    1.14
  -2  13   3   26.41    1.13
   1 -13  -3   24.66    1.13
   1 -13  -3   22.80    1.05
   1 -13  -3   20.78    1.03
  -1  13   3   20.17    0.93
   0 -13  -3    6.25    0.70
   0 -13  -3    6.70    0.67
   0  13   3    5.61    0.47
  -1 -13  -3   50.87    1.66
  -1 -13  -3   49.85    1.70
   1  13   3   49.38    1.48
  -2 -13  -3    4.76    0.64
  -2 -13  -3    3.86    0.55
   2  13   3    3.75    0.45
  -3 -13  -3   24.69    1.16
  -3 -13  -3   23.11    1.19
   3  13   3   24.97    0.97
   1 -14  -3   14.89    0.94
   1 -14  -3   15.24    0.90
  -1  14   3   14.43    0.81
   0 -14  -3   16.52    0.98
   0 -14  -3   16.55    0.92
   0  14   3   16.72    0.83
  -1 -14  -3   25.21    1.20
  -1 -14  -3   24.11    1.13
   1  14   3   24.73    1.00
  -1 -11   4   21.94    1.12
  -1 -11   4   23.28    1.09
   0  11  -4    2.30    0.24
   0 -11   4    2.68    0.49
   0 -11   4    2.79    0.51
  -1  11  -4   15.07    0.63
   1 -11   4   15.03    0.94
   1 -11   4   15.34    0.89
  -2  11  -4   26.10    0.98
   2 -11   4   27.45    1.21
   3  10  -4   12.29    0.51
  -3 -10   4   11.27    0.88
  -3 -10   4   11.01    0.81
  -2 -10   4    7.84    0.87
  -2 -10   4    7.97    0.85
  -1 -10   4   48.94    1.65
  -1 -10   4   46.19    1.56
   0 -10   4    0.68    0.32
   0 -10   4    0.00    0.19
  -1  10  -4   21.00    0.69
   1 -10   4   20.84    0.96
  -2  10  -4   14.08    0.64
   2 -10   4   14.60    0.85
  -3  10  -4    5.87    0.49
   3 -10   4    5.66    0.69
   3   9  -4    9.73    0.43
  -3  -9   4    9.23    0.67
  -3  -9   4    8.74    0.71
  -3  -9   4    9.30    1.09
  -2  -9   4   21.65    1.04
  -2  -9   4   24.17    1.04
  -1  -9   4   41.46    1.39
  -1  -9   4   40.48    1.43
   0  -9   4    0.40    0.24
   0  -9   4    0.11    0.15
  -1   9  -4   50.80    1.19
   1  -9   4   51.87    1.57
  -2   9  -4   12.83    0.57
   2  -9   4   12.77    0.77
  -3   9  -4   13.80    0.69
   3  -9   4   15.00    0.87
  -4   9  -4   36.83    1.33
   4  -9   4   36.18    1.46
   4   8  -4   32.99    1.00
  -4  -8   4   33.08    1.39
   3   8  -4    2.04    0.23
  -3  -8   4    2.11    0.42
  -3  -8   4    2.00    0.41
  -3  -8   4    1.99    0.38
  -2  -8   4   38.56    1.30
  -2  -8   4   35.55    1.26
  -2  -8   4   35.80    1.30
  -1  -8   4   24.54    0.99
  -1  -8   4   26.55    1.07
   0  -8   4    5.18    0.58
   0  -8   4    5.75    0.61
   0  -8   4    5.02    0.56
   1  -8   4   81.14    2.08
  -2   8  -4    7.06    0.39
   2  -8   4    6.52    0.54
  -3   8  -4   26.30    0.94
   3  -8   4   27.04    1.29
   3  -8   4   24.72    1.08
  -4   8  -4   10.03    0.62
   4  -8   4    8.98    0.70
  -5   8  -4    0.25    0.21
   5  -8   4    0.22    0.31
   4   7  -4   23.19    0.79
  -4  -7   4   24.70    1.14
   3   7  -4    1.09    0.16
  -3  -7   4    1.04    0.32
  -3  -7   4    1.28    0.31
  -3  -7   4    1.27    0.32
  -2  -7   4   68.84    1.91
  -2  -7   4   70.70    1.96
  -2  -7   4   77.38    1.99
  -1  -7   4   40.06    1.33
  -1  -7   4   40.49    1.30
  -1  -7   4   39.97    1.28
   0  -7   4   34.14    1.30
   0  -7   4   34.64    1.06
   0  -7   4   34.10    1.18
   1  -7   4   64.46    1.95
   1  -7   4   64.45    1.81
   1  -7   4   64.64    1.72
  -2   7  -4    1.30    0.19
   2  -7   4    1.54    0.33
  -3   7  -4   49.71    1.36
   3  -7   4   50.60    1.76
   3  -7   4   49.77    1.57
  -4   7  -4   24.72    0.96
   4  -7   4   24.28    1.08
   4  -7   4   25.33    1.34
  -5   7  -4   15.46    0.82
   5  -7   4   16.06    0.93
   5   6  -4   13.07    0.64
  -5  -6   4   14.18    0.92
   4   6  -4   35.28    1.02
  -4  -6   4   36.07    1.38
   3   6  -4    0.62    0.12
  -3  -6   4    0.67    0.25
  -3  -6   4    0.40    0.20
  -3  -6   4    0.67    0.20
  -3  -6   4    1.48    0.32
  -3  -6   4    1.18    0.29
  -2  -6   4   95.20    2.33
  -2  -6   4   95.02    2.32
  -2  -6   4   94.36    2.28
  -2  -6   4   97.41    2.36
  -2  -6   4   94.44    2.17
  -1  -6   4   27.21    0.82
  -1  -6   4   26.99    1.00
  -1  -6   4   27.75    0.92
  -1  -6   4   26.81    0.95
  -1  -6   4   27.81    1.12
  -1  -6   4   28.65    0.94
  -1  -6   4   27.55    0.99
   0  -6   4   59.93    1.77
   0  -6   4   63.12    1.56
   0  -6   4   62.76    1.66
   1  -6   4   70.04    1.77
   1  -6   4   70.86    1.96
   1  -6   4   70.32    1.83
  -2   6  -4    0.73    0.13
   2  -6   4    0.19    0.17
   2  -6   4    0.05    0.16
   2  -6   4    0.25    0.19
  -3   6  -4   60.34    1.53
   3  -6   4   64.39    1.94
   3  -6   4   58.22    1.70
  -4   6  -4   37.79    1.19
   4  -6   4   35.98    1.31
   4  -6   4   36.78    1.57
  -5   6  -4    9.16    0.60
   5  -6   4   11.71    1.00
   5  -6   4   10.56    0.74
   6  -6   4   17.77    1.02
   5   5  -4   25.19    0.92
  -5  -5   4   25.35    1.19
   4   5  -4   37.45    1.05
  -4  -5   4   38.14    1.38
   3   5  -4   13.48    0.45
  -3  -5   4   14.09    0.66
  -3  -5   4   15.36    0.76
  -3  -5   4   14.77    0.75
  -3  -5   4   13.67    0.64
  -3  -5   4   13.89    0.63
  -2  -5   4   71.76    1.72
  -2  -5   4   72.84    1.77
  -2  -5   4   70.04    1.80
  -2  -5   4   73.15    2.05
  -2  -5   4   72.79    1.86
  -2  -5   4   71.81    1.90
  -2  -5   4   70.88    1.85
  -1  -5   4    1.06    0.23
  -1  -5   4    1.00    0.18
  -1  -5   4    1.39    0.24
  -1  -5   4    1.28    0.23
  -1  -5   4    1.35    0.30
  -1  -5   4    0.81    0.21
  -1  -5   4    0.92    0.21
  -1  -5   4    1.14    0.21
   0   5  -4   85.03    1.88
   0   5  -4   82.83    1.82
   0   5  -4   84.48    1.94
   0  -5   4   79.53    1.90
   0  -5   4   81.82    1.97
   0  -5   4   83.43    1.87
   0  -5   4   84.14    1.90
   0  -5   4   80.75    2.08
   0  -5   4   81.31    1.80
  -1   5  -4  142.01    3.01
  -1   5  -4  143.28    2.90
   1  -5   4  147.43    3.24
   1  -5   4  142.52    3.08
   1  -5   4  141.96    2.92
   1  -5   4  140.77    3.05
   1  -5   4  141.43    3.04
  -2   5  -4   16.19    0.50
   2  -5   4   14.63    0.64
   2  -5   4   15.45    0.73
   2  -5   4   16.41    0.69
  -3   5  -4   91.57    2.07
   3  -5   4   93.65    2.28
   3  -5   4   92.53    2.45
  -4   5  -4    2.00    0.29
   4  -5   4    2.21    0.47
   4  -5   4    1.76    0.35
  -5   5  -4   14.47    0.73
   5  -5   4   15.15    1.06
   5  -5   4   13.86    0.80
   6  -5   4   18.71    1.00
   5   4  -4   64.54    1.70
  -5  -4   4   62.79    1.99
   4   4  -4   21.19    0.73
  -4  -4   4   22.48    0.99
   3   4  -4   60.17    1.35
  -3  -4   4   61.88    1.65
  -3  -4   4   60.29    1.59
  -3  -4   4   61.72    1.59
  -3  -4   4   61.32    1.73
  -3  -4   4   61.89    1.73
   2   4  -4  136.51    3.04
   2   4  -4  139.01    3.20
  -2  -4   4  137.44    2.90
  -2  -4   4  136.94    3.19
  -2  -4   4  137.08    3.02
  -2  -4   4  133.66    3.03
  -2  -4   4  136.97    2.92
  -2  -4   4  136.32    3.04
  -2  -4   4  134.35    2.87
   1   4  -4    0.24    0.12
  -1  -4   4    0.20    0.13
  -1  -4   4    0.11    0.12
  -1  -4   4    0.22    0.10
  -1  -4   4    0.18    0.11
  -1  -4   4    0.27    0.11
  -1  -4   4    0.20    0.12
  -1  -4   4    0.09    0.11
   0   4  -4  173.15    3.48
   0   4  -4  178.13    3.58
   0   4  -4  175.26    3.46
   0  -4   4  170.14    3.64
   0  -4   4  167.65    3.52
   0  -4   4  172.89    3.55
   0  -4   4  169.87    3.43
   0  -4   4  169.53    3.47
   0  -4   4  171.20    3.47
  -1   4  -4   63.39    1.41
  -1   4  -4   61.46    1.43
  -1   4  -4   60.86    1.52
   1  -4   4   63.48    1.61
   1  -4   4   63.30    1.51
   1  -4   4   60.16    1.50
  -2   4  -4   55.50    1.41
  -2   4  -4   53.86    1.21
  -2   4  -4   57.50    1.31
   2  -4   4   52.02    1.45
   2  -4   4   54.16    1.42
   2  -4   4   53.51    1.37
  -3   4  -4  124.42    2.74
  -3   4  -4  120.27    2.62
  -3   4  -4  123.95    2.62
   3  -4   4  124.10    2.81
   3  -4   4  127.98    3.00
  -4   4  -4    0.69    0.18
   4  -4   4    0.75    0.29
   4  -4   4    0.90    0.26
  -5   4  -4   55.56    1.58
   5  -4   4   53.81    1.66
   5  -4   4   53.11    1.98
   6  -4   4   28.33    1.18
   6   3  -4    8.49    0.59
  -6  -3   4    8.78    0.76
   5   3  -4   45.09    1.32
  -5  -3   4   43.04    1.55
   4   3  -4    1.40    0.22
  -4  -3   4    2.40    0.38
   3   3  -4   66.25    1.49
   3   3  -4   69.83    1.96
   3   3  -4   67.32    1.81
  -3  -3   4   67.41    1.81
  -3  -3   4   68.49    1.70
  -3  -3   4   68.00    1.85
   2   3  -4  177.01    3.70
   2   3  -4  177.32    3.72
   2   3  -4  176.99    3.84
  -2  -3   4  171.63    3.50
  -2  -3   4  176.49    3.73
  -2  -3   4  174.83    3.54
  -2  -3   4  174.40    3.70
  -2  -3   4  176.68    3.59
   1   3  -4    3.27    0.27
   1   3  -4    3.56    0.29
   1   3  -4    3.62    0.31
  -1  -3   4    3.85    0.27
  -1  -3   4    3.62    0.33
  -1  -3   4    4.33    0.33
  -1  -3   4    3.33    0.26
  -1  -3   4    3.64    0.28
  -1  -3   4    3.17    0.28
  -1  -3   4    3.86    0.29
   0   3  -4  286.06    5.55
   0   3  -4  288.46    5.67
   0   3  -4  291.77    5.58
   0  -3   4  286.87    5.57
   0  -3   4  292.79    5.68
   0  -3   4  287.65    5.55
   0  -3   4  290.77    5.67
  -1   3  -4    3.04    0.26
  -1   3  -4    2.33    0.27
  -1   3  -4    2.98    0.22
  -1   3  -4    2.59    0.26
  -1   3  -4    2.89    0.22
   1  -3   4    2.92    0.25
   1  -3   4    2.94    0.23
   1  -3   4    2.73    0.23
  -2   3  -4   91.74    1.91
  -2   3  -4   84.21    1.83
  -2   3  -4   92.88    2.06
  -2   3  -4   93.19    1.95
   2  -3   4   87.98    2.06
   2  -3   4   91.37    2.04
   2  -3   4   93.33    1.96
   2  -3   4   90.47    2.05
  -3   3  -4  111.58    2.40
  -3   3  -4  112.30    2.53
  -3   3  -4  108.48    2.39
   3  -3   4  111.62    2.72
   3  -3   4  117.23    2.79
   3  -3   4  121.71    2.68
   3  -3   4  111.11    2.54
  -4   3  -4    0.88    0.21
  -4   3  -4    0.77    0.22
  -4   3  -4    0.62    0.18
   4  -3   4    0.77    0.23
   4  -3   4    0.75    0.33
  -5   3  -4   73.23    2.01
  -5   3  -4   76.14    2.21
  -5   3  -4   81.29    2.02
   5  -3   4   81.20    2.10
   5  -3   4   83.93    2.53
   6  -3   4    7.08    0.57
   6   2  -4    6.55    0.53
  -6  -2   4    7.88    0.71
   5   2  -4   40.47    1.22
  -5  -2   4   37.84    1.41
   4   2  -4    0.16    0.12
  -4  -2   4    0.40    0.17
  -4  -2   4    0.37    0.21
  -4  -2   4    0.00    0.16
   3   2  -4  116.39    2.41
   3   2  -4  120.80    2.88
   3   2  -4  117.96    2.71
  -3  -2   4  113.82    2.69
  -3  -2   4  116.61    2.75
  -3  -2   4  116.31    2.59
   2   2  -4   40.58    1.18
   2   2  -4   39.90    1.14
   2   2  -4   41.68    1.25
  -2  -2   4   41.74    1.20
  -2  -2   4   42.28    1.01
  -2  -2   4   41.39    0.98
  -2  -2   4   40.28    1.16
  -2  -2   4   40.82    1.09
   1   2  -4   84.41    1.94
   1   2  -4   81.53    1.83
   1   2  -4   81.39    1.92
   1   2  -4   81.88    1.82
   1   2  -4   83.48    1.89
  -1  -2   4   81.15    1.87
  -1  -2   4   83.21    1.75
  -1  -2   4   82.88    1.91
  -1  -2   4   84.00    1.78
  -1  -2   4   82.15    1.81
   0   2  -4  206.92    4.19
   0   2  -4  208.01    4.30
   0   2  -4  222.16    4.23
   0  -2   4  215.39    4.23
   0  -2   4  218.18    4.33
   0  -2   4  216.32    4.16
   0  -2   4  216.46    4.16
   0  -2   4  213.11    4.23
   0  -2   4  220.07    4.21
  -1   2  -4   41.60    1.01
  -1   2  -4   40.05    1.09
  -1   2  -4   39.36    0.91
  -1   2  -4   40.94    1.00
  -1   2  -4   39.25    0.96
   1  -2   4   41.34    1.01
   1  -2   4   40.39    0.95
  -2   2  -4  124.22    2.53
  -2   2  -4  127.73    2.60
  -2   2  -4  126.87    2.54
  -2   2  -4  131.99    2.74
  -2   2  -4  133.75    2.63
  -2   2  -4  129.40    2.63
   2  -2   4  129.36    2.76
   2  -2   4  129.48    2.72
   2  -2   4  129.71    2.62
   2  -2   4  129.09    2.55
  -3   2  -4   87.71    2.03
  -3   2  -4   85.30    1.90
  -3   2  -4   87.38    1.89
  -3   2  -4   86.39    1.91
   3  -2   4   88.71    2.01
   3  -2   4   84.78    1.90
   3  -2   4   84.06    1.83
   3  -2   4   87.72    2.20
  -4   2  -4   21.83    0.77
  -4   2  -4   21.13    0.77
   4  -2   4   22.27    1.03
   4  -2   4   22.64    0.68
   4  -2   4   22.42    0.82
  -5   2  -4   69.13    1.81
  -5   2  -4   69.44    1.80
  -5   2  -4   71.28    1.99
   5  -2   4   68.62    1.76
   5  -2   4   69.63    1.85
  -6   2  -4    2.38    0.31
   6  -2   4    1.31    0.31
   6   1  -4    9.15    0.61
  -6  -1   4    9.50    0.74
   5   1  -4   43.81    1.30
  -5  -1   4   42.14    1.46
   4   1  -4    1.58    0.25
  -4  -1   4    1.72    0.30
  -4  -1   4    1.05    0.26
  -4  -1   4    1.16    0.28
  -4  -1   4    0.76    0.18
  -4  -1   4    0.78    0.18
   3   1  -4  155.92    3.49
   3   1  -4  149.64    3.31
   3   1  -4  158.49    3.10
  -3  -1   4  153.32    3.24
  -3  -1   4  149.14    3.38
  -3  -1   4  151.15    3.33
   2   1  -4   16.02    0.68
   2   1  -4   17.24    0.62
   2   1  -4   17.34    0.65
   2   1  -4   16.07    0.45
  -2  -1   4   15.76    0.62
  -2  -1   4   16.11    0.48
  -2  -1   4   15.73    0.58
  -2  -1   4   16.59    0.47
  -2  -1   4   16.26    0.66
   1   1  -4  131.29    2.75
   1   1  -4  131.16    2.68
   1   1  -4  130.48    2.81
   1   1  -4  130.42    2.70
   1   1  -4  131.38    2.77
  -1  -1   4  129.93    2.78
  -1  -1   4  133.55    2.69
   0   1  -4  251.43    4.82
   0   1  -4  252.23    4.76
   0   1  -4  250.27    4.96
   0   1  -4  253.59    4.87
   0   1  -4  246.94    4.85
   0  -1   4  251.51    4.76
   0  -1   4  255.33    4.98
   0  -1   4  256.00    4.87
   0  -1   4  252.09    4.82
  -1   1  -4    5.44    0.19
  -1   1  -4    5.55    0.29
  -1   1  -4    5.32    0.21
  -1   1  -4    5.55    0.32
  -1   1  -4    6.14    0.29
   1  -1   4    5.28    0.21
  -2   1  -4  230.08    4.53
  -2   1  -4  218.80    4.31
  -2   1  -4  232.61    4.44
  -2   1  -4  225.90    4.34
  -2   1  -4  227.82    4.42
   2  -1   4  231.42    4.57
   2  -1   4  233.60    4.48
  -3   1  -4   29.97    0.84
  -3   1  -4   32.81    0.99
  -3   1  -4   30.93    0.87
  -3   1  -4   30.27    0.79
  -3   1  -4   31.58    0.89
  -3   1  -4   32.18    0.89
   3  -1   4   33.50    0.94
   3  -1   4   32.62    0.80
   3  -1   4   33.20    1.10
   3  -1   4   31.91    0.85
  -4   1  -4   30.79    0.94
  -4   1  -4   30.27    0.94
  -4   1  -4   29.15    1.03
  -4   1  -4   29.90    0.93
  -4   1  -4   29.58    0.78
   4  -1   4   29.90    0.89
   4  -1   4   30.39    1.19
   4  -1   4   30.67    0.83
   4  -1   4   29.01    0.94
  -5   1  -4   37.21    1.17
  -5   1  -4   36.66    1.30
  -5   1  -4   35.98    0.98
   5  -1   4   36.34    1.11
  -6   1  -4    1.79    0.30
   6  -1   4    1.64    0.33
  -7   1  -4   33.04    1.06
   7  -1   4   32.24    1.19
   7  -1   4   32.97    1.19
   6   0  -4   46.09    1.48
  -6   0   4   46.79    1.65
   5   0  -4   37.97    1.21
  -5   0   4   39.79    1.37
   4   0  -4   26.03    0.84
  -4   0   4   23.63    0.87
  -4   0   4   23.78    0.73
  -4   0   4   25.64    0.97
  -4   0   4   24.02    0.99
  -4   0   4   24.55    0.72
   3   0  -4  128.43    2.79
   3   0  -4  125.93    2.71
   3   0  -4  127.01    2.92
   3   0  -4  125.57    2.57
  -3   0   4  120.96    2.44
  -3   0   4  118.48    2.73
  -3   0   4  118.24    2.80
  -3   0   4  122.65    2.46
  -3   0   4  119.71    2.66
   2   0  -4   66.17    1.38
   2   0  -4   65.66    1.64
   2   0  -4   64.60    1.54
   2   0  -4   63.21    1.56
  -2   0   4   59.62    1.56
  -2   0   4   60.74    1.53
  -2   0   4   62.32    1.48
   1   0  -4  158.83    3.23
   1   0  -4  160.21    3.24
   1   0  -4  161.53    3.19
   1   0  -4  162.85    3.31
   1   0  -4  158.36    3.16
  -1   0   4  152.71    3.26
  -1   0   4  156.58    3.16
   0   0  -4  251.06    4.90
   0   0  -4  257.01    4.83
   0   0  -4  254.24    5.01
   0   0  -4  261.76    4.94
   0   0  -4  255.31    4.78
   0   0   4  253.04    4.78
   0   0   4  256.84    4.92
   0   0   4  256.93    4.83
  -1   0  -4  102.93    2.12
  -1   0  -4  100.79    2.09
  -1   0  -4  102.14    2.18
  -2   0  -4  380.89    7.01
  -2   0  -4  375.38    7.09
  -2   0  -4  370.47    7.06
  -2   0  -4  372.10    7.16
   2   0   4  376.96    7.23
  -3   0  -4   64.50    1.63
  -3   0  -4   62.79    1.37
  -3   0  -4   64.53    1.45
  -3   0  -4   64.48    1.54
  -3   0  -4   65.31    1.50
  -3   0  -4   64.87    1.52
  -3   0  -4   64.04    1.40
   3   0   4   65.15    1.45
   3   0   4   64.63    1.46
   3   0   4   66.05    1.39
   3   0   4   66.24    1.40
   3   0   4   67.42    1.52
   3   0   4   67.36    1.76
  -4   0  -4   80.98    1.89
  -4   0  -4   79.54    2.04
  -4   0  -4   80.31    1.74
  -4   0  -4   82.10    1.94
  -4   0  -4   80.39    1.90
   4   0   4   80.38    2.21
   4   0   4   78.98    1.83
   4   0   4   81.26    1.75
   4   0   4   79.22    1.86
  -5   0  -4   90.40    2.22
  -5   0  -4   89.01    2.38
  -5   0  -4   92.30    2.05
  -5   0  -4   94.13    2.27
   5   0   4   90.30    2.12
   5   0   4   90.40    2.01
  -6   0  -4    3.25    0.39
   6   0   4    3.44    0.43
   6   0   4    3.16    0.41
  -7   0  -4   22.50    0.89
   7   0   4   22.38    0.94
  -6   1   4   40.01    1.59
   5  -1  -4   25.23    0.93
  -5   1   4   25.85    1.05
   4  -1  -4   31.62    0.98
  -4   1   4   33.07    0.88
  -4   1   4   31.00    1.08
  -4   1   4   31.81    0.90
  -4   1   4   32.97    1.03
  -4   1   4   31.50    1.14
   3  -1  -4  130.85    2.69
   3  -1  -4  129.94    2.86
   3  -1  -4  131.09    3.00
   3  -1  -4  129.73    2.84
   3  -1  -4  129.91    2.72
  -3   1   4  127.62    2.56
  -3   1   4  127.57    2.58
  -3   1   4  125.57    2.88
  -3   1   4  126.31    2.82
  -3   1   4  126.59    2.74
   2  -1  -4    9.53    0.49
   2  -1  -4    8.95    0.43
   2  -1  -4   10.00    0.46
   2  -1  -4    8.61    0.35
  -2   1   4    9.46    0.41
  -2   1   4    9.30    0.46
  -2   1   4    9.79    0.45
   1  -1  -4  353.00    6.60
   1  -1  -4  347.36    6.65
   1  -1  -4  353.69    6.71
   1  -1  -4  352.22    6.65
   1  -1  -4  345.54    6.57
   1  -1  -4  315.56    6.63
  -1   1   4  345.20    6.68
  -1   1   4  344.80    6.57
  -1   1   4  375.89    6.83
   0  -1  -4  163.95    3.19
   0  -1  -4  164.48    3.15
   0  -1  -4  165.94    3.37
   0  -1  -4  169.51    3.31
   0  -1  -4  166.23    3.27
   0   1   4  164.53    3.15
   0   1   4  167.40    3.19
  -1  -1  -4   77.95    1.72
  -1  -1  -4   77.55    1.64
  -1  -1  -4   79.92    1.70
  -2  -1  -4  229.63    4.41
  -2  -1  -4  222.85    4.32
  -2  -1  -4  229.85    4.36
  -2  -1  -4  224.59    4.23
  -2  -1  -4  226.55    4.45
   2   1   4  224.86    4.23
   2   1   4  221.38    4.52
  -3  -1  -4   33.33    0.88
  -3  -1  -4   31.67    0.99
  -3  -1  -4   33.13    0.96
  -3  -1  -4   33.75    0.82
  -3  -1  -4   32.92    0.76
  -3  -1  -4   33.18    0.90
  -3  -1  -4   32.40    0.91
  -3  -1  -4   32.04    0.81
   3   1   4   32.80    0.80
   3   1   4   33.90    0.87
   3   1   4   33.30    0.81
   3   1   4   33.41    0.86
   3   1   4   33.86    0.87
  -4  -1  -4  115.39    2.56
  -4  -1  -4  117.63    2.63
  -4  -1  -4  116.59    2.53
  -4  -1  -4  115.76    2.32
  -4  -1  -4  116.09    2.34
  -4  -1  -4  115.80    2.42
  -4  -1  -4  111.44    2.69
   4   1   4  116.52    2.38
   4   1   4  116.16    2.81
   4   1   4  117.08    2.48
  -5  -1  -4   97.23    2.39
  -5  -1  -4   95.97    2.50
  -5  -1  -4   94.68    2.30
  -5  -1  -4   98.13    2.14
   5   1   4   95.79    2.18
   5   1   4   92.39    2.05
   5   1   4   93.80    2.08
   5   1   4   96.22    2.20
  -6  -1  -4    2.69    0.37
  -6  -1  -4    2.39    0.42
   6   1   4    3.15    0.39
  -7  -1  -4   27.57    1.01
   7   1   4   28.08    1.03
   5  -2  -4    3.67    0.41
  -5   2   4    3.91    0.47
   4  -2  -4   54.40    1.55
   4  -2  -4   54.65    1.43
  -4   2   4   52.64    1.50
  -4   2   4   52.18    1.43
  -4   2   4   55.70    1.30
  -4   2   4   53.73    1.32
  -4   2   4   53.62    1.58
   3  -2  -4  144.14    3.21
   3  -2  -4  157.57    3.19
   3  -2  -4  161.52    3.36
   3  -2  -4  159.87    3.50
   3  -2  -4  154.24    3.02
   3  -2  -4  153.92    3.29
  -3   2   4  155.00    3.21
  -3   2   4  155.56    3.28
  -3   2   4  154.26    3.08
  -3   2   4  156.92    3.06
  -3   2   4  155.14    3.35
  -3   2   4  153.29    3.15
   2  -2  -4   56.30    1.38
   2  -2  -4   54.24    1.34
   2  -2  -4   57.21    1.29
   2  -2  -4   55.23    1.47
   2  -2  -4   52.21    1.39
   2  -2  -4   56.74    1.38
  -2   2   4   55.52    1.39
  -2   2   4   56.25    1.20
  -2   2   4   54.22    1.35
  -2   2   4   56.20    1.30
  -2   2   4   56.77    1.19
   1  -2  -4  249.38    4.99
   1  -2  -4  255.71    4.95
   1  -2  -4  266.83    4.95
   1  -2  -4  261.16    5.01
   1  -2  -4  262.15    5.05
   1  -2  -4  248.61    4.87
   1  -2  -4  255.59    5.03
  -1   2   4  260.11    4.93
  -1   2   4  260.08    4.81
  -1   2   4  260.39    5.02
  -1   2   4  260.61    4.80
   0  -2  -4   82.89    1.83
   0  -2  -4   88.86    1.81
   0  -2  -4   82.43    1.71
   0  -2  -4   83.42    1.75
   0  -2  -4   81.22    1.66
   0   2   4   83.73    1.60
   0   2   4   79.31    1.59
   0   2   4   85.53    1.61
   0   2   4   83.34    1.72
   0   2   4   82.87    1.67
   0   2   4   79.72    1.60
  -1  -2  -4  115.64    2.34
  -1  -2  -4  115.57    2.26
  -1  -2  -4  114.86    2.33
  -1  -2  -4  109.67    2.14
   1   2   4  110.55    2.16
   1   2   4  109.69    2.16
   1   2   4  114.70    2.18
  -2  -2  -4  264.74    4.84
  -2  -2  -4  257.90    4.88
  -2  -2  -4  260.34    4.84
  -2  -2  -4  260.71    5.08
  -2  -2  -4  258.63    4.88
  -2  -2  -4  253.14    4.89
  -2  -2  -4  266.78    4.85
  -2  -2  -4  263.13    5.06
  -2  -2  -4  262.06    4.98
  -2  -2  -4  256.28    4.85
   2   2   4  260.73    4.88
   2   2   4  257.04    4.87
  -3  -2  -4   64.84    1.35
  -3  -2  -4   64.19    1.57
  -3  -2  -4   62.22    1.49
  -3  -2  -4   62.36    1.41
  -3  -2  -4   63.32    1.60
  -3  -2  -4   64.03    1.48
  -3  -2  -4   64.53    1.41
  -3  -2  -4   63.56    1.48
  -3  -2  -4   65.49    1.36
   3   2   4   63.16    1.43
   3   2   4   63.50    1.45
   3   2   4   62.43    1.36
   3   2   4   64.03    1.47
   3   2   4   63.36    1.38
   3   2   4   63.75    1.40
  -4  -2  -4  142.72    3.26
  -4  -2  -4  149.57    2.93
  -4  -2  -4  146.99    3.21
  -4  -2  -4  144.83    2.98
  -4  -2  -4  147.40    2.90
  -4  -2  -4  144.04    3.11
   4   2   4  146.31    3.12
   4   2   4  146.12    2.91
   4   2   4  145.26    3.02
   4   2   4  144.35    3.00
   4   2   4  147.70    2.93
  -5  -2  -4    9.37    0.49
  -5  -2  -4    9.37    0.54
  -5  -2  -4    8.80    0.58
  -5  -2  -4    9.29    0.44
  -5  -2  -4    9.16    0.42
  -5  -2  -4    8.76    0.61
   5   2   4    8.98    0.47
  -6  -2  -4   23.87    0.88
  -6  -2  -4   22.88    1.06
   6   2   4   23.85    0.86
  -7  -2  -4   48.58    1.47
   7   2   4   46.88    1.38
  -6   3   4   35.56    1.22
   5  -3  -4    0.00    0.13
  -5   3   4    0.15    0.19
   4  -3  -4   91.82    2.18
   4  -3  -4   92.88    2.02
   4  -3  -4   92.35    2.25
  -4   3   4   94.72    2.14
  -4   3   4   93.48    2.06
  -4   3   4   93.48    2.23
  -4   3   4   94.74    2.04
  -4   3   4   95.06    2.34
  -4   3   4   94.25    2.18
   3  -3  -4   93.04    2.06
   3  -3  -4   93.04    2.33
   3  -3  -4   91.93    2.19
   3  -3  -4   92.28    1.94
   3  -3  -4   91.06    2.10
   3  -3  -4   94.53    2.14
  -3   3   4   92.58    1.94
  -3   3   4   91.05    2.04
  -3   3   4   92.95    1.96
  -3   3   4   91.15    2.17
  -3   3   4   90.09    2.09
  -3   3   4   90.22    2.01
   2  -3  -4   37.37    1.12
   2  -3  -4   36.94    1.02
   2  -3  -4   35.63    0.87
   2  -3  -4   36.73    0.99
   2  -3  -4   36.88    1.03
   2  -3  -4   36.06    0.94
   2  -3  -4   35.22    1.11
  -2   3   4   38.48    0.94
  -2   3   4   36.11    0.86
  -2   3   4   36.18    0.91
  -2   3   4   36.34    1.01
  -2   3   4   36.84    0.98
  -2   3   4   35.48    0.87
   1  -3  -4  267.61    5.25
   1  -3  -4  276.32    5.19
   1  -3  -4  271.18    5.19
   1  -3  -4  260.89    5.02
   1  -3  -4  265.77    5.10
   1  -3  -4  267.51    5.17
   1  -3  -4  263.25    5.18
   1  -3  -4  270.02    5.32
  -1   3   4  275.95    5.18
  -1   3   4  268.10    5.09
  -1   3   4  267.51    5.01
  -1   3   4  266.70    5.02
   0  -3  -4   27.14    0.59
   0  -3  -4   27.38    0.69
   0  -3  -4   26.02    0.76
   0  -3  -4   27.91    0.75
   0  -3  -4   27.04    0.73
   0  -3  -4   26.78    0.60
   0  -3  -4   26.26    0.70
   0   3   4   25.99    0.73
   0   3   4   26.43    0.62
   0   3   4   26.88    0.69
   0   3   4   27.15    0.63
  -1  -3  -4  330.75    6.09
  -1  -3  -4  325.75    6.06
  -1  -3  -4  328.80    6.04
  -1  -3  -4  325.86    6.05
  -1  -3  -4  320.61    5.97
  -1  -3  -4  330.56    6.14
  -1  -3  -4  324.38    6.03
  -1  -3  -4  330.76    6.16
  -1  -3  -4  318.08    5.98
   1   3   4  328.35    6.05
   1   3   4  328.82    6.10
   1   3   4  308.20    5.99
   1   3   4  310.85    6.00
  -2  -3  -4  272.24    5.09
  -2  -3  -4  285.95    5.16
  -2  -3  -4  266.58    5.14
  -2  -3  -4  273.10    5.32
  -2  -3  -4  285.20    5.22
  -2  -3  -4  266.20    5.21
  -2  -3  -4  274.82    5.11
  -2  -3  -4  275.58    5.32
  -2  -3  -4  265.84    5.15
  -2  -3  -4  273.56    5.22
   2   3   4  268.67    5.12
   2   3   4  270.60    5.11
   2   3   4  273.76    5.18
  -3  -3  -4   20.53    0.67
  -3  -3  -4   20.03    0.55
  -3  -3  -4   21.31    0.62
  -3  -3  -4   20.34    0.74
  -3  -3  -4   20.29    0.67
  -3  -3  -4   19.82    0.73
  -3  -3  -4   20.22    0.57
  -3  -3  -4   19.44    0.60
   3   3   4   20.25    0.56
   3   3   4   20.22    0.61
   3   3   4   20.25    0.62
   3   3   4   19.68    0.55
  -4  -3  -4  153.18    3.44
  -4  -3  -4  155.30    3.28
  -4  -3  -4  156.25    3.08
  -4  -3  -4  156.85    3.10
  -4  -3  -4  155.76    3.16
  -4  -3  -4  154.39    3.40
   4   3   4  152.30    3.32
   4   3   4  151.72    3.21
   4   3   4  151.99    3.19
   4   3   4  157.87    3.16
  -5  -3  -4   12.73    0.58
  -5  -3  -4   12.40    0.57
  -5  -3  -4   12.75    0.74
  -5  -3  -4   13.11    0.73
  -5  -3  -4   12.16    0.61
  -5  -3  -4   12.61    0.64
   5   3   4   13.70    0.57
  -6  -3  -4   66.59    1.73
  -6  -3  -4   64.24    2.01
   6   3   4   66.93    1.65
  -7  -3  -4   49.64    1.83
  -7  -3  -4   52.74    1.56
  -6   4   4   27.88    1.06
   5  -4  -4    0.29    0.18
  -5   4   4   -0.06    0.17
   4  -4  -4   64.02    1.54
   4  -4  -4   66.03    1.77
  -4   4   4   65.16    1.51
  -4   4   4   64.86    1.61
  -4   4   4   62.89    1.52
  -4   4   4   64.25    1.61
  -4   4   4   65.23    1.76
   3  -4  -4   22.36    0.70
   3  -4  -4   23.24    0.62
   3  -4  -4   22.38    0.75
   3  -4  -4   22.03    0.83
   3  -4  -4   23.29    0.86
   3  -4  -4   21.82    0.93
  -3   4   4   23.10    0.73
  -3   4   4   23.93    0.69
  -3   4   4   22.85    0.75
  -3   4   4   24.49    0.68
  -3   4   4   23.98    0.73
  -3   4   4   24.40    0.82
   2  -4  -4   33.78    0.90
   2  -4  -4   31.68    0.82
   2  -4  -4   30.71    0.95
   2  -4  -4   30.40    1.03
   2  -4  -4   31.19    1.09
   2  -4  -4   32.18    0.97
   2  -4  -4   32.61    0.87
  -2   4   4   32.62    0.79
  -2   4   4   31.73    0.85
  -2   4   4   33.41    0.90
  -2   4   4   32.18    0.82
  -2   4   4   32.05    0.80
   1  -4  -4  333.53    6.21
   1  -4  -4  333.60    6.57
   1  -4  -4  327.42    6.46
   1  -4  -4  326.12    6.22
   1  -4  -4  330.58    6.28
   1  -4  -4  336.76    6.34
   1  -4  -4  332.90    6.36
  -1   4   4  331.79    6.18
  -1   4   4  336.40    6.20
  -1   4   4  335.25    6.19
  -1   4   4  335.78    6.28
  -1   4   4  324.72    6.23
   0  -4  -4   -0.04    0.10
   0  -4  -4   -0.25    0.06
   0  -4  -4   -0.24    0.08
   0  -4  -4   -0.29    0.05
   0  -4  -4   -0.18    0.08
   0  -4  -4   -0.13    0.08
   0  -4  -4   -0.12    0.07
   0   4   4    0.20    0.10
   0   4   4    0.14    0.10
   0   4   4    0.41    0.11
   0   4   4    0.47    0.13
  -1  -4  -4  294.72    5.60
  -1  -4  -4  293.94    5.49
  -1  -4  -4  284.78    5.42
  -1  -4  -4  294.84    5.52
  -1  -4  -4  301.30    5.60
  -1  -4  -4  285.21    5.40
  -1  -4  -4  295.71    5.51
  -1  -4  -4  294.27    5.54
  -1  -4  -4  296.82    5.46
   1   4   4  291.43    5.42
   1   4   4  286.96    5.53
   1   4   4  286.48    5.61
   1   4   4  283.83    5.47
   1   4   4  284.02    5.41
  -2  -4  -4   37.15    0.92
  -2  -4  -4   36.68    0.91
  -2  -4  -4   36.74    0.99
  -2  -4  -4   37.30    0.98
  -2  -4  -4   34.95    0.88
  -2  -4  -4   36.89    0.93
  -2  -4  -4   36.22    0.83
  -2  -4  -4   36.25    0.84
  -2  -4  -4   35.26    0.94
  -2  -4  -4   36.00    1.01
   2   4   4   35.92    0.83
   2   4   4   36.34    0.82
   2   4   4   37.98    0.91
   2   4   4   36.45    0.89
  -3  -4  -4    3.60    0.33
  -3  -4  -4    3.97    0.24
  -3  -4  -4    4.52    0.28
  -3  -4  -4    4.10    0.27
  -3  -4  -4    4.48    0.35
  -3  -4  -4    4.07    0.29
  -3  -4  -4    3.99    0.30
  -3  -4  -4    4.21    0.24
   3   4   4    4.34    0.26
   3   4   4    3.68    0.25
  -4  -4  -4  100.36    2.48
  -4  -4  -4  106.61    2.17
  -4  -4  -4  100.74    2.42
  -4  -4  -4  100.41    2.34
  -4  -4  -4  106.69    2.25
  -4  -4  -4  102.71    2.51
  -4  -4  -4  100.38    2.31
  -4  -4  -4  105.56    2.19
   4   4   4  105.65    2.21
   4   4   4  103.17    2.28
  -5  -4  -4    6.50    0.45
  -5  -4  -4    6.70    0.57
   5   4   4    6.43    0.40
  -6  -4  -4   25.14    1.17
  -6  -4  -4   26.98    0.98
   6   4   4   26.66    0.85
  -7  -4  -4    5.68    0.61
  -7  -4  -4    3.90    0.60
   6  -5  -4   14.97    0.70
  -6   5   4   14.16    0.76
   5  -5  -4    1.72    0.29
   5  -5  -4    1.44    0.34
  -5   5   4    1.89    0.33
   4  -5  -4   79.56    2.09
   4  -5  -4   78.45    1.85
  -4   5   4   76.61    1.75
  -4   5   4   77.97    1.87
  -4   5   4   78.96    1.78
   3  -5  -4    8.43    0.52
   3  -5  -4    9.14    0.60
   3  -5  -4    8.63    0.43
   3  -5  -4    8.83    0.53
  -3   5   4    9.01    0.44
  -3   5   4    8.62    0.38
  -3   5   4   10.24    0.43
  -3   5   4    9.00    0.47
  -3   5   4    9.44    0.40
   2  -5  -4  136.63    2.87
   2  -5  -4  137.52    3.03
   2  -5  -4  139.30    3.27
   2  -5  -4  141.92    3.17
   2  -5  -4  135.94    2.84
   2  -5  -4  138.61    2.84
   2  -5  -4  142.48    3.02
  -2   5   4  140.09    2.89
  -2   5   4  141.01    2.75
  -2   5   4  141.52    2.77
  -2   5   4  140.91    2.77
  -2   5   4  136.35    2.82
  -2   5   4  143.62    2.86
   1  -5  -4  168.21    3.49
   1  -5  -4  166.72    3.33
   1  -5  -4  167.30    3.60
   1  -5  -4  173.77    3.74
   1  -5  -4  169.89    3.28
   1  -5  -4  170.18    3.27
   1  -5  -4  170.90    3.49
   1  -5  -4  158.44    3.37
  -1   5   4  170.73    3.38
  -1   5   4  172.05    3.24
  -1   5   4  171.42    3.26
  -1   5   4  170.97    3.30
  -1   5   4  166.14    3.31
  -1   5   4  171.38    3.24
  -1   5   4  175.40    3.38
   0  -5  -4    7.15    0.27
   0  -5  -4    7.79    0.37
   0  -5  -4    7.19    0.34
   0  -5  -4    7.05    0.39
   0  -5  -4    6.84    0.27
   0  -5  -4    7.14    0.35
   0   5   4    7.23    0.26
   0   5   4    6.84    0.25
   0   5   4    6.94    0.29
   0   5   4    7.44    0.32
  -1  -5  -4  275.56    5.18
  -1  -5  -4  267.56    5.09
  -1  -5  -4  266.30    5.16
  -1  -5  -4  264.89    5.00
  -1  -5  -4  266.19    5.01
  -1  -5  -4  264.34    4.99
  -1  -5  -4  268.94    5.26
  -1  -5  -4  271.16    5.10
  -1  -5  -4  268.70    5.13
   1   5   4  267.92    5.08
   1   5   4  250.84    5.01
  -2  -5  -4   57.95    1.46
  -2  -5  -4   57.57    1.25
  -2  -5  -4   57.72    1.36
  -2  -5  -4   57.34    1.23
  -2  -5  -4   57.52    1.39
  -2  -5  -4   57.89    1.38
  -2  -5  -4   58.22    1.40
  -2  -5  -4   57.57    1.31
  -2  -5  -4   56.93    1.44
  -2  -5  -4   57.33    1.37
   2   5   4   56.29    1.27
   2   5   4   58.69    1.32
  -3  -5  -4  120.16    2.71
  -3  -5  -4  119.27    2.58
  -3  -5  -4  121.42    2.43
  -3  -5  -4  118.71    2.62
  -3  -5  -4  121.08    2.55
  -3  -5  -4  122.41    2.69
  -3  -5  -4  120.47    2.49
  -3  -5  -4  118.34    2.41
  -3  -5  -4  117.90    2.68
  -3  -5  -4  119.03    2.58
   3   5   4  118.41    2.43
   3   5   4  120.63    2.52
  -4  -5  -4  123.15    2.78
  -4  -5  -4  124.89    2.91
  -4  -5  -4  126.31    2.94
  -4  -5  -4  126.03    2.58
  -4  -5  -4  125.64    2.67
  -4  -5  -4  126.88    2.78
  -4  -5  -4  124.11    2.94
  -4  -5  -4  125.22    2.60
   4   5   4  127.75    2.72
   4   5   4  127.03    2.58
  -5  -5  -4    5.01    0.43
  -5  -5  -4    4.16    0.54
   5   5   4    4.85    0.38
  -6  -5  -4   45.67    1.38
  -6  -5  -4   44.53    1.63
   6  -6  -4   10.69    0.64
  -6   6   4   10.56    0.65
   5  -6  -4   10.83    0.76
   5  -6  -4   12.31    0.65
  -5   6   4   11.38    0.63
   4  -6  -4   91.73    2.39
   4  -6  -4   93.80    2.18
  -4   6   4   91.13    2.12
   3  -6  -4    4.56    0.41
   3  -6  -4    5.06    0.44
   3  -6  -4    4.46    0.36
   3  -6  -4    4.78    0.47
  -3   6   4    4.93    0.28
  -3   6   4    4.78    0.34
   2  -6  -4  143.10    3.13
   2  -6  -4  140.88    3.29
   2  -6  -4  141.37    3.15
   2  -6  -4  143.43    3.47
   2  -6  -4  141.73    2.95
  -2   6   4  146.60    3.01
  -2   6   4  143.14    2.90
   1  -6  -4   46.04    1.37
   1  -6  -4   47.43    1.26
   1  -6  -4   46.72    1.08
   1  -6  -4   46.20    1.47
   1  -6  -4   46.98    1.07
   1  -6  -4   44.36    1.13
   1  -6  -4   46.00    1.27
  -1   6   4   47.13    1.16
  -1   6   4   47.80    1.09
   0  -6  -4   50.57    1.22
   0  -6  -4   51.68    1.20
   0  -6  -4   50.32    1.11
   0  -6  -4   50.01    1.27
   0  -6  -4   49.45    1.12
   0  -6  -4   49.53    1.31
   0  -6  -4   53.86    1.24
   0  -6  -4   49.69    1.41
   0   6   4   52.91    1.22
   0   6   4   49.48    1.12
  -1  -6  -4  225.09    4.46
  -1  -6  -4  222.64    4.23
  -1  -6  -4  218.09    4.23
  -1  -6  -4  221.78    4.22
  -1  -6  -4  224.39    4.37
  -1  -6  -4  221.56    4.30
  -1  -6  -4  217.25    4.39
  -1  -6  -4  223.90    4.58
  -1  -6  -4  231.37    4.43
   1   6   4  227.52    4.33
   1   6   4  220.38    4.23
  -2  -6  -4   36.83    1.01
  -2  -6  -4   37.05    1.07
  -2  -6  -4   35.54    1.12
  -2  -6  -4   36.10    1.03
  -2  -6  -4   35.62    1.03
  -2  -6  -4   36.45    1.00
  -2  -6  -4   41.30    1.24
  -2  -6  -4   36.33    0.86
  -2  -6  -4   36.17    0.87
  -2  -6  -4   35.75    0.92
   2   6   4   36.77    0.95
   2   6   4   33.71    0.84
  -3  -6  -4  148.82    2.93
  -3  -6  -4  129.11    3.26
  -3  -6  -4  146.00    3.17
  -3  -6  -4  153.80    3.08
  -3  -6  -4  146.84    3.13
  -3  -6  -4  147.41    3.16
  -3  -6  -4  145.96    3.29
  -3  -6  -4  151.66    3.21
  -3  -6  -4  147.41    2.95
  -3  -6  -4  151.41    3.27
   3   6   4  152.83    3.06
  -4  -6  -4   83.59    1.83
  -4  -6  -4   82.11    2.00
  -4  -6  -4   81.15    2.06
  -4  -6  -4   86.38    2.21
  -4  -6  -4   83.37    2.16
  -4  -6  -4   83.18    2.21
  -4  -6  -4   85.14    1.86
   4   6   4   84.06    1.96
  -5  -6  -4    3.06    0.48
   5   6   4    4.11    0.42
  -6  -6  -4   66.90    2.14
   5  -7  -4   37.90    1.26
   5  -7  -4   38.82    1.50
  -5   7   4   37.41    1.16
   4  -7  -4   36.66    1.17
   4  -7  -4   37.58    1.36
  -4   7   4   37.36    1.08
   3  -7  -4    1.52    0.35
   3  -7  -4    1.63    0.29
  -3   7   4    1.23    0.23
   2  -7  -4   88.30    2.01
   2  -7  -4   87.35    2.36
   2  -7  -4   91.03    2.18
   2  -7  -4   90.46    2.53
   2  -7  -4   85.68    2.21
  -2   7   4   90.21    2.05
  -2   7   4   85.61    1.88
   1  -7  -4   69.04    1.61
   1  -7  -4   71.14    1.54
   1  -7  -4   67.01    1.79
   1  -7  -4   69.56    1.55
   1  -7  -4   70.20    1.75
   1  -7  -4   72.51    2.06
   1  -7  -4   69.80    1.93
  -1   7   4   71.26    1.51
  -1   7   4   71.76    1.66
   0  -7  -4  130.82    2.65
   0  -7  -4  146.43    3.12
   0  -7  -4  126.83    3.03
   0  -7  -4  135.02    2.82
   0  -7  -4  136.15    2.75
   0  -7  -4  128.47    2.91
   0  -7  -4  132.93    2.83
   0  -7  -4  128.61    2.63
   0  -7  -4  132.70    2.77
   0   7   4  131.55    2.59
   0   7   4  135.35    2.76
  -1  -7  -4  166.82    3.39
  -1  -7  -4  161.64    3.40
  -1  -7  -4  166.88    3.19
  -1  -7  -4  158.84    3.60
  -1  -7  -4  165.46    3.33
  -1  -7  -4  162.57    3.37
  -1  -7  -4  167.12    3.21
  -1  -7  -4  164.37    3.48
   1   7   4  166.43    3.31
  -2  -7  -4    4.53    0.33
  -2  -7  -4    5.25    0.44
  -2  -7  -4    5.35    0.26
  -2  -7  -4    4.84    0.29
  -2  -7  -4    4.85    0.39
  -2  -7  -4    5.43    0.37
  -2  -7  -4    5.41    0.38
  -2  -7  -4    5.16    0.27
  -2  -7  -4    4.38    0.36
   2   7   4    4.51    0.29
  -3  -7  -4  127.75    3.04
  -3  -7  -4  126.97    2.72
  -3  -7  -4  128.10    2.94
  -3  -7  -4  129.05    2.87
  -3  -7  -4  128.30    2.84
  -3  -7  -4  128.97    2.89
  -3  -7  -4  126.05    2.88
  -3  -7  -4  129.09    2.60
  -3  -7  -4  126.45    2.61
   3   7   4  132.37    2.74
  -4  -7  -4   38.48    1.28
  -4  -7  -4   38.50    1.21
  -4  -7  -4   39.11    1.26
  -4  -7  -4   37.29    1.36
  -4  -7  -4   37.79    1.33
  -4  -7  -4   37.35    1.24
  -4  -7  -4   39.71    1.17
   4   7   4   37.38    1.11
  -5  -7  -4   24.07    1.11
   5   7   4   22.67    0.87
  -6  -7  -4   35.46    1.50
   6   7   4   39.97    1.57
   5  -8  -4   25.81    1.04
   5  -8  -4   21.65    1.15
   4  -8  -4   21.48    1.03
   4  -8  -4   20.41    0.88
  -4   8   4   19.98    0.73
   3  -8  -4   16.67    0.74
   3  -8  -4   17.39    0.86
  -3   8   4   16.39    0.73
  -3   8   4   16.68    0.60
   2  -8  -4   99.79    2.41
   2  -8  -4   98.86    2.81
   2  -8  -4   93.80    2.44
   2  -8  -4   94.44    2.61
   2  -8  -4   98.93    2.14
   2  -8  -4   96.22    2.22
   2  -8  -4   97.28    2.11
  -2   8   4   99.69    2.28
   1  -8  -4   22.42    0.69
   1  -8  -4   23.86    1.02
   1  -8  -4   24.50    1.13
   1  -8  -4   24.93    0.83
   1  -8  -4   23.33    0.92
   1  -8  -4   23.81    0.69
   1  -8  -4   23.26    0.79
   1  -8  -4   22.55    0.86
  -1   8   4   24.05    0.80
   0  -8  -4   53.50    1.63
   0  -8  -4   54.22    1.38
   0  -8  -4   53.53    1.22
   0  -8  -4   53.27    1.24
   0  -8  -4   54.21    1.52
   0  -8  -4   54.91    1.43
   0  -8  -4   55.24    1.43
   0   8   4   55.37    1.36
  -1  -8  -4   78.48    1.83
  -1  -8  -4   73.67    1.77
  -1  -8  -4   77.88    1.64
  -1  -8  -4   76.46    2.08
  -1  -8  -4   77.27    1.65
  -1  -8  -4   78.79    1.89
  -1  -8  -4   76.18    1.95
  -1  -8  -4   79.23    1.86
   1   8   4   78.24    1.76
  -2  -8  -4    9.38    0.55
  -2  -8  -4    9.45    0.54
  -2  -8  -4    9.25    0.50
  -2  -8  -4    9.35    0.54
  -2  -8  -4    9.09    0.61
  -2  -8  -4    9.08    0.38
  -2  -8  -4    9.61    0.38
   2   8   4    8.92    0.43
  -3  -8  -4   95.18    2.39
  -3  -8  -4   96.81    2.08
  -3  -8  -4   93.24    2.52
  -3  -8  -4  100.47    2.49
  -3  -8  -4   96.23    2.06
  -3  -8  -4   95.26    2.31
  -3  -8  -4  104.56    2.84
  -3  -8  -4   99.27    2.42
  -3  -8  -4   96.08    2.37
   3   8   4   97.88    2.20
  -4  -8  -4   16.77    0.77
  -4  -8  -4   16.63    0.82
  -4  -8  -4   18.82    0.85
  -4  -8  -4   17.37    0.88
  -4  -8  -4   17.08    0.72
   4   8   4   18.27    0.72
  -5  -8  -4   41.06    1.55
   5   8   4   42.41    1.30
  -6  -8  -4   36.14    1.54
   6   8   4   37.28    1.28
   5  -9  -4   12.36    0.81
   5  -9  -4   12.24    0.92
   4  -9  -4   18.34    0.88
   4  -9  -4   17.85    1.00
   3  -9  -4   15.78    0.77
   3  -9  -4   16.26    0.86
  -3   9   4   14.99    0.73
   2  -9  -4   98.84    2.97
   2  -9  -4  102.89    2.54
  -2   9   4  101.21    2.41
   1  -9  -4    5.13    0.32
   1  -9  -4    4.70    0.32
   1  -9  -4    5.63    0.41
   1  -9  -4    5.02    0.47
   1  -9  -4    5.77    0.46
   1  -9  -4    5.42    0.65
   1  -9  -4    4.65    0.76
   1  -9  -4    6.17    0.65
  -1   9   4    5.42    0.39
   0  -9  -4   66.40    1.87
   0  -9  -4   66.82    2.01
   0  -9  -4   71.05    1.73
   0  -9  -4   69.62    1.78
   0  -9  -4   69.48    1.53
   0  -9  -4   69.08    1.55
   0  -9  -4   71.74    1.77
   0   9   4   71.09    1.69
  -1  -9  -4   61.47    1.37
  -1  -9  -4   59.11    1.84
  -1  -9  -4   63.10    1.39
  -1  -9  -4   58.74    1.70
  -1  -9  -4   63.21    1.65
  -1  -9  -4   61.34    1.60
   1   9   4   59.14    1.49
  -2  -9  -4   20.80    0.64
  -2  -9  -4   19.87    0.80
  -2  -9  -4   22.43    0.88
  -2  -9  -4   20.19    0.83
  -2  -9  -4   21.07    1.00
  -2  -9  -4   19.90    0.88
  -2  -9  -4   20.47    0.62
   2   9   4   21.55    0.73
  -3  -9  -4   72.24    1.95
  -3  -9  -4   80.52    2.10
  -3  -9  -4   81.87    2.10
  -3  -9  -4   73.55    1.92
  -3  -9  -4   82.94    2.05
   3   9   4   79.27    1.89
  -4  -9  -4    0.25    0.24
  -4  -9  -4    0.16    0.20
  -4  -9  -4    0.09    0.19
   4   9   4    0.36    0.17
  -5  -9  -4   27.59    1.26
   5   9   4   28.14    1.03
   4 -10  -4    5.76    0.65
   4 -10  -4    5.13    0.68
   3 -10  -4   19.36    0.99
  -3  10   4   17.81    0.85
   2 -10  -4   47.20    1.96
   2 -10  -4   48.04    1.55
  -2  10   4   47.31    1.43
  -2  10   4   46.55    1.43
   1 -10  -4    1.74    0.33
   1 -10  -4    1.21    0.27
   1 -10  -4    1.62    0.44
   1 -10  -4    1.13    0.29
  -1  10   4    1.16    0.23
   0 -10  -4  113.86    2.47
   0 -10  -4  114.82    2.45
   0 -10  -4  119.28    2.72
   0 -10  -4  125.13    2.77
   0 -10  -4  120.42    2.70
   0  10   4  114.80    2.62
  -1 -10  -4   49.01    1.19
  -1 -10  -4   48.28    1.46
  -1 -10  -4   50.60    1.22
  -1 -10  -4   50.19    1.44
   1  10   4   49.96    1.34
  -2 -10  -4   31.99    1.12
  -2 -10  -4   33.94    1.18
  -2 -10  -4   31.90    0.87
  -2 -10  -4   32.58    0.89
  -2 -10  -4   31.30    1.10
   2  10   4   31.98    0.99
  -3 -10  -4   89.75    2.35
  -3 -10  -4   89.30    2.37
  -3 -10  -4   88.03    2.30
   3  10   4   90.26    2.14
  -4 -10  -4    0.97    0.35
  -4 -10  -4    0.69    0.27
  -4 -10  -4    0.31    0.28
   4  10   4    0.81    0.24
  -5 -10  -4   36.24    1.39
  -5 -10  -4   38.49    1.48
  -5 -10  -4   39.29    1.56
   5  10   4   38.81    1.29
   4 -11  -4   -0.23    0.28
   3 -11  -4   32.53    1.38
  -3  11   4   33.95    1.26
   2 -11  -4   17.81    0.94
   2 -11  -4   18.64    1.29
   2 -11  -4   18.94    0.90
   2 -11  -4   18.40    0.85
  -2  11   4   17.64    0.84
  -2  11   4   18.66    0.86
   1 -11  -4    2.18    0.39
   1 -11  -4    1.91    0.54
   1 -11  -4    1.63    0.36
   1 -11  -4    1.85    0.34
  -1  11   4    1.52    0.29
   0 -11  -4   71.10    1.88
   0 -11  -4   73.48    1.92
   0 -11  -4   71.10    1.93
   0  11   4   69.44    1.81
  -1 -11  -4    1.26    0.31
  -1 -11  -4    1.44    0.31
   1  11   4    1.05    0.23
  -2 -11  -4   49.24    1.49
  -2 -11  -4   46.76    1.52
   2  11   4   45.19    1.32
  -3 -11  -4   30.97    1.23
  -3 -11  -4   29.54    1.18
  -3 -11  -4   28.63    1.15
   3  11   4   28.42    1.01
  -4 -11  -4    0.87    0.33
  -4 -11  -4    0.56    0.31
  -4 -11  -4    0.31    0.29
   4  11   4    0.88    0.25
   3 -12  -4   35.11    1.47
  -3  12   4   32.30    1.30
   2 -12  -4   12.99    0.80
   2 -12  -4   12.81    0.74
   2 -12  -4   12.48    1.17
   2 -12  -4   13.02    0.86
  -2  12   4   12.68    0.74
  -2  12   4   12.06    0.74
   1 -12  -4   24.97    1.02
   1 -12  -4   22.59    1.03
   1 -12  -4   21.81    1.03
   1 -12  -4   23.14    1.37
  -1  12   4   22.94    0.95
   0 -12  -4   44.45    1.42
   0 -12  -4   46.51    1.50
   0  12   4   44.59    1.37
  -1 -12  -4    0.61    0.26
  -1 -12  -4    0.40    0.22
   1  12   4    0.14    0.16
  -2 -12  -4   69.68    1.97
  -2 -12  -4   69.39    2.04
   2  12   4   66.87    1.79
  -3 -12  -4   17.41    0.97
  -3 -12  -4   19.00    0.95
   3  12   4   17.88    0.79
  -4 -12  -4   29.39    1.93
  -4 -12  -4   26.56    1.26
  -4 -12  -4   26.61    1.21
   4  12   4   26.24    1.05
   2 -13  -4    7.75    0.74
   2 -13  -4    7.45    0.79
   2 -13  -4    7.40    0.84
  -2  13   4    5.88    0.64
  -2  13   4    5.33    0.59
   1 -13  -4   24.74    1.07
   1 -13  -4   25.14    1.14
   1 -13  -4   25.37    1.14
  -1  13   4   23.76    1.02
   0 -13  -4   31.23    1.25
   0 -13  -4   29.76    1.16
   0  13   4   28.47    1.09
  -1 -13  -4    0.66    0.29
  -1 -13  -4    0.24    0.26
   1  13   4    0.22    0.19
  -2 -13  -4   26.88    1.20
  -2 -13  -4   28.62    1.18
   2  13   4   26.99    1.03
  -3 -13  -4   19.23    1.05
  -3 -13  -4   18.96    1.00
   3  13   4   16.64    0.81
   1 -14  -4   18.66    0.94
   1 -14  -4   17.01    0.97
  -1  14   4   16.80    0.88
   0 -14  -4   18.24    0.94
   0 -14  -4   18.19    0.98
   0  14   4   15.83    0.83
  -1 -14  -4    9.46    0.87
  -1 -14  -4    8.54    0.87
   1  14   4    8.52    0.60
  -2 -14  -4   19.78    1.09
  -2 -14  -4   19.89    1.03
   2  14   4   21.27    0.92
   0 -11   5   37.73    1.52
   0 -11   5   36.97    1.45
  -1  11  -5    4.31    0.35
   1 -11   5    4.44    0.57
   1 -11   5    5.47    0.70
  -2 -10   5   14.44    0.89
  -2 -10   5   12.47    0.80
  -1 -10   5    2.55    0.54
  -1 -10   5    3.12    0.54
   0 -10   5   33.89    1.32
   0 -10   5   33.51    1.37
  -1  10  -5   11.55    0.48
   1 -10   5   11.51    0.76
   1 -10   5   12.31    0.79
   1 -10   5   11.02    0.80
  -2  10  -5   20.75    0.80
   2 -10   5   21.56    1.05
  -3  10  -5   11.23    0.66
   3 -10   5   11.90    0.85
   3   9  -5   20.79    0.66
  -2  -9   5   12.28    0.75
  -2  -9   5   11.93    0.79
  -1  -9   5   25.68    1.11
  -1  -9   5   25.92    1.07
   0  -9   5   18.02    0.93
   0  -9   5   16.43    0.85
   1  -9   5   -0.23    0.18
  -2   9  -5   30.54    0.94
   2  -9   5   29.76    1.21
  -3   9  -5   16.98    0.78
   3  -9   5   17.80    0.96
  -4   9  -5    3.88    0.52
   4  -9   5    3.59    0.58
   4   8  -5    1.75    0.27
  -4  -8   5    1.50    0.42
   3   8  -5   32.61    0.86
  -3  -8   5   32.96    1.32
  -2  -8   5   10.64    0.70
  -2  -8   5   10.19    0.66
  -1  -8   5   22.49    0.94
  -1  -8   5   22.82    1.00
   0  -8   5   49.71    1.59
   0  -8   5   49.82    1.53
   1  -8   5    2.81    0.42
  -2   8  -5   50.44    1.28
   2  -8   5   49.78    1.58
  -3   8  -5   13.37    0.63
   3  -8   5   12.18    0.78
   3  -8   5   12.14    0.87
   4  -8   5   11.20    0.79
   4   7  -5   11.57    0.53
  -4  -7   5   11.72    0.83
   3   7  -5   56.15    1.31
  -3  -7   5   62.06    1.86
  -2  -7   5    0.47    0.25
  -2  -7   5    0.05    0.19
  -2  -7   5    0.43    0.22
  -1  -7   5   25.33    0.98
  -1  -7   5   25.13    1.03
   0  -7   5   66.56    1.93
   0  -7   5   72.78    1.80
   0  -7   5   67.81    2.10
   1  -7   5    5.02    0.44
  -2   7  -5   61.19    1.43
   2  -7   5   62.09    1.77
  -3   7  -5    1.01    0.22
   3  -7   5    0.83    0.28
   3  -7   5    0.84    0.33
  -4   7  -5   18.37    0.81
   4  -7   5   18.57    1.15
   4  -7   5   18.16    0.95
  -5   7  -5   39.73    1.38
   5  -7   5   36.89    1.49
   4   6  -5   11.56    0.52
  -4  -6   5   11.83    0.79
   3   6  -5   62.33    1.39
  -3  -6   5   64.68    1.90
  -2  -6   5    0.59    0.19
  -2  -6   5    0.64    0.22
  -2  -6   5    0.20    0.17
  -2  -6   5    0.34    0.20
  -2  -6   5    0.40    0.19
  -1  -6   5  108.46    2.59
  -1  -6   5  103.97    2.54
  -1  -6   5  109.00    2.48
  -1  -6   5  101.58    2.47
  -1  -6   5  101.29    2.72
   0  -6   5   25.13    0.87
   0  -6   5   24.85    1.04
   0  -6   5   24.85    0.94
   1  -6   5   29.89    1.00
   1  -6   5   29.65    1.14
   1  -6   5   29.01    1.03
  -2   6  -5   61.40    1.42
   2  -6   5   67.74    1.78
  -3   6  -5    0.89    0.19
   3  -6   5    1.37    0.35
   3  -6   5    0.37    0.25
  -4   6  -5   41.17    1.27
   4  -6   5   40.67    1.66
   4  -6   5   42.09    1.45
  -5   6  -5   11.03    0.65
   5  -6   5    9.50    0.75
   5  -6   5   10.54    1.54
   5   5  -5    1.83    0.32
  -5  -5   5    1.66    0.42
   4   5  -5   39.86    1.10
  -4  -5   5   38.08    1.43
   3   5  -5   22.13    0.62
  -3  -5   5   22.67    0.86
  -3  -5   5   22.43    0.98
  -3  -5   5   21.06    0.95
  -2  -5   5    5.23    0.46
  -2  -5   5    5.47    0.43
  -2  -5   5    5.40    0.41
  -2  -5   5    5.66    0.40
  -2  -5   5    5.37    0.46
   1   5  -5  146.34    3.11
  -1  -5   5  137.04    3.05
  -1  -5   5  133.40    3.25
  -1  -5   5  134.99    3.11
  -1  -5   5  142.40    2.96
  -1  -5   5  139.32    3.11
  -1  -5   5  143.63    3.11
  -1  -5   5  142.86    3.09
   0   5  -5    6.15    0.37
   0   5  -5    6.93    0.45
   0   5  -5    6.12    0.39
   0  -5   5    6.15    0.37
   0  -5   5    5.83    0.41
   0  -5   5    5.31    0.44
   0  -5   5    6.17    0.35
   0  -5   5    5.79    0.38
   0  -5   5    6.64    0.42
  -1   5  -5   75.17    1.82
  -1   5  -5   73.32    1.69
   1  -5   5   75.58    1.85
   1  -5   5   71.77    1.81
   1  -5   5   75.06    1.82
   1  -5   5   72.31    1.71
   1  -5   5   70.69    1.93
  -2   5  -5   74.56    1.58
   2  -5   5   73.05    1.88
  -3   5  -5    0.15    0.11
   3  -5   5    0.16    0.23
   3  -5   5    0.31    0.19
  -4   5  -5   84.79    2.07
   4  -5   5   82.01    2.23
   4  -5   5   88.53    2.56
  -5   5  -5    0.87    0.26
   5  -5   5    0.77    0.31
   5  -5   5    0.35    0.35
  -6   5  -5   15.78    0.91
   6  -5   5   16.80    0.94
   5   4  -5    3.38    0.40
  -5  -4   5    3.11    0.52
   4   4  -5   71.77    1.73
  -4  -4   5   73.15    2.12
   3   4  -5   31.66    0.83
  -3  -4   5   30.86    1.15
  -3  -4   5   31.73    1.05
  -3  -4   5   33.15    1.20
   2   4  -5   58.25    1.75
   2   4  -5   59.23    1.62
  -2  -4   5   58.37    1.62
  -2  -4   5   59.29    1.77
  -2  -4   5   59.19    1.51
  -2  -4   5   59.56    1.64
  -2  -4   5   57.69    1.49
  -2  -4   5   60.21    1.64
  -2  -4   5   56.12    1.45
   1   4  -5  120.36    2.66
  -1  -4   5  116.59    2.62
  -1  -4   5  117.97    2.64
  -1  -4   5  114.85    2.64
  -1  -4   5  118.16    2.78
  -1  -4   5  117.42    2.58
  -1  -4   5  119.86    2.70
  -1  -4   5  120.61    2.55
   0   4  -5   16.84    0.70
   0   4  -5   17.53    0.64
   0   4  -5   15.67    0.60
   0  -4   5   16.96    0.63
   0  -4   5   16.17    0.63
   0  -4   5   16.00    0.70
   0  -4   5   16.02    0.67
   0  -4   5   15.78    0.59
  -1   4  -5  107.47    2.31
  -1   4  -5  109.97    2.31
  -1   4  -5  110.35    2.45
   1  -4   5  107.12    2.48
   1  -4   5  105.54    2.47
   1  -4   5  104.64    2.33
   1  -4   5  107.21    2.37
   1  -4   5  106.13    2.40
  -2   4  -5   71.77    1.79
  -2   4  -5   67.70    1.48
  -2   4  -5   73.22    1.67
   2  -4   5   69.78    1.77
  -3   4  -5   22.53    0.85
  -3   4  -5   23.65    0.77
  -3   4  -5   22.39    0.72
   3  -4   5   22.50    0.88
   3  -4   5   23.25    0.98
  -4   4  -5   55.56    1.47
   4  -4   5   52.60    1.60
   4  -4   5   56.05    1.85
  -5   4  -5   11.28    0.63
   5  -4   5   12.78    0.95
   5  -4   5   11.86    0.73
   6  -4   5   19.11    0.98
   5   3  -5    0.18    0.19
  -5  -3   5    0.32    0.24
   4   3  -5   26.99    0.87
  -4  -3   5   27.68    1.12
   3   3  -5   29.29    0.80
  -3  -3   5   29.32    0.98
  -3  -3   5   28.87    1.11
   2   3  -5   26.91    0.93
   2   3  -5   26.72    0.95
   2   3  -5   26.65    1.02
  -2  -3   5   25.65    0.78
  -2  -3   5   26.00    0.93
  -2  -3   5   27.83    0.98
  -2  -3   5   26.53    0.86
  -2  -3   5   26.53    0.81
   1   3  -5   97.96    2.30
   1   3  -5   95.78    2.16
   1   3  -5  100.09    2.25
  -1  -3   5   96.43    2.11
  -1  -3   5   96.49    2.14
  -1  -3   5   96.84    2.31
  -1  -3   5   94.94    2.14
  -1  -3   5   97.53    2.27
  -1  -3   5   96.31    2.22
  -1  -3   5   97.59    2.20
   0   3  -5    0.34    0.12
   0   3  -5    0.19    0.12
   0   3  -5    0.50    0.14
   0  -3   5    0.22    0.12
   0  -3   5    0.25    0.10
   0  -3   5    0.39    0.13
   0  -3   5    0.50    0.16
  -1   3  -5  165.45    3.28
  -1   3  -5  160.76    3.43
  -1   3  -5  159.74    3.29
   1  -3   5  160.05    3.36
   1  -3   5  160.97    3.27
  -2   3  -5   63.01    1.57
  -2   3  -5   64.19    1.43
  -2   3  -5   56.18    1.27
  -2   3  -5   62.36    1.45
   2  -3   5   59.84    1.52
   2  -3   5   57.15    1.38
   2  -3   5   57.11    1.46
  -3   3  -5   63.31    1.52
  -3   3  -5   65.48    1.57
  -3   3  -5   66.27    1.70
   3  -3   5   66.35    1.69
   3  -3   5   65.79    1.82
  -4   3  -5   47.84    1.31
  -4   3  -5   47.46    1.44
  -4   3  -5   48.18    1.31
   4  -3   5   49.30    1.67
   4  -3   5   48.24    1.44
  -5   3  -5    2.48    0.34
   5  -3   5    3.28    0.61
   5  -3   5    2.76    0.42
   6  -3   5   17.96    0.93
   6   2  -5   15.85    0.82
  -6  -2   5   16.39    1.01
   5   2  -5   32.36    1.09
  -5  -2   5   31.53    1.30
   4   2  -5   65.64    1.64
  -4  -2   5   67.39    1.93
   3   2  -5    8.89    0.61
   3   2  -5    8.55    0.53
   3   2  -5    8.90    0.39
  -3  -2   5    8.41    0.53
  -3  -2   5    7.72    0.54
  -3  -2   5    8.63    0.49
   2   2  -5   90.18    2.11
   2   2  -5   87.98    1.99
   2   2  -5   89.59    2.16
   2   2  -5   89.13    2.23
  -2  -2   5   90.29    2.05
  -2  -2   5   87.53    2.13
  -2  -2   5   89.81    2.19
   1   2  -5  134.66    2.81
   1   2  -5  137.73    2.96
   1   2  -5  139.95    3.05
   1   2  -5  136.14    2.88
   1   2  -5  135.31    2.99
   1   2  -5  142.63    2.91
  -1  -2   5  136.78    2.87
  -1  -2   5  136.91    2.80
  -1  -2   5  138.24    3.00
  -1  -2   5  135.91    2.94
  -1  -2   5  138.79    2.78
   0   2  -5   79.30    1.81
   0   2  -5   82.65    1.86
   0   2  -5   79.14    1.83
   0   2  -5   79.30    1.95
   0  -2   5   81.44    1.85
   0  -2   5   82.38    1.77
   0  -2   5   84.25    1.98
   0  -2   5   83.44    1.85
  -1   2  -5  181.02    3.64
  -1   2  -5  178.22    3.76
  -1   2  -5  184.30    3.64
   1  -2   5  185.60    3.57
   1  -2   5  178.42    3.60
   1  -2   5  177.42    3.52
   1  -2   5  182.71    3.50
  -2   2  -5   40.92    0.97
  -2   2  -5   45.72    1.12
  -2   2  -5   44.80    1.22
  -2   2  -5   44.53    1.12
   2  -2   5   44.04    1.18
   2  -2   5   43.26    1.05
  -3   2  -5   51.33    1.30
  -3   2  -5   53.29    1.30
  -3   2  -5   49.71    1.25
  -3   2  -5   52.20    1.42
   3  -2   5   49.32    1.37
   3  -2   5   52.65    1.53
  -4   2  -5  114.48    2.53
  -4   2  -5  113.05    2.69
  -4   2  -5  111.35    2.52
   4  -2   5  115.35    2.93
   4  -2   5  111.33    2.60
  -5   2  -5    8.66    0.62
  -5   2  -5    9.26    0.54
  -5   2  -5    7.19    0.50
   5  -2   5    8.18    0.56
   5  -2   5    9.03    0.77
   6  -2   5   48.84    1.48
   6   1  -5    3.88    0.49
  -6  -1   5    5.08    0.68
   5   1  -5   19.11    0.80
  -5  -1   5   18.63    0.96
   4   1  -5  126.83    2.72
  -4  -1   5  120.96    2.54
  -4  -1   5  122.04    2.96
  -4  -1   5  120.69    2.56
  -4  -1   5  123.45    3.09
  -4  -1   5  124.79    2.88
   3   1  -5    1.01    0.27
   3   1  -5    0.90    0.22
   3   1  -5    0.60    0.14
   3   1  -5    0.91    0.24
  -3  -1   5    0.89    0.25
  -3  -1   5    0.85    0.23
  -3  -1   5    1.18    0.25
   2   1  -5  229.10    4.47
   2   1  -5  233.00    4.76
   2   1  -5  226.44    4.67
   2   1  -5  228.89    4.61
   2   1  -5  225.40    4.30
  -2  -1   5  221.62    4.63
  -2  -1   5  227.63    4.56
  -2  -1   5  230.48    4.72
   1   1  -5  157.24    3.33
   1   1  -5  162.94    3.30
   1   1  -5  159.43    3.34
   1   1  -5  159.63    3.43
   1   1  -5  155.92    3.24
  -1  -1   5  161.40    3.40
  -1  -1   5  158.95    3.26
   0   1  -5   28.81    0.74
   0   1  -5   28.65    0.79
   0   1  -5   29.49    0.93
   0   1  -5   30.63    0.86
   0   1  -5   28.64    0.83
   0   1  -5   27.98    0.80
   0  -1   5   30.51    0.86
   0  -1   5   29.12    0.79
   0  -1   5   29.16    0.94
   0  -1   5   28.69    0.74
  -1   1  -5  291.69    5.79
  -1   1  -5  301.99    5.69
  -1   1  -5  288.97    5.66
  -2   1  -5    1.02    0.20
  -2   1  -5    1.19    0.19
  -2   1  -5    0.68    0.15
  -2   1  -5    0.65    0.11
   2  -1   5    0.82    0.19
  -3   1  -5  138.41    3.04
  -3   1  -5  138.62    2.87
  -3   1  -5  136.18    2.90
  -3   1  -5  141.69    2.93
   3  -1   5  140.78    2.97
   3  -1   5  141.19    3.18
  -4   1  -5   66.46    1.66
  -4   1  -5   68.47    1.81
  -4   1  -5   65.85    1.65
  -4   1  -5   66.59    1.64
   4  -1   5   65.05    1.68
   4  -1   5   68.07    1.98
   4  -1   5   65.57    1.51
  -5   1  -5   10.48    0.59
  -5   1  -5    9.41    0.54
  -5   1  -5    9.61    0.65
   5  -1   5   10.55    0.55
   5  -1   5    9.36    0.56
  -6   1  -5   58.99    1.44
   6  -1   5   58.37    1.65
   7  -1   5    4.70    0.57
   7  -1   5    5.49    0.63
   6   0  -5    1.83    0.37
  -6   0   5    2.25    0.46
   5   0  -5   19.71    0.84
  -5   0   5   20.84    0.98
   4   0  -5   53.53    1.39
  -4   0   5   49.26    1.22
  -4   0   5   48.99    1.24
  -4   0   5   49.62    1.61
  -4   0   5   52.16    1.47
  -4   0   5   50.07    1.54
   3   0  -5   22.51    0.94
   3   0  -5   22.19    0.87
   3   0  -5   23.58    0.73
   3   0  -5   22.38    0.85
  -3   0   5   22.96    0.91
  -3   0   5   22.18    0.86
  -3   0   5   22.69    0.80
   2   0  -5  178.66    3.67
   2   0  -5  176.15    3.78
   2   0  -5  178.79    3.56
   2   0  -5  172.33    3.43
   2   0  -5  178.56    3.73
  -2   0   5  176.47    3.76
  -2   0   5  174.88    3.70
  -2   0   5  179.78    3.63
   1   0  -5   21.51    0.75
   1   0  -5   22.43    0.68
   1   0  -5   22.43    0.74
   1   0  -5   22.92    0.82
   1   0  -5   23.65    0.69
   1   0  -5   23.50    0.74
  -1   0   5   23.29    0.72
  -1   0   5   22.55    0.79
   0   0  -5   39.69    1.04
   0   0  -5   38.04    1.00
   0   0  -5   37.48    0.93
   0   0  -5   38.27    0.97
   0   0  -5   37.66    1.10
   0   0  -5   36.80    0.87
   0   0   5   38.18    0.88
   0   0   5   39.48    1.12
   0   0   5   38.20    0.93
   0   0   5   38.64    1.02
  -1   0  -5  339.98    6.62
  -1   0  -5  357.40    6.68
  -1   0  -5  351.36    6.63
  -1   0  -5  347.52    6.75
  -2   0  -5   10.75    0.38
  -2   0  -5   11.21    0.46
  -2   0  -5   10.65    0.49
  -2   0  -5   11.33    0.44
   2   0   5   10.50    0.49
  -3   0  -5  219.61    4.56
  -3   0  -5  217.94    4.42
  -3   0  -5  226.08    4.47
  -3   0  -5  225.55    4.40
   3   0   5  227.18    4.45
   3   0   5  223.23    4.27
   3   0   5  224.35    4.71
  -4   0  -5   17.69    0.69
  -4   0  -5   17.86    0.71
  -4   0  -5   18.40    0.79
  -4   0  -5   17.55    0.55
  -4   0  -5   17.51    0.66
   4   0   5   17.97    0.90
   4   0   5   16.62    0.67
   4   0   5   18.05    0.65
   4   0   5   18.22    0.58
  -5   0  -5   23.21    1.02
  -5   0  -5   22.83    0.91
  -5   0  -5   22.76    0.89
  -5   0  -5   21.98    0.72
   5   0   5   23.14    0.84
  -6   0  -5   55.20    1.41
   6   0   5   52.79    1.53
  -7   0  -5    0.07    0.21
   7   0   5    0.28    0.27
   6  -1  -5    1.65    0.37
  -6   1   5    0.94    0.33
   5  -1  -5   49.65    1.46
  -5   1   5   47.82    1.58
   4  -1  -5   22.02    0.79
  -4   1   5   20.32    0.68
  -4   1   5   20.65    0.93
  -4   1   5   20.73    0.68
  -4   1   5   20.74    0.88
  -4   1   5   19.90    0.81
   3  -1  -5   22.28    0.93
   3  -1  -5   22.29    0.72
   3  -1  -5   22.06    0.85
   3  -1  -5   21.80    0.74
   3  -1  -5   21.91    0.83
  -3   1   5   21.88    0.64
  -3   1   5   21.60    0.87
  -3   1   5   21.67    0.62
  -3   1   5   20.30    0.81
  -3   1   5   21.89    0.77
   2  -1  -5  156.52    3.29
   2  -1  -5  157.62    3.14
   2  -1  -5  155.94    3.35
   2  -1  -5  159.57    3.42
   2  -1  -5  163.98    3.24
  -2   1   5  153.42    3.24
  -2   1   5  152.87    3.31
  -2   1   5  159.45    3.38
   1  -1  -5    5.52    0.22
   1  -1  -5    5.30    0.37
   1  -1  -5    5.33    0.30
   1  -1  -5    5.13    0.32
   1  -1  -5    5.37    0.29
   1  -1  -5    4.81    0.32
   1  -1  -5    5.20    0.32
  -1   1   5    5.27    0.30
  -1   1   5    5.58    0.36
  -1   1   5    5.48    0.31
   0  -1  -5  518.83   10.14
   0  -1  -5  522.16   10.02
   0  -1  -5  544.76   10.08
   0  -1  -5  541.87   10.03
   0  -1  -5  546.85   10.11
   0   1   5  544.47   10.02
   0   1   5  535.10   10.00
  -1  -1  -5   92.59    2.07
  -1  -1  -5   93.73    1.98
  -1  -1  -5   94.77    2.03
  -1  -1  -5   91.17    1.84
  -2  -1  -5    6.94    0.33
  -2  -1  -5    7.49    0.37
  -2  -1  -5    6.84    0.30
  -2  -1  -5    6.59    0.37
   2   1   5    7.19    0.26
   2   1   5    7.57    0.42
  -3  -1  -5  101.91    2.31
  -3  -1  -5  104.55    2.39
  -3  -1  -5  106.27    2.24
  -3  -1  -5  101.60    2.09
  -3  -1  -5  102.56    2.25
   3   1   5  105.18    2.19
   3   1   5  104.78    2.11
  -4  -1  -5   19.94    0.84
  -4  -1  -5   19.61    0.77
  -4  -1  -5   19.22    0.73
  -4  -1  -5   20.21    0.71
  -4  -1  -5   18.78    0.61
   4   1   5   18.73    0.67
   4   1   5   18.94    0.67
   4   1   5   19.35    0.61
  -5  -1  -5   67.96    1.61
  -5  -1  -5   67.75    1.98
  -5  -1  -5   72.33    1.90
  -5  -1  -5   67.38    1.81
   5   1   5   68.07    1.60
   5   1   5   67.95    1.62
   5   1   5   67.06    1.70
  -6  -1  -5   28.94    0.94
  -6  -1  -5   27.08    1.42
   6   1   5   28.89    1.00
  -7  -1  -5    2.70    0.43
   7   1   5    2.17    0.42
   5  -2  -5   51.27    1.51
  -5   2   5   51.17    1.61
   4  -2  -5   21.57    0.79
  -4   2   5   21.65    0.92
  -4   2   5   19.71    0.84
  -4   2   5   19.49    0.78
   3  -2  -5   33.36    1.08
   3  -2  -5   33.93    0.97
   3  -2  -5   34.16    1.19
   3  -2  -5   32.94    1.07
   3  -2  -5   33.22    1.01
  -3   2   5   34.78    1.01
  -3   2   5   33.38    0.88
  -3   2   5   34.27    0.87
  -3   2   5   33.79    1.12
  -3   2   5   33.09    1.06
   2  -2  -5  181.34    3.71
   2  -2  -5  176.20    3.78
   2  -2  -5  176.37    3.62
   2  -2  -5  179.38    3.67
   2  -2  -5  179.93    3.54
  -2   2   5  176.20    3.41
  -2   2   5  175.90    3.71
  -2   2   5  176.84    3.43
  -2   2   5  177.43    3.59
   1  -2  -5    2.87    0.18
   1  -2  -5    2.76    0.23
   1  -2  -5    2.56    0.24
   1  -2  -5    2.69    0.31
   1  -2  -5    2.74    0.22
   1  -2  -5    2.47    0.26
   1  -2  -5    2.71    0.25
  -1   2   5    2.78    0.26
  -1   2   5    2.42    0.24
   0  -2  -5  364.94    7.15
   0  -2  -5  365.79    7.03
   0  -2  -5  389.77    7.11
   0  -2  -5  366.41    7.11
   0  -2  -5  379.48    7.01
   0  -2  -5  374.60    7.08
   0   2   5  364.00    6.95
   0   2   5  363.69    6.90
  -1  -2  -5   78.88    1.67
  -1  -2  -5   83.65    1.75
  -1  -2  -5   83.32    1.82
  -1  -2  -5   81.58    1.84
   1   2   5   82.16    1.61
  -2  -2  -5   71.44    1.67
  -2  -2  -5   68.23    1.53
  -2  -2  -5   70.19    1.45
  -2  -2  -5   70.51    1.64
   2   2   5   70.50    1.45
  -3  -2  -5  195.96    3.98
  -3  -2  -5  197.81    3.88
  -3  -2  -5  201.23    3.96
  -3  -2  -5  195.17    3.84
  -3  -2  -5  205.21    3.78
  -3  -2  -5  199.49    3.82
  -3  -2  -5  197.99    3.79
  -3  -2  -5  198.38    3.85
  -3  -2  -5  191.87    4.11
  -3  -2  -5  197.21    4.07
   3   2   5  201.09    3.87
   3   2   5  196.51    3.90
   3   2   5  201.56    3.84
   3   2   5  202.19    3.81
   3   2   5  198.09    3.92
  -4  -2  -5    4.62    0.42
  -4  -2  -5    5.13    0.27
  -4  -2  -5    5.08    0.40
  -4  -2  -5    5.35    0.29
  -4  -2  -5    5.52    0.33
  -4  -2  -5    4.76    0.36
  -4  -2  -5    4.89    0.34
   4   2   5    4.99    0.35
   4   2   5    5.17    0.30
   4   2   5    5.23    0.34
   4   2   5    5.22    0.30
  -5  -2  -5   84.84    2.22
  -5  -2  -5   84.78    1.95
  -5  -2  -5   84.20    2.31
  -5  -2  -5   87.05    2.14
   5   2   5   84.36    1.99
   5   2   5   84.61    1.89
   5   2   5   83.45    1.87
  -6  -2  -5   13.17    0.81
  -6  -2  -5   14.06    0.65
   6   2   5   13.26    0.65
   7   2   5    6.84    0.55
  -6   3   5    1.57    0.40
   5  -3  -5   53.76    1.59
   4  -3  -5   29.42    0.97
   4  -3  -5   29.35    1.01
  -4   3   5   27.59    0.95
  -4   3   5   26.73    0.99
  -4   3   5   28.72    1.08
  -4   3   5   27.86    0.94
   3  -3  -5  109.79    2.45
   3  -3  -5  113.02    2.61
   3  -3  -5  114.61    2.54
   3  -3  -5  110.22    2.26
   3  -3  -5  111.80    2.75
   3  -3  -5  112.37    2.55
  -3   3   5  111.30    2.59
  -3   3   5  113.29    2.34
  -3   3   5  110.16    2.45
  -3   3   5  112.58    2.53
  -3   3   5  110.20    2.40
  -3   3   5  112.83    2.32
   2  -3  -5  148.51    3.12
   2  -3  -5  149.29    3.25
   2  -3  -5  147.13    3.01
   2  -3  -5  151.37    3.11
   2  -3  -5  154.88    3.15
   2  -3  -5  143.86    2.86
  -2   3   5  133.64    3.16
  -2   3   5  148.35    2.89
  -2   3   5  146.73    3.01
  -2   3   5  146.57    3.13
  -2   3   5  147.99    2.91
   1  -3  -5   13.30    0.54
   1  -3  -5   12.63    0.53
   1  -3  -5   13.57    0.51
   1  -3  -5   13.50    0.49
   1  -3  -5   13.34    0.56
   1  -3  -5   12.88    0.45
   1  -3  -5   12.67    0.38
   1  -3  -5   13.34    0.49
   1  -3  -5   11.43    0.52
  -1   3   5   12.71    0.53
  -1   3   5   12.79    0.40
  -1   3   5   13.03    0.40
  -1   3   5   13.26    0.47
   0  -3  -5   81.83    1.77
   0  -3  -5   86.70    1.83
   0  -3  -5   88.11    1.90
   0  -3  -5   85.03    1.94
   0  -3  -5   84.56    1.76
   0  -3  -5   91.28    1.96
   0  -3  -5   82.60    1.68
   0  -3  -5   83.44    1.92
   0  -3  -5   85.28    1.83
   0   3   5   84.50    1.68
   0   3   5   81.30    1.76
   0   3   5   86.16    1.70
   0   3   5   81.65    1.82
  -1  -3  -5   97.20    2.00
  -1  -3  -5   96.94    1.86
  -1  -3  -5   94.94    2.08
  -1  -3  -5   95.59    1.91
  -1  -3  -5   98.31    2.09
  -1  -3  -5   97.37    1.90
  -1  -3  -5   97.05    1.95
   1   3   5   95.27    1.92
   1   3   5   93.99    1.90
   1   3   5   93.98    1.97
   1   3   5   93.29    1.88
  -2  -3  -5  179.32    3.36
  -2  -3  -5  166.13    3.40
  -2  -3  -5  167.93    3.34
  -2  -3  -5  171.19    3.30
  -2  -3  -5  179.72    3.30
  -2  -3  -5  175.96    3.43
  -2  -3  -5  172.33    3.27
  -2  -3  -5  175.13    3.29
  -2  -3  -5  173.29    3.53
  -2  -3  -5  171.79    3.53
  -2  -3  -5  172.74    3.33
   2   3   5  169.10    3.30
   2   3   5  170.54    3.37
   2   3   5  169.09    3.32
  -3  -3  -5  254.97    5.04
  -3  -3  -5  263.79    5.03
  -3  -3  -5  265.55    4.92
  -3  -3  -5  263.08    5.25
  -3  -3  -5  258.33    4.97
  -3  -3  -5  254.02    4.96
  -3  -3  -5  262.09    5.22
  -3  -3  -5  264.54    5.08
  -3  -3  -5  267.15    4.91
  -3  -3  -5  267.08    4.96
  -3  -3  -5  260.61    5.10
   3   3   5  257.60    4.95
   3   3   5  243.59    5.21
   3   3   5  260.63    5.02
   3   3   5  252.54    4.92
  -4  -3  -5    1.46    0.30
  -4  -3  -5    2.04    0.24
  -4  -3  -5    1.64    0.24
  -4  -3  -5    1.88    0.22
  -4  -3  -5    1.79    0.31
  -4  -3  -5    1.81    0.29
   4   3   5    1.55    0.24
   4   3   5    1.71    0.22
   4   3   5    1.59    0.20
  -5  -3  -5   63.14    1.48
  -5  -3  -5   62.77    1.56
  -5  -3  -5   60.13    1.81
  -5  -3  -5   61.95    1.77
  -5  -3  -5   64.90    1.47
  -5  -3  -5   60.72    1.94
   5   3   5   62.34    1.56
  -6  -3  -5   42.73    1.26
  -6  -3  -5   41.46    1.53
   6   3   5   41.36    1.23
  -7  -3  -5   12.09    0.90
  -7  -3  -5   12.11    0.70
   7   3   5   12.23    0.65
  -6   4   5   10.55    0.68
   5  -4  -5   41.91    1.11
  -5   4   5   41.94    1.30
   4  -4  -5    0.25    0.15
   4  -4  -5    0.52    0.17
   4  -4  -5    0.41    0.21
  -4   4   5    0.44    0.20
  -4   4   5    0.39    0.17
  -4   4   5    0.33    0.19
   3  -4  -5   90.04    1.93
   3  -4  -5   91.44    2.18
   3  -4  -5   88.10    2.10
   3  -4  -5   88.32    2.19
   3  -4  -5   88.68    2.34
   3  -4  -5   88.19    2.05
  -3   4   5   91.42    1.92
  -3   4   5   91.47    1.94
  -3   4   5   90.46    2.01
  -3   4   5   90.00    2.15
  -3   4   5   87.49    2.08
  -3   4   5   89.57    2.02
   2  -4  -5   77.05    1.97
   2  -4  -5   76.61    1.76
   2  -4  -5   74.10    1.65
   2  -4  -5   78.38    1.86
   2  -4  -5   77.68    1.86
   2  -4  -5   78.23    1.83
  -2   4   5   78.65    1.65
  -2   4   5   77.91    1.72
  -2   4   5   77.05    1.71
  -2   4   5   77.80    1.81
  -2   4   5   77.53    1.66
   1  -4  -5   67.63    1.57
   1  -4  -5   62.14    1.55
   1  -4  -5   66.65    1.49
   1  -4  -5   64.65    1.69
   1  -4  -5   65.74    1.47
   1  -4  -5   64.64    1.54
   1  -4  -5   64.30    1.40
   1  -4  -5   67.43    1.59
   1  -4  -5   66.32    1.63
  -1   4   5   63.61    1.44
  -1   4   5   65.39    1.40
  -1   4   5   65.77    1.39
  -1   4   5   67.76    1.46
  -1   4   5   67.12    1.55
   0  -4  -5  325.65    6.05
   0  -4  -5  328.20    6.14
   0  -4  -5  313.05    6.03
   0  -4  -5  315.19    6.10
   0  -4  -5  324.46    6.13
   0  -4  -5  316.40    5.89
   0  -4  -5  315.46    6.14
   0  -4  -5  310.95    5.95
   0  -4  -5  318.44    5.90
   0   4   5  314.05    5.92
   0   4   5  314.76    5.94
  -1  -4  -5   15.06    0.42
  -1  -4  -5   14.03    0.45
  -1  -4  -5   15.19    0.48
  -1  -4  -5   15.07    0.48
  -1  -4  -5   15.91    0.57
  -1  -4  -5   15.54    0.55
  -1  -4  -5   15.01    0.46
  -1  -4  -5   14.71    0.47
  -1  -4  -5   15.76    0.53
  -1  -4  -5   14.93    0.43
   1   4   5   14.65    0.45
   1   4   5   15.09    0.44
   1   4   5   14.63    0.49
   1   4   5   14.83    0.49
   1   4   5   15.88    0.54
  -2  -4  -5  182.76    3.51
  -2  -4  -5  176.86    3.37
  -2  -4  -5  175.09    3.58
  -2  -4  -5  173.96    3.41
  -2  -4  -5  177.31    3.61
  -2  -4  -5  179.72    3.48
  -2  -4  -5  168.26    3.49
  -2  -4  -5  179.55    3.36
  -2  -4  -5  167.41    3.41
  -2  -4  -5  179.40    3.42
   2   4   5  167.77    3.43
   2   4   5  172.59    3.37
   2   4   5  172.67    3.36
  -3  -4  -5   73.96    1.72
  -3  -4  -5   75.69    1.85
  -3  -4  -5   75.25    1.57
  -3  -4  -5   74.17    1.84
  -3  -4  -5   73.90    1.64
  -3  -4  -5   74.33    1.64
  -3  -4  -5   73.93    1.72
  -3  -4  -5   74.08    1.58
   3   4   5   73.00    1.56
   3   4   5   72.15    1.55
   3   4   5   70.62    1.63
   3   4   5   72.83    1.66
  -4  -4  -5   26.05    0.97
  -4  -4  -5   24.70    0.78
  -4  -4  -5   25.49    0.74
  -4  -4  -5   25.44    0.98
  -4  -4  -5   25.30    0.72
  -4  -4  -5   24.93    0.86
   4   4   5   24.52    0.77
   4   4   5   23.61    0.68
   4   4   5   24.30    0.79
  -5  -4  -5   82.61    1.92
  -5  -4  -5   78.69    2.18
   5   4   5   77.46    1.85
  -6  -4  -5   12.64    0.66
  -6  -4  -5   10.85    0.80
   6   4   5   11.76    0.59
  -7  -4  -5   17.15    1.07
  -7  -4  -5   17.54    0.84
  -6   5   5   36.21    1.27
   5  -5  -5   36.23    1.07
   5  -5  -5   35.22    1.32
  -5   5   5   36.18    1.18
   4  -5  -5   15.96    0.63
   4  -5  -5   15.68    0.80
  -4   5   5   17.07    0.69
   3  -5  -5   97.10    2.41
   3  -5  -5   95.19    2.54
   3  -5  -5  101.30    2.40
   3  -5  -5   97.43    2.25
   3  -5  -5   98.41    2.16
  -3   5   5  101.52    2.19
  -3   5   5   98.53    2.20
  -3   5   5  100.50    2.11
  -3   5   5  101.77    2.13
  -3   5   5  100.28    2.31
   2  -5  -5   49.69    1.28
   2  -5  -5   51.41    1.40
   2  -5  -5   49.19    1.38
   2  -5  -5   48.76    1.56
   2  -5  -5   49.88    1.21
   2  -5  -5   50.60    1.31
   2  -5  -5   50.74    1.50
  -2   5   5   52.14    1.18
  -2   5   5   52.22    1.17
  -2   5   5   49.81    1.23
  -2   5   5   53.10    1.21
  -2   5   5   51.71    1.29
   1  -5  -5  101.36    2.17
   1  -5  -5  100.67    2.17
   1  -5  -5  100.96    2.36
   1  -5  -5  101.60    2.48
   1  -5  -5  103.06    2.26
   1  -5  -5  100.81    2.08
   1  -5  -5  102.23    2.11
   1  -5  -5  101.48    2.04
   1  -5  -5  100.18    2.24
   1  -5  -5  100.77    2.27
  -1   5   5  105.64    2.17
  -1   5   5  102.84    2.05
  -1   5   5  102.82    2.08
  -1   5   5  101.12    2.06
  -1   5   5   97.72    2.11
   0  -5  -5  337.64    6.26
   0  -5  -5  324.32    6.08
   0  -5  -5  317.17    6.23
   0  -5  -5  327.17    6.06
   0  -5  -5  332.73    6.36
   0  -5  -5  325.63    6.11
   0  -5  -5  317.29    6.11
   0  -5  -5  313.51    6.13
   0  -5  -5  333.11    6.26
   0  -5  -5  317.34    6.24
   0  -5  -5  323.51    6.07
   0   5   5  322.22    6.13
   0   5   5  327.27    6.07
   0   5   5  327.88    6.06
  -1  -5  -5    7.21    0.28
  -1  -5  -5    6.76    0.38
  -1  -5  -5    7.09    0.31
  -1  -5  -5    7.57    0.31
  -1  -5  -5    7.08    0.38
  -1  -5  -5    6.50    0.31
  -1  -5  -5    6.88    0.34
  -1  -5  -5    7.79    0.36
  -1  -5  -5    7.16    0.29
  -1  -5  -5    7.00    0.33
   1   5   5    6.64    0.29
   1   5   5    6.16    0.27
   1   5   5    7.46    0.33
   1   5   5    6.60    0.31
  -2  -5  -5  166.23    3.47
  -2  -5  -5  172.84    3.44
  -2  -5  -5  169.93    3.35
  -2  -5  -5  167.45    3.28
  -2  -5  -5  168.93    3.44
  -2  -5  -5  165.20    3.34
  -2  -5  -5  164.96    3.21
  -2  -5  -5  161.75    3.36
  -2  -5  -5  162.64    3.23
  -2  -5  -5  166.97    3.31
   2   5   5  165.13    3.21
   2   5   5  161.27    3.19
   2   5   5  162.92    3.28
   2   5   5  169.02    3.32
  -3  -5  -5   51.65    1.29
  -3  -5  -5   49.80    1.24
  -3  -5  -5   51.62    1.19
  -3  -5  -5   50.52    1.30
  -3  -5  -5   51.77    1.38
  -3  -5  -5   51.87    1.44
  -3  -5  -5   52.15    1.18
  -3  -5  -5   52.90    1.43
   3   5   5   51.71    1.27
   3   5   5   50.26    1.23
  -4  -5  -5   52.28    1.57
  -4  -5  -5   53.54    1.58
  -4  -5  -5   53.13    1.26
  -4  -5  -5   53.56    1.35
  -4  -5  -5   53.10    1.29
  -4  -5  -5   54.39    1.45
   4   5   5   54.16    1.32
   4   5   5   52.95    1.37
  -5  -5  -5  141.34    3.04
  -5  -5  -5  138.39    3.37
   5   5   5  140.56    2.94
  -6  -5  -5    4.40    0.49
  -6  -5  -5    4.77    0.65
   5  -6  -5   20.27    0.81
   5  -6  -5   19.93    1.02
  -5   6   5   20.65    0.85
   4  -6  -5    3.37    0.48
   4  -6  -5    3.66    0.38
  -4   6   5    2.04    0.35
  -4   6   5    2.84    0.36
  -4   6   5    1.90    0.33
   3  -6  -5  125.12    2.71
   3  -6  -5  129.78    2.98
  -3   6   5  127.41    2.62
  -3   6   5  126.01    2.71
  -3   6   5  124.37    2.59
   2  -6  -5    9.92    0.61
   2  -6  -5   10.05    0.69
   2  -6  -5   10.46    0.47
   2  -6  -5   10.31    0.57
   2  -6  -5   10.46    0.56
  -2   6   5   10.15    0.45
  -2   6   5   10.91    0.48
  -2   6   5   10.65    0.49
  -2   6   5   10.70    0.44
  -2   6   5   10.60    0.39
  -2   6   5   10.23    0.40
   1  -6  -5  102.77    2.32
   1  -6  -5   90.53    2.19
   1  -6  -5   99.51    2.09
   1  -6  -5  100.92    2.14
   1  -6  -5  102.94    2.45
   1  -6  -5  102.61    2.07
   1  -6  -5  102.42    2.58
   1  -6  -5  101.07    2.30
   1  -6  -5  102.70    2.08
   1  -6  -5  100.40    2.12
  -1   6   5  100.18    2.19
  -1   6   5   98.37    2.11
  -1   6   5  102.01    2.05
  -1   6   5  104.89    2.20
  -1   6   5  100.31    2.03
  -1   6   5  104.25    2.03
   0  -6  -5   92.89    2.12
   0  -6  -5   94.87    1.94
   0  -6  -5   92.83    1.99
   0  -6  -5   94.74    2.11
   0  -6  -5   93.88    1.92
   0  -6  -5   93.22    2.00
   0  -6  -5   98.61    2.10
   0  -6  -5   96.12    2.24
   0  -6  -5   90.67    1.96
   0   6   5   96.60    2.04
   0   6   5   94.67    1.88
   0   6   5   91.13    1.96
   0   6   5   94.88    1.89
  -1  -6  -5   11.45    0.54
  -1  -6  -5   11.22    0.48
  -1  -6  -5   10.02    0.42
  -1  -6  -5   10.93    0.39
  -1  -6  -5    9.74    0.41
  -1  -6  -5   10.26    0.38
  -1  -6  -5   11.15    0.49
  -1  -6  -5   10.26    0.37
  -1  -6  -5   10.39    0.44
  -1  -6  -5   10.83    0.42
  -1  -6  -5    9.77    0.43
   1   6   5   11.28    0.43
   1   6   5    9.92    0.39
  -2  -6  -5  220.90    4.31
  -2  -6  -5  217.10    4.38
  -2  -6  -5  223.38    4.55
  -2  -6  -5  227.49    4.33
  -2  -6  -5  221.71    4.43
  -2  -6  -5  225.62    4.44
  -2  -6  -5  221.01    4.51
  -2  -6  -5  219.42    4.24
  -2  -6  -5  226.12    4.45
  -2  -6  -5  215.80    4.25
   2   6   5  218.32    4.27
  -3  -6  -5   40.28    0.99
  -3  -6  -5   41.87    1.15
  -3  -6  -5   40.13    1.25
  -3  -6  -5   42.02    1.26
  -3  -6  -5   41.81    1.12
  -3  -6  -5   41.55    1.23
  -3  -6  -5   39.61    1.06
  -3  -6  -5   40.33    1.01
  -3  -6  -5   40.18    1.17
  -3  -6  -5   41.11    1.15
   3   6   5   40.82    1.09
   3   6   5   39.68    1.01
  -4  -6  -5   39.17    1.32
  -4  -6  -5   37.90    1.21
  -4  -6  -5   38.66    1.03
  -4  -6  -5   39.52    1.17
  -4  -6  -5   39.24    1.01
  -4  -6  -5   38.19    1.29
  -4  -6  -5   39.29    1.10
  -4  -6  -5   36.32    1.30
   4   6   5   38.68    1.11
   4   6   5   39.52    1.01
  -5  -6  -5   51.07    1.41
  -5  -6  -5   50.98    1.69
   5   6   5   51.26    1.44
  -6  -6  -5   -0.24    0.29
   5  -7  -5    6.30    0.52
   5  -7  -5    6.51    0.77
  -5   7   5    6.49    0.52
   4  -7  -5    9.89    0.59
   4  -7  -5    9.12    0.69
  -4   7   5    9.52    0.54
   3  -7  -5   60.23    1.53
   3  -7  -5   57.79    1.73
  -3   7   5   59.26    1.46
   2  -7  -5    2.40    0.38
   2  -7  -5    1.70    0.26
   2  -7  -5    1.76    0.40
   2  -7  -5    1.93    0.39
   2  -7  -5    2.07    0.36
  -2   7   5    1.32    0.23
  -2   7   5    1.25    0.22
   1  -7  -5  114.94    2.52
   1  -7  -5  119.09    2.87
   1  -7  -5  123.76    3.05
   1  -7  -5  119.21    2.53
   1  -7  -5  119.56    2.44
   1  -7  -5  120.66    2.71
   1  -7  -5  122.72    2.47
   1  -7  -5  117.97    2.72
   1  -7  -5  116.73    2.49
  -1   7   5  121.55    2.58
  -1   7   5  118.36    2.46
   0  -7  -5   65.83    1.45
   0  -7  -5   65.73    1.55
   0  -7  -5   66.33    1.44
   0  -7  -5   65.71    1.51
   0  -7  -5   64.54    1.66
   0  -7  -5   65.89    1.78
   0  -7  -5   66.19    1.52
   0  -7  -5   67.20    1.63
   0  -7  -5   66.14    1.57
   0   7   5   66.81    1.56
   0   7   5   65.32    1.44
  -1  -7  -5   22.78    0.75
  -1  -7  -5   23.64    0.78
  -1  -7  -5   22.85    0.64
  -1  -7  -5   22.78    0.62
  -1  -7  -5   22.17    0.62
  -1  -7  -5   21.03    0.67
  -1  -7  -5   22.13    0.87
  -1  -7  -5   23.77    0.81
  -1  -7  -5   22.94    0.73
  -1  -7  -5   21.80    0.68
  -1  -7  -5   22.24    0.71
   1   7   5   22.22    0.70
   1   7   5   22.78    0.63
  -2  -7  -5  175.33    3.65
  -2  -7  -5  168.87    3.37
  -2  -7  -5  172.45    3.61
  -2  -7  -5  175.67    3.43
  -2  -7  -5  173.68    3.54
  -2  -7  -5  172.60    3.75
  -2  -7  -5  164.06    3.43
  -2  -7  -5  168.76    3.35
  -2  -7  -5  169.17    3.53
  -2  -7  -5  172.91    3.59
   2   7   5  169.53    3.34
   2   7   5  174.64    3.49
  -3  -7  -5    1.26    0.28
  -3  -7  -5    1.48    0.26
  -3  -7  -5    1.07    0.19
  -3  -7  -5    1.14    0.18
  -3  -7  -5    0.98    0.23
  -3  -7  -5    1.20    0.27
  -3  -7  -5    0.89    0.21
  -3  -7  -5    1.43    0.24
  -3  -7  -5    1.73    0.31
  -3  -7  -5    0.75    0.23
   3   7   5    1.16    0.21
  -4  -7  -5   76.96    2.15
  -4  -7  -5   79.81    2.11
  -4  -7  -5   79.34    1.95
  -4  -7  -5   78.53    2.15
  -4  -7  -5   79.88    2.03
   4   7   5   78.03    1.91
  -5  -7  -5   14.31    0.86
   5   7   5   14.81    0.68
  -6  -7  -5    3.68    0.60
   5  -8  -5    8.95    0.78
   5  -8  -5    9.65    0.67
  -5   8   5    8.95    0.59
   4  -8  -5   40.40    1.27
   4  -8  -5   39.11    1.48
  -4   8   5   38.95    1.15
   3  -8  -5   46.40    1.33
   3  -8  -5   46.65    1.54
  -3   8   5   46.22    1.22
   2  -8  -5    1.22    0.38
   2  -8  -5    1.90    0.29
   2  -8  -5    1.16    0.28
  -2   8   5    1.14    0.21
  -2   8   5    1.41    0.23
   1  -8  -5  142.77    3.13
   1  -8  -5  135.31    3.15
   1  -8  -5  136.65    2.92
   1  -8  -5  140.94    3.50
   1  -8  -5  139.97    2.86
   1  -8  -5  139.79    2.83
   1  -8  -5  136.94    3.32
  -1   8   5  140.09    2.79
  -1   8   5  138.16    2.97
   0  -8  -5   46.79    1.47
   0  -8  -5   45.54    1.35
   0  -8  -5   45.08    1.24
   0  -8  -5   45.23    1.29
   0  -8  -5   47.55    1.22
   0  -8  -5   47.20    1.13
   0  -8  -5   46.20    1.19
   0  -8  -5   47.21    1.12
   0   8   5   47.70    1.07
   0   8   5   48.30    1.24
  -1  -8  -5   86.90    1.98
  -1  -8  -5   86.23    1.98
  -1  -8  -5   86.85    1.82
  -1  -8  -5   86.16    2.02
  -1  -8  -5   86.19    1.84
  -1  -8  -5   81.86    2.21
  -1  -8  -5   85.47    2.10
  -1  -8  -5   88.16    2.03
   1   8   5   87.89    1.96
  -2  -8  -5  101.19    2.11
  -2  -8  -5  100.14    2.54
  -2  -8  -5  100.98    2.39
  -2  -8  -5  101.98    2.13
  -2  -8  -5   99.50    2.30
  -2  -8  -5  101.84    2.35
  -2  -8  -5  102.78    2.41
   2   8   5  100.42    2.23
  -3  -8  -5    0.35    0.15
  -3  -8  -5    0.59    0.15
  -3  -8  -5   -0.02    0.17
  -3  -8  -5    0.38    0.24
  -3  -8  -5    0.62    0.22
  -3  -8  -5    0.71    0.21
  -3  -8  -5    0.40    0.17
  -3  -8  -5    0.37    0.17
  -3  -8  -5    0.16    0.23
   3   8   5    0.23    0.12
  -4  -8  -5   96.72    2.49
  -4  -8  -5  100.85    2.43
  -4  -8  -5   97.73    2.47
  -4  -8  -5   97.88    2.33
  -4  -8  -5  100.99    2.59
   4   8   5   99.75    2.32
  -5  -8  -5   41.95    1.55
   5   8   5   39.75    1.28
  -6  -8  -5   18.32    1.09
   5  -9  -5    1.11    0.42
   5  -9  -5    0.92    0.36
  -5   9   5    1.10    0.28
   4  -9  -5   30.00    1.34
   4  -9  -5   31.38    1.16
  -4   9   5   30.70    0.96
   3  -9  -5   41.25    1.47
   3  -9  -5   42.15    1.30
  -3   9   5   42.07    1.11
   2  -9  -5    4.92    0.59
   2  -9  -5    4.01    0.43
   2  -9  -5    4.36    0.70
  -2   9   5    2.90    0.35
  -2   9   5    3.69    0.30
   1  -9  -5   91.89    2.69
   1  -9  -5   91.74    2.03
   1  -9  -5   92.43    2.19
   1  -9  -5   92.32    2.05
   1  -9  -5   94.06    2.32
   1  -9  -5   94.65    2.15
  -1   9   5   92.31    2.19
   0  -9  -5    5.33    0.40
   0  -9  -5    4.18    0.48
   0  -9  -5    4.82    0.36
   0  -9  -5    4.43    0.40
   0  -9  -5    5.33    0.32
   0  -9  -5    5.36    0.50
   0  -9  -5    4.77    0.30
   0   9   5    5.61    0.37
  -1  -9  -5   99.62    2.13
  -1  -9  -5   97.35    2.59
  -1  -9  -5  102.32    2.36
  -1  -9  -5  104.03    2.34
  -1  -9  -5  102.64    2.12
  -1  -9  -5   94.63    2.43
  -1  -9  -5  100.59    2.31
   1   9   5  101.58    2.26
  -2  -9  -5   74.79    1.89
  -2  -9  -5   75.68    1.69
  -2  -9  -5   73.44    1.99
  -2  -9  -5   77.18    1.96
  -2  -9  -5   75.29    2.14
  -2  -9  -5   75.29    1.67
  -2  -9  -5   73.42    1.93
   2   9   5   79.33    1.83
  -3  -9  -5    6.30    0.51
  -3  -9  -5    6.03    0.54
  -3  -9  -5    4.59    0.45
   3   9   5    5.96    0.41
  -4  -9  -5   69.64    1.90
  -4  -9  -5   67.85    2.02
  -4  -9  -5   65.79    1.93
   4   9   5   70.49    1.80
  -5  -9  -5   10.93    0.82
   5   9   5   10.38    0.61
   4 -10  -5   29.19    1.17
   4 -10  -5   30.51    1.37
   3 -10  -5   14.24    0.87
   3 -10  -5   13.47    0.75
   2 -10  -5   40.85    1.27
   2 -10  -5   41.30    1.36
   2 -10  -5   40.69    1.81
   2 -10  -5   42.48    1.45
  -2  10   5   41.38    1.31
   1 -10  -5   58.99    2.10
   1 -10  -5   61.34    1.64
   1 -10  -5   59.88    1.73
   1 -10  -5   58.87    1.58
  -1  10   5   57.50    1.60
   0 -10  -5    0.48    0.20
   0 -10  -5    0.45    0.19
   0 -10  -5    0.26    0.14
   0 -10  -5    0.14    0.18
   0 -10  -5    0.35    0.16
   0  10   5    0.27    0.14
  -1 -10  -5   64.64    1.50
  -1 -10  -5   63.67    1.51
  -1 -10  -5   63.84    1.70
  -1 -10  -5   68.16    1.77
   1  10   5   64.99    1.65
  -2 -10  -5   48.13    1.48
  -2 -10  -5   48.21    1.46
  -2 -10  -5   48.65    1.43
   2  10   5   49.07    1.35
  -3 -10  -5   34.75    1.29
  -3 -10  -5   36.97    1.24
  -3 -10  -5   35.71    1.27
   3  10   5   36.18    1.13
  -4 -10  -5   66.19    1.96
  -4 -10  -5   66.54    1.91
  -4 -10  -5   65.83    2.02
   4  10   5   64.88    1.77
  -5 -10  -5   -0.02    0.29
   5  10   5    0.49    0.21
   4 -11  -5   23.91    1.12
   4 -11  -5   25.97    1.32
   3 -11  -5    2.97    0.57
   2 -11  -5   36.74    1.40
   2 -11  -5   39.22    1.85
   2 -11  -5   37.61    1.37
  -2  11   5   38.16    1.31
   1 -11  -5   54.87    1.57
   1 -11  -5   55.25    1.63
   1 -11  -5   55.28    1.71
   1 -11  -5   55.93    2.12
  -1  11   5   56.38    1.60
   0 -11  -5    2.13    0.37
   0 -11  -5    1.52    0.33
   0 -11  -5    1.61    0.31
   0  11   5    1.80    0.30
  -1 -11  -5   60.33    1.69
  -1 -11  -5   60.93    1.74
   1  11   5   60.50    1.62
  -2 -11  -5    8.80    0.64
  -2 -11  -5    9.37    0.61
   2  11   5    9.50    0.53
  -3 -11  -5   29.40    1.13
  -3 -11  -5   28.44    1.18
  -3 -11  -5   29.57    1.18
   3  11   5   29.46    1.02
  -4 -11  -5   35.85    1.43
  -4 -11  -5   34.92    1.38
  -4 -11  -5   37.06    1.36
   4  11   5   35.79    1.23
  -5 -11  -5    0.53    0.30
  -5 -11  -5    0.54    0.36
  -5 -11  -5    0.53    0.30
   5  11   5    0.53    0.24
   3 -12  -5    0.42    0.34
   2 -12  -5   14.69    0.91
   2 -12  -5   15.73    1.14
   2 -12  -5   14.48    1.06
  -2  12   5   15.36    0.82
   1 -12  -5   26.33    1.03
   1 -12  -5   24.87    1.11
   1 -12  -5   25.45    1.07
   1 -12  -5   25.08    1.44
  -1  12   5   25.15    1.01
   0 -12  -5   12.41    0.71
   0 -12  -5   13.70    0.77
   0  12   5   14.12    0.70
  -1 -12  -5   78.35    2.11
  -1 -12  -5   76.74    2.05
   1  12   5   72.40    1.94
  -2 -12  -5    3.22    0.47
  -2 -12  -5    3.93    0.54
   2  12   5    2.52    0.37
  -3 -12  -5   27.70    1.15
  -3 -12  -5   25.29    1.16
   3  12   5   26.27    1.00
  -4 -12  -5   23.53    1.12
  -4 -12  -5   23.54    1.19
  -4 -12  -5   24.18    1.17
   4  12   5   24.08    1.00
   2 -13  -5   27.60    1.33
  -2  13   5   30.01    1.22
   1 -13  -5    7.73    0.62
   1 -13  -5    8.74    0.98
   1 -13  -5    6.92    0.69
   1 -13  -5    7.14    0.77
  -1  13   5    7.53    0.57
   0 -13  -5   14.61    0.80
   0 -13  -5   16.19    0.88
   0  13   5   14.72    0.76
  -1 -13  -5   42.77    1.45
  -1 -13  -5   43.23    1.51
   1  13   5   43.39    1.40
  -2 -13  -5    1.22    0.37
  -2 -13  -5    1.51    0.35
   2  13   5    0.79    0.24
  -3 -13  -5   34.22    1.35
  -3 -13  -5   31.77    1.36
   3  13   5   33.68    1.20
   1 -14  -5    2.74    0.48
   1 -14  -5    3.83    0.58
   1 -14  -5    4.23    0.66
  -1  14   5    3.57    0.50
   0 -14  -5   17.61    0.91
   0 -14  -5   16.27    0.93
   0  14   5   17.22    0.86
  -1 -14  -5   17.93    0.93
  -1 -14  -5   17.32    0.97
   1  14   5   16.19    0.83
  -2 -14  -5    3.64    0.57
  -2 -14  -5    3.84    0.56
   2  14   5    2.64    0.41
  -1 -10   6    9.66    0.71
   0 -10   6    0.19    0.29
   0 -10   6    0.35    0.29
   1 -10   6   12.22    0.81
   1 -10   6   13.51    0.89
  -2  10  -6    7.01    0.47
   2 -10   6    7.21    0.78
  -1  -9   6   25.27    1.13
  -1  -9   6   25.24    1.08
   0  -9   6    5.82    0.70
   0  -9   6    5.13    0.61
   1  -9   6   46.35    1.53
  -2   9  -6    0.31    0.16
   2  -9   6    0.06    0.22
  -3   9  -6   17.73    0.77
   3  -9   6   17.94    1.00
  -3  -8   6    1.34    0.38
  -1  -8   6   15.19    0.83
  -1  -8   6   15.65    0.80
   0  -8   6    8.36    0.63
   0  -8   6    7.18    0.57
   1  -8   6   64.99    1.86
  -2   8  -6    1.02    0.18
   2  -8   6    0.87    0.32
  -3   8  -6   15.75    0.69
   3  -8   6   15.91    0.90
  -4   8  -6   13.73    0.73
   4  -8   6   12.96    0.89
   4   7  -6   22.45    0.78
  -4  -7   6   23.01    1.18
   3   7  -6    3.99    0.40
  -3  -7   6    5.23    0.64
  -2  -7   6   40.66    1.41
  -1  -7   6    1.54    0.35
  -1  -7   6    1.34    0.30
   0  -7   6   36.49    1.26
   0  -7   6   40.56    1.25
   0  -7   6   38.72    1.33
   1  -7   6   39.30    1.30
  -2   7  -6    2.70    0.25
   2  -7   6    2.31    0.42
  -3   7  -6   43.70    1.24
   3  -7   6   43.36    1.50
  -4   7  -6    2.96    0.39
   4  -7   6    3.50    0.56
  -5   7  -6   14.16    0.78
   5  -7   6   14.16    0.93
   4   6  -6    9.18    0.48
  -4  -6   6    9.30    0.75
   3   6  -6   10.36    0.40
  -3  -6   6   11.36    0.77
  -2  -6   6   32.33    1.19
  -1  -6   6    8.11    0.54
  -1  -6   6    7.71    0.55
  -1  -6   6    7.85    0.52
   0  -6   6   79.88    2.26
   0  -6   6   79.69    2.10
   0  -6   6   86.30    2.05
   1  -6   6   30.44    1.06
  -2   6  -6   18.68    0.57
   2  -6   6   20.11    0.87
  -3   6  -6   62.84    1.58
   3  -6   6   67.31    1.97
   3  -6   6   61.28    1.84
  -4   6  -6    7.33    0.50
   4  -6   6    8.97    0.79
   4  -6   6    8.80    0.66
  -5   6  -6   18.30    0.87
   5  -6   6   19.90    1.04
   4   5  -6    3.64    0.36
  -4  -5   6    3.37    0.52
   3   5  -6   31.53    0.84
  -3  -5   6   33.20    1.26
  -2  -5   6   60.65    1.61
  -2  -5   6   60.14    1.76
  -2  -5   6   60.24    1.74
   1   5  -6    0.09    0.15
  -1  -5   6   -0.02    0.17
  -1  -5   6    0.09    0.15
  -1  -5   6    0.50    0.19
  -1  -5   6   -0.01    0.13
  -1  -5   6   -0.19    0.12
  -1  -5   6    0.23    0.13
  -1  -5   6    0.12    0.14
   0   5  -6   87.39    2.17
   0   5  -6   87.87    2.02
   0   5  -6   85.78    2.05
   0  -5   6   87.02    2.05
   0  -5   6   83.00    2.22
   0  -5   6   82.69    2.11
   0  -5   6   89.59    2.07
   0  -5   6   81.73    2.08
   0  -5   6   83.12    1.97
   1  -5   6   19.59    0.79
  -2   5  -6   22.91    0.62
  -2   5  -6   22.82    0.63
   2  -5   6   23.67    0.91
  -3   5  -6   50.42    1.30
   3  -5   6   52.10    1.64
   3  -5   6   51.11    1.55
  -4   5  -6   -0.05    0.12
   4  -5   6    0.10    0.24
   4  -5   6    0.97    0.35
  -5   5  -6   26.80    1.05
   5  -5   6   28.52    1.20
   5  -5   6   28.69    1.45
   5   4  -6   47.54    1.43
  -5  -4   6   50.45    1.80
   4   4  -6   12.59    0.58
  -4  -4   6   14.69    0.86
   3   4  -6   31.18    0.84
  -3  -4   6   31.47    1.19
   2   4  -6  128.22    3.04
  -2  -4   6  125.56    2.88
  -2  -4   6  127.96    3.06
  -2  -4   6  130.10    3.03
  -2  -4   6  135.25    3.19
  -2  -4   6  133.26    3.39
   1   4  -6   25.98    0.93
  -1  -4   6   25.21    1.01
  -1  -4   6   25.24    0.95
  -1  -4   6   25.79    0.85
  -1  -4   6   25.80    0.91
  -1  -4   6   24.84    0.87
  -1  -4   6   23.81    0.90
  -1  -4   6   24.44    0.84
   0   4  -6  108.68    2.41
   0   4  -6  107.91    2.54
   0   4  -6  107.38    2.39
   0  -4   6  104.02    2.50
   0  -4   6  105.22    2.35
   0  -4   6   99.97    2.37
   0  -4   6  103.46    2.51
   0  -4   6  105.44    2.40
  -1   4  -6   21.47    0.75
  -1   4  -6   21.66    0.75
  -1   4  -6   22.19    0.85
   1  -4   6   22.24    0.88
   1  -4   6   23.04    0.88
   1  -4   6   22.20    0.77
   1  -4   6   21.03    0.79
   1  -4   6   20.88    0.78
  -2   4  -6   37.13    0.88
  -2   4  -6   40.12    1.23
  -2   4  -6   37.96    1.10
   2  -4   6   37.47    1.18
  -3   4  -6   80.64    2.65
  -3   4  -6   86.09    1.92
  -3   4  -6   78.54    2.42
   3  -4   6   90.27    2.28
   3  -4   6   87.24    2.16
  -4   4  -6   15.74    0.68
   4  -4   6   17.47    0.98
   4  -4   6   17.39    0.83
  -5   4  -6   40.40    1.31
   5  -4   6   40.40    1.43
   5  -4   6   41.57    1.73
  -6   4  -6   11.96    0.73
   6  -4   6   12.89    0.83
   5   3  -6   13.69    0.69
  -5  -3   6   14.02    0.91
   4   3  -6    3.64    0.38
  -4  -3   6    3.12    0.48
   3   3  -6   57.65    1.37
  -3  -3   6   60.66    1.79
  -3  -3   6   57.12    1.71
  -3  -3   6   58.98    1.62
   2   3  -6   23.35    0.88
   2   3  -6   23.17    0.98
   2   3  -6   22.81    0.91
  -2  -3   6   22.75    0.82
  -2  -3   6   22.84    0.89
  -2  -3   6   21.82    0.91
   1   3  -6   31.83    0.98
   1   3  -6   31.03    1.08
   1   3  -6   32.61    1.05
  -1  -3   6   30.95    1.09
  -1  -3   6   31.26    0.96
  -1  -3   6   31.37    0.94
  -1  -3   6   31.00    1.02
  -1  -3   6   30.26    0.98
  -1  -3   6   30.76    1.06
  -1  -3   6   30.00    0.90
   0   3  -6  124.79    2.88
   0   3  -6  130.55    2.75
   0   3  -6  130.17    2.78
   0  -3   6  125.77    2.72
   0  -3   6  130.17    2.89
   0  -3   6  119.34    2.67
   0  -3   6  122.40    2.78
  -1   3  -6    5.48    0.36
  -1   3  -6    5.84    0.36
  -1   3  -6    5.53    0.42
   1  -3   6    4.85    0.32
   1  -3   6    4.87    0.36
  -2   3  -6  124.66    2.80
  -2   3  -6  122.79    2.65
  -2   3  -6  113.75    2.38
  -2   3  -6  127.39    2.65
   2  -3   6  122.58    2.74
  -3   3  -6   41.22    1.10
  -3   3  -6   43.46    1.20
  -3   3  -6   43.59    1.32
   3  -3   6   43.54    1.38
   3  -3   6   43.22    1.30
  -4   3  -6    7.61    0.45
  -4   3  -6    8.67    0.49
  -4   3  -6    8.71    0.57
   4  -3   6    7.71    0.53
   4  -3   6    8.02    0.66
  -5   3  -6   31.83    1.10
   5  -3   6   33.59    1.48
   5  -3   6   31.70    1.19
   6  -3   6    2.50    0.48
   5   2  -6   21.11    0.87
  -5  -2   6   20.50    1.06
   4   2  -6   17.45    0.69
  -4  -2   6   17.62    0.90
   3   2  -6  161.02    3.22
  -3  -2   6  162.07    3.69
  -3  -2   6  152.28    3.57
  -3  -2   6  157.57    3.47
   2   2  -6    4.07    0.49
   2   2  -6    3.77    0.34
   2   2  -6    4.34    0.39
  -2  -2   6    4.13    0.46
  -2  -2   6    3.73    0.37
  -2  -2   6    4.00    0.36
   1   2  -6  116.26    2.54
   1   2  -6  111.49    2.47
   1   2  -6  116.02    2.70
   1   2  -6  110.09    2.58
   1   2  -6  115.02    2.59
  -1  -2   6  111.82    2.38
  -1  -2   6  111.72    2.56
  -1  -2   6  114.92    2.50
  -1  -2   6  110.62    2.35
  -1  -2   6  112.71    2.64
   0   2  -6  193.45    3.95
   0   2  -6  199.59    4.09
   0   2  -6  186.16    3.88
   0   2  -6  190.16    3.92
   0  -2   6  193.04    4.08
   0  -2   6  190.13    3.81
   0  -2   6  192.11    3.92
   0  -2   6  191.74    3.91
  -1   2  -6    8.85    0.44
  -1   2  -6    8.81    0.51
  -1   2  -6    8.71    0.44
   1  -2   6    8.14    0.40
   1  -2   6    8.70    0.37
   1  -2   6    8.32    0.34
   1  -2   6    8.42    0.37
  -2   2  -6  249.52    4.80
  -2   2  -6  242.20    4.95
  -2   2  -6  229.93    4.55
  -2   2  -6  244.30    4.80
  -3   2  -6   10.39    0.56
  -3   2  -6    9.97    0.56
  -3   2  -6   10.27    0.49
  -3   2  -6    8.90    0.41
   3  -2   6    9.60    0.59
   3  -2   6    9.70    0.54
  -4   2  -6   17.02    0.68
  -4   2  -6   18.84    0.83
  -4   2  -6   18.68    0.73
   4  -2   6   17.83    0.94
   4  -2   6   17.59    0.77
  -5   2  -6   66.29    1.78
   5  -2   6   67.28    1.86
   5  -2   6   66.78    2.21
   5   1  -6   19.13    0.83
  -5  -1   6   18.27    0.99
   4   1  -6    0.35    0.15
  -4  -1   6    0.55    0.25
   3   1  -6   68.22    2.04
   3   1  -6   63.86    1.84
   3   1  -6   68.87    1.85
   3   1  -6   66.19    1.56
  -3  -1   6   66.28    1.74
  -3  -1   6   64.03    1.88
  -3  -1   6   64.44    1.82
   2   1  -6   26.19    0.66
   2   1  -6   27.44    0.82
   2   1  -6   27.57    0.97
   2   1  -6   27.14    1.00
   2   1  -6   26.94    0.90
  -2  -1   6   26.65    0.99
  -2  -1   6   24.58    0.86
  -2  -1   6   25.46    0.93
   1   1  -6  132.53    2.96
   1   1  -6  133.28    2.92
   1   1  -6  132.55    2.83
   1   1  -6  131.74    2.80
   1   1  -6  134.70    2.94
   1   1  -6  134.09    3.08
  -1  -1   6  134.62    2.88
  -1  -1   6  133.69    3.03
  -1  -1   6  144.29    2.78
   0   1  -6  115.07    2.50
   0   1  -6  113.47    2.39
   0   1  -6  118.61    2.55
   0   1  -6  119.57    2.70
   0   1  -6  115.13    2.47
   0   1  -6  117.63    2.57
   0  -1   6  118.18    2.70
   0  -1   6  122.06    2.57
  -1   1  -6    9.43    0.44
  -1   1  -6    9.13    0.50
  -1   1  -6    9.17    0.45
   1  -1   6    9.26    0.33
   1  -1   6    9.09    0.32
   1  -1   6    8.76    0.30
  -2   1  -6  119.18    2.58
  -2   1  -6  117.48    2.40
  -2   1  -6  123.01    2.73
  -2   1  -6  125.16    2.62
   2  -1   6  120.61    2.64
  -3   1  -6   28.47    0.90
  -3   1  -6   28.01    0.82
  -3   1  -6   29.04    0.89
  -3   1  -6   29.06    0.99
   3  -1   6   29.00    1.06
   3  -1   6   29.25    0.94
  -4   1  -6   63.69    1.77
  -4   1  -6   60.59    1.82
  -4   1  -6   61.63    1.60
  -4   1  -6   63.77    1.59
   4  -1   6   62.34    1.65
   4  -1   6   62.05    1.91
   4  -1   6   63.43    1.46
  -5   1  -6   61.33    1.85
  -5   1  -6   62.53    1.68
  -5   1  -6   60.10    2.04
   5  -1   6   63.16    1.73
   5  -1   6   63.96    2.11
   6  -1   6    0.62    0.27
   6   0  -6   23.16    1.02
  -6   0   6   20.26    1.12
   5   0  -6   13.94    0.70
  -5   0   6   12.61    0.81
   4   0  -6   33.63    1.05
  -4   0   6   31.60    0.92
  -4   0   6   32.23    1.21
  -4   0   6   31.64    0.91
   3   0  -6   50.28    1.52
   3   0  -6   50.38    1.60
   3   0  -6   50.92    1.48
   3   0  -6   50.77    1.29
  -3   0   6   48.87    1.48
  -3   0   6   51.34    1.57
  -3   0   6   49.43    1.41
   2   0  -6    4.42    0.30
   2   0  -6    4.15    0.38
   2   0  -6    4.54    0.25
   2   0  -6    4.88    0.40
   2   0  -6    5.10    0.36
  -2   0   6    4.89    0.35
  -2   0   6    4.58    0.38
  -2   0   6    5.37    0.42
   1   0  -6   88.42    1.99
   1   0  -6   86.90    2.07
   1   0  -6   89.28    1.98
   1   0  -6   90.67    2.23
   1   0  -6   89.30    2.07
   1   0  -6   91.22    2.13
  -1   0   6   89.04    2.04
  -1   0   6   90.58    2.18
   0   0  -6   18.13    0.59
   0   0  -6   18.84    0.75
   0   0  -6   18.62    0.66
   0   0  -6   17.46    0.61
   0   0  -6   17.99    0.54
   0   0  -6   18.40    0.68
   0   0   6   18.76    0.75
   0   0   6   18.04    0.58
   0   0   6   18.69    0.54
   0   0   6   19.13    0.67
  -1   0  -6  101.53    2.02
  -1   0  -6  104.54    2.29
  -1   0  -6  108.08    2.44
  -1   0  -6  107.97    2.30
  -1   0  -6  108.74    2.34
  -2   0  -6  113.79    2.50
  -2   0  -6  121.45    2.57
  -2   0  -6  118.34    2.64
  -2   0  -6  117.45    2.37
   2   0   6  117.44    2.59
  -3   0  -6    3.65    0.30
  -3   0  -6    3.23    0.30
  -3   0  -6    3.59    0.34
  -3   0  -6    3.87    0.26
   3   0   6    3.73    0.31
   3   0   6    3.65    0.22
   3   0   6    3.37    0.38
  -4   0  -6  113.26    2.44
  -4   0  -6  106.73    2.46
  -4   0  -6  107.83    2.49
  -4   0  -6  103.11    2.60
   4   0   6  110.27    2.48
   4   0   6  107.47    2.79
   4   0   6  108.93    2.28
  -5   0  -6   18.83    1.04
  -5   0  -6   17.52    0.59
  -5   0  -6   17.94    0.75
  -5   0  -6   17.48    0.87
   5   0   6   17.97    0.74
  -6   0  -6   10.34    0.52
   6   0   6   10.88    0.64
  -7   0  -6   12.66    0.63
   7   0   6   11.40    0.72
   6  -1  -6   18.92    0.93
  -6   1   6   18.83    1.05
   5  -1  -6   13.18    0.70
  -5   1   6   11.89    0.77
   4  -1  -6  114.88    2.58
  -4   1   6  111.55    2.90
  -4   1   6  110.58    2.68
  -4   1   6  110.81    2.76
   3  -1  -6  155.10    3.38
   3  -1  -6  151.36    3.18
   3  -1  -6  154.13    3.54
   3  -1  -6  148.06    3.41
   3  -1  -6  157.31    3.25
  -3   1   6  150.07    3.39
  -3   1   6  151.89    3.01
  -3   1   6  148.32    3.46
  -3   1   6  148.61    3.28
  -3   1   6  150.92    3.03
   2  -1  -6   14.83    0.68
   2  -1  -6   15.04    0.67
   2  -1  -6   15.53    0.60
   2  -1  -6   14.39    0.51
   2  -1  -6   15.31    0.62
  -2   1   6   14.35    0.65
  -2   1   6   15.75    0.70
  -2   1   6   14.65    0.60
   1  -1  -6  245.37    4.91
   1  -1  -6  241.68    4.96
   1  -1  -6  244.46    4.92
   1  -1  -6  246.94    5.09
   1  -1  -6  245.85    4.63
   1  -1  -6  245.79    4.81
   1  -1  -6  244.45    4.84
  -1   1   6  251.06    4.89
  -1   1   6  249.35    5.05
   0  -1  -6  155.18    3.22
   0  -1  -6  156.66    3.05
   0  -1  -6  152.28    3.36
   0  -1  -6  159.80    3.12
   0  -1  -6  153.71    3.18
   0  -1  -6  153.74    2.94
   0  -1  -6  160.28    3.29
   0   1   6  157.81    3.05
   0   1   6  154.82    3.11
   0   1   6  154.96    3.38
   0   1   6  157.29    3.25
  -1  -1  -6  239.45    4.59
  -1  -1  -6  246.11    4.94
  -1  -1  -6  242.62    4.80
  -1  -1  -6  250.14    4.87
  -1  -1  -6  246.54    4.79
  -2  -1  -6  256.83    4.91
  -2  -1  -6  241.85    4.99
  -2  -1  -6  243.19    4.87
  -2  -1  -6  246.85    4.76
  -2  -1  -6  247.99    4.94
   2   1   6  256.12    4.66
  -3  -1  -6    5.89    0.41
  -3  -1  -6    6.20    0.34
  -3  -1  -6    5.89    0.39
  -3  -1  -6    5.92    0.35
   3   1   6    5.53    0.32
   3   1   6    5.87    0.28
  -4  -1  -6  111.96    2.60
  -4  -1  -6  110.33    2.49
  -4  -1  -6  113.12    2.71
  -4  -1  -6  112.17    2.30
  -4  -1  -6  112.44    2.54
   4   1   6  110.41    2.34
   4   1   6  113.84    2.45
  -5  -1  -6   32.29    1.47
  -5  -1  -6   31.27    1.28
  -5  -1  -6   32.30    1.16
  -5  -1  -6   32.26    0.91
   5   1   6   33.02    1.04
  -6  -1  -6   27.66    0.90
   6   1   6   27.95    1.03
   6   1   6   28.11    1.01
  -7  -1  -6   55.54    1.51
   7   1   6   54.35    1.63
   5  -2  -6    2.45    0.39
  -5   2   6    2.92    0.46
   4  -2  -6   46.79    1.36
  -4   2   6   47.04    1.56
  -4   2   6   47.44    1.41
  -4   2   6   48.82    1.50
   3  -2  -6   42.39    1.29
   3  -2  -6   41.80    1.22
   3  -2  -6   40.54    1.16
   3  -2  -6   42.82    1.42
   3  -2  -6   40.34    1.30
  -3   2   6   42.06    1.35
  -3   2   6   43.31    1.30
  -3   2   6   43.54    1.05
  -3   2   6   42.84    1.23
  -3   2   6   42.95    1.07
   2  -2  -6   10.08    0.55
   2  -2  -6    9.83    0.53
   2  -2  -6    8.94    0.41
   2  -2  -6    9.87    0.49
   2  -2  -6   10.15    0.48
  -2   2   6    9.11    0.52
  -2   2   6    9.72    0.37
  -2   2   6    9.69    0.36
  -2   2   6   10.13    0.48
   1  -2  -6  284.06    5.49
   1  -2  -6  287.93    5.86
   1  -2  -6  286.91    5.70
   1  -2  -6  296.95    5.67
   1  -2  -6  281.88    5.75
   1  -2  -6  290.28    5.71
   1  -2  -6  291.23    5.61
  -1   2   6  297.81    5.83
  -1   2   6  294.07    5.67
   0  -2  -6   21.93    0.60
   0  -2  -6   23.90    0.82
   0  -2  -6   20.68    0.57
   0  -2  -6   21.97    0.70
   0  -2  -6   23.86    0.74
   0  -2  -6   24.47    0.78
   0  -2  -6   21.89    0.65
   0   2   6   21.53    0.60
   0   2   6   20.65    0.64
  -1  -2  -6   61.51    1.49
  -1  -2  -6   63.00    1.55
  -1  -2  -6   58.00    1.30
  -1  -2  -6   59.72    1.42
  -1  -2  -6   61.64    1.43
  -2  -2  -6  105.22    2.37
  -2  -2  -6  103.95    2.24
  -2  -2  -6  106.19    2.25
  -2  -2  -6  103.11    2.05
  -2  -2  -6  102.63    2.17
  -2  -2  -6  106.48    2.33
   2   2   6  106.07    2.08
  -3  -2  -6   21.77    0.71
  -3  -2  -6   22.18    0.61
  -3  -2  -6   23.03    0.84
  -3  -2  -6   21.61    0.74
  -3  -2  -6   22.56    0.81
   3   2   6   21.52    0.68
   3   2   6   22.79    0.63
  -4  -2  -6  134.32    3.15
  -4  -2  -6  133.81    2.98
  -4  -2  -6  135.02    2.94
  -4  -2  -6  136.89    3.07
  -4  -2  -6  138.47    2.78
   4   2   6  133.68    2.79
   4   2   6  137.38    2.88
   4   2   6  138.80    2.90
   4   2   6  135.66    2.78
  -5  -2  -6    8.09    0.44
  -5  -2  -6    8.38    0.59
   5   2   6    8.04    0.48
  -6  -2  -6   21.45    0.79
  -6  -2  -6   21.23    1.03
   6   2   6   20.50    0.84
  -7  -2  -6   31.69    1.08
   7   2   6   30.57    1.12
   5  -3  -6    4.52    0.50
   4  -3  -6   51.35    1.47
   4  -3  -6   55.22    1.53
  -4   3   6   49.74    1.53
  -4   3   6   51.62    1.48
  -4   3   6   53.14    1.65
   3  -3  -6    7.58    0.50
   3  -3  -6    9.07    0.54
   3  -3  -6    8.42    0.49
   3  -3  -6    8.03    0.44
   3  -3  -6    7.61    0.56
  -3   3   6    7.58    0.51
  -3   3   6    7.85    0.45
  -3   3   6    8.29    0.40
  -3   3   6    8.25    0.39
  -3   3   6    8.51    0.51
   2  -3  -6  118.75    2.77
   2  -3  -6  122.29    2.73
   2  -3  -6  121.49    2.66
   2  -3  -6  122.53    2.57
   2  -3  -6  120.54    2.65
  -2   3   6  120.38    2.44
  -2   3   6  119.06    2.42
  -2   3   6  116.90    2.57
  -2   3   6  117.90    2.71
   1  -3  -6  253.89    5.02
   1  -3  -6  256.98    5.22
   1  -3  -6  257.28    5.14
   1  -3  -6  263.82    5.16
   1  -3  -6  263.77    5.19
   1  -3  -6  257.10    5.29
   1  -3  -6  262.53    5.09
  -1   3   6  263.18    4.93
  -1   3   6  266.66    4.92
  -1   3   6  263.92    5.12
  -1   3   6  260.36    5.25
   0  -3  -6  115.34    2.59
   0  -3  -6  112.09    2.34
   0  -3  -6  120.15    2.35
   0  -3  -6  115.09    2.46
   0  -3  -6  116.82    2.47
   0  -3  -6  118.56    2.41
   0  -3  -6  118.97    2.54
   0   3   6  115.76    2.25
   0   3   6  110.59    2.34
   0   3   6  111.33    2.41
   0   3   6  115.56    2.26
  -1  -3  -6  227.21    4.48
  -1  -3  -6  225.89    4.25
  -1  -3  -6  228.53    4.51
  -1  -3  -6  216.93    4.20
  -1  -3  -6  230.64    4.39
  -1  -3  -6  225.44    4.20
  -1  -3  -6  217.35    4.30
  -1  -3  -6  221.85    4.39
   1   3   6  222.46    4.29
   1   3   6  223.07    4.21
   1   3   6  222.28    4.22
   1   3   6  222.21    4.23
  -2  -3  -6   65.52    1.50
  -2  -3  -6   67.09    1.64
  -2  -3  -6   64.38    1.52
  -2  -3  -6   67.68    1.42
  -2  -3  -6   66.85    1.65
  -2  -3  -6   68.93    1.55
   2   3   6   67.03    1.41
   2   3   6   66.55    1.48
   2   3   6   66.58    1.42
  -3  -3  -6   57.96    1.25
  -3  -3  -6   57.14    1.55
  -3  -3  -6   57.61    1.31
  -3  -3  -6   60.09    1.42
  -3  -3  -6   58.93    1.54
  -3  -3  -6   58.81    1.44
   3   3   6   57.63    1.31
   3   3   6   56.96    1.37
   3   3   6   55.46    1.28
  -4  -3  -6  148.24    3.24
  -4  -3  -6  150.77    3.07
  -4  -3  -6  151.77    2.98
  -4  -3  -6  151.26    3.37
  -4  -3  -6  150.91    2.97
  -4  -3  -6  148.46    3.42
   4   3   6  149.75    3.04
   4   3   6  149.36    3.02
   4   3   6  148.25    3.13
  -5  -3  -6    3.35    0.36
  -5  -3  -6    3.71    0.49
   5   3   6    3.71    0.30
   5   3   6    3.91    0.41
   5   3   6    3.57    0.30
  -6  -3  -6   51.57    1.76
  -6  -3  -6   53.90    1.46
   6   3   6   51.82    1.46
  -7  -3  -6    8.98    0.81
  -7  -3  -6    9.34    0.61
   7   3   6    9.31    0.62
  -6   4   6    1.97    0.40
  -5   4   6    2.28    0.40
   4  -4  -6   65.10    1.74
   4  -4  -6   64.45    1.80
  -4   4   6   63.26    1.85
  -4   4   6   67.98    2.40
  -4   4   6   65.48    1.70
  -4   4   6   65.16    1.68
   3  -4  -6   11.47    0.54
   3  -4  -6   12.29    0.71
   3  -4  -6   11.93    0.63
   3  -4  -6   11.98    0.62
   3  -4  -6   11.54    0.61
   3  -4  -6   11.90    0.44
  -3   4   6   12.00    0.62
  -3   4   6   11.46    0.47
  -3   4   6   11.20    0.53
  -3   4   6   11.49    0.49
  -3   4   6   11.51    0.58
  -3   4   6   11.27    0.53
   2  -4  -6  121.35    2.58
   2  -4  -6  117.71    2.40
   2  -4  -6  117.42    2.67
   2  -4  -6  122.53    2.81
   2  -4  -6  122.47    2.72
   2  -4  -6  119.57    2.67
  -2   4   6  117.63    2.67
  -2   4   6  119.44    2.45
  -2   4   6  118.52    2.54
  -2   4   6  121.11    2.44
  -2   4   6  117.90    2.51
   1  -4  -6   69.05    1.59
   1  -4  -6   66.58    1.67
   1  -4  -6   66.69    1.69
   1  -4  -6   67.30    1.63
   1  -4  -6   65.41    1.57
   1  -4  -6   67.55    1.54
   1  -4  -6   64.03    1.40
   1  -4  -6   68.26    1.68
  -1   4   6   69.57    1.68
  -1   4   6   67.52    1.43
  -1   4   6   61.22    1.54
  -1   4   6   66.61    1.44
  -1   4   6   69.75    1.56
   0  -4  -6    1.91    0.24
   0  -4  -6    2.18    0.25
   0  -4  -6    1.81    0.16
   0  -4  -6    1.35    0.24
   0  -4  -6    1.35    0.21
   0  -4  -6    2.23    0.23
   0  -4  -6    1.63    0.25
   0  -4  -6    1.61    0.20
   0  -4  -6    1.86    0.26
   0   4   6    1.49    0.17
   0   4   6    1.47    0.18
  -1  -4  -6  416.15    7.64
  -1  -4  -6  391.95    7.56
  -1  -4  -6  409.43    7.51
  -1  -4  -6  416.80    7.73
  -1  -4  -6  407.42    7.41
  -1  -4  -6  396.90    7.48
  -1  -4  -6  411.75    7.42
  -1  -4  -6  411.95    7.60
  -1  -4  -6  410.17    7.72
  -1  -4  -6  417.40    7.58
   1   4   6  400.99    7.46
   1   4   6  391.10    7.53
   1   4   6  387.14    7.60
   1   4   6  367.02    7.56
   1   4   6  393.11    7.47
  -2  -4  -6   73.89    1.47
  -2  -4  -6   68.60    1.50
  -2  -4  -6   68.22    1.56
  -2  -4  -6   70.68    1.52
  -2  -4  -6   73.23    1.73
  -2  -4  -6   72.17    1.47
  -2  -4  -6   73.58    1.51
  -2  -4  -6   71.30    1.57
  -2  -4  -6   71.35    1.60
  -2  -4  -6   71.45    1.61
  -2  -4  -6   71.03    1.61
   2   4   6   71.14    1.50
   2   4   6   70.53    1.56
   2   4   6   69.32    1.50
   2   4   6   67.93    1.50
   2   4   6   66.62    1.55
  -3  -4  -6  111.68    2.44
  -3  -4  -6  113.79    2.46
  -3  -4  -6  112.21    2.60
  -3  -4  -6  113.38    2.32
  -3  -4  -6  116.89    2.41
  -3  -4  -6  112.89    2.27
  -3  -4  -6  116.11    2.29
  -3  -4  -6  113.32    2.60
  -3  -4  -6  113.32    2.35
   3   4   6  108.70    2.28
   3   4   6  108.72    2.46
   3   4   6  115.28    2.40
   3   4   6  108.72    2.30
  -4  -4  -6   54.80    1.27
  -4  -4  -6   54.52    1.25
  -4  -4  -6   52.57    1.56
  -4  -4  -6   54.88    1.47
  -4  -4  -6   53.38    1.32
  -4  -4  -6   54.53    1.61
   4   4   6   52.86    1.36
   4   4   6   52.02    1.24
   4   4   6   52.56    1.26
  -5  -4  -6    0.17    0.17
  -5  -4  -6    0.12    0.14
  -5  -4  -6    0.20    0.15
  -5  -4  -6    0.17    0.20
   5   4   6    0.05    0.17
  -6  -4  -6   66.57    1.74
  -6  -4  -6   65.20    2.07
   6   4   6   66.33    1.70
  -7  -4  -6    9.31    0.63
  -7  -4  -6    8.40    0.90
   7   4   6    8.91    0.59
   5  -5  -6   16.51    0.95
  -5   5   6   17.76    0.82
   4  -5  -6   63.63    1.53
   4  -5  -6   64.54    1.85
  -4   5   6   64.83    1.68
   3  -5  -6    0.95    0.25
   3  -5  -6    0.48    0.20
   3  -5  -6    0.72    0.17
   3  -5  -6    1.10    0.22
   3  -5  -6    0.58    0.26
   3  -5  -6    1.12    0.37
  -3   5   6    1.01    0.18
  -3   5   6    1.03    0.23
  -3   5   6    0.81    0.18
  -3   5   6    1.26    0.25
  -3   5   6    0.77    0.18
  -3   5   6    0.81    0.21
   2  -5  -6  118.04    2.64
   2  -5  -6  114.40    2.54
   2  -5  -6  120.41    2.69
   2  -5  -6  115.28    2.42
   2  -5  -6  117.26    2.66
   2  -5  -6  114.28    2.78
  -2   5   6  117.42    2.40
  -2   5   6  117.35    2.59
  -2   5   6  116.54    2.47
  -2   5   6  118.86    2.42
  -2   5   6  117.23    2.49
   1  -5  -6   32.94    1.00
   1  -5  -6   32.84    0.96
   1  -5  -6   29.79    1.08
   1  -5  -6   30.93    0.96
   1  -5  -6   29.86    0.81
   1  -5  -6   32.32    0.99
   1  -5  -6   32.95    1.05
   1  -5  -6   32.64    0.91
   1  -5  -6   31.07    0.87
  -1   5   6   30.59    0.86
  -1   5   6   31.92    0.95
  -1   5   6   31.05    0.80
  -1   5   6   32.91    0.87
  -1   5   6   31.47    0.81
   0  -5  -6   15.40    0.61
   0  -5  -6   15.67    0.60
   0  -5  -6   15.59    0.54
   0  -5  -6   15.46    0.61
   0  -5  -6   14.83    0.49
   0  -5  -6   14.77    0.54
   0  -5  -6   15.41    0.45
   0  -5  -6   15.84    0.56
   0  -5  -6   15.39    0.61
   0  -5  -6   15.96    0.47
   0  -5  -6   15.16    0.44
   0  -5  -6   15.76    0.45
   0   5   6   15.36    0.52
   0   5   6   15.01    0.48
   0   5   6   14.97    0.47
  -1  -5  -6  153.99    3.15
  -1  -5  -6  155.96    3.13
  -1  -5  -6  159.23    3.20
  -1  -5  -6  157.22    3.03
  -1  -5  -6  156.01    3.24
  -1  -5  -6  159.58    3.23
  -1  -5  -6  153.31    3.26
  -1  -5  -6  157.45    3.02
  -1  -5  -6  148.67    3.07
  -1  -5  -6  160.87    3.15
   1   5   6  156.52    3.06
   1   5   6  154.04    3.12
   1   5   6  154.91    3.04
  -2  -5  -6    0.25    0.12
  -2  -5  -6    0.41    0.12
  -2  -5  -6    0.31    0.11
  -2  -5  -6    0.36    0.11
  -2  -5  -6    0.41    0.15
  -2  -5  -6    0.34    0.12
  -2  -5  -6    0.21    0.10
  -2  -5  -6    0.42    0.15
  -2  -5  -6    0.33    0.12
  -2  -5  -6    0.42    0.14
  -2  -5  -6    0.31    0.11
  -2  -5  -6    0.59    0.14
   2   5   6    0.44    0.13
   2   5   6    1.17    0.18
   2   5   6    0.49    0.15
   2   5   6    0.30    0.12
  -3  -5  -6  145.82    3.00
  -3  -5  -6  151.59    3.14
  -3  -5  -6  145.01    2.92
  -3  -5  -6  148.44    3.25
  -3  -5  -6  146.85    3.10
  -3  -5  -6  148.48    2.95
  -3  -5  -6  149.70    3.03
  -3  -5  -6  149.90    3.28
   3   5   6  145.11    3.02
   3   5   6  146.99    2.91
   3   5   6  146.36    3.06
   3   5   6  145.12    2.93
  -4  -5  -6   54.11    1.35
  -4  -5  -6   54.59    1.62
  -4  -5  -6   54.10    1.28
  -4  -5  -6   53.78    1.47
  -4  -5  -6   53.36    1.30
  -4  -5  -6   53.38    1.61
   4   5   6   53.23    1.35
  -5  -5  -6    4.56    0.45
  -5  -5  -6    3.44    0.51
   5   5   6    3.23    0.37
  -6  -5  -6   50.07    1.45
  -6  -5  -6   48.51    1.76
   6   5   6   50.13    1.37
   5  -6  -6   18.64    0.99
   5  -6  -6   15.36    0.68
  -5   6   6   16.57    0.80
   4  -6  -6   41.67    1.44
   4  -6  -6   42.56    1.18
  -4   6   6   41.36    1.24
   3  -6  -6    0.52    0.23
   3  -6  -6    0.13    0.15
  -3   6   6    0.22    0.17
  -3   6   6    0.37    0.15
  -3   6   6    0.32    0.15
   2  -6  -6  113.28    2.67
   2  -6  -6  113.65    2.68
   2  -6  -6  115.96    2.44
   2  -6  -6  112.45    2.81
   2  -6  -6  114.33    2.70
   2  -6  -6  112.03    2.52
  -2   6   6  113.06    2.46
  -2   6   6  116.42    2.39
  -2   6   6  119.30    2.54
  -2   6   6  116.81    2.41
  -2   6   6  116.03    2.36
   1  -6  -6   86.95    1.97
   1  -6  -6   88.21    1.90
   1  -6  -6   86.94    2.07
   1  -6  -6   86.64    1.87
   1  -6  -6   84.54    2.05
   1  -6  -6   88.36    1.98
   1  -6  -6   89.81    2.35
   1  -6  -6   85.58    2.08
   1  -6  -6   87.67    2.19
  -1   6   6   89.49    1.83
  -1   6   6   84.88    1.94
  -1   6   6   88.54    1.95
  -1   6   6   88.13    1.85
  -1   6   6   87.83    1.91
  -1   6   6   87.56    1.86
   0  -6  -6  135.45    2.89
   0  -6  -6  136.08    2.89
   0  -6  -6  131.60    2.84
   0  -6  -6  137.02    2.67
   0  -6  -6  136.97    2.88
   0  -6  -6  133.17    2.71
   0  -6  -6  136.87    3.00
   0  -6  -6  132.45    2.73
   0  -6  -6  131.43    2.68
   0  -6  -6  132.70    2.74
   0  -6  -6  138.68    2.68
   0   6   6  132.81    2.78
   0   6   6  134.43    2.67
   0   6   6  134.71    2.66
   0   6   6  133.28    2.74
  -1  -6  -6  131.65    2.83
  -1  -6  -6  129.50    2.69
  -1  -6  -6  133.31    2.87
  -1  -6  -6  127.27    2.66
  -1  -6  -6  132.30    2.76
  -1  -6  -6  136.85    2.77
  -1  -6  -6  128.03    2.76
  -1  -6  -6  130.76    2.59
  -1  -6  -6  131.20    2.61
  -1  -6  -6  130.40    2.66
  -1  -6  -6  128.69    2.66
   1   6   6  125.25    2.65
   1   6   6  129.01    2.57
   1   6   6  134.46    2.72
   1   6   6  130.25    2.59
  -2  -6  -6    6.13    0.34
  -2  -6  -6    6.14    0.40
  -2  -6  -6    5.88    0.33
  -2  -6  -6    7.00    0.36
  -2  -6  -6    6.71    0.30
  -2  -6  -6    6.35    0.31
  -2  -6  -6    6.50    0.36
  -2  -6  -6    5.86    0.35
  -2  -6  -6    5.61    0.38
  -2  -6  -6    5.75    0.36
  -2  -6  -6    6.20    0.42
   2   6   6    6.12    0.34
   2   6   6    6.04    0.34
   2   6   6    6.10    0.30
   2   6   6    6.26    0.30
  -3  -6  -6  116.10    2.66
  -3  -6  -6  117.72    2.56
  -3  -6  -6  116.29    2.55
  -3  -6  -6  118.24    2.43
  -3  -6  -6  114.79    2.48
  -3  -6  -6  118.30    2.71
  -3  -6  -6  119.02    2.76
  -3  -6  -6  118.02    2.41
   3   6   6  117.31    2.48
   3   6   6  118.64    2.55
  -4  -6  -6   78.54    1.80
  -4  -6  -6   80.45    1.78
  -4  -6  -6   81.85    1.87
  -4  -6  -6   81.07    2.16
  -4  -6  -6   77.35    2.12
  -4  -6  -6   80.29    1.98
   4   6   6   81.50    1.93
   4   6   6   78.99    1.82
  -5  -6  -6   43.18    1.54
  -5  -6  -6   43.68    1.26
   5   6   6   42.81    1.17
  -6  -6  -6   44.94    1.38
  -6  -6  -6   44.85    1.69
   5  -7  -6   34.61    1.13
   5  -7  -6   34.24    1.41
  -5   7   6   33.95    1.17
   4  -7  -6   25.12    0.91
   4  -7  -6   25.79    1.13
  -4   7   6   24.96    0.91
   3  -7  -6   36.25    1.07
   3  -7  -6   35.08    1.26
  -3   7   6   35.40    1.06
  -3   7   6   34.49    0.96
   2  -7  -6   79.39    2.26
   2  -7  -6   84.21    2.13
   2  -7  -6   79.78    2.11
   2  -7  -6   85.32    1.91
  -2   7   6   84.34    1.89
  -2   7   6   82.90    1.79
  -2   7   6   82.48    1.77
   1  -7  -6    6.65    0.38
   1  -7  -6    5.33    0.41
   1  -7  -6    6.20    0.58
   1  -7  -6    5.73    0.31
   1  -7  -6    5.47    0.31
   1  -7  -6    5.84    0.34
   1  -7  -6    5.84    0.41
   1  -7  -6    5.54    0.42
   1  -7  -6    5.88    0.32
   1  -7  -6    5.22    0.46
  -1   7   6    5.80    0.36
  -1   7   6    5.72    0.34
  -1   7   6    5.09    0.34
  -1   7   6    5.57    0.28
  -1   7   6    6.01    0.30
   0  -7  -6  109.58    2.34
   0  -7  -6  110.34    2.36
   0  -7  -6  113.14    2.66
   0  -7  -6  112.49    2.49
   0  -7  -6  113.52    2.37
   0  -7  -6  111.50    2.28
   0  -7  -6  113.47    2.54
   0  -7  -6  109.33    2.42
   0  -7  -6  112.22    2.51
   0  -7  -6  107.86    2.31
   0  -7  -6  109.72    2.30
   0   7   6  120.46    2.48
   0   7   6  109.30    2.32
   0   7   6  112.30    2.24
   0   7   6  111.85    2.23
   0   7   6  113.59    2.42
  -1  -7  -6  143.80    2.99
  -1  -7  -6  146.23    3.01
  -1  -7  -6  144.79    3.08
  -1  -7  -6  145.13    2.95
  -1  -7  -6  145.47    3.05
  -1  -7  -6  145.27    3.25
  -1  -7  -6  147.37    3.06
  -1  -7  -6  149.46    2.94
  -1  -7  -6  150.16    2.92
  -1  -7  -6  147.42    3.13
  -1  -7  -6  145.67    3.14
   1   7   6  145.91    2.96
   1   7   6  152.55    3.06
  -2  -7  -6    7.52    0.35
  -2  -7  -6    7.15    0.42
  -2  -7  -6    7.99    0.35
  -2  -7  -6    7.44    0.41
  -2  -7  -6    8.83    0.40
  -2  -7  -6    8.43    0.45
  -2  -7  -6    7.54    0.48
  -2  -7  -6    7.28    0.42
  -2  -7  -6    6.69    0.38
  -2  -7  -6    7.54    0.48
   2   7   6    7.13    0.36
   2   7   6    7.46    0.39
  -3  -7  -6  100.58    2.51
  -3  -7  -6  104.68    2.21
  -3  -7  -6  104.91    2.36
  -3  -7  -6  103.73    2.19
  -3  -7  -6  103.21    2.37
  -3  -7  -6  102.30    2.31
  -3  -7  -6  105.62    2.47
  -3  -7  -6   99.62    2.48
  -3  -7  -6  104.42    2.41
  -3  -7  -6  105.25    2.28
   3   7   6  105.15    2.33
   3   7   6  103.40    2.20
  -4  -7  -6    8.57    0.50
  -4  -7  -6    9.44    0.54
  -4  -7  -6    8.09    0.62
  -4  -7  -6    9.08    0.62
   4   7   6    8.86    0.43
   4   7   6    8.15    0.48
  -5  -7  -6   59.37    1.92
  -5  -7  -6   62.23    1.64
  -6  -7  -6   35.35    1.51
  -6  -7  -6   34.95    1.21
   5  -8  -6   34.89    1.49
   5  -8  -6   35.46    1.21
  -5   8   6   35.31    1.18
   4  -8  -6   21.62    1.09
   4  -8  -6   23.37    0.92
  -4   8   6   21.42    0.84
   3  -8  -6   46.72    1.55
   3  -8  -6   45.26    1.32
  -3   8   6   45.72    1.25
   2  -8  -6  108.26    2.68
   2  -8  -6  109.20    2.45
  -2   8   6  109.54    2.36
   1  -8  -6    0.91    0.19
   1  -8  -6    0.89    0.21
   1  -8  -6    0.96    0.26
   1  -8  -6    1.12    0.29
   1  -8  -6    1.25    0.23
   1  -8  -6    1.40    0.22
   1  -8  -6    1.32    0.23
   1  -8  -6    1.10    0.35
   1  -8  -6    1.22    0.32
  -1   8   6    1.03    0.21
  -1   8   6    1.48    0.23
  -1   8   6    0.70    0.18
   0  -8  -6  111.32    2.30
   0  -8  -6  111.53    2.32
   0  -8  -6  111.49    2.48
   0  -8  -6  111.67    2.59
   0  -8  -6  105.21    2.37
   0  -8  -6  113.81    2.75
   0  -8  -6  110.66    2.54
   0   8   6  110.22    2.44
   0   8   6  109.84    2.30
  -1  -8  -6   67.17    1.51
  -1  -8  -6   68.75    1.70
  -1  -8  -6   63.42    1.82
  -1  -8  -6   67.59    1.57
  -1  -8  -6   64.64    1.59
  -1  -8  -6   64.58    1.62
  -1  -8  -6   67.17    1.64
  -1  -8  -6   66.63    1.49
  -1  -8  -6   65.32    1.71
   1   8   6   70.60    1.63
   1   8   6   65.90    1.47
  -2  -8  -6   42.24    1.38
  -2  -8  -6   44.09    1.21
  -2  -8  -6   43.71    1.25
  -2  -8  -6   43.06    1.08
  -2  -8  -6   43.01    1.14
  -2  -8  -6   42.93    1.27
  -2  -8  -6   42.75    1.07
  -2  -8  -6   43.56    1.31
   2   8   6   42.39    1.04
   2   8   6   45.10    1.20
  -3  -8  -6  134.83    2.79
  -3  -8  -6  135.38    2.77
  -3  -8  -6  131.80    3.07
  -3  -8  -6  133.42    2.88
  -3  -8  -6  132.36    3.03
  -3  -8  -6  131.86    3.17
  -3  -8  -6  133.57    3.03
  -3  -8  -6  137.80    3.15
  -3  -8  -6  131.55    3.02
  -3  -8  -6  133.47    2.97
   3   8   6  137.08    2.93
  -4  -8  -6    1.10    0.25
  -4  -8  -6    0.56    0.23
  -4  -8  -6    1.21    0.28
  -4  -8  -6    0.40    0.24
  -4  -8  -6    0.43    0.27
   4   8   6    0.55    0.19
  -5  -8  -6   44.59    1.61
   5   8   6   41.76    1.46
  -6  -8  -6   26.44    1.31
   5  -9  -6   10.48    0.89
   5  -9  -6   10.63    0.73
  -5   9   6    9.58    0.63
   4  -9  -6   -0.15    0.28
   4  -9  -6    0.15    0.25
  -4   9   6    0.08    0.20
   3  -9  -6    7.79    0.65
   3  -9  -6    9.25    0.58
  -3   9   6    7.65    0.46
   2  -9  -6   45.71    1.50
   2  -9  -6   44.40    1.29
  -2   9   6   44.15    1.16
   1  -9  -6    1.15    0.23
   1  -9  -6    0.73    0.26
   1  -9  -6    1.67    0.25
   1  -9  -6    0.89    0.22
   1  -9  -6    1.06    0.24
   1  -9  -6    0.86    0.37
   1  -9  -6    1.08    0.24
  -1   9   6    1.29    0.24
  -1   9   6    1.35    0.22
   0  -9  -6  114.15    2.54
   0  -9  -6  116.02    2.77
   0  -9  -6  117.39    2.56
   0  -9  -6  117.05    2.70
   0  -9  -6  115.16    2.44
   0  -9  -6  120.24    2.61
   0  -9  -6  116.57    2.94
   0  -9  -6  116.26    2.47
   0   9   6  118.44    2.61
   0   9   6  116.60    2.39
  -1  -9  -6    7.26    0.37
  -1  -9  -6    6.41    0.45
  -1  -9  -6    7.32    0.56
  -1  -9  -6    7.08    0.45
  -1  -9  -6    7.12    0.46
  -1  -9  -6    7.76    0.51
  -1  -9  -6    8.44    0.40
  -1  -9  -6    7.78    0.45
   1   9   6    7.61    0.43
  -2  -9  -6   45.51    1.31
  -2  -9  -6   47.50    1.37
  -2  -9  -6   47.08    1.16
  -2  -9  -6   45.39    1.53
  -2  -9  -6   45.23    1.41
  -2  -9  -6   47.13    1.41
  -2  -9  -6   47.67    1.18
   2   9   6   48.18    1.30
  -3  -9  -6   90.53    2.27
  -3  -9  -6   89.62    2.21
  -3  -9  -6   90.99    2.36
  -3  -9  -6   89.18    2.68
  -3  -9  -6   86.19    2.84
   3   9   6   90.75    2.14
  -4  -9  -6    0.09    0.18
  -4  -9  -6    0.45    0.24
  -4  -9  -6   -0.26    0.20
   4   9   6    0.11    0.15
  -5  -9  -6   37.97    1.52
   5   9   6   38.91    1.29
  -6  -9  -6    6.17    0.77
   4 -10  -6    0.02    0.30
   4 -10  -6    0.34    0.29
  -4  10   6    0.13    0.21
   3 -10  -6   35.60    1.43
   3 -10  -6   35.43    1.22
   2 -10  -6   16.80    0.77
   2 -10  -6   17.39    0.91
  -2  10   6   16.56    0.90
   1 -10  -6   19.26    0.83
   1 -10  -6   26.67    1.33
   1 -10  -6   25.33    1.00
   1 -10  -6   24.82    1.01
   1 -10  -6   17.65    0.76
  -1  10   6   24.44    0.88
   0 -10  -6   94.90    2.30
   0 -10  -6   97.80    2.40
   0 -10  -6   99.82    2.28
   0  10   6   98.47    2.31
  -1 -10  -6    3.19    0.50
  -1 -10  -6    4.05    0.43
  -1 -10  -6    3.47    0.42
   1  10   6    3.27    0.37
  -2 -10  -6   56.65    1.56
  -2 -10  -6   53.84    1.61
  -2 -10  -6   56.16    1.60
   2  10   6   55.26    1.50
  -3 -10  -6   34.27    1.17
  -3 -10  -6   32.44    1.26
  -3 -10  -6   34.50    1.22
   3  10   6   34.26    1.10
  -4 -10  -6    8.40    0.61
  -4 -10  -6    6.13    0.71
  -4 -10  -6    8.56    0.65
   4  10   6    7.61    0.52
  -5 -10  -6   53.88    1.91
   5  10   6   54.44    1.65
   4 -11  -6    4.70    0.59
   4 -11  -6    3.43    0.64
   3 -11  -6   48.14    1.53
   3 -11  -6   46.77    1.75
   2 -11  -6   24.79    1.15
  -2  11   6   25.18    1.02
   1 -11  -6   23.29    0.89
   1 -11  -6   24.37    1.36
   1 -11  -6   23.10    0.93
   1 -11  -6   22.49    1.02
  -1  11   6   22.66    0.90
   0 -11  -6   48.90    1.45
   0 -11  -6   49.69    1.41
   0 -11  -6   49.38    1.52
   0  11   6   47.06    1.41
  -1 -11  -6    3.47    0.42
  -1 -11  -6    3.36    0.44
   1  11   6    2.89    0.39
  -2 -11  -6   86.96    2.29
  -2 -11  -6   88.03    2.23
   2  11   6   88.42    2.18
  -3 -11  -6   25.59    1.08
  -3 -11  -6   24.43    1.02
  -3 -11  -6   24.18    1.10
   3  11   6   24.57    0.94
  -4 -11  -6   18.14    0.91
  -4 -11  -6   17.08    0.99
  -4 -11  -6   16.60    0.92
   4  11   6   17.72    0.82
  -5 -11  -6   37.73    1.60
   5  11   6   38.41    1.36
   3 -12  -6   23.22    1.23
   2 -12  -6    1.97    0.47
  -2  12   6    3.55    0.52
   1 -12  -6   22.21    0.93
   1 -12  -6   20.59    0.87
   1 -12  -6   22.63    1.37
   1 -12  -6   19.84    1.01
  -1  12   6   20.87    0.90
   0 -12  -6   27.01    1.10
   0 -12  -6   27.60    1.02
   0 -12  -6   25.30    1.03
   0  12   6   25.81    1.00
  -1 -12  -6    6.87    0.63
  -1 -12  -6    6.13    0.63
   1  12   6    5.39    0.47
  -2 -12  -6   57.48    1.71
  -2 -12  -6   59.56    1.80
   2  12   6   56.56    1.64
  -3 -12  -6   10.69    0.72
  -3 -12  -6    9.77    0.73
   3  12   6   10.34    0.63
  -4 -12  -6   21.64    1.09
  -4 -12  -6   20.35    1.01
  -4 -12  -6   18.68    1.08
   4  12   6   19.94    0.91
   2 -13  -6    0.26    0.30
   1 -13  -6   42.40    1.42
   1 -13  -6   41.02    1.52
   1 -13  -6   42.62    1.37
   1 -13  -6   31.36    2.29
  -1  13   6   39.15    1.36
   0 -13  -6   33.59    1.26
   0 -13  -6   32.67    1.21
   0  13   6   33.20    1.20
  -1 -13  -6   18.25    0.88
  -1 -13  -6   17.67    0.92
   1  13   6   17.26    0.83
  -2 -13  -6   33.29    1.32
  -2 -13  -6   30.94    1.22
   2  13   6   31.56    1.17
  -3 -13  -6    0.50    0.30
  -3 -13  -6    1.08    0.34
   3  13   6    0.71    0.26
   1 -14  -6   22.89    1.16
   1 -14  -6   23.07    1.12
   1 -14  -6   23.64    1.18
  -1  14   6   23.56    1.06
   0 -14  -6   10.95    0.77
   0 -14  -6   10.31    0.72
   0  14   6    9.03    0.65
  -1 -14  -6   11.34    0.79
  -1 -14  -6   11.45    0.75
   1  14   6   11.09    0.71
  -2 -14  -6   28.60    1.21
  -2 -14  -6   29.36    1.28
   2  14   6   27.10    1.11
   0  -9   7   20.86    1.06
   0  -9   7   21.21    1.02
   1  -9   7    2.77    0.48
  -2   9  -7   36.06    1.07
  -2   9  -7   36.74    1.08
   2  -9   7   37.77    1.44
   0  -8   7   23.20    1.02
   0  -8   7   23.35    1.07
   1  -8   7    6.30    0.56
  -2   8  -7   37.22    1.03
   2  -8   7   37.63    1.40
  -3   8  -7    2.13    0.32
   3  -8   7    1.63    0.40
  -4   8  -7   19.22    0.87
   4  -8   7   20.21    1.10
  -3  -7   7    9.30    0.75
  -2  -7   7    0.26    0.25
  -1  -7   7   30.21    1.56
   0  -7   7    6.18    0.61
   0  -7   7    6.55    0.55
   1  -7   7   20.07    0.91
  -2   7  -7    8.20    0.38
   2  -7   7    8.21    0.62
  -3   7  -7    3.82    0.39
   3  -7   7    4.04    0.57
  -4   7  -7   35.31    1.19
   4  -7   7   32.61    1.37
   4   6  -7   36.84    1.10
  -4  -6   7   39.37    1.56
  -3  -6   7   24.25    1.13
  -2  -6   7   20.85    0.98
  -1  -6   7  110.28    2.70
   0  -6   7   18.95    0.81
   1  -6   7   62.57    1.76
  -2   6  -7   47.98    1.11
   2  -6   7   46.29    1.49
  -3   6  -7    5.90    0.38
   3  -6   7    6.13    0.55
  -4   6  -7   32.71    1.09
   4  -6   7   31.20    1.28
  -5   6  -7    4.05    0.50
   5  -6   7    4.10    0.61
   4   5  -7   23.09    0.82
  -4  -5   7   24.18    1.18
   3   5  -7   14.71    0.52
  -3  -5   7   16.26    0.90
  -2  -5   7    7.96    0.59
  -2  -5   7    7.89    0.51
  -2  -5   7    7.04    0.57
   1   5  -7   69.61    1.90
  -1  -5   7   69.07    1.93
  -1  -5   7   69.51    1.77
  -1  -5   7   64.98    2.25
  -1  -5   7   70.39    1.89
   0   5  -7    2.12    0.32
   0   5  -7    2.37    0.38
   0   5  -7    3.08    0.39
   0  -5   7    3.07    0.40
   0  -5   7    2.24    0.35
   0  -5   7    2.49    0.38
   0  -5   7    2.41    0.32
   1  -5   7   36.83    1.20
  -2   5  -7   77.26    1.64
   2  -5   7   78.88    2.07
  -3   5  -7    7.41    0.41
   3  -5   7    8.11    0.60
  -4   5  -7   34.99    1.12
   4  -5   7   36.00    1.48
   4  -5   7   34.63    1.32
  -5   5  -7    1.00    0.26
   5  -5   7    1.10    0.35
   4   4  -7   21.27    0.79
  -4  -4   7   23.35    1.13
   3   4  -7    3.52    0.29
  -3  -4   7    4.30    0.55
   2   4  -7   31.09    1.18
  -2  -4   7   31.75    1.06
  -2  -4   7   33.69    1.23
  -2  -4   7   29.09    1.14
   1   4  -7   54.38    1.58
  -1  -4   7   56.45    1.57
  -1  -4   7   52.60    1.61
  -1  -4   7   54.82    1.67
  -1  -4   7   51.59    1.52
  -1  -4   7   55.08    1.48
   0   4  -7   55.59    1.50
   0   4  -7   54.95    1.48
   0   4  -7   56.90    1.65
   0  -4   7   53.01    1.58
   0  -4   7   48.23    1.43
   0  -4   7   53.95    1.49
   0  -4   7   51.71    1.42
   0  -4   7   49.56    1.55
  -1   4  -7   75.79    1.99
  -1   4  -7   74.82    1.84
  -1   4  -7   79.13    1.93
   1  -4   7   74.14    2.02
   1  -4   7   74.50    1.91
   1  -4   7   74.33    1.87
  -2   4  -7    5.97    0.26
  -2   4  -7    6.65    0.51
  -2   4  -7    7.29    0.45
   2  -4   7    7.11    0.49
  -3   4  -7   27.26    0.84
   3  -4   7   30.06    1.13
   3  -4   7   28.18    1.07
  -4   4  -7   43.13    1.25
   4  -4   7   43.17    1.45
   4  -4   7   44.48    1.63
  -5   4  -7    0.37    0.21
   5  -4   7    0.53    0.29
   5  -4   7    0.26    0.35
  -6   4  -7   19.96    0.95
   6  -4   7   18.96    1.02
   5   3  -7    1.63    0.35
  -5  -3   7    1.09    0.38
   4   3  -7   27.05    0.91
  -4  -3   7   26.06    1.18
   3   3  -7    5.50    0.34
  -3  -3   7    5.32    0.58
   2   3  -7   91.69    2.38
   2   3  -7   90.59    2.31
   2   3  -7   91.67    2.47
  -2  -3   7   94.11    2.35
  -2  -3   7   95.93    2.54
  -2  -3   7   92.70    2.25
  -2  -3   7   92.81    2.37
  -2  -3   7   93.06    2.43
   1   3  -7   54.39    1.58
   1   3  -7   54.41    1.50
   1   3  -7   55.62    1.66
  -1  -3   7   55.26    1.51
  -1  -3   7   56.58    1.64
  -1  -3   7   54.63    1.48
  -1  -3   7   54.96    1.62
  -1  -3   7   55.45    1.56
   0   3  -7    4.53    0.40
   0   3  -7    4.88    0.39
   0   3  -7    4.60    0.52
   0  -3   7    4.16    0.34
   0  -3   7    4.00    0.48
   0  -3   7    3.94    0.37
   0  -3   7    4.63    0.44
  -1   3  -7  161.31    3.44
  -1   3  -7  169.47    3.47
  -1   3  -7  159.99    3.62
   1  -3   7  159.50    3.66
   1  -3   7  164.85    3.50
  -2   3  -7    9.23    0.33
  -2   3  -7   10.01    0.59
  -2   3  -7    9.90    0.51
   2  -3   7   10.62    0.57
  -3   3  -7  103.47    2.36
  -3   3  -7   98.46    2.17
  -3   3  -7  101.88    2.52
   3  -3   7   96.49    2.43
   3  -3   7  103.49    2.54
  -4   3  -7   52.24    1.48
  -4   3  -7   49.39    1.40
  -4   3  -7   52.48    1.63
   4  -3   7   52.03    1.58
   4  -3   7   54.22    1.78
  -5   3  -7    0.78    0.25
   5  -3   7    0.96    0.32
   5  -3   7    0.85    0.37
  -6   3  -7   39.07    1.36
   6  -3   7   38.05    1.45
   5   2  -7   17.18    0.80
  -5  -2   7   17.25    1.02
   4   2  -7   68.51    1.75
  -4  -2   7   68.10    2.07
   3   2  -7    0.21    0.13
   3   2  -7    0.26    0.22
  -3  -2   7    0.13    0.17
  -3  -2   7    0.19    0.22
  -3  -2   7    0.39    0.30
   2   2  -7  102.34    2.45
   2   2  -7  101.07    2.53
   2   2  -7   99.01    2.57
  -2  -2   7  106.07    2.43
  -2  -2   7   99.72    2.49
  -2  -2   7  104.56    2.60
   1   2  -7   18.26    0.68
   1   2  -7   19.83    0.80
   1   2  -7   18.56    0.86
   1   2  -7   17.16    0.74
   1   2  -7   19.57    0.81
   1   2  -7   19.09    0.71
  -1  -2   7   17.63    0.71
  -1  -2   7   17.65    0.81
   0   2  -7    1.20    0.23
   0   2  -7    1.64    0.30
   0   2  -7    2.18    0.29
   0   2  -7    1.56    0.27
   0  -2   7    1.65    0.26
   0  -2   7    1.94    0.28
   0  -2   7    1.70    0.23
   0  -2   7    1.69    0.31
  -1   2  -7  114.65    2.60
  -1   2  -7  118.57    2.62
  -1   2  -7  119.01    2.78
  -2   2  -7    3.01    0.18
  -2   2  -7    3.47    0.36
  -2   2  -7    3.77    0.34
  -2   2  -7    4.36    0.49
  -3   2  -7   58.87    1.67
  -3   2  -7   57.05    1.38
  -3   2  -7   57.20    1.52
   3  -2   7   59.07    1.68
   3  -2   7   58.01    1.60
  -4   2  -7   15.12    0.65
  -4   2  -7   16.69    0.81
  -4   2  -7   16.01    0.70
   4  -2   7   17.42    0.93
   4  -2   7   14.40    0.72
  -5   2  -7    2.84    0.39
   5  -2   7    2.48    0.41
   5  -2   7    3.31    0.61
   5   1  -7   26.46    1.03
  -5  -1   7   26.45    1.24
   4   1  -7   55.13    1.49
  -4  -1   7   52.18    1.73
   3   1  -7    6.44    0.54
   3   1  -7    6.21    0.38
  -3  -1   7    5.94    0.45
  -3  -1   7    5.98    0.51
  -3  -1   7    6.23    0.54
   2   1  -7   78.89    1.65
   2   1  -7   79.12    2.09
   2   1  -7   79.23    1.87
   2   1  -7   81.79    2.01
   2   1  -7   79.81    2.13
  -2  -1   7   79.85    1.97
  -2  -1   7   80.52    2.15
  -2  -1   7   77.03    2.05
   1   1  -7   47.31    1.38
   1   1  -7   46.12    1.24
   1   1  -7   46.96    1.34
   1   1  -7   45.32    1.47
   1   1  -7   46.54    1.25
   1   1  -7   48.13    1.35
  -1  -1   7   45.63    1.29
  -1  -1   7   47.13    1.44
   0   1  -7  161.93    3.43
   0   1  -7  154.31    3.24
   0   1  -7  161.97    3.46
   0   1  -7  157.02    3.33
   0   1  -7  164.21    3.62
   0   1  -7  161.18    3.38
   0  -1   7  165.55    3.26
   0  -1   7  166.16    3.36
   0  -1   7  165.73    3.45
   0  -1   7  162.36    3.61
  -1   1  -7  141.44    3.19
  -1   1  -7  144.18    3.04
  -1   1  -7  142.87    3.03
  -1   1  -7  141.15    3.01
   1  -1   7  130.09    2.81
  -2   1  -7   27.64    0.89
  -2   1  -7   28.35    0.72
  -2   1  -7   29.82    0.94
  -2   1  -7   28.86    1.02
  -3   1  -7   65.23    1.64
  -3   1  -7   62.33    1.51
  -3   1  -7   66.84    1.66
  -3   1  -7   62.35    1.76
   3  -1   7   65.46    1.80
   3  -1   7   64.29    1.68
  -4   1  -7   21.50    0.77
  -4   1  -7   22.30    0.83
  -4   1  -7   21.11    0.92
   4  -1   7   20.33    0.66
   4  -1   7   21.68    1.04
   4  -1   7   22.27    0.87
  -5   1  -7   53.31    1.49
   5  -1   7   50.44    1.87
   5  -1   7   50.78    1.55
   5   0  -7   21.23    0.92
  -5   0   7   20.31    1.06
   4   0  -7    4.92    0.40
  -4   0   7    5.03    0.58
   3   0  -7   59.25    1.50
   3   0  -7   58.47    1.77
  -3   0   7   62.59    1.67
  -3   0   7   59.79    1.82
  -3   0   7   58.71    1.74
   2   0  -7  109.89    2.50
   2   0  -7  107.93    2.62
   2   0  -7  109.85    2.64
   2   0  -7  105.24    2.23
  -2   0   7  108.92    2.68
  -2   0   7  107.79    2.49
  -2   0   7  106.47    2.57
   1   0  -7    8.08    0.47
   1   0  -7    7.58    0.40
   1   0  -7    7.69    0.42
   1   0  -7    7.99    0.49
   1   0  -7    7.95    0.56
   1   0  -7    7.90    0.50
  -1   0   7    7.22    0.51
  -1   0   7    6.99    0.43
   0   0  -7  216.00    4.39
   0   0  -7  211.50    4.51
   0   0  -7  210.04    4.21
   0   0  -7  210.38    4.28
   0   0  -7  214.74    4.34
   0   0  -7  211.90    4.13
   0   0   7  213.25    4.35
   0   0   7  213.74    4.54
  -1   0  -7  110.17    2.46
  -1   0  -7  112.34    2.15
  -1   0  -7  110.23    2.48
  -1   0  -7  116.32    2.53
  -1   0  -7  111.33    2.63
  -2   0  -7   16.15    0.50
  -2   0  -7   15.52    0.62
  -2   0  -7   17.05    0.66
  -2   0  -7   16.04    0.71
   2   0   7   15.97    0.66
  -3   0  -7  158.08    3.21
  -3   0  -7  154.15    3.31
  -3   0  -7  151.90    3.47
  -3   0  -7  159.64    3.37
   3   0   7  158.11    3.08
   3   0   7  158.76    3.55
  -4   0  -7   40.68    1.15
  -4   0  -7   40.93    1.24
  -4   0  -7   39.35    1.20
  -4   0  -7   38.16    1.32
   4   0   7   39.46    1.21
   4   0   7   38.75    1.02
   4   0   7   40.80    1.47
  -5   0  -7   67.27    1.77
   5   0   7   65.00    1.78
   6   0   7   20.96    0.90
   5  -1  -7   41.71    1.38
  -5   1   7   41.31    1.55
   4  -1  -7   14.13    0.67
  -4   1   7   15.55    0.82
   3  -1  -7   53.74    1.44
   3  -1  -7   57.66    1.50
   3  -1  -7   56.42    1.69
  -3   1   7   55.96    1.72
  -3   1   7   55.28    1.63
  -3   1   7   55.43    1.55
   2  -1  -7  143.78    3.34
   2  -1  -7  152.75    3.23
   2  -1  -7  153.21    3.37
   2  -1  -7  141.23    3.01
   2  -1  -7  148.19    3.17
  -2   1   7  148.57    3.41
  -2   1   7  149.95    3.23
   1  -1  -7   13.92    0.64
   1  -1  -7   14.76    0.57
   1  -1  -7   14.67    0.67
   1  -1  -7   15.23    0.63
   1  -1  -7   14.80    0.75
   1  -1  -7   15.07    0.44
   1  -1  -7   15.18    0.60
  -1   1   7   14.86    0.62
  -1   1   7   14.74    0.71
   0  -1  -7  179.77    3.68
   0  -1  -7  181.33    3.74
   0  -1  -7  180.10    3.60
   0  -1  -7  177.60    3.52
   0  -1  -7  178.61    3.40
   0  -1  -7  183.97    3.80
   0  -1  -7  178.56    3.90
   0   1   7  179.73    3.75
   0   1   7  184.11    3.53
   0   1   7  177.02    3.90
   0   1   7  181.34    3.60
  -1  -1  -7   31.93    0.94
  -1  -1  -7   31.77    0.95
  -1  -1  -7   32.95    1.07
  -1  -1  -7   31.67    0.76
  -1  -1  -7   32.80    1.00
  -2  -1  -7   31.12    0.94
  -2  -1  -7   33.78    0.97
  -2  -1  -7   33.37    1.01
  -2  -1  -7   31.81    0.83
  -2  -1  -7   30.55    1.03
  -3  -1  -7  157.62    3.36
  -3  -1  -7  157.08    3.27
  -3  -1  -7  162.66    3.44
  -3  -1  -7  160.19    3.53
   3   1   7  160.74    3.14
  -4  -1  -7    3.09    0.33
  -4  -1  -7    3.14    0.40
  -4  -1  -7    2.83    0.41
  -4  -1  -7    4.00    0.42
   4   1   7    3.56    0.38
   4   1   7    3.04    0.30
  -5  -1  -7   31.49    0.85
  -5  -1  -7   30.39    1.05
  -5  -1  -7   30.96    1.15
   5   1   7   30.14    1.01
  -6  -1  -7   20.51    0.73
   6   1   7   20.07    0.88
   6   1   7   21.55    0.88
   5  -2  -7   48.68    1.51
  -5   2   7   44.09    1.61
   4  -2  -7    6.10    0.46
  -4   2   7    6.86    0.56
   3  -2  -7   10.27    0.52
   3  -2  -7    8.98    0.67
   3  -2  -7   10.66    0.56
   3  -2  -7    9.95    0.62
   3  -2  -7   10.08    0.62
  -3   2   7   10.61    0.45
  -3   2   7   10.27    0.46
  -3   2   7    9.60    0.54
  -3   2   7   10.13    0.64
  -3   2   7   10.93    0.62
   2  -2  -7   40.64    1.18
   2  -2  -7   40.63    1.28
   2  -2  -7   38.43    1.05
   2  -2  -7   40.42    1.28
   2  -2  -7   38.81    1.16
  -2   2   7   39.07    1.29
  -2   2   7   41.29    1.18
   1  -2  -7    5.60    0.38
   1  -2  -7    5.78    0.41
   1  -2  -7    6.52    0.43
   1  -2  -7    5.47    0.28
   1  -2  -7    6.22    0.35
   1  -2  -7    5.84    0.37
   1  -2  -7    6.36    0.49
  -1   2   7    5.29    0.43
  -1   2   7    6.06    0.39
   0  -2  -7  167.49    3.48
   0  -2  -7  173.73    3.60
   0  -2  -7  168.31    3.68
   0  -2  -7  173.84    3.33
   0  -2  -7  170.23    3.52
   0  -2  -7  170.61    3.40
   0  -2  -7  163.70    3.27
   0   2   7  164.64    3.52
   0   2   7  171.74    3.32
   0   2   7  168.81    3.39
   0   2   7  165.02    3.68
  -1  -2  -7   16.19    0.61
  -1  -2  -7   17.94    0.64
  -1  -2  -7   17.29    0.71
  -1  -2  -7   17.22    0.67
  -1  -2  -7   17.16    0.51
  -2  -2  -7  127.07    2.75
  -2  -2  -7  120.61    2.55
  -2  -2  -7  126.94    2.67
  -2  -2  -7  121.34    2.66
  -2  -2  -7  125.09    2.81
   2   2   7  124.76    2.44
  -3  -2  -7  120.52    2.65
  -3  -2  -7  119.38    2.80
  -3  -2  -7  118.65    2.39
  -3  -2  -7  120.99    2.74
  -3  -2  -7  122.17    2.59
   3   2   7  123.67    2.46
   3   2   7  122.57    2.55
  -4  -2  -7   24.83    0.72
  -4  -2  -7   25.85    1.02
  -4  -2  -7   26.17    0.97
  -4  -2  -7   24.48    0.89
  -4  -2  -7   25.41    0.86
   4   2   7   25.55    0.84
   4   2   7   25.52    0.82
   4   2   7   25.52    0.75
   4   2   7   25.12    0.85
  -5  -2  -7   75.38    2.09
  -5  -2  -7   74.90    1.73
   5   2   7   75.13    1.86
  -6  -2  -7   12.43    0.80
  -6  -2  -7   12.61    0.61
   6   2   7   11.70    0.67
  -7  -2  -7   15.71    0.74
   7   2   7   15.38    0.82
   5  -3  -7   30.50    1.16
   4  -3  -7    3.41    0.45
   4  -3  -7    2.59    0.35
  -4   3   7    2.30    0.39
   3  -3  -7   90.45    3.15
   3  -3  -7   89.76    2.11
   3  -3  -7   89.14    2.29
   3  -3  -7   89.86    2.65
   3  -3  -7   88.67    2.18
  -3   3   7   86.03    1.95
  -3   3   7   85.76    2.29
  -3   3   7   88.81    2.25
  -3   3   7   90.06    1.94
  -3   3   7   86.42    2.13
   2  -3  -7   57.45    1.52
   2  -3  -7   55.87    1.51
   2  -3  -7   58.75    1.64
   2  -3  -7   55.86    1.60
   2  -3  -7   56.36    1.42
  -2   3   7   55.29    1.47
  -2   3   7   55.44    1.60
  -2   3   7   57.23    1.29
  -2   3   7   56.67    1.30
   1  -3  -7   60.63    1.58
   1  -3  -7   61.15    1.41
   1  -3  -7   60.22    1.62
   1  -3  -7   60.31    1.57
   1  -3  -7   59.91    1.47
   1  -3  -7   60.87    1.55
   1  -3  -7   59.35    1.70
  -1   3   7   62.30    1.54
  -1   3   7   62.34    1.68
  -1   3   7   61.45    1.31
  -1   3   7   61.38    1.32
   0  -3  -7  143.37    2.85
   0  -3  -7  134.05    2.83
   0  -3  -7  142.44    3.16
   0  -3  -7  141.60    3.00
   0  -3  -7  146.51    3.02
   0  -3  -7  145.46    3.11
   0  -3  -7  139.48    2.92
   0   3   7  141.06    3.18
   0   3   7  142.80    2.74
   0   3   7  142.33    3.03
   0   3   7  143.70    2.75
  -1  -3  -7    1.07    0.19
  -1  -3  -7    0.52    0.11
  -1  -3  -7    1.54    0.26
  -1  -3  -7    0.18    0.09
  -1  -3  -7    0.88    0.20
  -1  -3  -7    0.52    0.10
  -1  -3  -7    0.37    0.14
   1   3   7    0.43    0.11
   1   3   7    0.23    0.10
   1   3   7    0.63    0.11
   1   3   7    0.69    0.13
  -2  -3  -7  148.35    3.05
  -2  -3  -7  153.22    3.12
  -2  -3  -7  153.37    3.24
  -2  -3  -7  152.56    3.12
  -2  -3  -7  150.36    3.26
  -2  -3  -7  147.43    2.90
   2   3   7  150.94    2.93
   2   3   7  152.01    2.95
   2   3   7  141.14    3.08
  -3  -3  -7   73.24    1.88
  -3  -3  -7   73.82    1.77
  -3  -3  -7   73.59    1.74
  -3  -3  -7   76.06    1.61
  -3  -3  -7   74.86    1.92
   3   3   7   73.77    1.61
   3   3   7   73.98    1.63
   3   3   7   74.74    1.70
  -4  -3  -7    3.48    0.41
  -4  -3  -7    3.53    0.37
  -4  -3  -7    3.37    0.28
  -4  -3  -7    3.55    0.49
  -4  -3  -7    3.45    0.43
   4   3   7    3.99    0.39
   4   3   7    3.26    0.28
   4   3   7    3.84    0.34
  -5  -3  -7   92.75    2.12
  -5  -3  -7   93.24    2.46
   5   3   7   95.79    2.23
  -6  -3  -7    6.55    0.49
  -6  -3  -7    6.80    0.64
   6   3   7    6.64    0.53
  -7  -3  -7   38.59    1.24
  -7  -3  -7   38.92    1.80
   7   3   7   36.99    1.28
   4  -4  -7    0.34    0.17
   4  -4  -7    0.74    0.25
  -4   4   7    0.40    0.24
  -4   4   7    0.69    0.23
  -4   4   7    0.53    0.21
   3  -4  -7  165.93    3.52
   3  -4  -7  164.93    3.61
   3  -4  -7  160.60    3.66
  -3   4   7  164.96    3.64
  -3   4   7  165.10    3.35
  -3   4   7  165.29    3.32
  -3   4   7  162.35    3.50
  -3   4   7  160.80    3.67
   2  -4  -7  103.61    2.51
   2  -4  -7  104.20    2.34
   2  -4  -7  103.15    2.44
   2  -4  -7  106.63    2.58
   2  -4  -7  108.13    2.44
  -2   4   7  105.56    2.19
  -2   4   7  103.23    2.34
  -2   4   7  104.12    2.21
  -2   4   7  102.69    2.48
   1  -4  -7  120.26    2.76
   1  -4  -7  122.71    2.69
   1  -4  -7  122.97    2.67
   1  -4  -7  116.97    2.55
   1  -4  -7  123.95    2.61
   1  -4  -7  120.17    2.81
   1  -4  -7  125.58    2.73
  -1   4   7  102.80    2.74
  -1   4   7  121.29    2.43
  -1   4   7  122.90    2.45
  -1   4   7  124.15    2.78
  -1   4   7  125.23    2.63
   0  -4  -7  170.82    3.62
   0  -4  -7  169.30    3.50
   0  -4  -7  166.43    3.46
   0  -4  -7  167.81    3.56
   0  -4  -7  163.37    3.22
   0  -4  -7  172.68    3.45
   0  -4  -7  166.26    3.36
   0  -4  -7  170.79    3.36
   0   4   7  166.98    3.27
   0   4   7  166.42    3.25
  -1  -4  -7    9.75    0.41
  -1  -4  -7    9.40    0.35
  -1  -4  -7   10.32    0.40
  -1  -4  -7   10.65    0.52
  -1  -4  -7    9.85    0.46
  -1  -4  -7   10.38    0.53
  -1  -4  -7   10.27    0.37
  -1  -4  -7   10.55    0.46
   1   4   7   10.05    0.36
   1   4   7    8.69    0.52
   1   4   7    9.77    0.36
   1   4   7    9.38    0.41
   1   4   7   10.15    0.39
  -2  -4  -7  207.87    4.02
  -2  -4  -7  208.90    4.17
  -2  -4  -7  210.73    4.02
  -2  -4  -7  208.52    4.31
  -2  -4  -7  208.79    4.16
  -2  -4  -7  204.95    4.13
  -2  -4  -7  206.33    4.30
   2   4   7  208.16    4.08
   2   4   7  208.44    4.02
   2   4   7  207.47    4.00
  -3  -4  -7   38.98    1.23
  -3  -4  -7   39.38    1.07
  -3  -4  -7   39.26    1.10
  -3  -4  -7   40.14    1.01
  -3  -4  -7   40.81    0.94
  -3  -4  -7   38.76    1.24
  -3  -4  -7   40.26    1.13
   3   4   7   40.40    0.99
   3   4   7   39.85    1.07
   3   4   7   40.04    1.00
  -4  -4  -7   47.28    1.48
  -4  -4  -7   46.54    1.35
  -4  -4  -7   48.50    1.15
  -4  -4  -7   46.91    1.50
  -4  -4  -7   48.42    1.23
   4   4   7   48.17    1.18
   4   4   7   48.31    1.28
   4   4   7   48.78    1.20
  -5  -4  -7   53.57    1.71
  -5  -4  -7   53.24    1.40
   5   4   7   54.04    1.46
  -6  -4  -7   -0.19    0.19
  -6  -4  -7    0.13    0.30
   6   4   7    0.30    0.24
  -5   5   7   14.62    0.78
   4  -5  -7    7.67    0.59
   4  -5  -7    5.91    0.48
  -4   5   7    7.67    0.51
   3  -5  -7   70.80    1.79
   3  -5  -7   69.08    1.88
   3  -5  -7   74.67    1.93
  -3   5   7   68.91    1.88
  -3   5   7   67.01    1.72
  -3   5   7   68.25    1.84
  -3   5   7   71.33    1.64
  -3   5   7   68.28    1.72
   2  -5  -7    1.19    0.29
   2  -5  -7    1.28    0.22
   2  -5  -7    0.96    0.16
   2  -5  -7    1.38    0.30
   2  -5  -7    1.04    0.25
   2  -5  -7    0.83    0.22
  -2   5   7    1.31    0.22
  -2   5   7    1.30    0.22
  -2   5   7    1.13    0.24
  -2   5   7    1.24    0.20
  -2   5   7    1.54    0.25
   1  -5  -7   74.06    1.61
   1  -5  -7   74.16    1.90
   1  -5  -7   73.65    1.77
   1  -5  -7   72.27    1.89
   1  -5  -7   75.70    1.76
   1  -5  -7   73.89    1.80
   1  -5  -7   74.36    1.86
   1  -5  -7   75.91    1.91
  -1   5   7   74.94    1.64
  -1   5   7   78.31    1.76
  -1   5   7   74.78    1.70
  -1   5   7   77.76    1.89
  -1   5   7   76.38    1.63
   0  -5  -7  121.19    2.74
   0  -5  -7  119.23    2.72
   0  -5  -7  121.28    2.57
   0  -5  -7  126.12    2.69
   0  -5  -7  116.28    2.81
   0  -5  -7  122.98    2.68
   0  -5  -7  125.13    2.62
   0  -5  -7  127.12    2.59
   0  -5  -7  117.18    2.45
   0   5   7  122.57    2.54
   0   5   7  123.54    2.46
   0   5   7  123.23    2.48
  -1  -5  -7    5.31    0.29
  -1  -5  -7    4.71    0.36
  -1  -5  -7    5.66    0.28
  -1  -5  -7    5.10    0.32
  -1  -5  -7    5.13    0.38
  -1  -5  -7    5.37    0.26
  -1  -5  -7    5.17    0.34
  -1  -5  -7    5.29    0.30
  -1  -5  -7    4.88    0.24
  -1  -5  -7    5.06    0.24
  -1  -5  -7    5.20    0.33
  -1  -5  -7    5.00    0.30
   1   5   7    4.85    0.28
   1   5   7    4.73    0.31
   1   5   7    4.98    0.27
  -2  -5  -7  181.13    3.42
  -2  -5  -7  179.44    3.61
  -2  -5  -7  173.39    3.49
  -2  -5  -7  175.78    3.77
  -2  -5  -7  180.27    3.44
  -2  -5  -7  175.43    3.57
  -2  -5  -7  179.01    3.60
  -2  -5  -7  177.89    3.74
  -2  -5  -7  178.13    3.50
  -2  -5  -7  178.25    3.60
   2   5   7  174.47    3.46
   2   5   7  176.93    3.56
   2   5   7  172.79    3.47
  -3  -5  -7   11.73    0.43
  -3  -5  -7   11.03    0.60
  -3  -5  -7    8.85    0.64
  -3  -5  -7   11.30    0.60
  -3  -5  -7   11.62    0.47
  -3  -5  -7   11.28    0.52
  -3  -5  -7   11.51    0.42
   3   5   7   10.47    0.45
   3   5   7   11.64    0.50
   3   5   7   10.91    0.44
  -4  -5  -7   83.57    2.23
  -4  -5  -7   83.68    2.23
  -4  -5  -7   86.29    1.86
  -4  -5  -7   87.23    1.84
  -4  -5  -7   85.47    1.94
  -4  -5  -7   83.73    2.06
   4   5   7   83.74    1.85
   4   5   7   80.73    1.94
   4   5   7   82.83    1.83
  -5  -5  -7   73.48    1.82
  -5  -5  -7   75.92    2.17
   5   5   7   73.08    1.81
  -6  -5  -7    4.61    0.49
  -6  -5  -7    4.00    0.61
   6   5   7    5.08    0.51
   5  -6  -7    5.73    0.68
  -5   6   7    5.05    0.55
   4  -6  -7   32.18    0.96
   4  -6  -7   32.59    1.27
  -4   6   7   33.93    1.12
   3  -6  -7   54.84    1.36
   3  -6  -7   55.67    1.66
  -3   6   7   53.63    1.45
   2  -6  -7   21.29    0.94
   2  -6  -7   19.92    0.83
   2  -6  -7   22.37    0.70
   2  -6  -7   19.83    0.84
   2  -6  -7   21.14    0.77
   2  -6  -7   19.51    0.85
  -2   6   7   21.70    0.69
  -2   6   7   21.45    0.67
  -2   6   7   20.94    0.79
  -2   6   7   22.88    0.76
  -2   6   7   21.81    0.71
   1  -6  -7  127.96    2.70
   1  -6  -7  129.77    2.89
   1  -6  -7  124.33    2.82
   1  -6  -7  127.65    2.83
   1  -6  -7  130.54    2.77
   1  -6  -7  127.17    2.63
   1  -6  -7  128.57    2.97
   1  -6  -7  127.97    2.87
  -1   6   7  127.64    2.61
  -1   6   7  123.30    2.68
  -1   6   7  123.78    2.58
  -1   6   7  128.97    2.67
  -1   6   7  129.32    2.80
   0  -6  -7   97.24    2.23
   0  -6  -7   94.12    2.07
   0  -6  -7   90.93    1.99
   0  -6  -7   93.78    1.93
   0  -6  -7   92.75    2.19
   0  -6  -7   92.33    1.93
   0  -6  -7   96.29    2.14
   0  -6  -7   94.86    2.10
   0  -6  -7   95.11    2.24
   0  -6  -7   90.73    2.18
   0  -6  -7   89.55    2.39
   0  -6  -7   92.76    1.91
   0  -6  -7   93.50    1.95
   0   6   7   99.47    2.25
   0   6   7   92.24    2.04
   0   6   7   93.78    1.96
   0   6   7   99.88    2.11
   0   6   7   93.97    1.98
  -1  -6  -7  189.18    3.57
  -1  -6  -7  186.47    3.55
  -1  -6  -7  183.69    3.69
  -1  -6  -7  191.15    3.73
  -1  -6  -7  182.59    3.65
  -1  -6  -7  176.16    3.70
  -1  -6  -7  183.58    3.62
  -1  -6  -7  179.75    3.85
  -1  -6  -7  183.91    3.83
  -1  -6  -7  181.12    3.77
  -1  -6  -7  189.64    3.83
  -1  -6  -7  178.24    3.62
   1   6   7  183.98    3.58
   1   6   7  182.28    3.59
   1   6   7  181.43    3.66
  -2  -6  -7  167.00    3.46
  -2  -6  -7  172.91    3.45
  -2  -6  -7  162.57    3.71
  -2  -6  -7  171.70    3.60
  -2  -6  -7  170.18    3.46
  -2  -6  -7  166.72    3.63
  -2  -6  -7  172.42    3.32
  -2  -6  -7  169.57    3.39
  -2  -6  -7  168.11    3.47
  -2  -6  -7  171.71    3.33
  -2  -6  -7  172.89    3.44
  -2  -6  -7  172.48    3.55
   2   6   7  163.56    3.34
   2   6   7  167.03    3.33
   2   6   7  163.87    3.44
   2   6   7  172.62    3.43
  -3  -6  -7    0.54    0.16
  -3  -6  -7    0.32    0.17
  -3  -6  -7    0.29    0.12
  -3  -6  -7    0.07    0.11
  -3  -6  -7    0.28    0.15
  -3  -6  -7    0.40    0.20
   3   6   7    0.66    0.18
   3   6   7    0.18    0.13
   3   6   7    0.27    0.16
   3   6   7    0.21    0.12
  -4  -6  -7   51.16    1.26
  -4  -6  -7   51.11    1.33
  -4  -6  -7   49.21    1.56
  -4  -6  -7   48.12    1.41
  -4  -6  -7   49.18    1.57
  -4  -6  -7   50.50    1.23
   4   6   7   49.19    1.30
  -5  -6  -7   44.45    1.28
  -5  -6  -7   42.67    1.56
   5   6   7   44.07    1.23
  -6  -6  -7   15.31    0.75
  -6  -6  -7   15.28    0.99
   6   6   7   15.18    0.69
   5  -7  -7    2.12    0.50
   5  -7  -7    0.96    0.26
   4  -7  -7   27.62    0.93
   4  -7  -7   28.57    1.21
  -4   7   7   26.16    0.98
   3  -7  -7   45.62    1.22
   3  -7  -7   46.02    1.50
  -3   7   7   38.41    1.22
  -3   7   7   45.56    1.26
   2  -7  -7    1.11    0.22
   2  -7  -7    1.33    0.29
   2  -7  -7    0.58    0.22
   2  -7  -7    0.73    0.28
  -2   7   7    1.44    0.24
  -2   7   7    1.00    0.19
  -2   7   7    1.07    0.20
   1  -7  -7  127.85    3.01
   1  -7  -7  120.03    2.83
   1  -7  -7  125.71    2.65
   1  -7  -7  126.33    2.86
   1  -7  -7  125.83    2.89
  -1   7   7  128.04    2.58
  -1   7   7  124.83    2.66
  -1   7   7  127.78    2.56
   0  -7  -7   25.99    0.85
   0  -7  -7   24.69    0.76
   0  -7  -7   26.12    0.89
   0  -7  -7   25.33    0.69
   0  -7  -7   23.61    0.86
   0  -7  -7   25.63    0.71
   0  -7  -7   24.60    0.75
   0  -7  -7   24.08    0.70
   0  -7  -7   25.34    0.95
   0  -7  -7   25.26    0.86
   0  -7  -7   24.07    0.73
   0   7   7   25.82    0.86
   0   7   7   24.60    0.68
   0   7   7   24.18    0.79
   0   7   7   24.41    0.70
   0   7   7   25.03    0.77
   0   7   7   24.97    0.77
  -1  -7  -7   86.13    1.89
  -1  -7  -7   87.17    1.83
  -1  -7  -7   85.24    2.09
  -1  -7  -7   84.71    1.80
  -1  -7  -7   84.77    2.01
  -1  -7  -7   83.35    1.99
  -1  -7  -7   84.55    1.98
  -1  -7  -7   85.27    2.07
  -1  -7  -7   83.36    1.88
   1   7   7   85.12    1.89
   1   7   7   86.58    1.94
   1   7   7   85.50    1.78
   1   7   7   85.12    1.80
  -2  -7  -7  111.02    2.29
  -2  -7  -7  111.51    2.27
  -2  -7  -7  111.02    2.36
  -2  -7  -7  107.79    2.38
  -2  -7  -7  108.99    2.49
  -2  -7  -7  110.89    2.58
  -2  -7  -7  110.24    2.56
  -2  -7  -7  111.38    2.41
  -2  -7  -7  110.87    2.43
  -2  -7  -7  106.68    2.36
  -2  -7  -7  109.06    2.44
   2   7   7  105.45    2.33
   2   7   7  106.83    2.39
  -3  -7  -7    0.31    0.17
  -3  -7  -7    0.13    0.14
  -3  -7  -7    0.34    0.16
  -3  -7  -7    0.39    0.17
  -3  -7  -7    0.04    0.14
  -3  -7  -7    0.77    0.17
  -3  -7  -7    0.17    0.14
  -3  -7  -7    0.37    0.19
   3   7   7   -0.05    0.16
   3   7   7    0.23    0.12
  -4  -7  -7  117.97    2.56
  -4  -7  -7  113.85    2.87
  -4  -7  -7  113.05    2.64
  -4  -7  -7  113.16    2.83
   4   7   7  113.34    2.48
  -5  -7  -7    8.86    0.56
  -5  -7  -7    8.98    0.72
   5   7   7    8.42    0.49
  -6  -7  -7   22.37    1.21
  -6  -7  -7   23.01    0.95
   5  -8  -7    4.33    0.46
   5  -8  -7    5.28    0.74
  -5   8   7    4.02    0.51
   4  -8  -7   28.60    1.01
   4  -8  -7   28.10    1.25
  -4   8   7   26.07    0.98
   3  -8  -7   19.91    0.98
   3  -8  -7   20.23    0.80
  -3   8   7   20.80    0.79
   2  -8  -7    4.82    0.58
   2  -8  -7    5.49    0.42
  -2   8   7    6.30    0.41
  -2   8   7    5.48    0.32
  -2   8   7    5.60    0.33
   1  -8  -7   92.65    2.28
   1  -8  -7   88.19    2.26
   1  -8  -7   92.13    2.06
   1  -8  -7   89.94    2.41
  -1   8   7   91.83    2.02
  -1   8   7   87.28    1.89
  -1   8   7   89.05    1.91
   0  -8  -7    0.03    0.14
   0  -8  -7    0.20    0.16
   0  -8  -7    0.18    0.12
   0  -8  -7    1.05    0.22
   0  -8  -7    0.30    0.14
   0  -8  -7    0.26    0.16
   0  -8  -7    0.14    0.13
   0  -8  -7    0.18    0.17
   0  -8  -7    0.25    0.13
   0   8   7    0.16    0.11
   0   8   7    0.40    0.15
  -1  -8  -7   47.34    1.14
  -1  -8  -7   44.09    1.21
  -1  -8  -7   47.46    1.44
  -1  -8  -7   44.65    1.30
  -1  -8  -7   46.08    1.34
  -1  -8  -7   45.90    1.12
  -1  -8  -7   45.56    1.19
  -1  -8  -7   44.97    1.28
  -1  -8  -7   44.64    1.18
   1   8   7   45.16    1.23
   1   8   7   44.77    1.14
  -2  -8  -7   38.47    1.11
  -2  -8  -7   38.64    1.08
  -2  -8  -7   41.61    1.23
  -2  -8  -7   39.62    1.03
  -2  -8  -7   37.98    1.17
  -2  -8  -7   37.63    1.27
  -2  -8  -7   39.45    1.01
  -2  -8  -7   41.17    1.40
  -2  -8  -7   36.21    1.12
  -2  -8  -7   39.34    1.25
   2   8   7   38.29    1.11
   2   8   7   38.76    1.03
  -3  -8  -7   11.49    0.68
  -3  -8  -7   11.43    0.61
  -3  -8  -7   11.80    0.55
  -3  -8  -7   11.06    0.63
  -3  -8  -7   12.16    0.59
  -3  -8  -7   11.43    0.49
  -3  -8  -7   11.67    0.56
  -3  -8  -7   11.73    0.51
   3   8   7   12.30    0.57
   3   8   7   12.73    0.51
  -4  -8  -7  112.51    2.84
  -4  -8  -7  118.01    2.95
  -4  -8  -7  114.92    2.60
  -4  -8  -7  114.19    2.66
   4   8   7  116.95    2.45
   4   8   7  113.60    2.66
  -5  -8  -7    5.94    0.50
  -5  -8  -7    5.51    0.68
  -6  -8  -7   11.12    0.69
  -6  -8  -7   10.42    0.87
   4  -9  -7   40.42    1.31
   4  -9  -7   39.77    1.58
  -4   9   7   40.80    1.25
   3  -9  -7   10.39    0.75
   3  -9  -7    9.83    0.61
  -3   9   7   10.62    0.56
   2  -9  -7   43.74    1.25
   2  -9  -7   40.34    1.43
  -2   9   7   40.58    1.14
   1  -9  -7   87.82    1.97
   1  -9  -7   88.21    2.28
   1  -9  -7   86.94    1.95
   1  -9  -7   88.46    2.06
  -1   9   7   86.53    2.36
  -1   9   7   88.31    2.31
  -1   9   7   88.24    1.97
   0  -9  -7    0.64    0.18
   0  -9  -7    0.37    0.19
   0  -9  -7    0.53    0.17
   0  -9  -7    0.20    0.14
   0  -9  -7    0.05    0.19
   0  -9  -7    0.23    0.13
   0  -9  -7    0.21    0.17
   0  -9  -7   -0.06    0.15
   0   9   7    0.44    0.17
   0   9   7    0.21    0.13
  -1  -9  -7  117.89    2.57
  -1  -9  -7  116.72    2.62
  -1  -9  -7  115.32    2.47
  -1  -9  -7  118.96    2.66
  -1  -9  -7  113.39    2.89
  -1  -9  -7  117.43    2.46
  -1  -9  -7  116.83    2.75
  -1  -9  -7  116.35    2.55
  -1  -9  -7  117.05    2.71
   1   9   7  119.56    2.63
   1   9   7  115.75    2.43
  -2  -9  -7   47.11    1.29
  -2  -9  -7   47.82    1.38
  -2  -9  -7   49.18    1.48
  -2  -9  -7   50.23    1.23
  -2  -9  -7   47.05    1.55
  -2  -9  -7   47.71    1.44
  -2  -9  -7   46.93    1.34
  -2  -9  -7   49.77    1.25
   2   9   7   50.26    1.36
   2   9   7   49.31    1.18
  -3  -9  -7   51.88    1.44
  -3  -9  -7   47.87    1.41
  -3  -9  -7   48.84    1.57
  -3  -9  -7   46.46    1.98
  -3  -9  -7   48.96    1.46
   3   9   7   48.18    1.38
  -4  -9  -7   45.79    1.61
  -4  -9  -7   48.23    1.50
  -4  -9  -7   48.32    1.46
   4   9   7   46.80    1.40
  -5  -9  -7   -0.04    0.28
  -6  -9  -7   29.70    1.44
   4 -10  -7   34.51    1.24
   4 -10  -7   33.27    1.48
  -4  10   7   33.94    1.11
   3 -10  -7    6.28    0.74
   3 -10  -7    7.65    0.58
  -3  10   7    7.24    0.48
   2 -10  -7   48.00    1.64
   2 -10  -7   49.99    1.44
  -2  10   7   50.41    1.29
   1 -10  -7   58.12    1.55
   1 -10  -7   59.24    1.76
  -1  10   7   58.01    1.61
  -1  10   7   56.07    1.60
  -1  10   7   58.53    1.39
   0 -10  -7    5.78    0.44
   0 -10  -7    5.15    0.54
   0 -10  -7    4.97    0.45
   0 -10  -7    5.11    0.42
   0  10   7    5.26    0.34
   0  10   7    4.67    0.38
  -1 -10  -7   96.21    2.74
  -1 -10  -7   90.46    2.19
  -1 -10  -7   82.90    2.51
  -1 -10  -7   88.78    2.13
   1  10   7   91.78    2.18
  -2 -10  -7   31.35    1.16
  -2 -10  -7   32.35    1.11
  -2 -10  -7   30.40    1.05
   2  10   7   33.94    1.08
  -3 -10  -7   36.56    1.27
  -3 -10  -7   36.39    1.34
  -3 -10  -7   36.98    1.23
   3  10   7   38.46    1.20
  -4 -10  -7   35.83    1.44
  -4 -10  -7   39.25    1.38
  -4 -10  -7   38.14    1.32
   4  10   7   38.44    1.25
  -5 -10  -7    1.02    0.43
   4 -11  -7   10.69    0.76
   4 -11  -7   10.73    0.92
   3 -11  -7    0.08    0.28
   3 -11  -7    0.38    0.29
   2 -11  -7   37.77    1.47
   2 -11  -7   40.34    1.29
   1 -11  -7   21.40    1.01
   1 -11  -7   21.04    0.88
  -1  11   7   20.29    0.87
  -1  11   7   19.31    0.85
   0 -11  -7   22.16    0.88
   0 -11  -7   21.10    0.95
   0 -11  -7   22.07    0.85
   0  11   7   22.29    0.88
  -1 -11  -7   56.66    1.55
  -1 -11  -7   56.07    1.60
   1  11   7   54.11    1.56
  -2 -11  -7    0.08    0.20
  -2 -11  -7    0.20    0.18
   2  11   7    0.08    0.15
  -3 -11  -7   44.50    1.55
  -3 -11  -7   45.88    1.45
  -3 -11  -7   45.95    1.50
   3  11   7   42.97    1.37
  -4 -11  -7   29.08    1.15
  -4 -11  -7   28.10    1.19
  -4 -11  -7   26.80    1.26
   4  11   7   27.55    1.07
  -5 -11  -7    2.72    0.59
   3 -12  -7    4.24    0.70
   3 -12  -7    5.20    0.65
   2 -12  -7   33.26    1.40
   2 -12  -7   28.98    1.22
   1 -12  -7    2.96    0.51
  -1  12   7    3.09    0.45
  -1  12   7    3.05    0.44
   0 -12  -7   17.81    0.93
   0 -12  -7   19.36    0.84
   0 -12  -7   18.93    0.87
   0  12   7   19.73    0.87
  -1 -12  -7   65.34    1.82
  -1 -12  -7   69.58    1.91
   1  12   7   67.75    1.86
  -2 -12  -7    4.53    0.56
  -2 -12  -7    2.69    0.43
   2  12   7    3.33    0.42
  -3 -12  -7   55.87    1.78
  -3 -12  -7   56.05    1.72
   3  12   7   56.50    1.67
  -4 -12  -7   15.03    0.90
  -4 -12  -7   14.74    0.95
  -4 -12  -7   14.98    0.86
   4  12   7   13.50    0.76
   2 -13  -7   25.74    1.28
   1 -13  -7    3.22    0.57
  -1  13   7    2.54    0.42
  -1  13   7    3.88    0.52
   0 -13  -7   24.96    1.02
   0 -13  -7   24.78    1.06
   0  13   7   25.68    1.06
  -1 -13  -7   35.07    1.22
  -1 -13  -7   31.29    1.22
   1  13   7   29.51    1.16
  -2 -13  -7    1.50    0.39
  -2 -13  -7    1.83    0.38
   2  13   7    1.33    0.31
  -3 -13  -7   31.30    1.23
  -3 -13  -7   27.44    1.23
   3  13   7   28.69    1.14
   1 -14  -7    2.47    0.54
  -1  14   7    1.86    0.55
  -1  14   7    2.33    0.50
   0 -14  -7   32.22    1.28
   0 -14  -7   32.26    1.23
   0  14   7   32.72    1.27
  -1 -14  -7    5.74    0.65
   1  14   7    6.04    0.64
  -2 -14  -7    9.53    0.71
  -2 -14  -7    8.96    0.75
   2  14   7    9.37    0.66
   0  -9   8    9.31    0.89
   0  -9   8    8.69    0.94
   1  -9   8   20.08    1.09
   1  -9   8   22.31    1.08
   0  -8   8   14.61    0.87
   0  -8   8   15.40    0.84
   1  -8   8   20.18    0.98
  -2   8  -8    6.15    0.37
   2  -8   8    5.99    0.69
  -3   8  -8   10.61    0.56
   3  -8   8   10.01    0.78
   0  -7   8   56.20    1.74
   0  -7   8   54.69    1.66
   1  -7   8   17.71    0.87
  -2   7  -8   17.84    0.60
   2  -7   8   19.26    0.96
  -3   7  -8   32.66    1.04
   3  -7   8   37.98    1.44
  -4   7  -8    0.91    0.25
   4  -7   8    1.90    0.49
  -3  -6   8    2.45    0.50
  -2  -6   8   55.90    1.81
   1   6  -8    1.75    0.54
   0  -6   8   56.89    1.60
   0  -6   8   49.67    1.54
   0  -6   8   50.56    1.60
   1  -6   8    7.07    0.55
  -2   6  -8    2.39    0.23
   2  -6   8    2.66    0.43
  -3   6  -8   66.64    1.65
   3  -6   8   66.24    2.00
  -4   6  -8    2.19    0.35
   4  -6   8    1.07    0.37
   4   5  -8    0.14    0.19
  -4  -5   8    0.03    0.24
   3   5  -8   18.64    0.64
  -3  -5   8   20.78    1.06
  -2  -5   8   18.95    0.94
   1   5  -8    2.28    0.39
  -1  -5   8    1.93    0.32
  -1  -5   8    2.02    0.38
  -1  -5   8    2.31    0.39
   0  -5   8   25.16    0.97
   1  -5   8    0.21    0.19
  -2   5  -8   24.13    0.63
   2  -5   8   22.54    0.97
  -3   5  -8   15.68    0.62
   3  -5   8   17.11    0.86
  -4   5  -8    5.05    0.41
   4  -5   8    5.53    0.63
   4  -5   8    5.08    0.75
  -5   5  -8   19.63    0.89
   5  -5   8   19.72    1.05
   4   4  -8    0.21    0.19
  -4  -4   8    0.86    0.33
   3   4  -8   63.17    1.51
  -3  -4   8   65.39    2.00
   2   4  -8   16.35    0.87
  -2  -4   8   17.17    0.87
   1   4  -8   38.16    1.29
  -1  -4   8   37.35    1.27
  -1  -4   8   35.46    1.31
  -1  -4   8   35.55    1.17
   0   4  -8   92.93    2.44
   0   4  -8   94.25    2.25
   0   4  -8   88.21    2.25
   0  -4   8   85.47    2.17
   0  -4   8   88.21    2.36
   0  -4   8   89.79    2.26
  -1   4  -8    7.22    0.48
  -1   4  -8    7.83    0.57
   1  -4   8    7.76    0.51
   1  -4   8    7.78    0.58
  -2   4  -8  132.29    3.00
  -2   4  -8  128.09    3.19
  -2   4  -8  127.46    2.55
   2  -4   8  132.41    3.07
  -3   4  -8    8.12    0.42
   3  -4   8    8.41    0.60
   3  -4   8    8.54    0.60
  -4   4  -8    7.66    0.48
   4  -4   8    8.66    0.72
   4  -4   8    7.90    0.63
  -5   4  -8   33.09    1.17
   5  -4   8   33.12    1.34
   4   3  -8    2.55    0.34
  -4  -3   8    2.73    0.49
   3   3  -8   44.22    1.18
  -3  -3   8   45.64    1.57
   2   3  -8   14.97    0.81
  -2  -3   8   14.95    0.79
  -2  -3   8   15.36    0.84
  -2  -3   8   14.98    0.73
   1   3  -8   80.59    2.24
   1   3  -8   86.15    2.18
   1   3  -8   79.91    2.06
  -1  -3   8   79.08    2.02
  -1  -3   8   80.21    2.03
  -1  -3   8   82.08    2.13
  -1  -3   8   79.71    2.16
  -1  -3   8   76.10    2.16
   0   3  -8   72.10    1.90
   0   3  -8   71.34    1.86
   0   3  -8   71.83    2.03
   0  -3   8   70.30    1.99
   0  -3   8   70.79    1.83
  -1   3  -8    6.13    0.43
  -1   3  -8    5.75    0.44
  -1   3  -8    5.77    0.49
   1  -3   8    6.02    0.46
   1  -3   8    5.40    0.51
  -2   3  -8   64.95    1.85
  -2   3  -8   58.18    1.31
  -2   3  -8   63.62    1.67
   2  -3   8   62.59    1.71
  -3   3  -8   33.83    1.24
  -3   3  -8   33.52    1.10
  -3   3  -8   32.21    0.93
   3  -3   8   31.88    1.16
   3  -3   8   34.44    1.22
  -4   3  -8   12.40    0.59
   4  -3   8   12.23    0.72
   4  -3   8   12.15    0.83
  -5   3  -8   25.51    0.98
   5  -3   8   25.72    1.32
   5  -3   8   22.64    1.06
  -6   3  -8    0.10    0.21
   6  -3   8    0.11    0.24
   5   2  -8   15.05    0.77
  -5  -2   8   14.74    0.99
   4   2  -8   14.19    0.67
  -4  -2   8   15.41    0.91
   3   2  -8   61.51    1.53
   3   2  -8   62.10    1.92
  -3  -2   8   59.49    1.86
   2   2  -8    0.10    0.18
   2   2  -8    0.09    0.17
   2   2  -8    0.13    0.15
  -2  -2   8    0.25    0.18
  -2  -2   8   -0.11    0.15
  -2  -2   8    0.06    0.15
   1   2  -8   67.40    2.01
   1   2  -8   67.01    1.85
   1   2  -8   66.45    1.73
   1   2  -8   69.28    1.90
   1   2  -8   70.39    1.85
   1   2  -8   68.06    1.73
  -1  -2   8   68.74    1.96
  -1  -2   8   68.87    1.76
  -1  -2   8   71.18    1.90
  -1  -2   8   69.54    1.80
   0   2  -8   40.26    1.37
   0   2  -8   41.01    1.28
   0   2  -8   39.18    1.19
   0   2  -8   39.68    1.22
   0  -2   8   38.73    1.35
   0  -2   8   40.17    1.22
  -1   2  -8   77.76    2.09
  -1   2  -8   80.85    1.97
  -1   2  -8   77.57    1.93
   1  -2   8   77.66    1.96
   1  -2   8   74.69    2.12
  -2   2  -8   73.57    2.02
  -2   2  -8   78.57    1.91
  -2   2  -8   73.93    1.87
  -2   2  -8   71.50    1.55
  -3   2  -8    5.62    0.42
  -3   2  -8    4.22    0.29
  -3   2  -8    4.84    0.46
   3  -2   8    5.05    0.53
   3  -2   8    4.43    0.47
  -4   2  -8   45.34    1.53
  -4   2  -8   46.60    1.28
  -4   2  -8   45.44    1.38
   4  -2   8   43.21    1.43
   4  -2   8   45.57    1.62
  -5   2  -8   28.46    1.04
   5  -2   8   29.04    1.40
   5  -2   8   29.77    1.16
  -6   2  -8   19.67    0.92
   6  -2   8   17.14    0.94
   5   1  -8    8.89    0.62
  -5  -1   8    9.55    0.80
   4   1  -8   12.92    0.65
  -4  -1   8   12.37    0.81
   3   1  -8   37.71    1.39
   3   1  -8   34.70    1.05
  -3  -1   8   36.17    1.33
   2   1  -8   13.34    0.45
   2   1  -8   15.32    0.64
   2   1  -8   14.30    0.76
   2   1  -8   13.93    0.75
   2   1  -8   14.02    0.67
  -2  -1   8   13.74    0.67
  -2  -1   8   13.58    0.77
   1   1  -8   30.35    1.07
   1   1  -8   30.79    0.98
   1   1  -8   31.65    1.09
   1   1  -8   30.56    1.22
   1   1  -8   33.67    1.15
   1   1  -8   33.48    1.02
  -1  -1   8   32.16    1.06
  -1  -1   8   31.93    1.19
   0   1  -8   77.62    1.93
   0   1  -8   77.84    1.96
   0   1  -8   74.66    1.87
   0   1  -8   74.73    1.74
   0   1  -8   77.53    2.09
   0   1  -8   76.44    1.84
   0  -1   8   79.51    1.94
   0  -1   8   76.13    1.83
   0  -1   8   77.26    2.09
   0  -1   8   76.34    1.74
  -1   1  -8  102.59    2.56
  -1   1  -8  101.31    2.38
  -1   1  -8  104.32    2.42
  -1   1  -8  101.03    2.38
  -2   1  -8  170.40    3.52
  -2   1  -8  155.51    3.62
  -2   1  -8  159.20    3.16
  -2   1  -8  160.24    3.46
  -3   1  -8    2.59    0.27
  -3   1  -8    2.44    0.37
  -3   1  -8    2.45    0.33
  -3   1  -8    2.70    0.36
   3  -1   8    2.69    0.42
  -4   1  -8   62.03    1.62
  -4   1  -8   63.54    1.89
  -4   1  -8   64.83    1.73
   4  -1   8   65.68    2.02
   4  -1   8   63.56    1.59
   4  -1   8   63.42    1.77
  -5   1  -8   49.77    1.47
   5  -1   8   51.45    1.89
   5  -1   8   48.74    1.55
   5   0  -8    0.38    0.23
  -5   0   8    0.73    0.34
   4   0  -8   47.87    1.43
  -4   0   8   48.45    1.67
   3   0  -8   26.06    0.88
   3   0  -8   26.05    1.12
  -3   0   8   27.72    1.11
   2   0  -8    9.75    0.40
   2   0  -8    9.35    0.61
   2   0  -8    9.06    0.53
   2   0  -8    9.27    0.61
   2   0  -8    9.27    0.51
  -2   0   8    9.81    0.56
  -2   0   8    9.74    0.65
  -2   0   8    9.74    0.60
   1   0  -8  163.96    3.01
   1   0  -8  156.58    3.71
   1   0  -8  161.45    3.52
   1   0  -8  157.33    3.46
   1   0  -8  155.46    3.37
   1   0  -8  160.40    3.57
   1   0  -8  159.63    3.34
  -1   0   8  158.13    3.64
  -1   0   8  155.84    3.44
   0   0  -8    8.67    0.52
   0   0  -8    7.36    0.53
   0   0  -8    7.69    0.36
   0   0  -8    8.07    0.48
   0   0  -8    7.89    0.41
   0   0  -8    7.57    0.44
   0   0   8    8.00    0.56
   0   0   8    8.03    0.48
  -1   0  -8   44.71    1.28
  -1   0  -8   41.14    0.91
  -1   0  -8   41.69    1.37
  -1   0  -8   41.96    1.21
  -1   0  -8   43.52    1.25
  -2   0  -8   45.34    1.09
  -2   0  -8   45.12    1.29
  -2   0  -8   48.90    1.35
  -2   0  -8   46.95    1.44
   2   0   8   45.31    1.31
  -3   0  -8    2.87    0.38
  -3   0  -8    2.03    0.30
  -3   0  -8    2.13    0.25
  -3   0  -8    2.46    0.37
   3   0   8    1.95    0.35
   3   0   8    2.45    0.23
  -4   0  -8   79.71    2.07
  -4   0  -8   85.52    2.14
  -4   0  -8   81.34    1.99
  -4   0  -8   78.63    2.24
   4   0   8   87.95    2.42
   4   0   8   87.29    1.89
   4   0   8   86.00    2.13
  -5   0  -8    3.19    0.40
   5   0   8    3.16    0.45
   5  -1  -8    0.39    0.24
  -5   1   8    0.58    0.32
   4  -1  -8   50.29    1.49
  -4   1   8   51.03    1.71
   3  -1  -8   46.85    1.58
   3  -1  -8   46.28    1.32
   3  -1  -8   46.42    1.68
  -3   1   8   47.09    1.44
  -3   1   8   50.07    1.64
  -3   1   8   47.15    1.53
   2  -1  -8    0.36    0.20
   2  -1  -8    0.20    0.15
   2  -1  -8    0.20    0.16
   2  -1  -8    0.61    0.15
   2  -1  -8    0.42    0.16
  -2   1   8    0.17    0.17
  -2   1   8    0.32    0.17
   1  -1  -8  252.11    4.71
   1  -1  -8  237.44    5.10
   1  -1  -8  250.90    4.93
   1  -1  -8  254.76    5.19
   1  -1  -8  251.13    5.06
   1  -1  -8  236.44    5.31
   1  -1  -8  247.86    5.01
  -1   1   8  249.37    5.07
  -1   1   8  247.84    5.27
   0  -1  -8    0.50    0.09
   0  -1  -8    0.57    0.18
   0  -1  -8    0.72    0.18
   0  -1  -8    0.32    0.13
   0  -1  -8    0.52    0.20
   0  -1  -8    0.42    0.16
   0  -1  -8    0.35    0.11
   0   1   8    0.48    0.18
   0   1   8    0.71    0.23
  -1  -1  -8   93.87    2.18
  -1  -1  -8   95.84    2.22
  -1  -1  -8   95.73    2.27
  -1  -1  -8   93.19    1.92
  -1  -1  -8   95.52    2.38
  -2  -1  -8   46.73    1.34
  -2  -1  -8   47.23    1.43
  -2  -1  -8   48.01    1.31
  -2  -1  -8   45.88    1.12
  -2  -1  -8   46.74    1.29
  -3  -1  -8    4.88    0.31
  -3  -1  -8    4.69    0.40
  -3  -1  -8    4.96    0.44
  -3  -1  -8    4.80    0.38
   3   1   8    5.09    0.28
  -4  -1  -8  137.07    3.29
  -4  -1  -8  137.82    3.10
  -4  -1  -8  138.96    3.17
  -4  -1  -8  140.41    3.01
   4   1   8  135.75    3.07
   4   1   8  137.36    2.85
  -5  -1  -8    2.07    0.38
  -5  -1  -8    3.20    0.40
   6   1   8   41.54    1.35
   6   1   8   41.66    1.34
   5  -2  -8    7.51    0.60
  -5   2   8    8.08    0.70
   4  -2  -8   40.81    1.51
   4  -2  -8   38.71    1.29
  -4   2   8   40.86    1.47
   3  -2  -8    2.43    0.35
   3  -2  -8    2.79    0.35
   3  -2  -8    2.33    0.44
  -3   2   8    2.30    0.29
  -3   2   8    2.81    0.48
  -3   2   8    2.23    0.26
  -3   2   8    2.82    0.44
  -3   2   8    2.72    0.40
   2  -2  -8   85.41    2.09
   2  -2  -8   86.62    2.24
   2  -2  -8   86.11    1.96
   2  -2  -8   85.29    2.26
   2  -2  -8   86.22    2.10
  -2   2   8   85.35    2.30
  -2   2   8   86.57    2.12
   1  -2  -8   45.90    1.39
   1  -2  -8   43.76    1.49
   1  -2  -8   46.50    1.11
   1  -2  -8   47.39    1.23
   1  -2  -8   45.46    1.29
   1  -2  -8   42.83    1.34
   1  -2  -8   45.29    1.30
  -1   2   8   46.98    1.47
  -1   2   8   46.65    1.32
   0  -2  -8    0.87    0.22
   0  -2  -8    0.85    0.13
   0  -2  -8    1.06    0.23
   0  -2  -8    2.12    0.34
   0  -2  -8    1.26    0.18
   0  -2  -8    1.20    0.20
   0  -2  -8    2.03    0.30
   0   2   8    1.70    0.32
   0   2   8    2.41    0.33
  -1  -2  -8  153.37    3.24
  -1  -2  -8  153.91    3.40
  -1  -2  -8  153.73    3.31
  -1  -2  -8  148.83    2.99
  -1  -2  -8  146.71    3.19
  -2  -2  -8   99.06    2.11
  -2  -2  -8   97.54    2.26
  -2  -2  -8  101.33    2.36
  -2  -2  -8   99.11    2.41
  -2  -2  -8   97.13    2.25
   2   2   8   99.38    2.00
  -3  -2  -8   73.04    1.80
  -3  -2  -8   71.54    1.95
  -3  -2  -8   72.82    1.72
  -3  -2  -8   71.71    1.88
   3   2   8   73.22    1.59
  -4  -2  -8   50.43    1.45
  -4  -2  -8   51.98    1.53
  -4  -2  -8   50.63    1.60
  -4  -2  -8   53.11    1.40
   4   2   8   44.30    1.51
   4   2   8   50.09    1.47
   4   2   8   51.08    1.25
  -5  -2  -8    4.31    0.33
  -5  -2  -8    5.37    0.60
   5   2   8    5.07    0.43
   5   2   8    4.67    0.48
  -6  -2  -8   39.97    1.50
  -6  -2  -8   39.91    1.11
   6   2   8   40.21    1.30
   5  -3  -8   15.86    0.85
  -5   3   8   16.42    0.95
   4  -3  -8   48.83    1.49
   4  -3  -8   47.73    1.67
  -4   3   8   50.87    1.66
   3  -3  -8    2.54    0.44
   3  -3  -8    2.98    0.36
   3  -3  -8    2.33    0.35
  -3   3   8    2.44    0.28
  -3   3   8    2.31    0.29
  -3   3   8    2.06    0.33
  -3   3   8    2.52    0.42
  -3   3   8    2.19    0.37
   2  -3  -8  261.23    5.50
   2  -3  -8  257.40    5.18
   2  -3  -8  261.92    5.46
   2  -3  -8  260.45    5.32
   2  -3  -8  258.05    5.29
  -2   3   8  262.55    5.52
  -2   3   8  262.55    5.02
  -2   3   8  266.21    5.00
  -2   3   8  253.51    5.28
   1  -3  -8   91.80    2.31
   1  -3  -8   93.55    2.22
   1  -3  -8   94.06    2.03
   1  -3  -8   85.87    2.38
   1  -3  -8   90.09    2.24
   1  -3  -8   94.82    2.12
   1  -3  -8   95.22    2.21
  -1   3   8   93.07    2.20
  -1   3   8   93.57    1.90
  -1   3   8   95.47    1.92
  -1   3   8   94.10    2.38
   0  -3  -8   27.69    0.99
   0  -3  -8   29.30    0.86
   0  -3  -8   28.18    0.77
   0  -3  -8   28.01    0.92
   0  -3  -8   28.99    0.93
   0  -3  -8   28.61    1.05
   0  -3  -8   28.36    0.79
   0   3   8   27.16    0.93
   0   3   8   28.04    1.04
  -1  -3  -8  257.57    5.03
  -1  -3  -8  240.26    4.83
  -1  -3  -8  247.55    5.00
  -1  -3  -8  250.96    5.12
  -1  -3  -8  252.92    5.19
   1   3   8  252.92    4.73
   1   3   8  250.71    4.72
  -2  -3  -8   30.21    0.94
  -2  -3  -8   30.20    0.94
  -2  -3  -8   32.57    1.08
  -2  -3  -8   30.12    1.02
  -2  -3  -8   30.79    0.87
   2   3   8   30.83    0.79
   2   3   8   30.65    0.77
  -3  -3  -8  184.20    4.02
  -3  -3  -8  182.92    3.76
  -3  -3  -8  183.07    3.84
  -3  -3  -8  178.27    3.94
  -3  -3  -8  180.14    3.55
   3   3   8  181.30    3.70
   3   3   8  187.10    3.64
   3   3   8  190.37    3.62
  -4  -3  -8   37.47    0.95
  -4  -3  -8   34.64    1.27
  -4  -3  -8   36.49    1.25
  -4  -3  -8   34.50    1.13
  -4  -3  -8   38.29    1.13
   4   3   8   35.92    1.06
   4   3   8   36.42    0.98
   4   3   8   35.45    0.99
  -5  -3  -8    0.20    0.20
  -5  -3  -8    0.30    0.18
   5   3   8    0.06    0.17
  -6  -3  -8   44.22    1.24
  -6  -3  -8   43.49    1.62
   6   3   8   43.38    1.36
   5  -4  -8    6.71    0.58
   4  -4  -8   15.15    0.75
   4  -4  -8   15.56    0.88
   4  -4  -8   15.52    0.80
  -4   4   8   14.26    0.80
   3  -4  -8    6.42    0.45
   3  -4  -8    5.50    0.47
   3  -4  -8    6.41    0.55
  -3   4   8    6.31    0.51
  -3   4   8    5.77    0.51
  -3   4   8    5.85    0.44
   2  -4  -8   28.47    0.93
   2  -4  -8   29.45    1.02
   2  -4  -8   27.74    1.08
   2  -4  -8   26.69    0.98
   2  -4  -8   30.00    1.11
  -2   4   8   27.47    1.06
  -2   4   8   28.73    0.80
  -2   4   8   28.45    0.82
  -2   4   8   26.60    0.93
   1  -4  -8   63.31    1.56
   1  -4  -8   62.36    1.66
   1  -4  -8   64.60    1.75
   1  -4  -8   62.94    1.52
   1  -4  -8   61.98    1.64
   1  -4  -8   60.31    1.79
   1  -4  -8   60.10    1.64
  -1   4   8   64.34    1.41
  -1   4   8   63.92    1.42
  -1   4   8   60.88    1.75
  -1   4   8   64.08    1.62
   0  -4  -8   40.56    1.03
   0  -4  -8   38.97    1.15
   0  -4  -8   38.97    1.23
   0  -4  -8   41.13    1.11
   0  -4  -8   39.44    1.04
   0  -4  -8   38.59    1.26
   0  -4  -8   38.68    1.14
   0   4   8   40.42    0.94
   0   4   8   40.76    1.29
   0   4   8   38.26    1.15
   0   4   8   40.86    0.96
  -1  -4  -8  142.49    2.80
  -1  -4  -8  148.13    3.05
  -1  -4  -8  143.51    3.15
  -1  -4  -8  141.26    3.04
  -1  -4  -8  144.79    2.87
  -1  -4  -8  150.57    3.22
  -1  -4  -8  138.16    2.91
   1   4   8  135.11    2.91
   1   4   8  141.39    2.80
   1   4   8  137.17    2.84
   1   4   8  141.93    2.82
  -2  -4  -8    0.01    0.12
  -2  -4  -8    0.02    0.11
  -2  -4  -8    0.41    0.15
  -2  -4  -8    0.26    0.10
  -2  -4  -8    0.00    0.07
  -2  -4  -8    0.11    0.13
   2   4   8    0.36    0.13
   2   4   8    0.28    0.11
   2   4   8    0.30    0.13
  -3  -4  -8   62.74    1.59
  -3  -4  -8   66.23    1.47
  -3  -4  -8   65.20    1.80
  -3  -4  -8   67.34    1.79
  -3  -4  -8   62.96    1.64
  -3  -4  -8   63.71    1.61
   3   4   8   67.10    1.48
   3   4   8   65.13    1.56
   3   4   8   66.59    1.50
  -4  -4  -8   81.27    1.83
  -4  -4  -8   81.98    2.18
  -4  -4  -8   80.34    2.35
  -4  -4  -8   79.35    2.20
  -4  -4  -8   80.76    2.03
   4   4   8   81.99    1.93
   4   4   8   82.07    1.82
   4   4   8   81.65    1.84
  -5  -4  -8   27.18    0.88
  -5  -4  -8   28.68    1.19
   5   4   8   26.60    0.95
  -6  -4  -8   61.54    2.04
  -6  -4  -8   60.85    1.63
   6   4   8   64.64    1.75
   4  -5  -8   42.82    1.39
   4  -5  -8   42.09    1.45
   3  -5  -8   21.83    0.85
   3  -5  -8   19.57    0.92
   3  -5  -8   21.19    0.92
  -3   5   8   18.79    0.79
  -3   5   8   19.87    0.89
  -3   5   8   20.43    0.92
   2  -5  -8   57.92    1.60
   2  -5  -8   54.80    1.66
   2  -5  -8   55.95    1.54
   2  -5  -8   52.90    1.63
   2  -5  -8   55.46    1.48
  -2   5   8   51.45    1.50
  -2   5   8   55.16    1.34
  -2   5   8   54.06    1.45
  -2   5   8   55.36    1.32
  -2   5   8   53.51    1.58
   1  -5  -8    1.73    0.18
   1  -5  -8    1.52    0.29
   1  -5  -8    2.30    0.34
   1  -5  -8    2.09    0.35
   1  -5  -8    2.07    0.27
   1  -5  -8    2.28    0.36
   1  -5  -8    1.34    0.25
   1  -5  -8    2.35    0.40
  -1   5   8    3.00    0.36
  -1   5   8    3.06    0.43
  -1   5   8    1.76    0.24
  -1   5   8    1.80    0.23
  -1   5   8    1.85    0.28
   0  -5  -8   91.23    2.16
   0  -5  -8   90.74    2.11
   0  -5  -8   86.04    2.19
   0  -5  -8   93.77    2.27
   0  -5  -8   91.73    2.11
   0  -5  -8   89.20    2.01
   0  -5  -8   92.96    2.05
   0  -5  -8   87.76    1.87
   0   5   8   94.00    2.29
   0   5   8   92.04    2.00
   0   5   8   92.97    2.14
   0   5   8   91.33    1.94
   0   5   8   92.16    1.93
  -1  -5  -8   89.69    1.91
  -1  -5  -8   93.15    2.04
  -1  -5  -8   94.40    2.14
  -1  -5  -8   92.61    2.09
  -1  -5  -8   92.38    2.24
  -1  -5  -8   94.85    1.97
  -1  -5  -8   90.42    2.21
  -1  -5  -8   89.69    2.04
   1   5   8   90.22    2.01
   1   5   8   90.95    1.94
   1   5   8   92.31    1.92
  -2  -5  -8   45.62    1.35
  -2  -5  -8   46.18    1.24
  -2  -5  -8   45.19    1.23
  -2  -5  -8   44.33    1.34
  -2  -5  -8   43.96    1.09
  -2  -5  -8   44.80    1.19
   2   5   8   45.74    1.10
   2   5   8   44.88    1.08
   2   5   8   45.59    1.17
  -3  -5  -8   71.42    1.90
  -3  -5  -8   71.34    1.61
  -3  -5  -8   68.61    1.70
  -3  -5  -8   71.15    1.75
  -3  -5  -8   68.46    1.69
  -3  -5  -8   70.06    1.89
   3   5   8   69.45    1.66
   3   5   8   69.61    1.57
   3   5   8   70.51    1.58
  -4  -5  -8   22.54    0.99
  -4  -5  -8   22.39    0.99
  -4  -5  -8   22.31    0.76
  -4  -5  -8   22.79    0.88
   4   5   8   23.01    0.73
   4   5   8   23.00    0.72
   4   5   8   23.77    0.82
  -5  -5  -8   41.78    1.51
  -5  -5  -8   41.28    1.20
   5   5   8   41.94    1.24
  -6  -5  -8   41.31    1.28
  -6  -5  -8   40.84    1.61
   6   5   8   42.80    1.30
   5  -6  -8   16.51    0.95
  -5   6   8   17.77    0.88
   4  -6  -8   50.64    1.68
  -4   6   8   53.10    1.52
   3  -6  -8   19.37    0.91
   3  -6  -8   20.80    0.67
   3  -6  -8   20.11    0.82
  -3   6   8   20.12    0.80
   2  -6  -8  180.24    3.56
   2  -6  -8  179.72    4.07
   2  -6  -8  181.31    3.91
   2  -6  -8  182.76    3.95
   2  -6  -8  174.76    3.78
   2  -6  -8  169.50    3.96
  -2   6   8  180.20    3.71
  -2   6   8  181.68    3.60
  -2   6   8  175.68    3.70
  -2   6   8  181.62    3.62
  -2   6   8  180.05    3.88
   1  -6  -8   31.32    1.11
   1  -6  -8   30.89    0.98
   1  -6  -8   32.42    1.03
   1  -6  -8   32.09    0.99
   1  -6  -8   30.12    1.08
   1  -6  -8   32.46    1.13
   1  -6  -8   31.59    1.08
   1  -6  -8   31.24    0.85
  -1   6   8   33.27    1.08
  -1   6   8   31.22    0.94
  -1   6   8   32.03    0.87
  -1   6   8   31.98    0.89
  -1   6   8   32.36    0.96
   0  -6  -8   88.75    2.01
   0  -6  -8   86.52    2.00
   0  -6  -8   86.71    2.00
   0  -6  -8   87.27    2.11
   0  -6  -8   84.95    1.86
   0  -6  -8   82.16    2.07
   0  -6  -8   86.03    2.14
   0  -6  -8   88.87    2.16
   0   6   8   87.23    2.16
   0   6   8   84.94    1.93
   0   6   8   90.90    2.04
   0   6   8   86.40    1.86
   0   6   8   87.19    1.88
  -1  -6  -8  172.63    3.68
  -1  -6  -8  176.26    3.59
  -1  -6  -8  167.49    3.39
  -1  -6  -8  166.48    3.39
  -1  -6  -8  168.42    3.58
  -1  -6  -8  173.97    3.52
  -1  -6  -8  167.38    3.36
  -1  -6  -8  170.93    3.47
  -1  -6  -8  171.46    3.69
  -1  -6  -8  169.71    3.29
  -1  -6  -8  171.34    3.51
  -1  -6  -8  171.24    3.31
   1   6   8  169.67    3.47
   1   6   8  168.82    3.37
   1   6   8  168.29    3.40
  -2  -6  -8   18.12    0.76
  -2  -6  -8   16.77    0.76
  -2  -6  -8   17.61    0.67
  -2  -6  -8   17.96    0.62
  -2  -6  -8   18.18    0.56
  -2  -6  -8   17.62    0.68
  -2  -6  -8   18.95    0.55
  -2  -6  -8   18.34    0.67
   2   6   8   18.48    0.59
   2   6   8   17.95    0.60
   2   6   8   17.65    0.65
  -3  -6  -8  182.17    3.69
  -3  -6  -8  188.64    3.60
  -3  -6  -8  185.29    3.84
  -3  -6  -8  178.59    4.02
  -3  -6  -8  182.17    4.01
  -3  -6  -8  186.70    3.62
   3   6   8  180.86    3.75
   3   6   8  181.21    3.62
   3   6   8  181.36    3.64
  -4  -6  -8    5.91    0.36
  -4  -6  -8    6.15    0.42
  -4  -6  -8    5.68    0.44
  -4  -6  -8    5.80    0.37
  -4  -6  -8    5.95    0.53
  -4  -6  -8    5.71    0.52
   4   6   8    5.73    0.56
   4   6   8    5.80    0.43
   4   6   8    4.94    0.43
  -5  -6  -8   34.52    1.38
  -5  -6  -8   36.47    1.11
   5   6   8   33.76    1.10
  -6  -6  -8   29.64    1.37
  -6  -6  -8   29.32    1.08
   6   6   8   30.36    1.04
   5  -7  -8   41.59    1.62
  -5   7   8   45.27    1.46
   4  -7  -8    0.55    0.20
   4  -7  -8    0.86    0.32
  -4   7   8    0.67    0.29
   3  -7  -8   23.58    1.04
   3  -7  -8   23.15    0.80
  -3   7   8   23.32    0.88
   2  -7  -8   39.41    1.34
   2  -7  -8   40.36    1.09
  -2   7   8   40.25    1.08
  -2   7   8   40.92    1.17
  -2   7   8   39.40    1.06
   1  -7  -8    9.38    0.62
   1  -7  -8   10.04    0.56
   1  -7  -8    9.37    0.50
   1  -7  -8    9.67    0.46
   1  -7  -8    9.24    0.59
   1  -7  -8    9.41    0.57
  -1   7   8    9.64    0.43
  -1   7   8    9.82    0.45
  -1   7   8    9.88    0.49
   0  -7  -8  112.72    2.61
   0  -7  -8  113.90    2.30
   0  -7  -8  112.18    2.40
   0  -7  -8  109.38    2.63
   0  -7  -8  113.66    2.69
   0  -7  -8  110.64    2.61
   0  -7  -8  113.80    2.32
   0  -7  -8  114.74    2.56
   0  -7  -8  114.77    2.47
   0  -7  -8  109.14    2.50
   0   7   8  111.85    2.34
   0   7   8  113.08    2.46
   0   7   8  116.86    2.50
   0   7   8  117.63    2.65
   0   7   8  112.19    2.37
  -1  -7  -8   16.00    0.70
  -1  -7  -8   15.79    0.58
  -1  -7  -8   15.94    0.70
  -1  -7  -8   15.70    0.53
  -1  -7  -8   15.24    0.66
  -1  -7  -8   15.24    0.63
  -1  -7  -8   16.28    0.59
  -1  -7  -8   15.27    0.51
  -1  -7  -8   15.99    0.56
  -1  -7  -8   14.84    0.60
  -1  -7  -8   16.20    0.72
   1   7   8   15.29    0.61
   1   7   8   16.01    0.59
   1   7   8   15.67    0.57
  -2  -7  -8    4.10    0.32
  -2  -7  -8    3.74    0.31
  -2  -7  -8    3.53    0.41
  -2  -7  -8    4.11    0.38
  -2  -7  -8    3.36    0.27
  -2  -7  -8    3.51    0.36
  -2  -7  -8    3.66    0.44
  -2  -7  -8    3.71    0.35
  -2  -7  -8    3.65    0.37
  -2  -7  -8    3.39    0.34
  -2  -7  -8    3.42    0.26
   2   7   8    3.55    0.29
   2   7   8    3.66    0.36
   2   7   8    3.48    0.28
  -3  -7  -8   70.49    1.75
  -3  -7  -8   69.18    1.67
  -3  -7  -8   68.09    1.94
  -3  -7  -8   72.58    1.59
  -3  -7  -8   70.01    1.90
  -3  -7  -8   73.78    1.62
   3   7   8   67.78    1.61
   3   7   8   67.59    1.59
   3   7   8   69.25    1.68
  -4  -7  -8    1.80    0.33
  -4  -7  -8    1.67    0.34
  -4  -7  -8    1.54    0.28
  -4  -7  -8    2.02    0.40
   4   7   8    2.01    0.30
  -5  -7  -8   56.18    1.54
  -5  -7  -8   54.75    1.86
   5   7   8   56.20    1.49
  -6  -7  -8    9.08    0.83
  -6  -7  -8   10.02    0.66
   6   7   8   10.14    0.59
   5  -8  -8   26.59    1.31
  -5   8   8   26.50    1.09
   4  -8  -8    0.24    0.22
   4  -8  -8    0.49    0.33
  -4   8   8    0.29    0.27
   3  -8  -8   42.78    1.53
   3  -8  -8   42.62    1.23
  -3   8   8   43.59    1.28
   2  -8  -8   38.79    1.11
   2  -8  -8   36.61    1.33
  -2   8   8   36.47    1.00
  -2   8   8   38.38    1.13
  -2   8   8   38.74    1.03
   1  -8  -8   45.04    1.20
   1  -8  -8   44.37    1.41
   1  -8  -8   44.22    1.50
   1  -8  -8   43.15    1.37
  -1   8   8   45.39    1.11
  -1   8   8   43.74    1.20
  -1   8   8   44.65    1.12
   0  -8  -8  236.86    4.56
   0  -8  -8  236.34    4.58
   0  -8  -8  232.29    4.90
   0  -8  -8  236.92    4.90
   0  -8  -8  231.00    4.66
   0  -8  -8  236.11    4.87
   0  -8  -8  236.72    5.04
   0   8   8  233.57    4.56
   0   8   8  241.19    4.69
   0   8   8  231.61    4.54
  -1  -8  -8    2.68    0.32
  -1  -8  -8    2.48    0.38
  -1  -8  -8    2.48    0.33
  -1  -8  -8    2.24    0.33
  -1  -8  -8    2.43    0.33
  -1  -8  -8    1.71    0.23
  -1  -8  -8    2.71    0.29
   1   8   8    2.79    0.33
   1   8   8    2.37    0.27
   1   8   8    2.25    0.26
  -2  -8  -8  101.17    2.30
  -2  -8  -8  100.38    2.46
  -2  -8  -8  100.81    2.26
  -2  -8  -8   99.44    2.47
  -2  -8  -8   98.62    2.40
  -2  -8  -8  101.50    2.13
  -2  -8  -8  100.44    2.33
  -2  -8  -8  100.06    2.15
  -2  -8  -8  100.20    2.23
  -2  -8  -8   98.87    2.26
   2   8   8   97.80    2.19
   2   8   8   97.16    2.42
  -3  -8  -8   73.30    1.88
  -3  -8  -8   70.73    1.76
  -3  -8  -8   76.95    1.73
  -3  -8  -8   73.29    1.84
  -3  -8  -8   72.03    2.05
  -3  -8  -8   72.14    1.82
  -3  -8  -8   72.82    1.97
  -3  -8  -8   75.37    1.70
   3   8   8   74.60    1.74
  -4  -8  -8    7.28    0.62
  -4  -8  -8    7.35    0.51
  -4  -8  -8    7.58    0.60
  -4  -8  -8    7.90    0.50
   4   8   8    8.04    0.47
  -5  -8  -8   82.50    2.46
  -5  -8  -8   82.25    2.08
   5   8   8   83.08    1.94
  -6  -8  -8    7.20    0.84
  -6  -8  -8    7.95    0.63
   4  -9  -8    0.10    0.25
   4  -9  -8    0.27    0.30
  -4   9   8    0.01    0.24
   3  -9  -8   25.43    1.17
   3  -9  -8   25.44    0.94
  -3   9   8   25.16    0.93
   2  -9  -8   37.80    1.39
   2  -9  -8   39.00    1.17
  -2   9   8   37.72    1.13
   1  -9  -8   31.41    0.99
   1  -9  -8   31.33    1.18
  -1   9   8   30.69    0.95
   0  -9  -8   50.88    1.36
   0  -9  -8   51.74    1.67
   0  -9  -8   52.85    1.28
   0  -9  -8   51.82    1.30
   0  -9  -8   50.93    1.52
   0  -9  -8   52.13    1.53
   0   9   8   51.97    1.32
  -1  -9  -8   23.17    0.79
  -1  -9  -8   23.23    0.88
  -1  -9  -8   22.50    0.99
  -1  -9  -8   22.91    0.82
  -1  -9  -8   23.85    0.91
  -1  -9  -8   24.35    0.73
  -1  -9  -8   22.13    0.79
  -1  -9  -8   23.61    0.74
  -1  -9  -8   23.63    0.93
   1   9   8   22.22    0.83
   1   9   8   22.88    0.76
  -2  -9  -8   96.88    2.47
  -2  -9  -8   97.58    2.39
  -2  -9  -8   99.21    2.54
  -2  -9  -8   98.87    2.30
  -2  -9  -8  100.33    2.16
  -2  -9  -8   99.15    2.26
  -2  -9  -8   99.05    2.34
  -2  -9  -8   99.38    2.19
   2   9   8  100.00    2.18
   2   9   8  100.03    2.33
  -3  -9  -8   96.48    2.38
  -3  -9  -8   94.64    2.54
  -3  -9  -8   97.02    2.25
  -3  -9  -8   96.14    2.32
   3   9   8   98.94    2.15
   3   9   8   99.39    2.46
  -4  -9  -8   12.40    0.81
  -4  -9  -8   12.93    0.65
  -5  -9  -8   27.35    1.02
  -5  -9  -8   24.37    1.23
   4 -10  -8    0.56    0.41
   4 -10  -8    1.21    0.34
  -4  10   8    0.65    0.29
   3 -10  -8   34.93    1.20
   3 -10  -8   34.58    1.46
  -3  10   8   36.17    1.12
   2 -10  -8    8.13    0.69
   2 -10  -8    9.30    0.58
  -2  10   8    9.51    0.52
   1 -10  -8   30.43    1.03
   1 -10  -8   31.71    1.22
  -1  10   8   30.75    0.95
   0 -10  -8   16.72    0.71
   0 -10  -8   16.85    0.82
   0  10   8   16.69    0.63
  -1 -10  -8    4.89    0.45
  -1 -10  -8    4.03    0.71
  -1 -10  -8    5.03    0.47
  -1 -10  -8    5.37    0.54
  -1 -10  -8    4.63    0.45
   1  10   8    3.71    0.40
   1  10   8    4.37    0.34
  -2 -10  -8   56.98    1.53
  -2 -10  -8   57.40    1.72
  -2 -10  -8   57.72    1.57
  -2 -10  -8   59.09    1.63
   2  10   8   59.30    1.61
   2  10   8   58.53    1.38
  -3 -10  -8    5.46    0.47
  -3 -10  -8    6.48    0.61
  -3 -10  -8    6.21    0.58
  -3 -10  -8    5.40    0.63
   3  10   8    5.52    0.45
  -4 -10  -8   25.58    1.21
  -4 -10  -8   25.09    1.17
  -5 -10  -8   24.34    1.24
   3 -11  -8   29.42    1.37
   3 -11  -8   29.31    1.12
   2 -11  -8    2.75    0.54
   2 -11  -8    4.24    0.53
  -2  11   8    3.12    0.36
   1 -11  -8   26.42    0.98
   1 -11  -8   27.63    1.17
  -1  11   8   25.81    0.83
   0 -11  -8   75.92    2.09
   0 -11  -8   77.37    1.94
   0  11   8   75.94    2.29
   0  11   8   76.85    1.72
  -1 -11  -8   10.12    0.57
  -1 -11  -8   10.75    0.62
  -1 -11  -8    8.91    0.60
   1  11   8    9.71    0.58
  -2 -11  -8   80.41    2.11
  -2 -11  -8   82.65    2.07
  -2 -11  -8   77.68    2.27
   2  11   8   82.45    2.10
  -3 -11  -8    1.40    0.38
  -3 -11  -8    1.25    0.32
  -3 -11  -8    1.43    0.31
   3  11   8    1.46    0.30
  -4 -11  -8   27.35    1.12
  -4 -11  -8   26.96    1.16
  -4 -11  -8   26.48    1.25
  -5 -11  -8   61.77    2.14
   3 -12  -8   30.69    1.46
   3 -12  -8   29.77    1.19
   2 -12  -8    2.06    0.53
   2 -12  -8    2.35    0.44
   1 -12  -8   30.90    1.31
   1 -12  -8   31.78    1.13
   0 -12  -8   23.78    1.06
   0  12   8   22.43    1.11
  -1 -12  -8    6.37    0.57
  -1 -12  -8    6.32    0.62
   1  12   8    6.97    0.52
  -2 -12  -8   47.31    1.51
  -2 -12  -8   45.78    1.44
   2  12   8   43.33    1.43
  -3 -12  -8    3.68    0.53
  -3 -12  -8    2.71    0.43
  -3 -12  -8    3.05    0.56
   3  12   8    2.18    0.37
  -4 -12  -8   17.81    0.97
  -4 -12  -8   16.63    1.02
  -4 -12  -8   17.64    0.93
   2 -13  -8    0.82    0.34
   2 -13  -8    0.76    0.38
   1 -13  -8   48.98    1.75
   0 -13  -8    6.19    0.87
   0  13   8    6.35    0.92
  -1 -13  -8   38.47    1.35
  -1 -13  -8   35.41    1.25
   1  13   8   36.33    1.30
  -2 -13  -8   32.43    1.21
  -2 -13  -8   31.83    1.26
   2  13   8   30.43    1.20
  -3 -13  -8    0.98    0.33
  -3 -13  -8    0.62    0.31
   3  13   8    0.22    0.22
   1 -14  -8   18.70    1.10
  -1 -14  -8   25.89    1.15
  -1 -14  -8   29.79    1.15
   1  14   8   25.74    1.12
  -2 -14  -8   14.37    0.89
  -2 -14  -8   17.20    0.90
   2  14   8   14.79    0.84
   1  -8   9   13.02    0.83
   2  -8   9   23.35    1.15
   1  -7   9   13.38    0.81
   2  -7   9    9.64    0.73
  -3   7  -9    1.50    0.26
   3  -7   9    1.50    0.41
  -2  -6   9    9.32    0.73
   0  -6   9    0.44    0.25
   1  -6   9   40.52    1.41
  -2   6  -9   10.61    0.47
   2  -6   9   10.18    0.71
  -3   6  -9   11.00    0.54
   3  -6   9   11.84    0.81
  -4   6  -9   15.19    0.73
   4  -6   9   16.36    0.99
  -3  -5   9    5.19    0.68
  -2  -5   9   32.36    1.32
   1   5  -9   18.45    0.93
  -1  -5   9   18.85    0.93
   0  -5   9    3.23    0.47
   1  -5   9   25.02    1.04
   2  -5   9   32.50    1.24
  -3   5  -9   30.82    0.94
   3  -5   9   32.32    1.28
  -4   5  -9   37.02    1.17
   4  -5   9   36.67    1.43
  -5   5  -9    0.22    0.22
   5  -5   9    0.76    0.32
   3   4  -9    0.12    0.15
  -3  -4   9    0.33    0.25
   2   4  -9   61.93    1.95
  -2  -4   9   62.16    1.93
   1   4  -9   11.68    0.73
  -1  -4   9   12.17    0.73
   0   4  -9   42.29    1.50
   0   4  -9   40.06    1.35
   0   4  -9   43.09    1.34
   0  -4   9   38.49    1.33
   0  -4   9   37.36    1.25
   0  -4   9   37.37    1.40
  -1   4  -9   72.74    2.10
  -1   4  -9   75.20    1.94
   1  -4   9   73.59    2.14
   1  -4   9   73.27    1.95
  -2   4  -9    1.72    0.17
   2  -4   9    2.01    0.39
  -3   4  -9   39.62    1.08
   3  -4   9   39.74    1.39
  -4   4  -9   11.72    0.60
   4  -4   9   11.11    0.83
   4  -4   9   10.61    0.74
  -5   4  -9    0.79    0.26
   5  -4   9    2.05    0.44
   4   3  -9   39.60    1.24
  -4  -3   9   37.30    1.55
   3   3  -9    0.22    0.15
  -3  -3   9    0.17    0.23
   2   3  -9   22.80    1.06
  -2  -3   9   21.71    1.01
   1   3  -9   32.36    1.23
   1   3  -9   31.37    1.29
   1   3  -9   31.34    1.14
  -1  -3   9   30.15    1.09
  -1  -3   9   31.52    1.24
  -1  -3   9   30.57    1.18
   0   3  -9    2.84    0.46
   0   3  -9    3.09    0.41
   0   3  -9    3.26    0.45
   0  -3   9    3.00    0.39
   0  -3   9    3.41    0.49
  -1   3  -9  108.76    2.78
  -1   3  -9  106.82    2.58
  -1   3  -9  113.81    2.65
   1  -3   9  108.76    2.63
   1  -3   9  108.28    2.83
  -2   3  -9    5.81    0.27
  -2   3  -9    6.47    0.48
  -2   3  -9    7.17    0.58
  -3   3  -9   33.71    1.31
  -3   3  -9   33.21    0.96
  -3   3  -9   34.22    1.18
   3  -3   9   37.14    1.28
   3  -3   9   34.51    1.24
  -4   3  -9   19.05    0.76
   4  -3   9   19.79    1.05
   4  -3   9   18.45    0.93
  -5   3  -9   13.95    0.73
   5  -3   9   14.97    0.88
   4   2  -9   12.80    0.66
  -4  -2   9   11.89    0.86
   3   2  -9   10.91    0.55
   3   2  -9   11.19    0.78
  -3  -2   9   11.37    0.77
   2   2  -9   48.25    1.62
  -2  -2   9   48.77    1.59
   1   2  -9    0.68    0.25
   1   2  -9    0.55    0.24
   1   2  -9    0.62    0.19
   1   2  -9    0.69    0.30
  -1  -2   9    0.35    0.20
  -1  -2   9    0.40    0.19
   0   2  -9   24.51    0.95
   0   2  -9   25.96    1.10
   0   2  -9   25.49    1.01
   0  -2   9   23.78    1.05
   0  -2   9   22.75    0.91
  -1   2  -9   19.97    0.94
  -1   2  -9   20.04    0.82
  -1   2  -9   21.24    0.86
   1  -2   9   19.58    0.84
   1  -2   9   18.96    0.94
  -2   2  -9   13.75    0.67
  -2   2  -9   13.70    0.45
  -2   2  -9   14.21    0.79
  -2   2  -9   14.34    0.70
  -3   2  -9   35.65    1.20
  -3   2  -9   38.64    1.03
  -3   2  -9   35.69    1.35
   3  -2   9   36.44    1.27
   3  -2   9   37.83    1.32
  -4   2  -9    9.75    0.52
   4  -2   9   10.43    0.77
   4  -2   9    9.30    0.64
  -5   2  -9   14.95    0.74
   5  -2   9   18.04    1.12
   5  -2   9   16.64    0.90
  -6   2  -9   19.92    0.94
   6  -2   9   20.00    1.03
   4   1  -9   11.85    0.66
  -4  -1   9   12.67    0.85
   3   1  -9   19.18    0.76
   3   1  -9   19.19    1.01
  -3  -1   9   20.90    1.01
   2   1  -9  107.40    2.80
   2   1  -9  111.57    2.26
  -2  -1   9  106.94    2.67
  -2  -1   9  107.32    2.90
  -2  -1   9  109.74    2.77
   1   1  -9    2.78    0.34
   1   1  -9    2.73    0.38
   1   1  -9    2.94    0.48
   1   1  -9    3.17    0.43
   1   1  -9    2.48    0.37
   1   1  -9    2.62    0.35
  -1  -1   9    2.40    0.40
  -1  -1   9    2.35    0.35
   0   1  -9  199.63    4.44
   0   1  -9  203.18    4.29
   0   1  -9  196.36    4.21
   0   1  -9  192.65    4.15
   0  -1   9  194.25    4.21
   0  -1   9  194.60    4.43
  -1   1  -9   70.82    1.85
  -1   1  -9   70.03    2.02
  -1   1  -9   73.35    1.91
  -2   1  -9    4.73    0.42
  -2   1  -9    3.06    0.43
  -2   1  -9    3.73    0.23
  -2   1  -9    3.81    0.42
  -3   1  -9  121.77    2.82
  -3   1  -9  118.32    2.79
  -3   1  -9  123.20    2.58
  -3   1  -9  115.30    2.98
   3  -1   9  121.81    2.95
  -4   1  -9    2.29    0.69
  -4   1  -9    1.48    0.26
  -4   1  -9    1.78    0.41
   4  -1   9    1.34    0.31
   4  -1   9    1.55    0.41
  -5   1  -9   49.01    1.45
   5  -1   9   48.63    1.86
   5  -1   9   44.33    1.53
  -6   1  -9    3.41    0.46
   5   0  -9   37.41    1.38
  -5   0   9   36.48    1.58
   4   0  -9    3.24    0.42
  -4   0   9    4.45    0.62
   3   0  -9   29.95    1.26
   3   0  -9   29.79    1.00
  -3   0   9   29.43    1.21
   2   0  -9   17.58    0.87
   2   0  -9   18.06    0.61
   2   0  -9   18.30    0.76
   2   0  -9   17.84    0.78
   2   0  -9   16.76    0.87
  -2   0   9   18.36    0.88
  -2   0   9   17.81    0.81
  -2   0   9   18.77    0.95
   1   0  -9    6.76    0.26
   1   0  -9    5.67    0.63
   1   0  -9    6.26    0.41
   1   0  -9    5.79    0.45
   1   0  -9    5.77    0.50
   1   0  -9    5.24    0.40
   1   0  -9    6.94    0.52
  -1   0   9    6.17    0.45
  -1   0   9    5.92    0.52
   0   0  -9  107.46    2.52
   0   0  -9  107.81    2.57
   0   0  -9  106.54    2.76
   0   0  -9  115.13    2.66
   0   0   9  106.14    2.57
   0   0   9  109.46    2.78
  -1   0  -9   43.17    1.28
  -1   0  -9   44.24    1.30
  -1   0  -9   40.55    1.42
  -1   0  -9   44.86    1.36
  -1   0  -9   41.95    0.95
  -2   0  -9   14.82    0.67
  -2   0  -9   16.18    0.73
  -2   0  -9   15.18    0.50
  -2   0  -9   13.29    0.74
   2   0   9   14.35    0.67
  -3   0  -9   61.86    1.84
  -3   0  -9   64.78    1.74
  -3   0  -9   59.69    1.66
  -3   0  -9   61.59    1.50
   3   0   9   61.23    1.81
  -4   0  -9    5.20    0.55
  -4   0  -9    4.80    0.61
  -4   0  -9    3.91    0.34
  -4   0  -9    5.00    0.55
   4   0   9    4.95    0.52
  -5   0  -9   35.51    1.17
   5   0   9   33.18    1.23
   5  -1  -9   16.23    0.89
  -5   1   9   17.47    1.06
   4  -1  -9    0.13    0.26
  -4   1   9    0.14    0.24
   3  -1  -9   45.01    1.33
   3  -1  -9   43.42    1.58
  -3   1   9   45.90    1.55
   2  -1  -9   33.25    1.21
   2  -1  -9   31.51    1.08
   2  -1  -9   30.21    1.22
   2  -1  -9   31.28    0.93
   2  -1  -9   33.02    1.09
  -2   1   9   31.12    1.11
  -2   1   9   30.05    1.25
   1  -1  -9   53.98    1.78
   1  -1  -9   53.95    1.43
   1  -1  -9   52.88    1.63
   1  -1  -9   54.70    1.23
   1  -1  -9   54.30    1.54
   1  -1  -9   56.54    1.52
   1  -1  -9   55.32    1.61
  -1   1   9   52.78    1.70
  -1   1   9   53.17    1.54
   0  -1  -9   90.74    2.41
   0  -1  -9   92.08    2.24
   0  -1  -9   89.80    2.17
   0  -1  -9   92.48    1.85
   0  -1  -9   94.46    2.32
   0   1   9   89.74    2.24
   0   1   9   88.79    2.41
  -1  -1  -9    1.79    0.31
  -1  -1  -9    1.95    0.31
  -1  -1  -9    1.99    0.16
  -1  -1  -9    2.52    0.35
  -1  -1  -9    1.91    0.35
  -2  -1  -9  185.23    4.11
  -2  -1  -9  182.04    3.90
  -2  -1  -9  182.09    3.90
  -2  -1  -9  187.04    3.98
  -2  -1  -9  182.67    3.65
  -3  -1  -9   53.98    1.56
  -3  -1  -9   50.55    1.63
  -3  -1  -9   53.18    1.35
  -3  -1  -9   53.17    1.49
   3   1   9   54.70    1.23
  -4  -1  -9   20.14    0.90
  -4  -1  -9   19.44    0.84
  -4  -1  -9   20.96    0.78
  -4  -1  -9   20.80    0.97
   4   1   9   20.02    0.85
  -5  -1  -9   33.39    1.27
  -5  -1  -9   33.79    1.14
   5   1   9   31.58    1.16
   5  -2  -9    9.88    0.71
  -5   2   9   12.08    0.88
   4  -2  -9    0.12    0.25
   4  -2  -9    0.45    0.22
  -4   2   9    0.80    0.31
   3  -2  -9   20.63    1.02
   3  -2  -9   18.24    0.79
   3  -2  -9   19.42    0.84
  -3   2   9   19.05    0.67
  -3   2   9   19.65    0.69
  -3   2   9   19.22    0.94
   2  -2  -9   86.15    2.40
   2  -2  -9   92.69    2.23
   2  -2  -9   89.25    2.06
   2  -2  -9   89.28    2.35
   2  -2  -9   91.71    2.23
  -2   2   9   89.61    2.26
  -2   2   9   88.08    2.46
   1  -2  -9   93.66    1.99
   1  -2  -9   90.71    2.36
   1  -2  -9   91.87    2.22
   1  -2  -9   91.37    2.32
   1  -2  -9   93.02    2.13
   1  -2  -9   93.15    2.25
   1  -2  -9   90.15    2.52
  -1   2   9   91.20    2.45
  -1   2   9   92.22    2.27
   0  -2  -9   98.44    2.33
   0  -2  -9   97.07    2.36
   0  -2  -9  101.16    2.23
   0  -2  -9  102.28    2.15
   0  -2  -9  100.36    2.46
   0  -2  -9  102.88    2.08
   0  -2  -9   98.17    2.55
   0   2   9   96.52    2.37
   0   2   9   97.87    2.57
  -1  -2  -9    7.15    0.32
  -1  -2  -9    5.91    0.41
  -1  -2  -9    6.79    0.48
  -1  -2  -9    6.56    0.44
  -1  -2  -9    6.12    0.50
  -2  -2  -9   97.08    2.09
  -2  -2  -9   94.59    2.45
  -2  -2  -9   93.26    2.26
  -2  -2  -9   95.27    2.27
  -2  -2  -9   97.55    2.36
   2   2   9   99.96    1.97
  -3  -2  -9  129.50    2.97
  -3  -2  -9  132.80    2.83
  -3  -2  -9  129.80    3.15
  -3  -2  -9  133.40    3.07
   3   2   9  134.19    2.69
  -4  -2  -9   51.38    1.58
  -4  -2  -9   50.97    1.40
  -4  -2  -9   47.19    1.61
  -4  -2  -9   51.16    1.49
  -5  -2  -9   79.79    2.23
  -5  -2  -9   79.44    2.07
   6   2   9    3.42    0.48
   5  -3  -9   23.85    1.10
  -5   3   9   25.88    1.25
   4  -3  -9    1.76    0.44
   4  -3  -9    1.81    0.35
  -4   3   9    2.44    0.47
   3  -3  -9   68.56    1.84
   3  -3  -9   64.19    1.75
   3  -3  -9   64.06    2.01
  -3   3   9   63.23    2.02
  -3   3   9   66.57    1.97
  -3   3   9   63.55    1.84
   2  -3  -9    5.39    0.43
   2  -3  -9    5.32    0.49
   2  -3  -9    5.79    0.45
   2  -3  -9    6.90    0.43
   2  -3  -9    5.97    0.54
  -2   3   9    5.91    0.53
  -2   3   9    6.02    0.46
  -2   3   9    6.34    0.36
  -2   3   9    6.52    0.37
   1  -3  -9   28.68    1.06
   1  -3  -9   29.45    0.92
   1  -3  -9   28.69    1.00
   1  -3  -9   29.31    1.10
   1  -3  -9   28.57    1.00
   1  -3  -9   28.53    1.19
   1  -3  -9   30.67    0.87
  -1   3   9   27.13    1.12
  -1   3   9   27.21    0.99
   0  -3  -9   66.56    1.89
   0  -3  -9   65.94    1.52
   0  -3  -9   63.43    1.69
   0  -3  -9   67.40    1.73
   0  -3  -9   67.94    1.83
   0  -3  -9   66.67    1.60
   0  -3  -9   62.26    1.48
   0   3   9   64.40    1.72
   0   3   9   64.93    1.89
  -1  -3  -9    0.11    0.08
  -1  -3  -9    0.12    0.15
  -1  -3  -9    0.24    0.13
  -1  -3  -9    0.62    0.22
  -1  -3  -9    0.07    0.14
   1   3   9    0.21    0.10
  -2  -3  -9   51.99    1.30
  -2  -3  -9   52.79    1.52
  -2  -3  -9   52.12    1.43
  -2  -3  -9   50.77    1.42
  -2  -3  -9   54.38    1.59
   2   3   9   53.20    1.21
   2   3   9   52.11    1.19
  -3  -3  -9    3.08    0.38
  -3  -3  -9    1.40    0.22
  -3  -3  -9    2.37    0.32
  -3  -3  -9    2.38    0.37
  -3  -3  -9    3.01    0.41
   3   3   9    1.55    0.22
   3   3   9    1.65    0.21
  -4  -3  -9   13.59    0.73
  -4  -3  -9   11.56    0.63
  -4  -3  -9   11.84    0.58
  -4  -3  -9   10.90    0.70
   4   3   9   12.25    0.58
  -5  -3  -9   43.21    1.10
  -5  -3  -9   40.60    1.48
   5   3   9   41.27    1.27
  -6  -3  -9    0.81    0.26
  -6  -3  -9    0.61    0.33
   6   3   9    1.37    0.34
   5  -4  -9   10.47    0.73
   4  -4  -9    4.32    0.54
   4  -4  -9    4.97    0.66
   4  -4  -9    3.77    0.48
  -4   4   9    3.49    0.53
   3  -4  -9  127.53    2.93
   3  -4  -9  130.34    3.02
   3  -4  -9  126.29    3.20
  -3   4   9  127.57    3.13
  -3   4   9  124.01    2.94
  -3   4   9  118.80    3.12
   2  -4  -9    0.63    0.25
   2  -4  -9    0.76    0.20
   2  -4  -9    0.48    0.21
   2  -4  -9    0.79    0.23
   2  -4  -9    1.01    0.27
  -2   4   9    0.86    0.21
  -2   4   9    0.89    0.23
  -2   4   9    1.10    0.23
  -2   4   9    0.63    0.24
   1  -4  -9   41.01    1.37
   1  -4  -9   39.92    1.26
   1  -4  -9   40.94    1.14
   1  -4  -9   39.67    1.43
   1  -4  -9   38.96    1.28
   1  -4  -9   41.31    1.28
   1  -4  -9   41.19    1.18
  -1   4   9   42.94    1.27
  -1   4   9   42.84    1.04
  -1   4   9   42.21    1.42
  -1   4   9   43.58    1.06
   0  -4  -9  109.24    2.67
   0  -4  -9  104.63    2.30
   0  -4  -9  106.92    2.48
   0  -4  -9  106.03    2.38
   0  -4  -9  105.91    2.29
   0  -4  -9  105.74    2.59
   0  -4  -9  110.06    2.50
   0   4   9  107.44    2.18
   0   4   9  102.31    2.47
   0   4   9  110.15    2.20
   0   4   9  102.58    2.64
  -1  -4  -9   33.00    1.06
  -1  -4  -9   33.82    1.07
  -1  -4  -9   33.81    1.15
  -1  -4  -9   35.49    1.21
  -1  -4  -9   33.18    0.95
   1   4   9   35.87    0.87
   1   4   9   35.13    0.88
  -2  -4  -9  260.45    5.11
  -2  -4  -9  260.24    5.22
  -2  -4  -9  263.89    5.38
  -2  -4  -9  254.82    5.40
  -2  -4  -9  260.95    5.22
   2   4   9  265.23    4.96
   2   4   9  267.75    4.99
   2   4   9  233.49    5.48
  -3  -4  -9    3.93    0.34
  -3  -4  -9    4.59    0.53
  -3  -4  -9    4.60    0.34
  -3  -4  -9    4.55    0.38
  -3  -4  -9    4.06    0.51
  -3  -4  -9    4.01    0.27
   3   4   9    4.46    0.29
   3   4   9    4.50    0.31
   3   4   9    3.84    0.34
  -4  -4  -9   38.58    1.35
  -4  -4  -9   39.43    1.20
  -4  -4  -9   38.83    1.25
  -4  -4  -9   38.13    1.38
  -4  -4  -9   40.23    1.03
   4   4   9   38.86    1.15
  -5  -4  -9   43.24    1.54
  -5  -4  -9   42.78    1.17
   5   4   9   44.15    1.31
  -6  -4  -9   14.36    0.67
  -6  -4  -9   14.40    0.94
   6   4   9   14.90    0.77
   4  -5  -9   22.03    1.03
   4  -5  -9   23.28    0.99
   3  -5  -9   37.95    1.31
   3  -5  -9   33.52    1.34
   3  -5  -9   35.95    1.20
  -3   5   9   33.87    1.16
  -3   5   9   35.43    1.31
  -3   5   9   34.52    1.31
   2  -5  -9    2.27    0.42
   2  -5  -9    2.60    0.35
   2  -5  -9    2.87    0.41
   2  -5  -9    2.51    0.45
   2  -5  -9    2.52    0.40
  -2   5   9    2.45    0.33
  -2   5   9    2.82    0.39
  -2   5   9    2.48    0.43
  -2   5   9    2.76    0.32
   1  -5  -9  160.24    3.67
   1  -5  -9  163.15    3.58
   1  -5  -9  162.42    3.44
   1  -5  -9  155.80    3.73
   1  -5  -9  164.51    3.42
   1  -5  -9  164.32    3.57
   1  -5  -9  159.42    3.54
  -1   5   9  157.27    3.48
  -1   5   9  162.51    3.27
  -1   5   9  161.47    3.69
  -1   5   9  164.87    3.26
   0  -5  -9   49.64    1.29
   0  -5  -9   51.77    1.40
   0  -5  -9   50.45    1.42
   0  -5  -9   50.32    1.28
   0  -5  -9   49.01    1.49
   0  -5  -9   49.83    1.36
   0  -5  -9   51.64    1.55
   0   5   9   44.58    1.38
   0   5   9   50.06    1.19
   0   5   9   49.21    1.53
   0   5   9   49.55    1.20
   0   5   9   52.25    1.42
  -1  -5  -9   44.03    1.37
  -1  -5  -9   44.57    1.27
  -1  -5  -9   44.59    1.19
  -1  -5  -9   45.97    1.41
  -1  -5  -9   45.47    1.04
  -1  -5  -9   46.33    1.30
   1   5   9   45.44    1.17
   1   5   9   46.14    1.11
   1   5   9   45.31    1.09
  -2  -5  -9  119.76    2.58
  -2  -5  -9  116.61    2.65
  -2  -5  -9  118.61    2.82
  -2  -5  -9  116.67    2.40
  -2  -5  -9  116.35    2.64
  -2  -5  -9  117.52    2.79
   2   5   9  119.25    2.45
   2   5   9  118.39    2.43
   2   5   9  117.40    2.54
  -3  -5  -9   33.65    1.06
  -3  -5  -9   33.10    0.92
  -3  -5  -9   34.78    1.10
  -3  -5  -9   35.67    1.24
  -3  -5  -9   34.64    1.05
   3   5   9   34.41    0.94
   3   5   9   35.16    0.93
   3   5   9   33.62    1.00
  -4  -5  -9   88.34    2.40
  -4  -5  -9   86.65    2.20
  -4  -5  -9   86.30    2.36
  -4  -5  -9   88.45    1.98
   4   5   9   87.82    2.08
  -5  -5  -9   48.62    1.70
  -5  -5  -9   49.30    1.34
   5   5   9   50.86    1.44
  -6  -5  -9    5.04    0.68
  -6  -5  -9    5.02    0.50
   6   5   9    5.80    0.60
   4  -6  -9   46.74    1.63
   3  -6  -9   13.56    0.70
   3  -6  -9   13.66    0.78
   2  -6  -9    6.16    0.56
   2  -6  -9    7.48    0.56
   2  -6  -9    6.76    0.47
  -2   6   9    6.70    0.45
  -2   6   9    6.58    0.51
  -2   6   9    7.53    0.48
   1  -6  -9  153.29    3.55
   1  -6  -9  157.42    3.52
   1  -6  -9  160.59    3.38
   1  -6  -9  150.43    3.36
   1  -6  -9  154.86    3.08
   1  -6  -9  152.18    3.56
   1  -6  -9  157.74    3.49
   1  -6  -9  155.88    3.34
  -1   6   9  153.56    3.33
  -1   6   9  154.28    3.15
  -1   6   9  154.40    3.51
  -1   6   9  152.97    3.17
  -1   6   9  155.70    3.26
   0  -6  -9   13.33    0.70
   0  -6  -9   13.62    0.62
   0  -6  -9   12.67    0.62
   0  -6  -9   13.21    0.65
   0  -6  -9   14.31    0.49
   0  -6  -9   12.84    0.57
   0  -6  -9   13.52    0.57
   0  -6  -9   13.60    0.70
   0   6   9   12.95    0.61
   0   6   9   13.32    0.71
   0   6   9   14.52    0.53
   0   6   9   13.69    0.58
   0   6   9   13.80    0.53
  -1  -6  -9  120.80    2.94
  -1  -6  -9  130.07    2.97
  -1  -6  -9  122.65    2.84
  -1  -6  -9  129.04    2.78
  -1  -6  -9  126.83    2.76
  -1  -6  -9  124.83    2.59
  -1  -6  -9  131.80    2.69
  -1  -6  -9  127.70    2.80
   1   6   9  127.94    2.72
   1   6   9  127.73    2.62
   1   6   9  126.58    2.64
  -2  -6  -9   23.70    0.72
  -2  -6  -9   23.57    0.94
  -2  -6  -9   24.49    0.84
  -2  -6  -9   24.83    0.97
  -2  -6  -9   22.83    0.80
  -2  -6  -9   23.34    0.85
   2   6   9   23.99    0.71
   2   6   9   23.53    0.79
   2   6   9   23.32    0.72
  -3  -6  -9    1.02    0.23
  -3  -6  -9    0.88    0.26
  -3  -6  -9    1.05    0.21
  -3  -6  -9    0.98    0.28
   3   6   9    0.57    0.18
   3   6   9    1.08    0.24
   3   6   9    0.84    0.20
  -4  -6  -9  107.54    2.76
  -4  -6  -9  104.61    2.75
  -4  -6  -9  104.26    2.55
  -4  -6  -9  105.52    2.36
   4   6   9  106.77    2.32
   4   6   9  109.42    2.45
   4   6   9  105.44    2.29
  -5  -6  -9    3.26    0.51
  -5  -6  -9    3.81    0.42
   5   6   9    3.93    0.46
  -6  -6  -9   17.60    0.80
  -6  -6  -9   17.75    1.08
   6   6   9   17.59    0.82
   4  -7  -9   22.54    1.11
  -4   7   9   23.31    0.97
   3  -7  -9   13.44    0.80
   3  -7  -9   12.83    0.55
  -3   7   9   12.91    0.67
   2  -7  -9   10.63    0.48
   2  -7  -9    9.57    0.56
   2  -7  -9   10.69    0.68
  -2   7   9   10.31    0.56
   1  -7  -9   22.13    0.71
   1  -7  -9   23.00    0.85
   1  -7  -9   23.04    0.95
   1  -7  -9   22.31    0.87
   1  -7  -9   21.77    0.95
   1  -7  -9   21.52    0.96
  -1   7   9   21.01    0.79
  -1   7   9   22.02    0.72
  -1   7   9   21.45    0.73
   0  -7  -9    0.99    0.20
   0  -7  -9    0.62    0.22
   0  -7  -9    1.57    0.25
   0  -7  -9    1.25    0.21
   0  -7  -9    0.88    0.25
   0  -7  -9    1.62    0.31
   0  -7  -9    1.10    0.23
   0  -7  -9    1.08    0.28
   0   7   9    1.19    0.22
   0   7   9    1.27    0.28
   0   7   9    1.00    0.24
   0   7   9    1.28    0.25
   0   7   9    1.64    0.27
  -1  -7  -9  107.95    2.47
  -1  -7  -9  116.19    2.50
  -1  -7  -9  109.45    2.65
  -1  -7  -9  110.69    2.44
  -1  -7  -9  109.33    2.62
  -1  -7  -9  106.89    2.54
  -1  -7  -9  111.26    2.56
  -1  -7  -9  107.05    2.34
   1   7   9  110.12    2.33
   1   7   9  107.44    2.41
   1   7   9  110.10    2.31
  -2  -7  -9   76.81    1.78
  -2  -7  -9   74.28    2.02
  -2  -7  -9   76.44    1.88
  -2  -7  -9   77.64    1.92
  -2  -7  -9   80.37    1.68
  -2  -7  -9   79.92    1.70
  -2  -7  -9   77.07    2.08
   2   7   9   76.24    1.73
   2   7   9   77.75    1.76
   2   7   9   79.74    1.86
  -3  -7  -9   51.83    1.35
  -3  -7  -9   53.93    1.28
  -3  -7  -9   51.88    1.45
  -3  -7  -9   51.01    1.63
  -3  -7  -9   51.86    1.60
  -3  -7  -9   53.27    1.26
   3   7   9   52.76    1.29
   3   7   9   53.43    1.41
   3   7   9   52.16    1.31
  -4  -7  -9   81.97    2.14
  -4  -7  -9   81.13    2.32
  -4  -7  -9   84.75    1.99
  -4  -7  -9   85.39    2.36
   4   7   9   83.84    2.01
  -5  -7  -9    2.05    0.35
  -5  -7  -9    1.40    0.38
   5   7   9    2.13    0.35
  -6  -7  -9   44.49    1.79
  -6  -7  -9   46.17    1.42
   6   7   9   47.03    1.38
   4  -8  -9   20.36    1.08
  -4   8   9   19.18    0.90
   3  -8  -9   11.10    0.57
   3  -8  -9   11.23    0.78
  -3   8   9   10.55    0.63
   2  -8  -9   34.61    1.28
   2  -8  -9   32.16    0.99
  -2   8   9   32.39    1.06
   1  -8  -9   67.85    2.27
   1  -8  -9   72.35    2.17
   1  -8  -9   75.21    1.74
   1  -8  -9   74.75    2.03
   1  -8  -9   74.55    2.02
  -1   8   9   73.62    1.68
  -1   8   9   73.20    1.70
  -1   8   9   74.26    1.80
   0  -8  -9   19.90    0.86
   0  -8  -9   20.68    0.88
   0  -8  -9   21.08    0.92
   0  -8  -9   20.46    0.82
   0  -8  -9   19.15    0.70
   0   8   9   19.08    0.73
   0   8   9   21.37    0.69
   0   8   9   20.00    0.66
  -1  -8  -9   45.11    1.36
  -1  -8  -9   45.32    1.44
  -1  -8  -9   46.96    1.41
  -1  -8  -9   44.67    1.42
  -1  -8  -9   46.56    1.32
  -1  -8  -9   44.16    1.21
  -1  -8  -9   46.78    1.13
  -1  -8  -9   47.87    1.15
  -1  -8  -9   50.39    1.51
   1   8   9   44.19    1.24
   1   8   9   46.51    1.16
   1   8   9   45.95    1.14
  -2  -8  -9   39.98    1.30
  -2  -8  -9   40.56    1.13
  -2  -8  -9   41.64    1.18
  -2  -8  -9   39.33    1.21
  -2  -8  -9   39.90    1.13
  -2  -8  -9   40.64    1.03
  -2  -8  -9   40.91    1.37
  -2  -8  -9   39.75    1.17
  -2  -8  -9   41.72    1.06
   2   8   9   39.91    1.05
   2   8   9   39.76    1.03
   2   8   9   39.53    1.14
  -3  -8  -9   40.33    1.43
  -3  -8  -9   41.02    1.07
  -3  -8  -9   40.24    1.16
  -3  -8  -9   39.66    1.36
  -3  -8  -9   42.55    1.10
  -3  -8  -9   38.68    1.21
   3   8   9   40.52    1.17
  -4  -8  -9   42.71    1.57
  -4  -8  -9   45.58    1.29
   4   8   9   44.31    1.27
  -5  -8  -9    0.68    0.26
  -5  -8  -9    0.09    0.26
   5   8   9    0.28    0.25
  -6  -8  -9   16.13    0.82
  -6  -8  -9   16.47    1.08
   6   8   9   16.04    0.73
   4  -9  -9   27.34    0.99
   4  -9  -9   24.89    1.27
  -4   9   9   27.49    1.06
   3  -9  -9    7.42    0.52
   3  -9  -9    7.25    0.81
  -3   9   9    7.48    0.55
   2  -9  -9   35.99    1.11
   2  -9  -9   34.56    1.35
  -2   9   9   35.94    1.13
   1  -9  -9  120.47    2.97
   1  -9  -9  122.10    2.68
  -1   9   9  120.43    2.61
  -1   9   9  123.16    2.70
  -1   9   9  120.31    2.63
   0  -9  -9    4.14    0.51
   0  -9  -9    4.67    0.34
   0  -9  -9    4.89    0.54
   0  -9  -9    4.01    0.56
   0  -9  -9    4.63    0.33
   0  -9  -9    4.47    0.51
   0  -9  -9    5.04    0.40
   0   9   9    3.93    0.32
   0   9   9    5.20    0.40
   0   9   9    3.87    0.33
  -1  -9  -9   63.96    1.83
  -1  -9  -9   64.79    1.51
  -1  -9  -9   65.75    1.54
  -1  -9  -9   63.95    1.76
  -1  -9  -9   66.13    1.65
  -1  -9  -9   64.72    1.90
  -1  -9  -9   64.47    1.62
  -1  -9  -9   63.47    1.76
  -1  -9  -9   66.70    1.69
   1   9   9   64.56    1.60
  -2  -9  -9    9.92    0.48
  -2  -9  -9    9.87    0.65
  -2  -9  -9   10.06    0.55
  -2  -9  -9    9.47    0.46
  -2  -9  -9    9.16    0.51
  -2  -9  -9    9.66    0.54
   2   9   9   10.14    0.53
  -3  -9  -9   35.78    1.11
  -3  -9  -9   35.04    1.17
  -3  -9  -9   36.12    1.14
  -3  -9  -9   36.06    1.36
   3   9   9   35.72    1.05
  -4  -9  -9   46.74    1.68
  -4  -9  -9   47.50    1.38
   4   9   9   47.80    1.29
  -5  -9  -9    7.24    0.58
  -5  -9  -9    8.04    0.73
   4 -10  -9   18.56    1.14
  -4  10   9   20.04    0.90
   3 -10  -9    0.90    0.39
   3 -10  -9    0.52    0.26
  -3  10   9    0.97    0.28
   2 -10  -9   48.69    1.70
   2 -10  -9   51.31    1.45
  -2  10   9   49.44    1.40
   1 -10  -9    1.66    0.32
   1 -10  -9    1.13    0.32
  -1  10   9    1.73    0.31
   0 -10  -9    4.39    0.47
   0 -10  -9    4.37    0.52
   0  10   9    4.40    0.38
  -1 -10  -9   95.46    2.40
  -1 -10  -9   94.10    2.46
  -1 -10  -9   98.93    2.26
   1  10   9   96.85    2.17
  -2 -10  -9    0.41    0.20
  -2 -10  -9    0.60    0.24
  -2 -10  -9    0.64    0.21
  -2 -10  -9    0.97    0.30
   2  10   9    0.56    0.23
  -3 -10  -9   48.18    1.49
  -3 -10  -9   49.46    1.40
  -3 -10  -9   49.25    1.45
  -3 -10  -9   46.90    1.64
   3  10   9   48.80    1.27
  -4 -10  -9   16.90    0.99
  -4 -10  -9   18.18    0.81
  -5 -10  -9    3.26    0.48
  -5 -10  -9    1.86    0.44
   3 -11  -9    4.45    0.54
   3 -11  -9    4.36    0.67
   2 -11  -9   64.36    2.06
   2 -11  -9   61.15    1.72
  -2  11   9   61.73    1.62
   1 -11  -9    0.56    0.29
   1 -11  -9    0.29    0.23
  -1  11   9    0.36    0.22
   0 -11  -9   52.10    1.45
   0 -11  -9   46.69    1.57
   0  11   9   51.11    1.32
  -1 -11  -9   86.98    2.14
  -1 -11  -9   86.28    2.26
  -1 -11  -9   88.26    2.15
   1  11   9   88.15    1.98
  -2 -11  -9    4.28    0.56
  -2 -11  -9    3.99    0.49
  -2 -11  -9    3.58    0.42
  -2 -11  -9    4.89    0.53
  -3 -11  -9   77.76    2.01
  -3 -11  -9   81.84    2.17
  -3 -11  -9   76.50    2.30
  -3 -11  -9   80.41    2.10
  -4 -11  -9    7.56    0.81
  -4 -11  -9    6.89    0.65
  -5 -11  -9   10.28    0.75
  -5 -11  -9    9.33    0.86
   3 -12  -9    4.98    0.58
   3 -12  -9    4.62    0.72
  -3  12   9    4.12    0.44
   2 -12  -9   16.08    1.03
   2 -12  -9   16.47    0.84
   1 -12  -9   16.08    0.95
   1 -12  -9   14.92    0.77
  -1  12   9   14.56    0.64
   0 -12  -9   38.39    1.41
   0 -12  -9   42.04    1.31
  -1 -12  -9   17.70    0.82
  -1 -12  -9   17.46    1.02
  -1 -12  -9   15.94    1.05
  -2 -12  -9    7.92    0.60
  -2 -12  -9    7.67    0.56
  -3 -12  -9   38.19    1.49
  -3 -12  -9   39.29    1.39
  -3 -12  -9   35.27    1.29
  -4 -12  -9   16.98    1.05
  -4 -12  -9   17.39    0.96
  -4 -12  -9   18.97    0.95
   2 -13  -9    7.61    0.64
   2 -13  -9    6.75    0.86
   1 -13  -9    0.34    0.28
   1 -13  -9    0.11    0.28
   0 -13  -9   24.94    1.13
   0 -13  -9   23.89    1.09
  -2 -13  -9   20.17    0.92
  -2 -13  -9   18.80    0.95
  -3 -13  -9   16.84    0.88
  -3 -13  -9   15.19    0.89
   1 -14  -9    7.11    0.83
   1 -14  -9    6.17    0.79
  -2 -14  -9   14.04    0.87
  -2 -14  -9   13.86    0.82
   1  -7  10    1.50    0.39
   2  -7  10    8.33    0.72
  -2  -6  10    8.11    0.73
   1  -6  10    1.33    0.35
   2  -6  10   26.40    1.18
  -3   6 -10    7.02    0.45
   3  -6  10    8.17    0.85
  -2  -5  10    7.20    0.67
   1   5 -10   24.55    1.14
  -1  -5  10   24.50    1.13
   0  -5  10   20.93    0.96
   1  -5  10    0.11    0.22
  -2   5 -10   30.44    0.82
   2  -5  10   29.24    1.23
  -3   5 -10   10.73    0.52
   3  -5  10   10.38    0.76
  -4   5 -10    6.14    0.47
   4  -5  10    5.77    0.72
   3   4 -10   37.07    1.10
  -3  -4  10   37.88    1.54
   2   4 -10    8.32    0.73
  -2  -4  10    8.23    0.69
   1   4 -10   23.23    1.09
  -1  -4  10   24.08    1.08
   0   4 -10   34.57    1.31
   0  -4  10   36.40    1.32
  -2   4 -10   40.76    0.98
   2  -4  10   41.61    1.45
  -3   4 -10    6.47    0.40
   3  -4  10    5.52    0.66
  -4   4 -10    6.01    0.45
   4  -4  10    5.15    0.65
  -5   4 -10    7.07    0.56
   5  -4  10    8.07    0.85
   3   3 -10   26.09    0.92
  -3  -3  10   29.97    1.32
   2   3 -10    4.59    0.62
  -2  -3  10    4.85    0.62
   1   3 -10   25.18    1.12
  -1  -3  10   24.99    1.09
   0   3 -10   30.58    1.38
   0   3 -10   30.91    1.19
   0   3 -10   32.03    1.24
   0  -3  10   27.51    1.33
   0  -3  10   28.11    1.17
  -1   3 -10    8.26    0.56
  -1   3 -10    8.32    0.61
  -1   3 -10    7.88    0.66
   1  -3  10    8.02    0.66
   1  -3  10    7.62    0.57
  -2   3 -10   51.19    1.18
  -2   3 -10   52.34    1.74
  -2   3 -10   53.07    1.58
  -3   3 -10    0.02    0.11
   3  -3  10    0.34    0.25
  -4   3 -10   21.56    0.83
   4  -3  10   21.83    1.05
   4  -3  10   22.90    1.20
  -5   3 -10   19.10    0.86
   5  -3  10   21.06    1.07
   4   2 -10   20.65    0.89
  -4  -2  10   19.67    1.14
   3   2 -10   15.13    0.69
   3   2 -10   16.92    1.00
  -3  -2  10   18.24    1.00
   2   2 -10    5.67    0.29
   2   2 -10    6.56    0.61
  -2  -2  10    5.75    0.65
   1   2 -10   73.56    1.96
   1   2 -10   73.09    2.12
  -1  -2  10   73.34    2.11
   0   2 -10   22.12    0.98
   0   2 -10   21.51    0.93
   0   2 -10   21.73    1.07
   0  -2  10   21.39    0.91
   0  -2  10   20.49    1.02
  -1   2 -10   89.25    2.25
  -1   2 -10   85.08    2.42
  -1   2 -10   89.66    2.29
   1  -2  10   88.72    2.28
   1  -2  10   86.19    2.48
  -2   2 -10   52.69    1.77
  -2   2 -10   53.01    1.23
  -2   2 -10   53.53    1.60
  -2   2 -10   57.37    1.65
  -3   2 -10    0.26    0.21
  -3   2 -10    0.08    0.10
  -3   2 -10    0.18    0.21
   3  -2  10    0.03    0.18
   3  -2  10   -0.04    0.16
  -4   2 -10   46.51    1.35
   4  -2  10   48.34    1.74
   4  -2  10   46.32    1.57
  -5   2 -10   22.16    0.91
   5  -2  10   19.62    1.03
   4   1 -10   24.98    1.04
  -4  -1  10   26.99    1.29
   3   1 -10   12.97    0.87
   3   1 -10   11.75    0.62
  -3  -1  10   12.71    0.83
   2   1 -10    0.79    0.17
   2   1 -10    0.53    0.25
  -2  -1  10    0.35    0.22
   1   1 -10   57.25    1.75
   1   1 -10   57.11    1.81
   1   1 -10   62.69    1.70
   1   1 -10   59.81    1.97
  -1  -1  10   57.89    1.70
  -1  -1  10   57.83    1.89
   0   1 -10    4.60    0.50
   0   1 -10    5.32    0.54
   0   1 -10    6.09    0.52
   0   1 -10    4.46    0.61
   0  -1  10    5.19    0.53
   0  -1  10    5.14    0.63
  -1   1 -10   59.07    1.65
  -1   1 -10   55.42    1.80
  -1   1 -10   59.34    1.69
   1  -1  10   55.10    1.82
   1  -1  10   54.15    1.64
  -2   1 -10   43.05    1.05
  -2   1 -10   43.07    1.53
  -2   1 -10   43.59    1.40
  -2   1 -10   42.52    1.36
  -3   1 -10    0.17    0.18
  -3   1 -10    0.26    0.12
  -3   1 -10    0.30    0.20
  -3   1 -10    0.08    0.16
   3  -1  10    0.32    0.21
  -4   1 -10   63.26    1.67
   4  -1  10   62.55    1.88
   4  -1  10   67.10    2.10
  -5   1 -10    2.00    0.34
   5  -1  10    1.95    0.41
  -6   1 -10   15.85    0.83
   6  -1  10   16.43    1.12
   4   0 -10   24.07    1.02
  -4   0  10   25.70    1.25
   3   0 -10   11.17    0.62
   3   0 -10   10.73    0.79
  -3   0  10   13.11    0.83
   2   0 -10   25.01    0.95
   2   0 -10   22.60    1.08
   2   0 -10   23.16    0.75
  -2   0  10   23.25    1.06
   1   0 -10   52.15    1.64
   1   0 -10   53.92    1.71
   1   0 -10   53.06    1.54
   1   0 -10   53.72    1.85
   1   0 -10   54.45    1.18
  -1   0  10   51.97    1.76
  -1   0  10   52.90    1.59
   0   0 -10    5.98    0.48
   0   0 -10    6.47    0.47
   0   0 -10    6.83    0.53
   0   0 -10    6.81    0.25
   0   0 -10    7.06    0.59
   0   0  10    6.31    0.57
   0   0  10    6.89    0.50
  -1   0 -10   20.76    0.58
  -1   0 -10   22.48    0.94
  -1   0 -10   21.92    0.88
  -1   0 -10   22.27    1.01
  -1   0 -10   22.36    0.89
  -2   0 -10   12.03    0.75
  -2   0 -10   12.57    0.67
  -2   0 -10   13.50    0.71
  -2   0 -10   12.08    0.46
  -3   0 -10   35.69    1.02
  -3   0 -10   34.17    1.34
  -3   0 -10   35.61    1.21
  -3   0 -10   35.11    1.23
  -4   0 -10   46.60    1.34
  -4   0 -10   45.92    1.67
   4   0  10   45.71    1.49
  -5   0 -10    2.26    0.36
   5   0  10    1.34    0.33
  -6   0 -10   20.13    1.12
   4  -1 -10   18.39    0.90
   4  -1 -10   18.78    1.12
  -4   1  10   21.82    1.13
   3  -1 -10    4.31    0.47
   3  -1 -10    4.34    0.61
  -3   1  10    5.12    0.66
   2  -1 -10   40.12    1.28
   2  -1 -10   37.05    1.44
   2  -1 -10   39.62    1.11
   1  -1 -10   96.47    2.49
   1  -1 -10   93.78    2.69
   1  -1 -10   99.88    2.05
   1  -1 -10   98.85    2.58
   1  -1 -10   97.13    2.36
  -1   1  10   94.75    2.61
  -1   1  10   91.96    2.39
   0  -1 -10    2.01    0.20
   0  -1 -10    1.88    0.33
   0  -1 -10    2.82    0.41
   0  -1 -10    1.93    0.41
   0   1  10    2.25    0.43
   0   1  10    2.51    0.38
  -1  -1 -10  116.85    2.75
  -1  -1 -10  116.94    2.74
  -1  -1 -10  115.92    2.83
  -1  -1 -10  120.04    2.98
  -1  -1 -10  114.64    2.38
  -2  -1 -10   30.13    1.08
  -2  -1 -10   31.18    1.13
  -2  -1 -10   30.66    1.22
  -2  -1 -10   31.34    0.87
  -2  -1 -10   31.95    1.10
  -3  -1 -10   69.47    1.88
  -3  -1 -10   69.18    2.06
  -3  -1 -10   70.03    1.69
  -3  -1 -10   71.12    1.95
   3   1  10   71.06    1.56
  -4  -1 -10   47.32    1.35
  -4  -1 -10   46.61    1.53
  -5  -1 -10    0.01    0.14
   5   1  10   -0.04    0.17
   4  -2 -10   26.70    1.11
   4  -2 -10   27.71    1.35
  -4   2  10   29.49    1.32
   3  -2 -10    0.31    0.17
   3  -2 -10    0.56    0.31
   3  -2 -10    0.46    0.21
  -3   2  10    0.38    0.26
   2  -2 -10   51.60    1.52
   2  -2 -10   50.52    1.37
   2  -2 -10   50.64    1.62
   2  -2 -10   51.99    1.78
   2  -2 -10   46.95    1.67
  -2   2  10   48.48    1.54
  -2   2  10   50.30    1.75
   1  -2 -10   37.50    1.46
   1  -2 -10   35.90    1.10
   1  -2 -10   36.57    0.99
   1  -2 -10   36.39    1.20
   1  -2 -10   35.78    1.20
   1  -2 -10   38.19    1.31
   1  -2 -10   35.37    1.32
  -1   2  10   36.57    1.39
  -1   2  10   36.73    1.24
   0  -2 -10    8.76    0.38
   0  -2 -10    8.67    0.53
   0  -2 -10    8.38    0.59
   0  -2 -10    9.02    0.65
   0  -2 -10    8.94    0.55
   0   2  10    8.64    0.63
   0   2  10    8.44    0.55
  -1  -2 -10  127.06    2.85
  -1  -2 -10  123.78    3.07
  -1  -2 -10  120.49    2.85
  -1  -2 -10  122.00    2.94
  -1  -2 -10  123.54    2.55
  -2  -2 -10   27.38    1.05
  -2  -2 -10   26.64    0.98
  -2  -2 -10   27.64    0.99
  -2  -2 -10   27.46    0.82
  -2  -2 -10   28.03    1.13
  -3  -2 -10   14.91    0.72
  -3  -2 -10   14.77    0.82
  -3  -2 -10   15.34    0.78
  -3  -2 -10   16.13    0.63
   3   2  10   15.43    0.54
  -4  -2 -10   30.20    1.01
  -4  -2 -10   28.79    1.15
  -5  -2 -10    0.13    0.18
  -5  -2 -10    0.15    0.24
   6   2  10   32.35    1.65
   4  -3 -10   24.16    1.26
   4  -3 -10   23.87    1.05
  -4   3  10   26.84    1.25
   3  -3 -10    0.98    0.35
   3  -3 -10    0.77    0.24
   3  -3 -10    0.93    0.26
  -3   3  10    0.91    0.33
   2  -3 -10  110.57    2.56
   2  -3 -10  113.01    2.72
   2  -3 -10  112.08    2.93
   2  -3 -10  112.31    2.89
   2  -3 -10  113.27    2.72
  -2   3  10  107.57    2.71
  -2   3  10  106.48    2.93
  -2   3  10  114.92    2.37
  -2   3  10  115.05    2.39
   1  -3 -10    6.08    0.46
   1  -3 -10    6.55    0.42
   1  -3 -10    6.75    0.38
   1  -3 -10    6.24    0.60
   1  -3 -10    6.41    0.55
   1  -3 -10    6.69    0.54
   1  -3 -10    6.46    0.47
  -1   3  10    6.61    0.49
  -1   3  10    6.15    0.56
   0  -3 -10   56.47    1.59
   0  -3 -10   56.34    1.57
   0  -3 -10   55.18    1.74
   0  -3 -10   55.97    1.35
   0  -3 -10   56.10    1.68
   0   3  10   54.86    1.76
   0   3  10   52.91    1.57
  -1  -3 -10   87.61    2.29
  -1  -3 -10   92.29    2.42
  -1  -3 -10   87.84    1.96
  -1  -3 -10   87.48    2.17
  -1  -3 -10   89.43    2.21
  -2  -3 -10    6.35    0.45
  -2  -3 -10    6.07    0.49
  -2  -3 -10    5.65    0.43
  -2  -3 -10    6.02    0.36
  -2  -3 -10    5.31    0.49
   2   3  10    5.34    0.29
   2   3  10    5.58    0.31
  -3  -3 -10  107.95    2.68
  -3  -3 -10  106.97    2.41
  -3  -3 -10  106.08    2.75
  -3  -3 -10  105.22    2.54
  -3  -3 -10  102.50    2.53
   3   3  10  109.07    2.27
   3   3  10  108.42    2.28
  -4  -3 -10   20.92    0.97
  -4  -3 -10   19.98    0.80
  -5  -3 -10   21.12    1.04
   5   3  10   20.43    1.00
  -6  -3 -10   39.05    1.56
   6   3  10   37.69    1.31
   4  -4 -10    8.58    0.78
   4  -4 -10    8.98    0.65
  -4   4  10    8.98    0.74
   3  -4 -10   12.31    0.68
   3  -4 -10   11.10    0.82
   3  -4 -10   11.81    0.71
  -3   4  10   12.28    0.79
   2  -4 -10   51.46    1.46
   2  -4 -10   51.38    1.73
   2  -4 -10   52.84    1.58
  -2   4  10   53.27    1.30
  -2   4  10   51.20    1.31
  -2   4  10   50.50    1.72
  -2   4  10   50.63    1.54
   1  -4 -10    5.64    0.52
   1  -4 -10    6.13    0.51
   1  -4 -10    5.74    0.45
   1  -4 -10    6.36    0.74
   1  -4 -10    6.32    0.41
   1  -4 -10    5.54    0.37
   1  -4 -10    6.16    0.47
  -1   4  10    5.44    0.57
  -1   4  10    6.25    0.55
  -1   4  10    6.09    0.35
  -1   4  10    5.82    0.36
   0  -4 -10   53.69    1.37
   0  -4 -10   53.85    1.54
   0  -4 -10   53.03    1.65
   0  -4 -10   55.81    1.73
   0  -4 -10   54.42    1.55
   0   4  10   54.36    1.73
   0   4  10   55.45    1.25
   0   4  10   54.87    1.57
   0   4  10   56.05    1.27
  -1  -4 -10  104.60    2.43
  -1  -4 -10   97.41    2.50
  -1  -4 -10   98.91    2.40
  -1  -4 -10  101.80    2.61
  -1  -4 -10   99.21    2.22
   1   4  10  101.66    2.11
   1   4  10  102.18    2.10
  -2  -4 -10   16.21    0.82
  -2  -4 -10   15.87    0.78
  -2  -4 -10   15.16    0.70
  -2  -4 -10   14.66    0.69
  -2  -4 -10   16.40    0.63
   2   4  10   15.87    0.55
   2   4  10   15.99    0.54
  -3  -4 -10  165.20    3.57
  -3  -4 -10  158.59    3.78
  -3  -4 -10  164.17    3.46
  -3  -4 -10  160.10    3.57
  -3  -4 -10  161.04    3.72
   3   4  10  163.62    3.32
   3   4  10  165.26    3.30
  -4  -4 -10   39.11    1.42
  -4  -4 -10   40.50    1.24
   4   4  10   39.37    1.19
  -5  -4 -10   36.88    1.44
   5   4  10   36.55    1.20
  -6  -4 -10   47.35    1.26
  -6  -4 -10   46.03    1.74
   6   4  10   43.49    1.44
   4  -5 -10   26.72    1.16
   4  -5 -10   26.15    1.11
   3  -5 -10   41.49    1.61
   3  -5 -10   45.28    1.44
   3  -5 -10   43.73    1.49
  -3   5  10   45.36    1.59
   2  -5 -10   28.03    1.00
   2  -5 -10   26.60    1.19
   2  -5 -10   27.54    1.08
  -2   5  10   27.79    1.02
  -2   5  10   26.68    1.15
   1  -5 -10    5.12    0.54
   1  -5 -10    4.01    0.36
   1  -5 -10    4.53    0.43
   1  -5 -10    4.70    0.52
   1  -5 -10    4.98    0.37
   1  -5 -10    4.21    0.57
   1  -5 -10    4.68    0.57
  -1   5  10    5.32    0.61
  -1   5  10    4.82    0.50
  -1   5  10    4.91    0.35
  -1   5  10    4.36    0.33
   0  -5 -10   89.23    2.38
   0  -5 -10   92.39    2.28
   0  -5 -10   91.91    2.43
   0  -5 -10   92.18    2.36
   0  -5 -10   92.87    2.54
   0  -5 -10   91.63    2.24
   0  -5 -10   87.17    2.09
   0   5  10   91.27    2.26
   0   5  10   92.09    2.46
   0   5  10   91.94    1.97
   0   5  10   94.70    2.00
  -1  -5 -10   48.27    1.54
  -1  -5 -10   45.95    1.47
  -1  -5 -10   45.01    1.37
  -1  -5 -10   46.98    1.37
  -1  -5 -10   45.99    1.25
   1   5  10   49.69    1.18
   1   5  10   47.67    1.15
  -2  -5 -10   29.74    1.00
  -2  -5 -10   28.65    1.00
  -2  -5 -10   29.26    1.11
  -2  -5 -10   28.59    1.12
  -2  -5 -10   28.18    0.91
   2   5  10   27.71    0.97
   2   5  10   30.46    0.84
   2   5  10   28.55    0.81
  -3  -5 -10   20.22    0.79
  -3  -5 -10   22.51    0.67
  -3  -5 -10   21.10    0.84
  -3  -5 -10   21.49    0.96
  -3  -5 -10   22.15    0.99
  -3  -5 -10   21.88    0.87
   3   5  10   23.49    0.81
   3   5  10   23.29    0.73
   3   5  10   22.57    0.74
  -4  -5 -10    3.09    0.33
  -4  -5 -10    2.96    0.51
   4   5  10    3.75    0.43
  -5  -5 -10   39.70    1.13
  -5  -5 -10   39.07    1.52
   5   5  10   39.39    1.26
  -6  -5 -10   16.78    1.07
  -6  -5 -10   18.19    0.77
   6   5  10   17.69    0.85
   4  -6 -10   11.75    0.82
   3  -6 -10    7.29    0.91
   3  -6 -10    8.12    0.58
   3  -6 -10    7.59    0.62
  -3   6  10    8.17    0.75
   2  -6 -10   62.90    1.72
   2  -6 -10   60.85    1.81
   2  -6 -10   58.59    1.92
  -2   6  10   62.32    1.87
  -2   6  10   61.36    1.69
   1  -6 -10    0.81    0.26
   1  -6 -10    0.61    0.20
   1  -6 -10    0.80    0.28
   1  -6 -10    1.05    0.32
   1  -6 -10    0.72    0.25
   1  -6 -10    1.25    0.29
   1  -6 -10    1.30    0.25
  -1   6  10    0.75    0.27
  -1   6  10    1.11    0.26
  -1   6  10    1.05    0.26
  -1   6  10    1.23    0.27
   0  -6 -10   98.93    2.45
   0  -6 -10   96.86    2.54
   0  -6 -10  102.02    2.58
   0  -6 -10  100.34    2.40
   0  -6 -10  101.51    2.39
   0  -6 -10  100.97    2.32
   0  -6 -10  100.23    2.29
   0   6  10   98.37    2.31
   0   6  10  102.14    2.18
   0   6  10  103.34    2.62
   0   6  10  102.00    2.20
   0   6  10  102.68    2.43
  -1  -6 -10   17.90    0.77
  -1  -6 -10   17.36    0.84
  -1  -6 -10   17.16    0.82
  -1  -6 -10   18.60    0.76
  -1  -6 -10   17.40    0.56
  -1  -6 -10   18.01    0.69
   1   6  10   17.55    0.69
   1   6  10   18.11    0.62
   1   6  10   17.44    0.63
  -2  -6 -10   27.54    0.91
  -2  -6 -10   27.17    0.97
  -2  -6 -10   25.91    1.06
  -2  -6 -10   26.67    1.07
  -2  -6 -10   26.62    0.94
  -2  -6 -10   27.97    0.78
   2   6  10   27.63    0.80
   2   6  10   26.36    0.81
   2   6  10   27.37    0.88
  -3  -6 -10   69.21    2.02
  -3  -6 -10   67.78    2.01
  -3  -6 -10   72.99    1.64
  -3  -6 -10   70.81    1.86
  -3  -6 -10   70.51    1.80
  -3  -6 -10   68.83    1.82
   3   6  10   71.54    1.77
   3   6  10   70.08    1.66
   3   6  10   71.22    1.64
  -4  -6 -10    4.73    0.39
  -4  -6 -10    4.65    0.59
   4   6  10    4.64    0.48
  -5  -6 -10   67.80    1.73
  -5  -6 -10   69.60    2.19
   5   6  10   69.73    1.84
  -6  -6 -10    5.65    0.72
  -6  -6 -10    7.25    0.54
   6   6  10    6.59    0.58
   4  -7 -10    5.39    0.70
   3  -7 -10   25.59    1.15
  -3   7  10   24.40    0.98
   2  -7 -10   42.96    1.47
   2  -7 -10   39.04    1.48
   2  -7 -10   42.36    1.35
  -2   7  10   45.27    1.31
   1  -7 -10   24.30    0.72
   1  -7 -10   25.30    1.05
   1  -7 -10   24.85    0.92
   1  -7 -10   23.98    1.05
   1  -7 -10   24.86    1.01
   1  -7 -10   22.48    0.91
  -1   7  10   24.68    0.88
   0  -7 -10   77.73    1.92
   0  -7 -10   72.87    1.86
   0  -7 -10   72.96    2.07
   0  -7 -10   73.66    2.01
   0  -7 -10   76.17    1.91
   0  -7 -10   76.13    2.07
   0  -7 -10   76.84    1.70
   0  -7 -10   75.43    1.99
   0   7  10   76.35    1.76
   0   7  10   77.05    1.94
   0   7  10   78.37    1.86
   0   7  10   78.45    2.12
   0   7  10   76.84    1.74
  -1  -7 -10    1.55    0.30
  -1  -7 -10    1.68    0.32
  -1  -7 -10    2.09    0.31
  -1  -7 -10    1.43    0.32
  -1  -7 -10    2.26    0.31
  -1  -7 -10    1.59    0.24
   1   7  10    1.65    0.27
   1   7  10    1.55    0.29
  -2  -7 -10   24.53    1.01
  -2  -7 -10   24.71    0.96
  -2  -7 -10   23.83    1.01
  -2  -7 -10   23.28    0.76
  -2  -7 -10   25.07    0.93
  -2  -7 -10   24.34    0.89
   2   7  10   24.65    0.86
   2   7  10   23.98    0.81
   2   7  10   24.21    0.79
  -3  -7 -10  121.06    3.06
  -3  -7 -10  122.08    3.08
  -3  -7 -10  122.12    2.87
  -3  -7 -10  127.70    2.70
   3   7  10  125.94    2.65
   3   7  10  129.23    2.69
   3   7  10  126.33    2.79
  -4  -7 -10    2.50    0.34
  -4  -7 -10    2.63    0.47
   4   7  10    2.19    0.35
  -5  -7 -10   33.24    1.41
  -5  -7 -10   31.51    1.07
   5   7  10   32.06    1.09
  -6  -7 -10    8.14    0.60
  -6  -7 -10    7.71    0.91
   6   7  10    6.71    0.59
   4  -8 -10    0.03    0.27
  -4   8  10    0.20    0.29
   3  -8 -10   57.54    1.89
  -3   8  10   54.63    1.61
   2  -8 -10   22.21    1.06
   2  -8 -10   24.28    0.80
  -2   8  10   23.14    0.90
   1  -8 -10   46.66    1.20
   1  -8 -10   45.92    1.51
   1  -8 -10   43.00    1.50
  -1   8  10   45.32    1.30
   0  -8 -10  128.58    3.08
   0  -8 -10  127.03    3.03
   0  -8 -10  130.53    2.94
   0  -8 -10  122.12    3.07
   0  -8 -10  131.19    2.73
   0   8  10  129.59    2.71
   0   8  10  129.44    2.84
   0   8  10  128.59    2.73
  -1  -8 -10    3.31    0.44
  -1  -8 -10    4.15    0.39
  -1  -8 -10    3.92    0.47
   1   8  10    4.43    0.37
   1   8  10    2.98    0.38
   1   8  10    3.32    0.35
  -2  -8 -10  110.70    2.62
  -2  -8 -10  110.85    2.76
  -2  -8 -10  108.18    2.56
  -2  -8 -10  111.13    2.80
  -2  -8 -10  110.82    2.44
   2   8  10  113.78    2.39
   2   8  10  110.45    2.40
   2   8  10  113.57    2.52
  -3  -8 -10   33.22    1.28
  -3  -8 -10   33.65    1.24
  -3  -8 -10   32.89    1.09
  -3  -8 -10   33.60    1.01
   3   8  10   25.93    1.10
   3   8  10   32.96    1.05
   3   8  10   24.45    1.15
  -4  -8 -10   15.02    0.92
  -4  -8 -10   15.64    0.71
   4   8  10   16.21    0.73
  -5  -8 -10   33.26    1.12
  -5  -8 -10   33.58    1.45
   5   8  10   32.21    1.10
  -6  -8 -10    3.39    0.49
  -6  -8 -10    2.62    0.54
   6   8  10    3.33    0.47
   4  -9 -10    0.55    0.32
   4  -9 -10    0.28    0.22
  -4   9  10    0.20    0.31
   3  -9 -10   17.84    1.02
   3  -9 -10   17.64    0.74
  -3   9  10   17.40    0.83
   2  -9 -10    2.10    0.45
   2  -9 -10    2.20    0.33
  -2   9  10    2.57    0.39
   1  -9 -10   19.68    0.96
   1  -9 -10   18.84    0.74
  -1   9  10   21.03    0.82
   0  -9 -10   23.95    0.83
   0  -9 -10   24.85    1.04
   0  -9 -10   24.31    1.05
   0  -9 -10   24.26    1.01
   0  -9 -10   25.69    1.18
   0   9  10   23.91    0.88
   0   9  10   24.30    0.79
   0   9  10   23.77    0.77
  -1  -9 -10    1.00    0.25
  -1  -9 -10    1.08    0.24
  -1  -9 -10    1.43    0.26
  -1  -9 -10    1.01    0.27
  -1  -9 -10    1.47    0.34
   1   9  10    1.11    0.27
   1   9  10    1.15    0.23
   1   9  10    1.16    0.25
  -2  -9 -10   99.11    2.13
  -2  -9 -10   96.22    2.22
  -2  -9 -10   92.62    2.52
  -2  -9 -10   94.49    2.27
  -2  -9 -10   96.67    2.24
  -2  -9 -10   98.24    2.10
   2   9  10   97.01    2.23
  -3  -9 -10    6.28    0.59
  -3  -9 -10    5.79    0.48
   3   9  10    6.44    0.48
  -4  -9 -10   26.13    1.22
  -4  -9 -10   24.74    0.94
   4   9  10   24.67    0.90
  -5  -9 -10   50.96    1.51
  -5  -9 -10   49.32    1.87
   5   9  10   51.93    1.44
   3 -10 -10   29.75    1.05
   3 -10 -10   29.45    1.36
  -3  10  10   29.61    1.09
   2 -10 -10    0.19    0.22
   2 -10 -10    0.26    0.26
  -2  10  10    0.60    0.27
   1 -10 -10   58.01    1.56
   1 -10 -10   58.44    1.85
  -1  10  10   57.88    1.56
   0 -10 -10    3.58    0.42
   0 -10 -10    4.96    0.58
   0  10  10    5.43    0.52
  -1 -10 -10   36.06    1.27
  -1 -10 -10   37.54    1.14
  -1 -10 -10   35.26    1.32
   1  10  10   37.25    1.12
  -2 -10 -10   58.75    1.62
  -2 -10 -10   60.72    1.59
  -2 -10 -10   57.72    1.83
  -2 -10 -10   59.20    1.58
   2  10  10   58.47    1.53
  -3 -10 -10    0.88    0.32
  -3 -10 -10    1.29    0.32
   3  10  10    0.71    0.25
  -4 -10 -10   37.84    1.25
  -4 -10 -10   36.27    1.52
   4  10  10   40.97    1.18
  -5 -10 -10   23.91    1.00
  -5 -10 -10   23.71    1.26
   3 -11 -10   31.67    1.48
   3 -11 -10   34.13    1.20
   2 -11 -10    1.05    0.37
   2 -11 -10    0.33    0.26
  -2  11  10    1.03    0.30
   1 -11 -10   24.15    1.15
   1 -11 -10   26.18    0.98
  -1  11  10   26.19    0.93
   0 -11 -10   65.80    1.98
   0 -11 -10   67.52    1.75
   0  11  10   65.20    1.67
  -1 -11 -10   18.18    0.79
  -1 -11 -10   17.30    0.86
   1  11  10   17.34    0.71
  -2 -11 -10   48.99    1.49
  -2 -11 -10   51.98    1.47
  -2 -11 -10   49.56    1.45
  -2 -11 -10   50.53    1.69
   2  11  10   50.32    1.33
  -3 -11 -10    1.45    0.36
  -3 -11 -10    1.28    0.33
  -3 -11 -10    1.62    0.35
  -3 -11 -10    0.70    0.30
   3  11  10    1.41    0.31
  -4 -11 -10   33.87    1.49
  -4 -11 -10   35.41    1.23
   2 -12 -10    7.84    0.89
   2 -12 -10    9.18    0.67
  -2  12  10    9.20    0.59
   1 -12 -10   14.70    0.90
   1 -12 -10   14.04    0.76
  -1  12  10   14.27    0.67
   0 -12 -10   11.51    0.78
   0 -12 -10   11.52    0.68
   0  12  10   12.23    0.59
  -1 -12 -10   11.90    0.69
   1  12  10   11.26    0.55
  -2 -12 -10   15.16    0.79
  -2 -12 -10   14.16    0.73
  -2 -12 -10   14.78    0.77
  -3 -12 -10    1.90    0.37
  -3 -12 -10    1.91    0.38
  -3 -12 -10    1.68    0.37
  -3 -12 -10    1.93    0.45
  -4 -12 -10   18.06    0.89
  -4 -12 -10   17.33    1.09
   2 -13 -10    7.30    0.91
   2 -13 -10    5.85    0.63
   1 -13 -10   63.66    1.81
   1 -13 -10   59.87    2.03
   0 -13 -10    3.33    0.58
   0 -13 -10    4.00    0.55
  -1 -13 -10   60.07    1.73
  -2 -13 -10   29.51    1.16
  -2 -13 -10   28.23    1.11
  -2 -13 -10   27.37    1.15
  -3 -13 -10    5.51    0.60
  -3 -13 -10    6.87    0.74
   0 -14 -10    0.78    0.35
  -2 -14 -10   15.02    0.90
  -2 -14 -10   15.55    0.93
   1  -6  11   32.02    1.33
   2  -6  11    7.87    0.84
   1   5 -11   11.51    0.94
  -1  -5  11   10.35    0.95
   0  -5  11    1.24    0.35
   1  -5  11   36.85    1.42
   2  -5  11    1.87    0.45
  -3   5 -11   11.86    0.56
   3  -5  11   12.45    0.86
   2   4 -11   32.41    1.43
  -2  -4  11   31.79    1.39
   1   4 -11    2.17    0.45
  -1  -4  11    2.16    0.45
   0   4 -11   18.09    0.99
   0  -4  11   17.73    0.96
  -2   4 -11    8.09    0.36
   2  -4  11    8.17    0.69
  -3   4 -11   22.77    0.79
   3  -4  11   22.24    1.10
  -4   4 -11    1.78    0.31
   4  -4  11    2.02    0.46
   3   3 -11    2.03    0.32
  -3  -3  11    1.66    0.44
   2   3 -11   28.51    1.31
  -2  -3  11   28.26    1.28
   1   3 -11    1.74    0.41
  -1  -3  11    1.48    0.38
   0   3 -11   36.41    1.38
  -1   3 -11   31.43    1.29
  -2   3 -11    2.20    0.23
  -3   3 -11   55.37    1.41
   3  -3  11   53.00    1.78
  -4   3 -11    4.63    0.47
   4  -3  11    4.76    0.64
   3   2 -11   18.81    1.11
   3   2 -11   17.13    0.78
  -3  -2  11   19.44    1.09
   2   2 -11   15.19    0.55
   2   2 -11   14.83    0.93
  -2  -2  11   15.26    0.91
   1   2 -11    1.03    0.33
   1   2 -11    1.08    0.28
  -1  -2  11    0.80    0.30
   0   2 -11   40.08    1.46
  -1   2 -11   13.09    0.77
  -2   2 -11    9.23    1.25
  -2   2 -11    8.43    0.38
  -3   2 -11   15.37    0.62
   3  -2  11   14.79    0.83
   3  -2  11   16.89    0.89
  -4   2 -11    2.63    0.35
   4  -2  11    3.14    0.51
  -5   2 -11    6.62    0.52
   5  -2  11    6.22    0.73
   3   1 -11   21.50    0.90
   3   1 -11   24.57    1.25
  -3  -1  11   24.93    1.21
   2   1 -11   32.00    0.91
   2   1 -11   28.65    1.31
  -2  -1  11   29.52    1.29
   1   1 -11    0.34    0.25
   1   1 -11    0.35    0.09
   1   1 -11    0.41    0.20
   0   1 -11   71.96    2.01
   0   1 -11   75.98    2.16
  -1   1 -11   13.81    0.43
  -1   1 -11   13.13    0.83
  -1   1 -11   14.68    0.80
  -1   1 -11   14.19    0.74
   1  -1  11   12.16    0.84
   1  -1  11   13.58    0.76
  -2   1 -11   39.03    1.37
  -2   1 -11   46.89    2.08
  -2   1 -11   38.20    1.01
  -3   1 -11   32.74    0.99
   3  -1  11   33.65    1.29
  -4   1 -11    2.62    0.34
   4  -1  11    3.32    0.50
  -5   1 -11   23.84    0.98
   5  -1  11   23.82    1.13
   4   0 -11    0.07    0.20
  -4   0  11    0.29    0.29
   3   0 -11    6.11    0.50
   3   0 -11    6.82    0.80
  -3   0  11    7.53    0.69
   2   0 -11   26.90    0.87
   2   0 -11   28.81    1.09
   2   0 -11   26.08    1.23
  -2   0  11   27.05    1.21
   1   0 -11   28.50    1.23
   1   0 -11   29.26    1.10
   1   0 -11   29.05    0.78
   0   0 -11   54.89    1.89
   0   0 -11   58.88    1.26
   0   0 -11   58.85    1.73
   0   0 -11   58.77    1.80
   0   0 -11   59.57    1.70
   0   0  11   55.33    1.70
   0   0  11   54.89    1.89
  -1   0 -11    2.50    0.42
  -1   0 -11    2.86    0.41
  -1   0 -11    2.60    0.46
  -1   0 -11    2.32    0.19
  -1   0 -11    2.47    0.38
   1   0  11    1.97    0.40
   1   0  11    2.12    0.36
  -2   0 -11   21.83    0.69
  -2   0 -11   23.22    1.01
  -2   0 -11   21.38    0.94
  -2   0 -11   21.01    1.07
  -3   0 -11   69.56    2.00
  -3   0 -11   70.86    1.72
  -4   0 -11    4.14    0.43
   4   0  11    4.56    0.56
  -5   0 -11   43.86    1.40
   5   0  11   43.49    1.54
   4  -1 -11    1.93    0.52
   4  -1 -11    0.83    0.29
  -4   1  11    2.25    0.53
   3  -1 -11   34.73    1.50
   3  -1 -11   33.41    1.19
  -3   1  11   35.04    1.44
   2  -1 -11   12.09    0.69
   2  -1 -11   11.14    0.55
   2  -1 -11   10.21    0.77
  -2   1  11   10.97    0.77
   1  -1 -11   52.59    1.27
   1  -1 -11   52.26    1.56
   1  -1 -11   49.77    1.72
   0  -1 -11   54.28    1.24
   0  -1 -11   51.25    1.67
   0  -1 -11   53.92    1.63
   0  -1 -11   53.12    1.80
   0  -1 -11   55.06    1.60
   0   1  11   52.70    1.61
   0   1  11   51.04    1.79
  -1  -1 -11    1.76    0.21
  -1  -1 -11    1.96    0.42
  -1  -1 -11    2.57    0.44
  -1  -1 -11    1.84    0.34
  -1  -1 -11    1.49    0.30
   1   1  11    2.10    0.36
   1   1  11    2.39    0.46
  -2  -1 -11   94.24    2.65
  -2  -1 -11   98.50    2.53
  -2  -1 -11   97.48    2.13
  -2  -1 -11   96.94    2.46
  -3  -1 -11   25.59    0.86
  -3  -1 -11   27.39    1.10
  -4  -1 -11   19.16    0.79
  -4  -1 -11   20.51    0.97
  -5  -1 -11   21.41    0.91
   5   1  11   19.75    0.97
   4  -2 -11    2.33    0.54
   4  -2 -11    1.55    0.35
  -4   2  11    2.19    0.48
   3  -2 -11   51.45    1.87
   3  -2 -11   49.16    1.53
  -3   2  11   50.23    1.79
   2  -2 -11    4.23    0.44
   2  -2 -11    4.10    0.51
   2  -2 -11    3.85    0.57
   1  -2 -11   13.23    0.54
   1  -2 -11   13.31    0.89
   1  -2 -11   13.28    0.71
   1  -2 -11   12.66    0.80
   1  -2 -11   14.09    0.79
  -1   2  11   11.42    0.69
  -1   2  11   13.41    0.84
   0  -2 -11   40.15    1.03
   0  -2 -11   39.36    1.49
   0  -2 -11   38.79    1.28
   0  -2 -11   41.05    1.42
   0  -2 -11   40.00    1.33
   0   2  11   39.57    1.33
   0   2  11   36.56    1.45
  -1  -2 -11    0.73    0.25
  -1  -2 -11    0.78    0.15
  -1  -2 -11    1.15    0.29
  -1  -2 -11    1.18    0.34
  -1  -2 -11    0.72    0.22
  -2  -2 -11  106.85    2.71
  -2  -2 -11  104.62    2.62
  -2  -2 -11  109.32    2.35
  -2  -2 -11  107.69    2.84
  -2  -2 -11  108.23    2.63
  -3  -2 -11    2.34    0.40
  -3  -2 -11    1.97    0.37
  -3  -2 -11    2.05    0.46
  -3  -2 -11    1.98    0.29
   3   2  11    2.00    0.25
  -4  -2 -11   25.12    0.94
  -4  -2 -11   26.44    1.13
  -5  -2 -11   40.82    1.33
  -5  -2 -11   39.23    1.50
   5   2  11   39.19    1.63
   4  -3 -11    5.53    0.77
   4  -3 -11    7.28    0.62
  -4   3  11    7.36    0.84
   3  -3 -11   23.88    1.24
   3  -3 -11   23.96    1.01
   3  -3 -11   24.97    1.06
  -3   3  11   26.04    1.22
   2  -3 -11    0.92    0.23
   2  -3 -11    1.42    0.32
   2  -3 -11    0.93    0.35
   1  -3 -11   59.38    1.78
   1  -3 -11   55.98    1.95
   1  -3 -11   54.63    1.80
   1  -3 -11   57.49    1.47
   1  -3 -11   60.87    1.72
  -1   3  11   56.94    1.89
  -1   3  11   55.94    1.69
   0  -3 -11   24.53    0.99
   0  -3 -11   25.73    1.08
   0  -3 -11   24.94    1.13
   0  -3 -11   25.31    0.98
   0  -3 -11   24.31    0.77
   0   3  11   22.81    0.97
   0   3  11   24.34    1.12
  -1  -3 -11   25.55    0.99
  -1  -3 -11   26.26    0.99
  -1  -3 -11   26.03    1.07
  -1  -3 -11   25.54    0.80
  -1  -3 -11   25.56    1.13
  -2  -3 -11   38.72    1.43
  -2  -3 -11   37.32    1.26
  -2  -3 -11   38.43    1.26
  -2  -3 -11   38.74    1.09
  -2  -3 -11   37.06    1.33
   2   3  11   39.28    0.97
   2   3  11   38.46    0.98
  -3  -3 -11    1.92    0.28
  -3  -3 -11    2.03    0.33
  -3  -3 -11    1.49    0.32
  -3  -3 -11    1.65    0.35
  -3  -3 -11    3.02    0.47
   3   3  11    1.41    0.27
   3   3  11    1.52    0.31
  -4  -3 -11   37.33    1.40
  -4  -3 -11   37.00    1.19
  -5  -3 -11   26.72    1.05
  -5  -3 -11   28.38    1.25
  -6  -3 -11    3.93    0.65
   6   3  11    4.41    0.59
   4  -4 -11   13.53    0.81
   4  -4 -11   12.94    0.98
  -4   4  11   14.39    0.95
   3  -4 -11   33.37    1.49
   3  -4 -11   36.16    1.27
   3  -4 -11   35.07    1.30
  -3   4  11   33.94    1.43
   2  -4 -11    1.88    0.37
   2  -4 -11    1.56    0.29
   2  -4 -11    1.98    0.45
   1  -4 -11  103.10    2.62
   1  -4 -11  102.97    2.86
   1  -4 -11  104.23    2.56
   1  -4 -11  102.53    2.35
   1  -4 -11   95.30    2.67
  -1   4  11  100.44    2.54
  -1   4  11  100.42    2.76
  -1   4  11  102.88    2.21
  -1   4  11  102.19    2.18
   0  -4 -11   45.86    1.42
   0  -4 -11   44.07    1.40
   0  -4 -11   44.68    1.52
   0  -4 -11   45.41    1.22
   0  -4 -11   45.18    1.57
   0   4  11   44.89    1.10
   0   4  11   44.78    1.09
   0   4  11   42.27    1.55
   0   4  11   42.57    1.40
  -1  -4 -11   45.20    1.50
  -1  -4 -11   47.89    1.60
  -1  -4 -11   44.27    1.22
  -1  -4 -11   46.06    1.41
  -1  -4 -11   46.09    1.42
   1   4  11   45.33    1.12
   1   4  11   45.66    1.11
  -2  -4 -11   81.85    2.14
  -2  -4 -11   83.84    2.27
  -2  -4 -11   83.05    2.14
  -2  -4 -11   81.75    2.33
  -2  -4 -11   83.11    1.98
   2   4  11   84.75    1.85
   2   4  11   85.65    1.83
  -3  -4 -11    6.24    0.56
  -3  -4 -11    6.39    0.43
  -3  -4 -11    6.79    0.64
  -3  -4 -11    6.88    0.75
  -3  -4 -11    5.57    0.47
  -4  -4 -11   72.21    1.86
  -4  -4 -11   66.71    2.06
  -5  -4 -11   12.16    0.86
   5   4  11   14.39    0.73
  -6  -4 -11   19.09    1.14
   6   4  11   20.46    0.95
   4  -5 -11   21.70    1.04
   4  -5 -11   21.24    1.05
   3  -5 -11   20.21    0.98
   3  -5 -11   18.28    1.09
   3  -5 -11   18.64    0.90
  -3   5  11   20.77    1.08
   2  -5 -11    5.76    0.71
   2  -5 -11    6.34    0.50
   2  -5 -11    6.97    0.56
  -2   5  11    7.08    0.54
  -2   5  11    6.80    0.63
   1  -5 -11   32.78    1.21
   1  -5 -11   32.60    1.32
   1  -5 -11   35.53    1.43
   1  -5 -11   33.62    1.24
   1  -5 -11   33.70    1.09
  -1   5  11   35.35    1.00
  -1   5  11   33.57    1.19
  -1   5  11   35.15    0.98
  -1   5  11   34.66    1.36
   0  -5 -11    8.63    0.57
   0  -5 -11    8.94    0.49
   0  -5 -11    9.48    0.67
   0  -5 -11    8.34    0.64
   0  -5 -11    9.08    0.57
   0   5  11    8.81    0.58
   0   5  11    9.03    0.44
   0   5  11   10.46    0.71
   0   5  11    9.34    0.46
  -1  -5 -11   47.29    1.45
  -1  -5 -11   45.25    1.53
  -1  -5 -11   45.68    1.28
  -1  -5 -11   47.92    1.44
  -1  -5 -11   48.95    1.62
   1   5  11   48.26    1.18
   1   5  11   48.24    1.19
  -2  -5 -11   60.68    1.87
  -2  -5 -11   60.67    1.69
  -2  -5 -11   61.29    1.58
  -2  -5 -11   57.90    1.79
  -2  -5 -11   61.39    1.70
   2   5  11   61.76    1.44
   2   5  11   59.45    1.45
  -3  -5 -11    0.46    0.17
  -3  -5 -11    0.34    0.21
  -3  -5 -11    0.08    0.21
  -3  -5 -11    0.25    0.16
  -3  -5 -11    0.33    0.18
  -4  -5 -11   31.49    1.30
  -4  -5 -11   32.72    1.12
   4   5  11   31.63    1.06
  -5  -5 -11    7.77    0.73
  -5  -5 -11    7.37    0.47
   5   5  11    7.20    0.57
  -6  -5 -11   12.30    0.93
   6   5  11   12.21    0.74
   4  -6 -11   28.89    1.29
   4  -6 -11   29.37    1.29
   3  -6 -11    2.18    0.45
   3  -6 -11    2.79    0.54
   3  -6 -11    2.89    0.46
  -3   6  11    2.11    0.44
   2  -6 -11   21.29    0.99
   2  -6 -11   19.79    1.08
   2  -6 -11   20.80    0.90
  -2   6  11   19.53    0.88
  -2   6  11   20.83    1.03
   1  -6 -11   70.24    2.07
   1  -6 -11   72.53    2.00
   1  -6 -11   68.36    2.10
   1  -6 -11   69.92    1.92
   1  -6 -11   75.13    1.90
   1  -6 -11   75.63    2.22
   1  -6 -11   73.74    2.03
  -1   6  11   70.25    2.11
  -1   6  11   75.68    1.96
   0  -6 -11    5.04    0.54
   0  -6 -11    4.13    0.51
   0  -6 -11    4.57    0.38
   0  -6 -11    4.32    0.58
   0  -6 -11    4.11    0.58
   0   6  11    5.23    0.41
   0   6  11    4.86    0.46
   0   6  11    5.17    0.57
   0   6  11    3.62    0.53
  -1  -6 -11  110.37    2.83
  -1  -6 -11  111.08    2.63
  -1  -6 -11  106.86    2.76
  -1  -6 -11  109.27    2.51
  -1  -6 -11  112.16    2.67
   1   6  11  110.38    2.36
   1   6  11  109.71    2.38
  -2  -6 -11   22.26    0.90
  -2  -6 -11   20.95    0.99
  -2  -6 -11   22.81    1.03
  -2  -6 -11   22.82    0.92
  -2  -6 -11   23.64    0.85
   2   6  11   23.74    0.84
   2   6  11   24.31    0.92
   2   6  11   24.09    0.87
  -3  -6 -11   61.71    1.74
  -3  -6 -11   66.47    1.79
  -3  -6 -11   65.26    1.48
  -3  -6 -11   62.02    1.68
  -3  -6 -11   61.96    1.92
  -3  -6 -11   62.00    1.94
   3   6  11   61.49    1.64
  -4  -6 -11   89.23    2.00
  -4  -6 -11   86.50    2.51
   4   6  11   90.73    2.20
  -5  -6 -11    0.04    0.27
  -5  -6 -11    0.40    0.24
   5   6  11    0.69    0.31
  -6  -6 -11   22.13    0.86
  -6  -6 -11   19.58    1.18
   6   6  11   22.12    0.98
   4  -7 -11   15.68    0.96
   3  -7 -11    4.24    0.62
   3  -7 -11    2.45    0.52
   2  -7 -11   17.15    0.91
   2  -7 -11   18.78    0.85
   2  -7 -11   15.26    0.96
   1  -7 -11   77.19    2.88
   1  -7 -11   77.96    2.66
   1  -7 -11   72.41    2.18
   1  -7 -11   73.99    1.97
   1  -7 -11   75.87    2.12
   0  -7 -11    4.67    0.49
   0  -7 -11    3.79    0.48
   0  -7 -11    5.43    0.64
   0  -7 -11    4.99    0.52
   0  -7 -11    4.49    0.57
   0   7  11    5.05    0.49
   0   7  11    4.40    0.48
   0   7  11    4.58    0.57
  -1  -7 -11   58.59    1.83
  -1  -7 -11   61.01    1.85
  -1  -7 -11   60.22    1.63
  -1  -7 -11   60.97    1.41
  -1  -7 -11   59.40    1.72
  -1  -7 -11   61.47    1.68
   1   7  11   60.51    1.74
   1   7  11   61.47    1.60
   1   7  11   65.54    1.81
  -2  -7 -11   28.39    1.03
  -2  -7 -11   26.84    1.14
  -2  -7 -11   27.69    1.16
  -2  -7 -11   29.96    0.85
  -2  -7 -11   29.71    1.00
  -2  -7 -11   29.55    1.07
   2   7  11   28.13    0.97
  -3  -7 -11   27.23    1.17
  -3  -7 -11   27.20    1.02
  -3  -7 -11   26.23    1.15
  -3  -7 -11   26.45    0.84
   3   7  11   25.98    0.93
  -4  -7 -11   96.57    2.74
  -4  -7 -11  100.19    2.27
   4   7  11  102.41    2.40
  -5  -7 -11    0.00    0.26
  -5  -7 -11   -0.01    0.21
   5   7  11    0.24    0.27
  -6  -7 -11   39.72    1.72
  -6  -7 -11   38.07    1.25
   6   7  11   39.97    1.33
   4  -8 -11   13.80    0.95
  -4   8  11   14.30    0.84
   3  -8 -11    3.72    0.61
  -3   8  11    4.58    0.58
   2  -8 -11   36.87    1.43
  -2   8  11   38.00    1.24
   1  -8 -11   11.14    0.72
   1  -8 -11   11.90    0.51
   1  -8 -11    8.82    0.71
  -1   8  11   10.96    0.63
   0  -8 -11   11.30    0.51
   0  -8 -11   12.03    0.71
   0  -8 -11   12.12    0.76
   0  -8 -11   10.55    0.72
   0   8  11   11.02    0.62
  -1  -8 -11   32.26    1.26
  -1  -8 -11   32.78    1.18
  -1  -8 -11   33.85    0.96
   1   8  11   34.08    1.08
  -2  -8 -11    3.29    0.35
  -2  -8 -11    3.06    0.48
  -2  -8 -11    2.04    0.33
  -2  -8 -11    2.63    0.40
  -2  -8 -11    2.95    0.48
   2   8  11    3.17    0.40
  -3  -8 -11   30.55    1.11
  -3  -8 -11   31.46    0.98
  -3  -8 -11   31.09    1.26
  -3  -8 -11   29.37    1.26
   3   8  11   32.45    1.08
  -4  -8 -11    2.37    0.36
  -4  -8 -11    2.16    0.45
   4   8  11    2.65    0.42
  -5  -8 -11    8.00    0.57
  -5  -8 -11    7.31    0.82
   5   8  11    7.51    0.59
   3  -9 -11    0.62    0.32
  -3   9  11    0.28    0.29
   2  -9 -11   51.07    1.34
   2  -9 -11   49.62    1.74
  -2   9  11   49.12    1.49
   1  -9 -11   11.25    0.56
   1  -9 -11   10.70    0.73
  -1   9  11   12.22    0.66
   0  -9 -11   13.91    0.61
   0  -9 -11   13.38    0.77
   0  -9 -11   13.03    0.80
   0   9  11   14.09    0.69
  -1  -9 -11   82.50    2.21
  -1  -9 -11   79.36    2.29
  -1  -9 -11   84.91    1.96
   1   9  11   86.78    2.07
  -2  -9 -11    0.09    0.22
  -2  -9 -11    0.44    0.21
  -2  -9 -11    0.39    0.20
   2   9  11    0.14    0.27
   2   9  11    0.51    0.24
   2   9  11    0.40    0.32
  -3  -9 -11   91.09    2.58
  -3  -9 -11   90.09    2.16
   3   9  11   90.56    2.19
  -4  -9 -11   13.97    0.92
  -4  -9 -11   13.45    0.70
   4   9  11   13.92    0.72
  -5  -9 -11   16.63    1.06
  -5  -9 -11   15.29    0.78
   5   9  11   15.12    0.77
   3 -10 -11    9.46    0.61
   3 -10 -11    8.59    0.95
  -3  10  11    9.68    0.69
   2 -10 -11   35.36    1.12
   2 -10 -11   34.06    1.45
  -2  10  11   34.68    1.20
   1 -10 -11    8.22    0.69
   1 -10 -11    8.70    0.55
  -1  10  11    8.09    0.58
   0 -10 -11   25.34    1.10
   0 -10 -11   26.22    0.91
   0  10  11   26.35    0.95
  -1 -10 -11   53.49    1.77
  -1 -10 -11   57.33    1.73
  -1 -10 -11   56.96    1.52
   1  10  11   58.00    1.55
  -2 -10 -11    1.85    0.41
  -2 -10 -11    2.48    0.37
   2  10  11    2.21    0.38
  -3 -10 -11   29.47    1.03
  -3 -10 -11   28.40    1.29
   3  10  11   29.55    1.01
  -4 -10 -11   36.49    1.54
  -4 -10 -11   37.67    1.24
   4  10  11   36.78    1.16
  -5 -10 -11    4.58    0.55
  -5 -10 -11    3.87    0.66
   5  10  11    5.11    0.52
   3 -11 -11   10.12    0.67
   3 -11 -11    8.55    0.98
  -3  11  11    7.73    0.66
   2 -11 -11   24.31    0.96
   2 -11 -11   23.99    1.23
  -2  11  11   24.88    0.99
   1 -11 -11   -0.01    0.22
   1 -11 -11    0.22    0.25
  -1  11  11    0.41    0.26
   0 -11 -11   56.01    1.54
   0 -11 -11   54.42    1.79
   0  11  11   55.17    1.52
  -1 -11 -11   26.59    0.99
  -1 -11 -11   26.28    1.11
   1  11  11   28.66    0.97
  -2 -11 -11   16.86    0.78
  -2 -11 -11   16.33    0.94
   2  11  11   17.32    0.75
  -3 -11 -11   30.57    1.37
  -3 -11 -11   32.19    1.12
   3  11  11   31.60    1.04
  -4 -11 -11    0.68    0.33
  -4 -11 -11    0.91    0.37
   4  11  11    1.39    0.34
   2 -12 -11    9.76    0.68
   2 -12 -11    9.41    0.83
  -2  12  11    9.91    0.65
   1 -12 -11    0.65    0.33
   1 -12 -11    0.87    0.32
  -1  12  11    0.51    0.29
   0 -12 -11   30.88    1.31
   0 -12 -11   33.28    1.15
   0  12  11   32.96    1.06
  -1 -12 -11    4.81    0.55
   1  12  11    5.06    0.50
  -2 -12 -11   16.34    0.81
   2  12  11   16.98    0.71
  -3 -12 -11   53.62    1.62
  -3 -12 -11   52.50    1.58
  -3 -12 -11   51.42    1.88
  -3 -12 -11   52.36    1.66
  -4 -12 -11    0.70    0.32
  -4 -12 -11    0.66    0.35
   1 -13 -11    2.06    0.49
   1 -13 -11    1.47    0.38
  -1  13  11    1.23    0.31
   0 -13 -11   29.31    1.13
   0 -13 -11   28.69    1.29
   0  13  11   31.42    0.99
  -1 -13 -11    0.40    0.28
  -2 -13 -11   22.64    1.00
  -3 -13 -11   19.40    0.96
  -3 -13 -11   23.13    1.08
  -3 -13 -11   21.02    0.98
   0 -14 -11   23.03    1.03
   0 -14 -11   21.05    1.18
  -1 -14 -11    4.35    0.59
   1  -5  12    0.85    0.36
   2  -5  12   12.49    0.87
   1   4 -12   11.53    0.86
  -1  -4  12   12.18    0.85
  -2   4 -12   23.68    0.71
   2  -4  12   22.55    1.12
  -3   4 -12    0.49    0.17
   3  -4  12    0.05    0.25
   2   3 -12    1.95    0.51
  -2  -3  12    1.27    0.42
   1   3 -12   23.20    1.19
  -1  -3  12   23.44    1.16
   0   3 -12    3.98    0.60
  -2   3 -12   31.39    0.87
  -3   3 -12    0.59    0.18
   3  -3  12    0.48    0.27
  -4   3 -12   23.52    0.91
   4  -3  12   21.74    1.13
   2   2 -12    6.89    0.41
   2   2 -12    6.61    0.79
  -2  -2  12    6.65    0.77
   1   2 -12   44.74    1.67
  -1  -2  12   43.04    1.62
   0   2 -12    0.08    0.23
  -1   2 -12   18.52    0.97
  -2   2 -12   15.86    0.57
  -3   2 -12    4.07    0.34
   3  -2  12    4.18    0.60
  -4   2 -12   29.49    1.04
   4  -2  12   30.50    1.31
   3   1 -12    1.09    0.40
   3   1 -12    1.47    0.34
  -3  -1  12    1.95    0.45
   2   1 -12   10.51    0.84
   2   1 -12   11.19    0.53
  -2  -1  12   13.14    0.89
   1   1 -12   28.14    0.75
   1   1 -12   26.64    1.26
   1   1 -12   28.43    1.14
   0   1 -12    0.55    0.29
   0   1 -12    0.30    0.09
   0   1 -12    0.23    0.19
  -1   1 -12   46.48    1.09
  -1   1 -12   45.53    1.57
  -2   1 -12   12.33    0.50
  -2   1 -12   12.33    0.78
  -3   1 -12   26.70    0.89
  -4   1 -12   34.89    1.15
   4  -1  12   33.99    1.38
  -5   1 -12    0.34    0.21
   5  -1  12    0.26    0.24
   3   0 -12    1.69    0.47
   3   0 -12    2.30    0.41
  -3   0  12    2.39    0.48
   2   0 -12   18.28    0.72
   2   0 -12   17.29    1.04
  -2   0  12   17.59    1.01
   1   0 -12   21.42    1.12
   1   0 -12   24.78    1.04
   1   0 -12   25.54    0.74
   0   0 -12    6.30    0.31
   0   0 -12    5.91    0.68
   0   0 -12    6.06    0.53
  -1   0 -12   62.71    1.90
  -1   0 -12   57.78    1.78
  -1   0 -12   59.65    1.38
  -2   0 -12    6.02    0.35
  -2   0 -12    5.68    0.62
  -3   0 -12   15.98    0.66
  -3   0 -12   16.92    0.90
  -4   0 -12   18.48    0.79
   4   0  12   19.85    0.98
   5   0  12   -0.02    0.22
   3  -1 -12    0.61    0.35
   3  -1 -12    0.64    0.27
  -3   1  12    0.42    0.30
   2  -1 -12   40.29    1.22
   2  -1 -12   41.27    1.41
   2  -1 -12   39.38    1.60
  -2   1  12   40.87    1.59
   1  -1 -12   19.93    1.05
   1  -1 -12   20.39    0.94
   1  -1 -12   20.84    0.70
   0  -1 -12   12.20    0.71
   0  -1 -12   11.89    0.77
   0  -1 -12   11.44    0.46
  -1  -1 -12   33.39    0.93
  -1  -1 -12   33.23    1.31
  -1  -1 -12   35.74    1.26
  -2  -1 -12    2.89    0.42
  -2  -1 -12    3.01    0.31
  -2  -1 -12    3.11    0.48
  -3  -1 -12   33.50    1.05
  -3  -1 -12   35.21    1.33
  -4  -1 -12   14.87    0.87
  -4  -1 -12   13.87    0.69
  -5  -1 -12    7.23    0.55
   5   1  12    6.86    0.71
   3  -2 -12    2.12    0.55
   3  -2 -12    1.85    0.36
  -3   2  12    1.99    0.50
   2  -2 -12   48.63    1.42
   2  -2 -12   48.14    1.81
   2  -2 -12   48.59    1.58
   1  -2 -12    5.49    0.37
   1  -2 -12    4.52    0.59
   1  -2 -12    5.73    0.51
   0  -2 -12   25.37    0.77
   0  -2 -12   23.63    1.00
   0  -2 -12   22.01    1.07
  -1  -2 -12   46.03    1.47
  -1  -2 -12   46.35    1.50
  -1  -2 -12   47.50    1.70
  -1  -2 -12   47.25    1.59
  -1  -2 -12   45.19    1.17
   1   2  12   41.69    1.49
   1   2  12   39.81    1.64
  -2  -2 -12    0.05    0.11
  -2  -2 -12    0.19    0.21
  -2  -2 -12    0.40    0.20
  -3  -2 -12   55.03    1.49
  -3  -2 -12   57.39    1.80
  -4  -2 -12   18.33    0.79
  -4  -2 -12   18.21    0.97
  -5  -2 -12   14.75    0.75
  -5  -2 -12   12.97    0.88
   5   2  12   12.46    0.79
   4  -3 -12   22.76    1.11
   4  -3 -12   23.04    1.35
  -4   3  12   25.25    1.32
   3  -3 -12    4.99    0.72
   3  -3 -12    5.43    0.60
   3  -3 -12    5.53    0.66
  -3   3  12    6.18    0.73
   2  -3 -12   22.64    0.89
   2  -3 -12   21.29    1.16
   2  -3 -12   23.54    1.03
   1  -3 -12    3.56    0.57
   1  -3 -12    3.94    0.40
   1  -3 -12    3.44    0.48
   0  -3 -12   49.75    1.30
   0  -3 -12   50.91    1.77
   0  -3 -12   49.31    1.55
   0  -3 -12   49.71    1.58
   0  -3 -12   46.97    1.65
   0   3  12   50.37    1.78
   0   3  12   48.09    1.56
  -1  -3 -12   80.82    2.37
  -1  -3 -12   76.92    2.13
  -1  -3 -12   81.44    1.88
  -1  -3 -12   79.73    2.27
  -1  -3 -12   79.69    2.15
  -2  -3 -12   17.23    0.84
  -2  -3 -12   16.94    0.89
  -2  -3 -12   17.05    1.02
  -2  -3 -12   18.35    0.92
  -2  -3 -12   17.35    0.68
   2   3  12   17.91    0.59
   2   3  12   17.79    0.60
  -3  -3 -12   51.45    1.71
  -3  -3 -12   52.08    1.62
  -3  -3 -12   50.49    1.42
  -4  -3 -12   10.02    0.74
  -4  -3 -12    9.82    0.58
  -5  -3 -12   10.79    0.67
  -5  -3 -12   11.86    0.86
   4  -4 -12    2.11    0.51
   4  -4 -12    2.99    0.51
  -4   4  12    3.00    0.57
   3  -4 -12   13.56    0.80
   3  -4 -12   14.74    1.02
   3  -4 -12   15.06    0.85
  -3   4  12   15.26    0.98
   2  -4 -12   29.82    1.18
   2  -4 -12   29.59    1.37
   2  -4 -12   29.33    1.08
   1  -4 -12    0.39    0.22
   1  -4 -12    0.30    0.16
   1  -4 -12    0.36    0.25
  -1   4  12    0.45    0.18
  -1   4  12    0.59    0.19
   0  -4 -12   50.28    1.57
   0  -4 -12   50.42    1.35
   0  -4 -12   48.82    1.55
   0  -4 -12   49.90    1.75
   0  -4 -12   48.45    1.67
   0   4  12   51.57    1.21
   0   4  12   50.58    1.22
   0   4  12   47.65    1.55
   0   4  12   44.27    1.68
  -1  -4 -12   23.54    1.11
  -1  -4 -12   22.22    0.78
  -1  -4 -12   21.93    0.94
  -1  -4 -12   21.98    0.95
  -1  -4 -12   19.41    0.98
   1   4  12   22.23    0.68
   1   4  12   22.66    0.70
  -2  -4 -12   20.98    1.01
  -2  -4 -12   21.77    0.94
  -2  -4 -12   22.90    1.09
  -2  -4 -12   21.47    0.94
  -2  -4 -12   21.60    0.80
   2   4  12   23.37    0.75
   2   4  12   22.89    0.77
  -3  -4 -12   62.75    1.67
  -3  -4 -12   62.72    1.95
  -3  -4 -12   63.98    1.84
  -4  -4 -12    3.13    0.42
  -4  -4 -12    2.19    0.46
  -5  -4 -12   36.63    1.52
  -6  -4 -12   12.95    0.98
   6   4  12   12.69    0.79
   4  -5 -12   -0.02    0.32
   4  -5 -12    0.11    0.25
  -4   5  12    0.03    0.29
   3  -5 -12   18.63    1.15
   3  -5 -12   20.66    0.98
   3  -5 -12   19.48    0.99
  -3   5  12   20.07    1.12
   2  -5 -12   42.98    1.72
   2  -5 -12   48.83    1.50
   2  -5 -12   49.35    1.62
   1  -5 -12    4.16    0.56
   1  -5 -12    4.24    0.47
   1  -5 -12    4.56    0.68
   1  -5 -12    4.53    0.56
   1  -5 -12    4.43    0.60
  -1   5  12    4.70    0.66
  -1   5  12    4.79    0.56
   0  -5 -12   62.23    1.99
   0  -5 -12   61.43    1.81
   0  -5 -12   63.49    1.81
   0  -5 -12   59.07    1.92
   0  -5 -12   61.40    1.61
   0   5  12   61.39    1.58
   0   5  12   58.09    1.77
   0   5  12   60.07    1.98
   0   5  12   63.48    1.63
  -1  -5 -12    0.27    0.14
  -1  -5 -12    0.37    0.22
  -1  -5 -12    0.65    0.24
  -1  -5 -12    0.94    0.31
   1   5  12    0.95    0.20
   1   5  12    0.89    0.20
  -2  -5 -12   22.18    1.06
  -2  -5 -12   21.11    0.92
  -2  -5 -12   20.77    0.91
  -2  -5 -12   21.62    0.81
  -2  -5 -12   19.48    0.98
  -3  -5 -12   45.50    1.47
  -3  -5 -12   46.93    1.63
  -3  -5 -12   47.11    1.39
  -4  -5 -12    4.96    0.61
  -4  -5 -12    5.70    0.47
  -5  -5 -12   51.98    1.87
   5   5  12   51.72    1.56
  -6  -5 -12    3.72    0.66
   6   5  12    4.69    0.61
   4  -6 -12    0.59    0.27
   4  -6 -12    0.10    0.28
   3  -6 -12   17.67    0.97
   3  -6 -12   16.81    1.08
   3  -6 -12   17.84    0.91
  -3   6  12   16.04    1.00
   2  -6 -12   10.84    0.86
   2  -6 -12   10.58    0.68
   2  -6 -12   11.39    0.75
   1  -6 -12    7.29    0.72
   1  -6 -12    8.13    0.53
   1  -6 -12    8.35    0.73
   1  -6 -12    7.89    0.60
   1  -6 -12    7.63    0.68
  -1   6  12    6.89    0.64
  -1   6  12    8.22    0.59
   0  -6 -12   80.82    2.35
   0  -6 -12   80.79    2.01
   0  -6 -12   77.01    2.29
   0  -6 -12   79.71    2.18
   0  -6 -12   82.29    2.15
   0   6  12   78.22    2.34
   0   6  12   78.62    2.14
  -1  -6 -12   11.83    0.59
  -1  -6 -12    9.99    0.70
  -1  -6 -12   10.82    0.75
  -1  -6 -12   10.42    0.65
  -1  -6 -12   12.25    0.68
  -2  -6 -12   48.85    1.68
  -2  -6 -12   47.15    1.49
  -2  -6 -12   45.01    1.60
  -2  -6 -12   48.80    1.39
  -2  -6 -12   49.60    1.52
  -3  -6 -12   31.59    1.33
  -3  -6 -12   33.52    1.21
  -3  -6 -12   35.54    1.15
  -4  -6 -12   12.00    0.84
   4   6  12   12.06    0.68
  -5  -6 -12   36.05    1.57
   5   6  12   39.10    1.30
   3  -7 -12   25.50    1.14
   3  -7 -12   27.97    1.26
   2  -7 -12    7.11    0.84
   2  -7 -12    6.54    0.74
   2  -7 -12    7.01    0.56
   1  -7 -12   21.73    1.01
   1  -7 -12   19.28    1.04
   1  -7 -12   21.58    0.91
   0  -7 -12   44.37    1.34
   0  -7 -12   40.53    1.52
   0  -7 -12   43.26    1.38
   0  -7 -12   40.85    1.43
   0  -7 -12   43.12    1.55
   0   7  12   42.19    1.38
   0   7  12   43.03    1.56
  -1  -7 -12    2.33    0.34
  -1  -7 -12    2.59    0.42
  -1  -7 -12    2.87    0.50
  -1  -7 -12    2.78    0.49
  -1  -7 -12    2.06    0.37
  -2  -7 -12   51.14    1.57
  -2  -7 -12   49.71    1.71
  -2  -7 -12   48.32    1.67
  -2  -7 -12   49.85    1.54
  -2  -7 -12   52.41    1.49
   2   7  12   52.45    1.46
  -3  -7 -12   21.60    1.09
  -3  -7 -12   20.21    0.92
  -3  -7 -12   22.23    0.74
   3   7  12   24.04    0.89
  -4  -7 -12    3.16    0.36
  -4  -7 -12    1.66    0.43
   4   7  12    1.92    0.38
  -5  -7 -12   16.50    1.06
  -5  -7 -12   17.12    0.73
   5   7  12   16.92    0.84
   3  -8 -12   21.17    1.12
   2  -8 -12   12.68    0.84
   1  -8 -12   41.90    1.59
   1  -8 -12   44.14    1.56
   1  -8 -12   44.80    1.45
  -1   8  12   44.11    1.39
   0  -8 -12   24.50    0.97
   0  -8 -12   24.81    1.15
   0  -8 -12   26.07    1.10
   0  -8 -12   25.69    0.76
   0   8  12   26.06    0.98
  -1  -8 -12   13.22    0.74
  -1  -8 -12   12.09    0.80
  -1  -8 -12   13.08    0.83
  -1  -8 -12   13.14    0.54
   1   8  12   13.26    0.68
  -2  -8 -12   67.57    2.08
  -2  -8 -12   71.02    1.65
  -2  -8 -12   67.25    1.89
  -2  -8 -12   65.50    2.09
  -2  -8 -12   70.93    1.96
   2   8  12   72.39    1.85
  -3  -8 -12   12.15    0.57
  -3  -8 -12   10.67    0.79
   3   8  12   11.74    0.67
  -4  -8 -12   34.52    1.48
  -4  -8 -12   34.74    1.08
   4   8  12   34.05    1.19
  -5  -8 -12   24.97    1.31
  -5  -8 -12   26.62    0.97
   5   8  12   25.24    1.04
   3  -9 -12   18.80    1.10
  -3   9  12   19.69    0.97
   2  -9 -12    0.52    0.31
  -2   9  12    0.94    0.34
   1  -9 -12   30.24    1.29
  -1   9  12   31.20    1.11
   0  -9 -12   25.61    1.12
   0  -9 -12   27.96    0.86
   0  -9 -12   24.79    1.17
   0   9  12   25.80    0.99
  -1  -9 -12   11.49    0.71
  -1  -9 -12   12.95    0.58
  -1  -9 -12   11.02    0.77
   1   9  12   12.70    0.69
  -2  -9 -12   66.09    1.62
  -2  -9 -12   63.82    2.03
  -2  -9 -12   61.65    1.84
   2   9  12   64.12    1.73
  -3  -9 -12    3.04    0.53
  -3  -9 -12    3.30    0.40
   3   9  12    2.18    0.39
  -4  -9 -12   46.65    1.80
  -4  -9 -12   47.80    1.38
   4   9  12   48.03    1.46
  -5  -9 -12   52.61    2.01
  -5  -9 -12   53.03    1.56
   5   9  12   56.13    1.63
   3 -10 -12   20.59    1.20
  -3  10  12   24.05    1.05
   2 -10 -12    6.63    0.81
   2 -10 -12    6.95    0.50
  -2  10  12    7.29    0.61
   1 -10 -12   22.59    1.13
   1 -10 -12   25.03    0.87
  -1  10  12   24.09    0.98
   0 -10 -12   12.25    0.80
   0 -10 -12   11.97    0.61
   0  10  12   13.30    0.72
  -1 -10 -12   19.75    0.77
  -1 -10 -12   18.50    0.92
  -1 -10 -12   19.23    1.01
   1  10  12   19.90    0.85
  -2 -10 -12   32.71    1.38
  -2 -10 -12   33.86    1.10
   2  10  12   37.13    1.19
  -3 -10 -12    4.81    0.50
  -3 -10 -12    3.59    0.57
   3  10  12    5.30    0.54
  -4 -10 -12   16.29    1.06
  -4 -10 -12   18.73    0.84
   4  10  12   17.76    0.84
   2 -11 -12    0.58    0.28
   2 -11 -12    0.09    0.28
  -2  11  12    0.48    0.31
   1 -11 -12   27.89    1.01
   1 -11 -12   27.04    1.27
  -1  11  12   29.43    1.08
   0 -11 -12    3.08    0.42
   0 -11 -12    2.85    0.51
   0  11  12    3.15    0.45
  -1 -11 -12   28.53    1.19
  -1 -11 -12   29.38    1.02
   1  11  12   29.44    1.06
  -2 -11 -12   22.45    1.13
  -2 -11 -12   22.29    0.90
   2  11  12   22.20    0.90
  -3 -11 -12    1.85    0.38
  -3 -11 -12    1.84    0.45
   3  11  12    1.71    0.37
  -4 -11 -12   39.18    1.68
  -4 -11 -12   39.07    1.32
   4  11  12   40.11    1.26
   2 -12 -12    5.61    0.78
   2 -12 -12    6.66    0.63
  -2  12  12    5.35    0.58
   1 -12 -12   32.04    1.14
   1 -12 -12   30.51    1.40
  -1  12  12   32.54    1.15
   0 -12 -12    0.10    0.24
   0 -12 -12    0.41    0.26
   0  12  12    0.16    0.27
  -1 -12 -12   28.57    1.06
  -1 -12 -12   26.93    1.18
   1  12  12   28.81    1.02
  -2 -12 -12    9.63    0.65
   2  12  12    9.42    0.60
  -3 -12 -12    0.98    0.35
  -3 -12 -12    1.07    0.41
   3  12  12    1.69    0.35
   1 -13 -12   23.14    1.01
   1 -13 -12   25.19    1.28
  -1  13  12   23.87    0.95
   0 -13 -12    0.71    0.33
   0 -13 -12    0.18    0.29
   0  13  12    0.75    0.30
  -1 -13 -12   34.75    1.25
   1  13  12   37.12    1.14
  -2 -13 -12   13.74    0.79
   2  13  12   13.16    0.66
   1  -4  13    5.27    0.68
  -2   4 -13    2.07    0.26
   2  -4  13    1.74    0.43
   1   3 -13    0.02    0.29
  -1  -3  13    0.25    0.25
   0   3 -13   29.57    1.34
   0  -3  13   29.02    1.33
  -2   3 -13   13.21    0.54
   2  -3  13   13.34    0.87
  -3   3 -13    9.49    0.52
   3  -3  13   10.94    0.82
   2   2 -13   10.01    0.88
   2   2 -13   11.93    0.56
  -2  -2  13   10.08    0.84
   1   2 -13    7.04    0.79
  -1  -2  13    5.65    0.72
   0   2 -13   29.09    1.33
  -1   2 -13    7.72    0.35
  -1   2 -13    8.32    0.73
  -2   2 -13   14.76    0.57
  -3   2 -13    9.79    0.52
   3  -2  13   10.28    0.78
  -4   2 -13    2.05    0.35
   4  -2  13    2.28    0.50
   2   1 -13   11.74    0.59
   2   1 -13   11.84    0.92
  -2  -1  13   13.32    0.94
   1   1 -13   10.97    0.73
   1   1 -13   11.24    0.47
   1   1 -13    9.80    0.84
   0   1 -13   16.76    0.98
   0   1 -13   15.43    0.52
  -1   1 -13    0.23    0.23
  -1   1 -13    0.11    0.10
  -2   1 -13   22.24    1.08
  -2   1 -13   22.66    0.75
  -3   1 -13   35.42    1.10
  -4   1 -13    7.44    0.52
   4  -1  13    6.98    0.77
   2   0 -13    3.27    0.40
   2   0 -13    3.39    0.62
  -2   0  13    3.10    0.55
   1   0 -13    8.51    0.65
   1   0 -13    6.66    0.75
   1   0 -13    7.62    0.41
   0   0 -13   34.04    0.92
   0   0 -13   34.37    1.43
   0   0 -13   34.57    1.32
  -1   0 -13    1.60    0.22
  -1   0 -13    2.17    0.42
  -1   0 -13    1.57    0.36
  -2   0 -13   37.40    1.45
  -2   0 -13   37.02    1.06
  -3   0 -13    9.40    0.52
  -3   0 -13   10.41    0.76
  -4   0 -13    2.40    0.36
   4   0  13    2.68    0.49
  -5   0 -13   23.42    1.00
   5   0  13   21.86    1.14
   3  -1 -13   15.19    1.07
   3  -1 -13   16.17    0.85
  -3   1  13   15.37    1.03
   2  -1 -13   -0.20    0.14
   2  -1 -13   -0.07    0.26
   2  -1 -13    0.08    0.18
  -2   1  13    0.36    0.29
   1  -1 -13   22.56    0.79
   1  -1 -13   21.04    1.16
   1  -1 -13   24.65    1.07
   0  -1 -13   35.97    1.35
   0  -1 -13   37.34    1.02
   0  -1 -13   36.43    1.46
  -1  -1 -13    4.33    0.31
  -1  -1 -13    3.74    0.54
  -1  -1 -13    4.74    0.59
  -2  -1 -13   44.72    1.25
  -2  -1 -13   48.02    1.66
  -3  -1 -13    0.30    0.25
  -3  -1 -13    0.20    0.14
  -4  -1 -13   23.49    1.16
  -4  -1 -13   22.20    0.91
  -5  -1 -13   19.87    0.92
   5   1  13   18.29    1.02
   3  -2 -13   28.92    1.18
   3  -2 -13   28.30    1.46
  -3   2  13   29.75    1.42
   2  -2 -13    0.68    0.35
   2  -2 -13    0.47    0.24
   2  -2 -13    0.96    0.28
   1  -2 -13   51.04    1.37
   1  -2 -13   50.02    1.84
   1  -2 -13   48.25    1.62
   0  -2 -13    7.63    0.42
   0  -2 -13    6.81    0.57
   0  -2 -13    7.33    0.66
  -1  -2 -13   12.07    0.73
  -1  -2 -13   11.31    0.79
  -1  -2 -13   11.77    0.53
  -2  -2 -13   42.29    1.47
  -2  -2 -13   42.67    1.21
  -2  -2 -13   42.87    1.57
  -3  -2 -13    4.70    0.39
  -3  -2 -13    4.24    0.57
  -4  -2 -13   49.85    1.49
  -4  -2 -13   48.19    1.73
  -5  -2 -13   13.85    0.77
   5   2  13   11.68    0.81
   3  -3 -13    7.70    0.64
   3  -3 -13    9.60    0.88
   3  -3 -13    9.76    0.78
  -3   3  13    9.59    0.84
   2  -3 -13    1.49    0.31
   2  -3 -13    1.66    0.38
   2  -3 -13    1.74    0.48
   1  -3 -13   31.51    1.39
   1  -3 -13   31.13    1.04
   1  -3 -13   31.49    1.24
   0  -3 -13    4.73    0.56
   0  -3 -13    5.36    0.38
   0  -3 -13    4.71    0.64
  -1  -3 -13   28.83    1.15
  -1  -3 -13   27.20    1.22
  -1  -3 -13   28.63    0.92
  -2  -3 -13   29.50    1.27
  -2  -3 -13   31.18    1.00
  -2  -3 -13   31.07    1.21
  -3  -3 -13    0.53    0.28
  -3  -3 -13    0.32    0.16
  -4  -3 -13   23.37    0.95
  -4  -3 -13   23.33    1.16
  -5  -3 -13    2.22    0.52
  -5  -3 -13    2.08    0.38
   3  -4 -13    2.37    0.47
   3  -4 -13    2.67    0.47
   3  -4 -13    1.85    0.52
  -3   4  13    2.84    0.57
   2  -4 -13   17.49    0.83
   2  -4 -13   17.00    0.93
   2  -4 -13   16.03    1.06
   1  -4 -13   30.15    1.37
   1  -4 -13   32.97    1.28
   1  -4 -13   32.29    1.09
   0  -4 -13    8.19    0.62
   0  -4 -13    8.25    0.49
   0  -4 -13    8.47    0.71
  -1  -4 -13   43.84    1.46
  -1  -4 -13   42.32    1.23
  -1  -4 -13   41.42    1.55
   1   4  13   42.26    1.44
   1   4  13   41.74    1.47
  -2  -4 -13   25.89    1.18
  -2  -4 -13   27.48    1.11
  -2  -4 -13   26.90    0.93
  -3  -4 -13   15.37    0.71
  -3  -4 -13   13.56    0.78
  -3  -4 -13   15.62    0.93
  -4  -4 -13   28.97    1.07
  -4  -4 -13   27.12    1.28
  -5  -4 -13    5.30    0.71
   3  -5 -13   11.36    0.80
   3  -5 -13   11.52    0.76
   3  -5 -13    9.77    0.91
  -3   5  13   11.95    0.92
   2  -5 -13    7.37    0.85
   2  -5 -13    8.57    0.67
   2  -5 -13    7.46    0.58
   1  -5 -13   44.01    1.53
   1  -5 -13   43.53    1.66
   1  -5 -13   42.37    1.35
   0  -5 -13    0.92    0.24
   0  -5 -13    1.05    0.30
   0  -5 -13    0.86    0.32
  -1  -5 -13   46.35    1.67
  -1  -5 -13   47.29    1.55
  -1  -5 -13   47.91    1.36
  -2  -5 -13   21.55    1.07
  -2  -5 -13   21.99    0.98
  -2  -5 -13   22.68    0.86
  -3  -5 -13    9.55    0.75
  -3  -5 -13   10.11    0.67
  -3  -5 -13    9.60    0.58
  -4  -5 -13   44.60    1.43
  -4  -5 -13   44.33    1.68
  -5  -5 -13    2.22    0.54
   3  -6 -13    3.74    0.67
   3  -6 -13    5.35    0.73
   3  -6 -13    3.39    0.51
  -3   6  13    3.25    0.59
   2  -6 -13   14.12    0.81
   2  -6 -13   14.98    1.02
   2  -6 -13   13.95    0.86
   1  -6 -13   24.30    1.09
   1  -6 -13   21.80    1.16
   1  -6 -13   24.06    0.97
   0  -6 -13   12.94    0.67
   0  -6 -13   12.47    0.85
   0  -6 -13   13.96    0.80
  -1  -6 -13   50.37    1.61
  -1  -6 -13   49.70    1.44
  -1  -6 -13   48.92    1.73
  -2  -6 -13   12.42    0.64
  -2  -6 -13   11.64    0.80
  -2  -6 -13   11.82    0.72
  -3  -6 -13   23.92    1.04
  -3  -6 -13   22.78    1.15
  -3  -6 -13   24.34    0.94
  -4  -6 -13   44.00    1.71
  -5  -6 -13    4.45    0.66
   5   6  13    4.68    0.56
   3  -7 -13    0.93    0.31
   3  -7 -13    0.99    0.36
   2  -7 -13   35.11    1.43
   2  -7 -13   38.08    1.37
   2  -7 -13   35.54    1.58
   1  -7 -13   17.10    0.93
   1  -7 -13   17.76    0.84
   1  -7 -13   16.54    1.01
   0  -7 -13    4.82    0.50
   0  -7 -13    4.56    0.85
   0  -7 -13    4.28    0.55
   0  -7 -13    4.82    0.76
   0  -7 -13    5.37    0.69
   0   7  13    4.66    0.72
   0   7  13    4.91    0.83
  -1  -7 -13   44.08    1.63
  -1  -7 -13   46.17    1.58
  -1  -7 -13   47.84    1.80
  -1  -7 -13   45.25    1.53
  -1  -7 -13   46.77    1.40
   1   7  13   45.82    1.82
   1   7  13   44.14    1.58
  -2  -7 -13    0.30    0.26
  -2  -7 -13    0.66    0.23
  -2  -7 -13    0.23    0.20
  -3  -7 -13   45.51    1.52
  -3  -7 -13   45.31    1.69
   3   7  13   46.22    1.39
  -4  -7 -13   18.90    1.11
   4   7  13   22.82    0.96
  -5  -7 -13    4.69    0.72
   5   7  13    4.57    0.58
   3  -8 -13    1.93    0.48
   2  -8 -13   27.89    1.29
   1  -8 -13    7.17    0.57
   1  -8 -13    7.74    0.72
   1  -8 -13    6.51    0.73
   0  -8 -13   14.47    0.84
   0  -8 -13   15.43    0.77
   0  -8 -13   14.51    0.92
  -1  -8 -13   35.71    1.46
  -1  -8 -13   41.01    1.43
  -1  -8 -13   38.58    1.29
   1   8  13   42.88    1.35
  -2  -8 -13    3.44    0.55
  -2  -8 -13    3.36    0.49
   2   8  13    3.56    0.49
  -3  -8 -13   45.04    1.18
  -3  -8 -13   42.17    1.66
   3   8  13   42.97    1.38
  -4  -8 -13    3.18    0.56
  -4  -8 -13    4.76    0.45
   4   8  13    3.70    0.51
  -5  -8 -13    9.49    0.89
  -5  -8 -13   11.12    0.63
   5   8  13   10.61    0.74
   2  -9 -13   21.87    1.17
  -2   9  13   23.13    1.02
   1  -9 -13    0.61    0.31
  -1   9  13    0.81    0.33
   0  -9 -13   36.77    1.52
   0  -9 -13   40.81    1.48
   0   9  13   39.52    1.30
  -1  -9 -13   29.78    1.21
  -1  -9 -13   27.99    1.29
  -1  -9 -13   31.67    0.93
   1   9  13   34.58    1.15
  -2  -9 -13    0.53    0.31
  -2  -9 -13    0.33    0.22
  -2  -9 -13    0.28    0.22
   2   9  13    0.10    0.28
  -3  -9 -13   36.15    1.09
  -3  -9 -13   34.80    1.50
   3   9  13   34.91    1.23
  -4  -9 -13    9.24    0.58
  -4  -9 -13    8.19    0.91
   4   9  13    7.86    0.65
  -5  -9 -13   22.34    1.31
  -5  -9 -13   23.80    0.95
   5   9  13   23.27    1.04
   2 -10 -13   18.21    1.09
  -2  10  13   19.41    0.95
   1 -10 -13   -0.07    0.24
   1 -10 -13    0.41    0.20
  -1  10  13    0.33    0.29
   0 -10 -13   29.19    0.95
   0 -10 -13   27.47    1.68
   0 -10 -13   29.66    1.27
   0  10  13   30.61    1.13
  -1 -10 -13   11.71    0.77
  -1 -10 -13   13.00    0.88
  -1 -10 -13   11.53    0.60
   1  10  13   12.48    0.75
  -2 -10 -13   10.52    0.58
  -2 -10 -13    9.58    0.69
  -2 -10 -13   10.56    0.80
   2  10  13   10.27    0.69
  -3 -10 -13   28.73    1.00
  -3 -10 -13   29.11    1.38
   3  10  13   28.85    1.10
  -4 -10 -13    1.73    0.47
  -4 -10 -13    3.03    0.45
   4  10  13    2.60    0.45
   2 -11 -13   11.14    0.92
   2 -11 -13   12.29    0.65
  -2  11  13   12.00    0.79
   1 -11 -13    0.68    0.26
   1 -11 -13    0.59    0.32
  -1  11  13    0.52    0.33
   0 -11 -13   26.67    1.24
   0 -11 -13   27.90    0.97
   0  11  13   28.97    1.09
  -1 -11 -13    9.22    0.97
  -1 -11 -13    8.22    0.67
  -1 -11 -13    8.63    0.56
   1  11  13    8.98    0.66
  -2 -11 -13   34.51    1.49
  -2 -11 -13   38.57    1.21
   2  11  13   38.73    1.28
  -3 -11 -13   35.97    1.58
  -3 -11 -13   38.84    1.25
   3  11  13   38.02    1.28
  -4 -11 -13    1.80    0.39
   4  11  13    1.74    0.41
   1 -12 -13    5.44    0.75
   1 -12 -13    7.66    0.61
   0 -12 -13   29.29    1.08
   0 -12 -13   29.08    1.33
   0  12  13   31.69    1.14
  -1 -12 -13    2.48    0.43
  -1 -12 -13    1.43    0.37
   1  12  13    2.73    0.45
  -2 -12 -13   13.83    1.00
  -2 -12 -13   14.16    0.76
   2  12  13   15.26    0.79
  -3 -12 -13   17.91    1.14
  -3 -12 -13   21.00    0.94
   3  12  13   22.08    0.91
   0 -13 -13   15.11    1.00
   0 -13 -13   18.17    0.88
   0  13  13   19.59    0.86
  -1 -13 -13    1.39    0.38
   1  13  13    1.41    0.36
  -2 -13 -13   16.90    0.87
   2  13  13   18.85    0.82
   0   2 -14   -0.01    0.29
  -1   2 -14   24.39    1.41
  -1   2 -14   24.00    0.74
  -2   2 -14    1.51    0.25
  -3   2 -14    3.42    0.40
   3  -2  14    2.95    0.56
   1   1 -14    8.66    0.83
   1   1 -14    8.99    0.46
   1   1 -14   10.94    0.77
  -1  -1  14    8.87    0.81
   0   1 -14    0.89    0.36
   0   1 -14    0.63    0.16
  -1   1 -14   27.57    1.29
  -1   1 -14   27.41    0.83
  -2   1 -14    0.06    0.30
  -2   1 -14    0.16    0.13
  -3   1 -14   13.30    0.64
   2   0 -14   33.56    1.13
   2   0 -14   33.07    1.58
  -2   0  14   29.85    1.47
   1   0 -14    2.46    0.52
   1   0 -14    3.37    0.36
   1   0 -14    2.69    0.48
   0   0 -14   16.68    0.62
   0   0 -14   16.16    1.03
   0   0 -14   17.10    0.93
  -1   0 -14   25.45    0.82
  -1   0 -14   26.75    1.25
  -2   0 -14    3.52    0.37
  -2   0 -14    3.70    0.57
  -3   0 -14   26.38    0.95
  -4   0 -14    6.21    0.50
   4   0  14    4.70    0.64
   2  -1 -14    9.07    0.59
   2  -1 -14    9.84    0.90
   2  -1 -14    9.63    0.74
  -2   1  14   10.36    0.87
   1  -1 -14    6.51    0.44
   1  -1 -14    7.75    0.65
   1  -1 -14    6.32    0.80
   0  -1 -14   27.19    0.87
   0  -1 -14   26.37    1.29
   0  -1 -14   29.04    1.22
  -1  -1 -14   24.02    1.10
  -1  -1 -14   21.98    0.77
  -1  -1 -14   21.67    1.14
  -2  -1 -14    0.54    0.18
  -2  -1 -14    0.19    0.27
  -3  -1 -14   25.01    0.92
  -3  -1 -14   23.24    1.18
  -4  -1 -14    3.82    0.46
   2  -2 -14    9.39    0.87
   2  -2 -14    9.44    0.62
   2  -2 -14    9.93    0.73
  -2   2  14   10.18    0.88
   1  -2 -14    3.00    0.38
   1  -2 -14    3.02    0.51
   0  -2 -14   19.25    1.08
   0  -2 -14   18.92    0.73
   0  -2 -14   19.96    1.00
  -1  -2 -14   14.95    0.86
  -1  -2 -14   16.25    0.98
  -1  -2 -14   15.04    0.64
  -2  -2 -14   14.40    0.92
  -2  -2 -14   15.45    0.67
  -2  -2 -14   14.38    0.85
  -3  -2 -14   25.30    1.22
  -3  -2 -14   26.09    0.95
  -4  -2 -14    9.31    0.79
  -4  -2 -14   10.04    0.62
   2  -3 -14   27.48    1.42
   2  -3 -14   26.76    1.20
   2  -3 -14   26.32    1.07
   1  -3 -14    4.55    0.70
   1  -3 -14    4.26    0.46
   1  -3 -14    4.51    0.60
   0  -3 -14   22.31    0.82
   0  -3 -14   22.28    1.06
   0  -3 -14   19.01    1.09
  -1  -3 -14   11.27    0.83
  -1  -3 -14   10.81    0.73
  -1  -3 -14   11.64    0.57
  -2  -3 -14    9.06    0.52
  -2  -3 -14    8.37    0.73
  -2  -3 -14    8.89    0.67
  -3  -3 -14   38.34    1.53
  -3  -3 -14   38.35    1.24
  -4  -3 -14    0.63    0.25
  -4  -3 -14    2.08    0.45
  -5  -3 -14    9.71    0.85
  -5  -3 -14   11.15    0.71
   5   3  14    9.44    0.79
   2  -4 -14   25.31    1.19
   2  -4 -14   25.69    1.38
   2  -4 -14   26.61    1.09
   1  -4 -14    5.25    0.71
   1  -4 -14    5.81    0.69
   1  -4 -14    5.85    0.48
   0  -4 -14   42.52    1.28
   0  -4 -14   41.44    1.64
   0  -4 -14   43.49    1.53
  -1  -4 -14    7.61    0.71
  -1  -4 -14    6.97    0.46
  -1  -4 -14    5.41    0.62
  -2  -4 -14   15.24    0.70
  -2  -4 -14   14.09    0.92
  -2  -4 -14   16.95    0.89
  -3  -4 -14   37.94    1.42
  -3  -4 -14   38.21    1.25
  -3  -4 -14   36.00    1.50
  -4  -4 -14    6.20    0.52
  -4  -4 -14    6.12    0.76
  -5  -4 -14   41.43    1.72
  -5  -4 -14   42.72    1.50
   2  -5 -14    4.95    0.79
   2  -5 -14    5.28    0.60
   2  -5 -14    4.82    0.66
   1  -5 -14    0.74    0.31
   1  -5 -14    0.34    0.31
   1  -5 -14    0.60    0.23
   0  -5 -14   39.32    1.26
   0  -5 -14   37.78    1.56
   0  -5 -14   40.79    1.47
  -1  -5 -14    0.77    0.27
  -1  -5 -14    0.58    0.29
  -1  -5 -14    0.28    0.17
  -2  -5 -14   47.72    1.42
  -2  -5 -14   46.26    1.73
  -2  -5 -14   49.42    1.63
  -3  -5 -14    8.01    0.54
  -3  -5 -14    8.86    0.76
  -3  -5 -14    7.52    0.63
  -4  -5 -14    0.37    0.32
  -4  -5 -14    0.43    0.23
  -5  -5 -14   27.37    1.39
   2  -6 -14    0.09    0.21
   2  -6 -14    0.08    0.34
   2  -6 -14    0.39    0.26
   1  -6 -14   23.08    1.12
   1  -6 -14   25.99    1.04
   1  -6 -14   22.06    1.21
   0  -6 -14   21.79    1.16
   0  -6 -14   22.36    1.07
   0  -6 -14   23.91    0.96
  -1  -6 -14    1.20    0.29
  -1  -6 -14    0.77    0.35
  -1  -6 -14    0.70    0.27
  -2  -6 -14   47.23    1.60
  -2  -6 -14   46.42    1.42
  -2  -6 -14   44.91    1.71
  -3  -6 -14    6.51    0.69
  -3  -6 -14    6.19    0.51
  -3  -6 -14    6.94    0.83
  -4  -6 -14   15.37    1.03
  -5  -6 -14   15.30    1.09
   2  -7 -14    3.26    0.54
   2  -7 -14    3.80    0.66
   2  -7 -14    4.45    0.66
   1  -7 -14   39.46    1.52
   1  -7 -14   40.90    1.40
   1  -7 -14   38.27    1.61
   0  -7 -14   22.35    1.08
   0  -7 -14   21.34    1.17
   0  -7 -14   23.67    0.98
  -1  -7 -14    2.70    0.51
  -1  -7 -14    3.05    0.42
  -1  -7 -14    3.09    0.50
  -2  -7 -14   21.25    0.92
  -2  -7 -14   22.50    1.03
  -2  -7 -14   23.42    1.17
  -3  -7 -14   15.32    0.99
  -3  -7 -14   15.15    0.86
  -3  -7 -14   16.69    0.85
  -4  -7 -14   35.67    1.57
   4   7  14   34.97    1.30
  -5  -7 -14   24.73    1.37
   5   7  14   24.11    1.08
   2  -8 -14    0.60    0.38
   2  -8 -14    0.91    0.35
   1  -8 -14    6.42    0.79
   1  -8 -14    6.02    0.64
   1  -8 -14    5.85    0.71
   0  -8 -14   12.69    0.92
   0  -8 -14   14.58    0.79
   0  -8 -14   15.33    0.89
  -1  -8 -14   14.49    0.95
  -1  -8 -14   15.98    0.79
  -1  -8 -14   15.95    0.89
  -2  -8 -14   36.12    1.35
  -2  -8 -14   33.55    1.46
  -3  -8 -14    0.68    0.33
  -3  -8 -14    0.58    0.28
   3   8  14    0.20    0.30
  -4  -8 -14   12.43    0.97
   4   8  14   16.51    0.86
   2  -9 -14    3.87    0.65
   1  -9 -14   23.03    1.41
   1  -9 -14   24.04    1.18
   0  -9 -14    4.80    0.72
   0  -9 -14    3.61    0.56
   0   9  14    4.64    0.89
  -1  -9 -14   20.69    1.03
  -1  -9 -14   21.14    1.14
   1   9  14   21.67    0.95
  -2  -9 -14   42.95    1.70
  -2  -9 -14   41.37    1.51
   2   9  14   46.26    1.45
  -3  -9 -14    3.57    0.64
   3   9  14    3.82    0.56
  -4  -9 -14   28.68    0.94
  -4  -9 -14   26.38    1.39
   4   9  14   26.72    1.13
   1 -10 -14   48.07    1.81
  -1  10  14   49.90    1.58
   0 -10 -14    1.45    0.47
   0 -10 -14    0.91    0.35
   0  10  14    1.07    0.37
  -1 -10 -14   12.38    0.58
  -1 -10 -14   11.31    0.87
  -1 -10 -14   10.97    0.77
   1  10  14   13.34    0.79
  -2 -10 -14   13.92    0.96
  -2 -10 -14   13.08    0.83
  -2 -10 -14   14.28    0.65
   2  10  14   14.57    0.80
  -3 -10 -14    4.06    0.45
  -3 -10 -14    3.99    0.68
   3  10  14    4.36    0.58
  -4 -10 -14   36.39    1.68
  -4 -10 -14   38.71    1.21
   4  10  14   38.06    1.34
   1 -11 -14   11.45    0.90
  -1  11  14   12.42    0.79
   0 -11 -14    0.61    0.27
   0 -11 -14    0.17    0.23
   0  11  14    0.56    0.35
  -1 -11 -14   27.26    1.34
  -1 -11 -14   28.28    1.27
  -1 -11 -14   31.05    1.01
   1  11  14   31.42    1.18
  -2 -11 -14    9.19    0.59
  -2 -11 -14    7.61    0.87
   2  11  14    9.42    0.72
  -3 -11 -14    8.89    0.61
  -3 -11 -14    6.65    0.83
   3  11  14    7.71    0.67
   0 -12 -14    1.03    0.30
   0 -12 -14    0.47    0.35
   0  12  14    1.33    0.39
  -1 -12 -14   36.17    1.18
  -1 -12 -14   33.25    1.41
   1  12  14   36.44    1.27
  -2 -12 -14    6.07    0.59
  -2 -12 -14    6.18    0.81
   2  12  14    7.28    0.71
  -1   1 -15    6.62    0.83
  -1   1 -15    6.67    0.41
  -2   1 -15   12.37    0.59
   0   0 -15   17.88    1.13
   0   0 -15   19.50    1.07
   0   0 -15   20.30    0.73
  -1   0 -15   16.43    1.04
  -1   0 -15   13.98    0.62
  -2   0 -15   17.56    0.72
  -2   0 -15   18.44    1.08
  -3   0 -15    6.50    0.49
   1  -1 -15    5.88    0.71
   1  -1 -15    6.92    0.92
   1  -1 -15    5.85    0.46
   0  -1 -15    5.81    0.77
   0  -1 -15    5.54    0.41
   0  -1 -15    6.36    0.75
  -1  -1 -15    0.32    0.15
  -1  -1 -15    0.15    0.22
  -1  -1 -15    0.15    0.28
  -2  -1 -15   14.71    0.67
  -2  -1 -15   15.02    0.98
  -3  -1 -15    0.40    0.21
  -3  -1 -15    0.63    0.35
   1  -2 -15   39.83    1.75
   1  -2 -15   40.11    1.27
   1  -2 -15   40.33    1.56
   0  -2 -15    0.07    0.20
   0  -2 -15   -0.28    0.25
   0  -2 -15    0.03    0.15
  -1  -2 -15   16.91    0.96
  -1  -2 -15   17.31    0.72
  -1  -2 -15   15.23    1.00
  -2  -2 -15   22.36    1.11
  -2  -2 -15   21.77    1.18
  -2  -2 -15   21.37    0.84
  -3  -2 -15    9.05    0.79
  -3  -2 -15    8.55    0.56
  -4  -2 -15   19.97    1.15
  -4  -2 -15   19.49    0.89
   2  -3 -15    2.67    0.62
   2  -3 -15    1.99    0.40
   2  -3 -15    2.61    0.51
   1  -3 -15   33.17    1.39
   1  -3 -15   31.70    1.53
   1  -3 -15   30.85    1.12
   0  -3 -15    1.53    0.29
   0  -3 -15    2.09    0.50
   0  -3 -15    1.32    0.39
  -1  -3 -15   37.48    1.48
  -1  -3 -15   38.69    1.20
  -1  -3 -15   38.60    1.60
  -2  -3 -15   26.88    0.99
  -2  -3 -15   27.88    1.33
  -2  -3 -15   28.53    1.25
  -3  -3 -15    1.40    0.42
  -3  -3 -15    1.45    0.31
  -4  -3 -15   21.61    0.97
  -4  -3 -15   22.69    1.22
   2  -4 -15   13.31    0.89
   2  -4 -15   12.96    1.05
   2  -4 -15   14.20    0.81
   1  -4 -15    2.42    0.39
   1  -4 -15    2.50    0.57
   1  -4 -15    3.23    0.56
   0  -4 -15    1.24    0.42
   0  -4 -15    1.20    0.37
   0  -4 -15    1.07    0.26
  -1  -4 -15   18.62    0.80
  -1  -4 -15   19.68    1.01
  -1  -4 -15   18.53    1.10
  -2  -4 -15    4.15    0.59
  -2  -4 -15    3.21    0.57
  -2  -4 -15    3.17    0.41
  -3  -4 -15   10.73    0.86
  -3  -4 -15    9.66    0.75
  -3  -4 -15    9.47    0.61
  -4  -4 -15   14.29    0.99
  -4  -4 -15   14.96    0.80
   2  -5 -15   18.69    0.96
   2  -5 -15   17.38    1.03
   2  -5 -15   17.72    1.20
   1  -5 -15   10.76    0.68
   1  -5 -15    9.51    0.87
   1  -5 -15    9.87    0.76
   0  -5 -15    2.79    0.40
   0  -5 -15    3.03    0.52
   0  -5 -15    3.64    0.65
  -1  -5 -15   30.03    1.28
  -1  -5 -15   30.08    1.09
  -1  -5 -15   28.95    1.39
  -2  -5 -15    1.04    0.36
  -2  -5 -15    1.24    0.36
  -2  -5 -15    1.22    0.29
  -3  -5 -15   39.47    1.51
  -3  -5 -15   39.85    1.65
  -3  -5 -15   40.50    1.34
  -4  -5 -15   18.93    0.91
  -4  -5 -15   18.52    1.15
   2  -6 -15    7.28    0.99
   2  -6 -15    7.79    0.79
   2  -6 -15    7.05    0.81
   1  -6 -15   17.15    0.87
   1  -6 -15   14.53    1.05
   1  -6 -15   15.45    0.96
   0  -6 -15    5.77    0.70
   0  -6 -15    5.93    0.51
   0  -6 -15    4.70    0.74
  -1  -6 -15   34.82    1.53
  -1  -6 -15   35.64    1.40
  -1  -6 -15   34.46    1.21
  -2  -6 -15    0.92    0.29
  -2  -6 -15    0.55    0.28
  -2  -6 -15    0.64    0.32
  -3  -6 -15    9.96    0.84
  -3  -6 -15   10.02    0.76
  -3  -6 -15   10.09    0.64
  -4  -6 -15   19.85    1.13
  -4  -6 -15   20.12    1.19
   2  -7 -15   19.62    1.29
   2  -7 -15   25.42    1.25
   2  -7 -15   24.94    1.16
   1  -7 -15    8.74    1.00
   1  -7 -15    9.26    0.68
   1  -7 -15    8.37    0.74
   0  -7 -15   19.49    1.17
   0  -7 -15   22.54    1.13
   0  -7 -15   22.59    0.99
  -1  -7 -15   25.03    1.01
  -1  -7 -15   23.43    1.13
  -1  -7 -15   22.17    1.21
  -2  -7 -15    2.19    0.48
  -2  -7 -15    2.44    0.39
  -2  -7 -15    3.35    0.54
  -3  -7 -15   14.95    1.03
  -3  -7 -15   16.02    0.93
  -3  -7 -15   17.22    0.85
  -4  -7 -15    5.52    0.74
   1  -8 -15    0.11    0.21
   1  -8 -15    0.32    0.34
   1  -8 -15    0.08    0.24
   0  -8 -15   17.58    1.09
   0  -8 -15   16.97    1.00
   0  -8 -15   17.09    0.88
  -1  -8 -15   10.63    0.77
  -1  -8 -15    9.65    0.65
  -1  -8 -15    9.39    0.84
  -2  -8 -15    1.19    0.42
  -3  -8 -15   60.29    1.94
  -3  -8 -15   58.66    2.13
  -4  -8 -15    0.49    0.34
   4   8  15    0.81    0.38
   1  -9 -15    3.55    0.67
   1  -9 -15    2.40    0.53
   0  -9 -15   29.79    1.44
   0  -9 -15   31.28    1.36
  -1  -9 -15    7.00    0.79
  -1  -9 -15    5.69    0.77
  -2  -9 -15    5.54    0.67
  -2  -9 -15    6.32    0.75
   2   9  15    7.20    0.71
  -3  -9 -15   23.71    1.30
   3   9  15   25.08    1.10
  -4  -9 -15    0.45    0.36
   4   9  15    0.24    0.36
   1 -10 -15    0.20    0.26
  -1  10  15    0.28    0.32
   0 -10 -15   20.81    1.20
   0 -10 -15   21.23    1.15
   0  10  15   21.29    1.01
  -1 -10 -15    8.97    0.76
  -1 -10 -15    9.38    1.00
   1  10  15   10.10    0.75
  -2 -10 -15   23.01    1.15
  -2 -10 -15   25.58    1.33
   2  10  15   28.29    1.13
  -3 -10 -15    9.53    0.87
   3  10  15    8.90    0.74
   0 -11 -15    4.82    0.72
   0  11  15    5.58    0.69
  -1 -11 -15    0.70    0.35
  -1 -11 -15    0.89    0.39
   1  11  15    0.59    0.36
  -2 -11 -15   20.64    0.80
  -2 -11 -15   18.43    1.16
   2  11  15   21.15    1.02
  -1  -1 -16    1.68    0.48
  -1  -1 -16    2.29    0.34
  -2  -1 -16    2.02    0.33
  -2  -1 -16    2.21    0.54
   0  -2 -16   21.74    1.14
   0  -2 -16   17.17    0.78
   0  -2 -16   18.12    1.18
  -1  -2 -16    2.09    0.48
  -1  -2 -16    2.18    0.35
  -1  -2 -16    2.04    0.51
  -2  -2 -16    6.71    0.50
  -2  -2 -16    5.79    0.77
  -3  -2 -16   29.44    1.44
  -3  -2 -16   29.88    1.11
   0  -3 -16    7.30    0.53
   0  -3 -16    7.29    0.82
   0  -3 -16    6.60    0.85
  -1  -3 -16    9.64    0.85
  -1  -3 -16    7.49    0.53
  -1  -3 -16    6.69    0.80
  -2  -3 -16   22.17    1.14
  -2  -3 -16   19.17    0.86
  -2  -3 -16   19.89    1.18
  -3  -3 -16    2.43    0.54
  -3  -3 -16    2.06    0.38
   1  -4 -16    7.73    0.85
   1  -4 -16    6.10    0.82
   1  -4 -16    5.82    0.60
   0  -4 -16   13.63    0.91
   0  -4 -16   13.28    0.99
   0  -4 -16   14.75    0.76
  -1  -4 -16    0.80    0.34
  -1  -4 -16    0.50    0.33
  -1  -4 -16    0.69    0.23
  -2  -4 -16   19.91    0.88
  -2  -4 -16   18.52    1.15
  -2  -4 -16   20.50    1.10
  -3  -4 -16    2.60    0.40
  -3  -4 -16    3.09    0.60
   1  -5 -16   21.49    1.31
   1  -5 -16   21.21    1.15
   1  -5 -16   21.42    1.00
   0  -5 -16   35.66    1.45
   0  -5 -16   31.24    1.18
   0  -5 -16   30.97    1.50
  -1  -5 -16    2.52    0.49
  -1  -5 -16    3.72    0.66
  -1  -5 -16    2.45    0.39
  -2  -5 -16   19.20    1.06
  -2  -5 -16   18.75    1.15
  -2  -5 -16   18.82    0.87
  -3  -5 -16   15.34    1.06
  -3  -5 -16   17.07    0.99
  -3  -5 -16   16.55    0.84
   1  -6 -16    6.50    0.69
   1  -6 -16    6.36    0.76
   1  -6 -16    9.66    1.11
   0  -6 -16   14.36    1.02
   0  -6 -16   13.74    0.92
   0  -6 -16   15.20    0.81
  -1  -6 -16    9.69    1.03
  -1  -6 -16    9.42    0.63
  -1  -6 -16    8.37    0.74
  -2  -6 -16   25.66    1.22
  -2  -6 -16   28.08    1.10
  -2  -6 -16   23.58    1.32
  -3  -6 -16    2.60    0.43
  -3  -6 -16    2.10    0.45
  -3  -6 -16    3.39    0.60
   1  -7 -16   10.93    0.75
   1  -7 -16    9.64    0.82
   1  -7 -16    8.98    1.04
   0  -7 -16    1.39    0.37
   0  -7 -16    2.22    0.57
  -1  -7 -16    9.32    0.88
  -1  -7 -16   10.42    0.69
  -1  -7 -16    9.22    0.77
  -2  -7 -16   18.37    1.03
  -2  -7 -16   17.59    1.12
  -2  -7 -16   18.13    0.90
  -3  -7 -16    0.75    0.43
  -3  -7 -16    1.10    0.39
  -3  -7 -16    0.80    0.30
   0  -8 -16    0.49    0.31
   0  -8 -16    0.80    0.32
   0  -8 -16    0.19    0.32
  -1  -8 -16    7.85    0.63
  -1  -8 -16    9.55    1.02
  -1  -8 -16    9.41    0.78
  -2  -8 -16   11.95    0.90
  -2  -8 -16    9.83    0.88
  -2  -8 -16   10.04    0.79
  -3  -8 -16    0.54    0.35
  -3  -8 -16    0.54    0.29
   0  -9 -16    0.60    0.37
   0  -9 -16    0.92    0.44
  -1  -9 -16   12.88    0.89
  -1  -9 -16   13.90    1.03
  -2  -9 -16   19.67    1.21
  -2  -9 -16   20.90    1.10
  -3  -9 -16    3.17    0.64
   3   9  16    3.18    0.65
  -1 -10 -16   15.58    1.01
  -1 -10 -16   16.29    1.11
   1  10  16   14.52    1.10
  -2 -10 -16    8.60    0.98
  -2 -10 -16    8.86    0.76
   2  10  16    9.60    0.76
  -1  -4 -17   23.63    1.24
  -1  -4 -17   23.35    1.33
  -1  -4 -17   23.10    0.99
  -1  -5 -17   38.55    1.36
  -1  -5 -17   40.16    1.64
  -1  -5 -17   39.30    1.74
  -2  -5 -17    1.70    0.46
  -2  -5 -17    1.87    0.38
  -2  -5 -17    2.16    0.57
  -1  -6 -17    0.49    0.26
  -1  -6 -17    0.37    0.29
  -1  -6 -17    0.61    0.38
  -2  -6 -17    2.23    0.40
  -2  -6 -17    3.47    0.62
  -2  -6 -17    3.49    0.70
  -1  -7 -17    4.68    0.73
  -1  -7 -17    4.64    0.57
  -1  -7 -17    3.62    0.61
  -2  -7 -17    5.84    0.63
  -2  -7 -17    5.94    0.88
  -2  -7 -17    5.91    0.74
   0   0   0    0.00    0.00
;
_shelx_hkl_checksum              86635
_shelx_res_file
;
    shelx.res created by SHELXL-2014/7
TITL VS1 in P-1
CELL   0.71073    5.1225  10.4572  12.2167  66.034  78.882  85.760
ZERR  2.0000    0.0002   0.0004   0.0005   0.002   0.002   0.002
LATT  1
SFAC  C   H   N   O   I
UNIT  26  20   2   2   2
MERG  2
L.S.  12
OMIT 0 52
ACTA
BOND   $H
CONF
TEMP   -153
FMAP   2
PLAN   5
SIZE  0.23 0.22 0.21
WGHT    0.020700    0.719300
FVAR       0.23516
I1    5   -0.303999    0.037226    0.774798    11.00000    0.01580    0.01876 =
         0.02535   -0.00904   -0.00378   -0.00291
O1    4   -0.122420    0.311614    0.519210    11.00000    0.01139    0.04019 =
         0.01940   -0.01258   -0.00350   -0.00061
N1    3    0.328502    0.285231    0.491805    11.00000    0.01062    0.02715 =
         0.01501   -0.01034   -0.00264    0.00029
AFIX  43
H1    2    0.466778    0.273148    0.527924    11.00000   -1.20000
AFIX   0
C1    1    0.087471    0.293852    0.557269    11.00000    0.01339    0.01832 =
         0.01707   -0.00775   -0.00129   -0.00183
C2    1    0.096835    0.280239    0.683920    11.00000    0.01184    0.01709 =
         0.01695   -0.00840   -0.00351    0.00392
C3    1   -0.067748    0.186106    0.786098    11.00000    0.01092    0.01716 =
         0.02139   -0.01052   -0.00281    0.00038
C4    1   -0.062887    0.179328    0.901419    11.00000    0.01780    0.02206 =
         0.01603   -0.00688    0.00043    0.00025
AFIX  43
H4    2   -0.175090    0.115053    0.970403    11.00000   -1.20000
AFIX   0
C5    1    0.106862    0.266982    0.915664    11.00000    0.02070    0.02700 =
         0.01735   -0.01239   -0.00415    0.00260
AFIX  43
H5    2    0.109079    0.263246    0.994486    11.00000   -1.20000
AFIX   0
C6    1    0.272760    0.359733    0.815436    11.00000    0.01859    0.02157 =
         0.02354   -0.01244   -0.00629    0.00021
AFIX  43
H6    2    0.389265    0.419114    0.825544    11.00000   -1.20000
AFIX   0
C7    1    0.268472    0.365739    0.700519    11.00000    0.01312    0.01797 =
         0.01867   -0.00696   -0.00131   -0.00047
AFIX  43
H7    2    0.383833    0.428863    0.632104    11.00000   -1.20000
AFIX   0
C8    1    0.379982    0.293782    0.370551    11.00000    0.01287    0.02057 =
         0.01614   -0.00953   -0.00026   -0.00474
C9    1    0.221501    0.371681    0.285459    11.00000    0.01387    0.02135 =
         0.02028   -0.01030   -0.00183   -0.00101
AFIX  43
H9    2    0.068340    0.418491    0.308266    11.00000   -1.20000
AFIX   0
C10   1    0.289659    0.380193    0.167055    11.00000    0.01785    0.02199 =
         0.01794   -0.00707   -0.00464   -0.00454
AFIX  43
H10   2    0.182063    0.433389    0.108907    11.00000   -1.20000
AFIX   0
C11   1    0.512415    0.312254    0.132266    11.00000    0.02082    0.02473 =
         0.01823   -0.01208    0.00097   -0.00757
AFIX  43
H11   2    0.557947    0.318976    0.050952    11.00000   -1.20000
AFIX   0
C12   1    0.667697    0.234340    0.218028    11.00000    0.01517    0.02556 =
         0.02587   -0.01586    0.00139   -0.00309
AFIX  43
H12   2    0.820440    0.187319    0.195151    11.00000   -1.20000
AFIX   0
C13   1    0.602370    0.224465    0.336377    11.00000    0.01376    0.02442 =
         0.02175   -0.01090   -0.00459    0.00037
AFIX  43
H13   2    0.709371    0.170305    0.394473    11.00000   -1.20000
AFIX   0
HKLF 4
REM  VS1 in P-1
REM R1 =  0.0168 for    2278 Fo > 4sig(Fo)  and  0.0172 for all    2309 data
REM    145 parameters refined using      0 restraints
END
WGHT      0.0207      0.6388
REM Highest difference peak  0.814,  deepest hole -0.479,  1-sigma level  0.072
Q1    1  -0.2887 -0.0372  0.8453  11.00000  0.05    0.81
Q2    1  -0.3135  0.1084  0.6966  11.00000  0.05    0.78
Q3    1  -0.2803 -0.0285  0.7351  11.00000  0.05    0.51
Q4    1  -0.3538  0.1083  0.8014  11.00000  0.05    0.47
Q5    1   0.0988  0.2844  0.6261  11.00000  0.05    0.35
;
_shelx_res_checksum              80516
loop_
_space_group_symop_operation_xyz
'x, y, z'
'-x, -y, -z'
loop_
_atom_site_type_symbol
_atom_site_label
_atom_site_fract_x
_atom_site_fract_y
_atom_site_fract_z
_atom_site_U_iso_or_equiv
_atom_site_adp_type
_atom_site_calc_flag
_atom_site_occupancy
I I1 -0.30400(3) 0.03723(2) 0.77480(2) 0.01972(6) Uani d 1
O O1 -0.1224(3) 0.31161(18) 0.51921(14) 0.0233(3) Uani d 1
N N1 0.3285(3) 0.2852(2) 0.49180(16) 0.0169(4) Uani d 1
H H1 0.4668 0.2731 0.5279 0.020 Uiso calc 1
C C1 0.0875(4) 0.2939(2) 0.55727(19) 0.0161(4) Uani d 1
C C2 0.0968(4) 0.2802(2) 0.68392(19) 0.0148(4) Uani d 1
C C3 -0.0677(4) 0.1861(2) 0.7861(2) 0.0156(4) Uani d 1
C C4 -0.0629(4) 0.1793(2) 0.9014(2) 0.0194(4) Uani d 1
H H4 -0.1751 0.1151 0.9704 0.023 Uiso calc 1
C C5 0.1069(4) 0.2670(2) 0.9157(2) 0.0206(4) Uani d 1
H H5 0.1091 0.2632 0.9945 0.025 Uiso calc 1
C C6 0.2728(4) 0.3597(2) 0.8154(2) 0.0198(4) Uani d 1
H H6 0.3893 0.4191 0.8255 0.024 Uiso calc 1
C C7 0.2685(4) 0.3657(2) 0.7005(2) 0.0169(4) Uani d 1
H H7 0.3838 0.4289 0.6321 0.020 Uiso calc 1
C C8 0.3800(4) 0.2938(2) 0.37055(19) 0.0159(4) Uani d 1
C C9 0.2215(4) 0.3717(2) 0.2855(2) 0.0180(4) Uani d 1
H H9 0.0683 0.4185 0.3083 0.022 Uiso calc 1
C C10 0.2897(4) 0.3802(2) 0.1671(2) 0.0191(4) Uani d 1
H H10 0.1821 0.4334 0.1089 0.023 Uiso calc 1
C C11 0.5124(4) 0.3123(2) 0.1323(2) 0.0203(4) Uani d 1
H H11 0.5579 0.3190 0.0510 0.024 Uiso calc 1
C C12 0.6677(4) 0.2343(2) 0.2180(2) 0.0209(5) Uani d 1
H H12 0.8204 0.1873 0.1952 0.025 Uiso calc 1
C C13 0.6024(4) 0.2245(2) 0.3364(2) 0.0192(4) Uani d 1
H H13 0.7094 0.1703 0.3945 0.023 Uiso calc 1
loop_
_atom_site_aniso_label
_atom_site_aniso_U_11
_atom_site_aniso_U_22
_atom_site_aniso_U_33
_atom_site_aniso_U_12
_atom_site_aniso_U_13
_atom_site_aniso_U_23
I1 0.01580(8) 0.01876(9) 0.02535(9) -0.00291(5) -0.00378(6) -0.00904(6)
O1 0.0114(7) 0.0402(10) 0.0194(8) -0.0006(7) -0.0035(6) -0.0126(7)
N1 0.0106(8) 0.0271(10) 0.0150(9) 0.0003(7) -0.0026(7) -0.0103(8)
C1 0.0134(10) 0.0183(10) 0.0171(10) -0.0018(8) -0.0013(8) -0.0078(8)
C2 0.0118(9) 0.0171(10) 0.0169(10) 0.0039(8) -0.0035(8) -0.0084(8)
C3 0.0109(9) 0.0172(10) 0.0214(11) 0.0004(8) -0.0028(8) -0.0105(9)
C4 0.0178(10) 0.0221(11) 0.0160(10) 0.0002(8) 0.0004(8) -0.0069(9)
C5 0.0207(11) 0.0270(12) 0.0174(10) 0.0026(9) -0.0042(8) -0.0124(9)
C6 0.0186(10) 0.0216(11) 0.0235(11) 0.0002(8) -0.0063(9) -0.0124(9)
C7 0.0131(10) 0.0180(10) 0.0187(10) -0.0005(8) -0.0013(8) -0.0070(9)
C8 0.0129(9) 0.0206(10) 0.0161(10) -0.0047(8) -0.0003(8) -0.0095(9)
C9 0.0139(10) 0.0213(11) 0.0203(11) -0.0010(8) -0.0018(8) -0.0103(9)
C10 0.0179(10) 0.0220(11) 0.0179(10) -0.0045(8) -0.0046(8) -0.0071(9)
C11 0.0208(11) 0.0247(11) 0.0182(10) -0.0076(9) 0.0010(8) -0.0121(9)
C12 0.0152(10) 0.0256(12) 0.0259(12) -0.0031(9) 0.0014(9) -0.0159(10)
C13 0.0138(10) 0.0244(11) 0.0218(11) 0.0004(8) -0.0046(8) -0.0109(9)
loop_
_atom_type_symbol
_atom_type_description
_atom_type_scat_dispersion_real
_atom_type_scat_dispersion_imag
_atom_type_scat_source
C C 0.0033 0.0016 'International Tables Vol C Tables 4.2.6.8 and 6.1.1.4'
H H 0.0000 0.0000 'International Tables Vol C Tables 4.2.6.8 and 6.1.1.4'
N N 0.0061 0.0033 'International Tables Vol C Tables 4.2.6.8 and 6.1.1.4'
O O 0.0106 0.0060 'International Tables Vol C Tables 4.2.6.8 and 6.1.1.4'
I I -0.4742 1.8119 'International Tables Vol C Tables 4.2.6.8 and 6.1.1.4'
loop_
_geom_angle_atom_site_label_1
_geom_angle_atom_site_label_2
_geom_angle_atom_site_label_3
_geom_angle
C1 N1 C8 126.37(18)
C1 N1 H1 116.8
C8 N1 H1 116.8
O1 C1 N1 124.4(2)
O1 C1 C2 121.64(19)
N1 C1 C2 113.98(18)
C7 C2 C3 118.70(19)
C7 C2 C1 119.60(19)
C3 C2 C1 121.68(18)
C4 C3 C2 120.61(19)
C4 C3 I1 117.07(16)
C2 C3 I1 122.08(15)
C3 C4 C5 119.7(2)
C3 C4 H4 120.1
C5 C4 H4 120.1
C6 C5 C4 120.3(2)
C6 C5 H5 119.9
C4 C5 H5 119.9
C7 C6 C5 119.9(2)
C7 C6 H6 120.1
C5 C6 H6 120.1
C6 C7 C2 120.8(2)
C6 C7 H7 119.6
C2 C7 H7 119.6
C13 C8 C9 119.80(19)
C13 C8 N1 117.79(19)
C9 C8 N1 122.38(19)
C10 C9 C8 119.4(2)
C10 C9 H9 120.3
C8 C9 H9 120.3
C11 C10 C9 121.1(2)
C11 C10 H10 119.5
C9 C10 H10 119.5
C10 C11 C12 119.0(2)
C10 C11 H11 120.5
C12 C11 H11 120.5
C13 C12 C11 120.7(2)
C13 C12 H12 119.7
C11 C12 H12 119.7
C12 C13 C8 120.1(2)
C12 C13 H13 120.0
C8 C13 H13 120.0
loop_
_geom_bond_atom_site_label_1
_geom_bond_atom_site_label_2
_geom_bond_distance
I1 C3 2.104(2)
O1 C1 1.225(3)
N1 C1 1.354(3)
N1 C8 1.420(3)
N1 H1 0.8800
C1 C2 1.505(3)
C2 C7 1.395(3)
C2 C3 1.399(3)
C3 C4 1.387(3)
C4 C5 1.390(3)
C4 H4 0.9500
C5 C6 1.385(3)
C5 H5 0.9500
C6 C7 1.384(3)
C6 H6 0.9500
C7 H7 0.9500
C8 C13 1.392(3)
C8 C9 1.394(3)
C9 C10 1.388(3)
C9 H9 0.9500
C10 C11 1.388(3)
C10 H10 0.9500
C11 C12 1.388(3)
C11 H11 0.9500
C12 C13 1.382(3)
C12 H12 0.9500
C13 H13 0.9500
loop_
_geom_hbond_atom_site_label_D
_geom_hbond_atom_site_label_H
_geom_hbond_atom_site_label_A
_geom_hbond_site_symmetry_A
_geom_hbond_distance_DH
_geom_hbond_distance_HA
_geom_hbond_distance_DA
_geom_hbond_angle_DHA
_geom_hbond_publ_flag
N1 H1 O1 1_655 0.88 2.15 2.942(2) 150 yes
C3 I1 Cg2 2_556 2.104(2) 3.8310(10) 5.816(2) 155.90(10) yes
C6 H6 Cg2 2_666 0.95 2.81 3.627(2) 144 yes
loop_
_geom_torsion_atom_site_label_1
_geom_torsion_atom_site_label_2
_geom_torsion_atom_site_label_3
_geom_torsion_atom_site_label_4
_geom_torsion
C8 N1 C1 O1 -0.6(4)
C8 N1 C1 C2 179.69(19)
O1 C1 C2 C7 -127.2(2)
N1 C1 C2 C7 52.6(3)
O1 C1 C2 C3 51.1(3)
N1 C1 C2 C3 -129.1(2)
C7 C2 C3 C4 0.9(3)
C1 C2 C3 C4 -177.47(19)
C7 C2 C3 I1 -173.28(15)
C1 C2 C3 I1 8.4(3)
C2 C3 C4 C5 0.1(3)
I1 C3 C4 C5 174.51(16)
C3 C4 C5 C6 -0.7(3)
C4 C5 C6 C7 0.4(3)
C5 C6 C7 C2 0.6(3)
C3 C2 C7 C6 -1.2(3)
C1 C2 C7 C6 177.16(19)
C1 N1 C8 C13 -152.1(2)
C1 N1 C8 C9 29.9(3)
C13 C8 C9 C10 -0.7(3)
N1 C8 C9 C10 177.34(19)
C8 C9 C10 C11 0.1(3)
C9 C10 C11 C12 0.3(3)
C10 C11 C12 C13 -0.1(3)
C11 C12 C13 C8 -0.4(3)
C9 C8 C13 C12 0.8(3)
N1 C8 C13 C12 -177.3(2)

_cod_database_fobs_code 2242569
