#------------------------------------------------------------------------------
#$Date: 2018-10-20 05:44:19 +0300 (Sat, 20 Oct 2018) $
#$Revision: 211564 $
#$URL: file:///home/coder/svn-repositories/cod/cif/2/24/26/2242682.cif $
#------------------------------------------------------------------------------
#
# This file is available in the Crystallography Open Database (COD),
# http://www.crystallography.net/. The original data for this entry
# were provided by IUCr Journals, http://journals.iucr.org/.
#
# The file may be used within the scientific community so long as
# proper attribution is given to the journal article from which the
# data were obtained.
#
data_2242682
loop_
_publ_author_name
'de Moraes, Lygia S.'
'Kennedy, Alan R.'
'Logan, Charlie R.'
_publ_section_title
;
 Crystal structures of three halide salts of <small>L</small>-asparagine:
 an isostructural series
;
_journal_issue                   11
_journal_name_full               'Acta Crystallographica Section E'
_journal_page_first              1619
_journal_page_last               1623
_journal_paper_doi               10.1107/S2056989018014603
_journal_volume                  74
_journal_year                    2018
_chemical_absolute_configuration ad
_chemical_formula_iupac          'C4 H9 N2 O3 +, I -, H2 O'
_chemical_formula_moiety         'C4 H9 N2 O3 +, I -, H2 O'
_chemical_formula_sum            'C4 H11 I N2 O4'
_chemical_formula_weight         278.05
_chemical_name_systematic
;
<i>L</i>-Asparaginium iodide monohydrate
;
_space_group_crystal_system      monoclinic
_space_group_IT_number           4
_space_group_name_Hall           'P 2yb'
_space_group_name_H-M_alt        'P 1 21 1'
_symmetry_space_group_name_Hall  'P 2yb'
_symmetry_space_group_name_H-M   'P 1 21 1'
_atom_sites_solution_hydrogens   mixed
_atom_sites_solution_primary     direct
_audit_creation_method           SHELXL-2014/7
_cell_angle_alpha                90
_cell_angle_beta                 102.772(8)
_cell_angle_gamma                90
_cell_formula_units_Z            2
_cell_length_a                   5.3668(5)
_cell_length_b                   10.6744(8)
_cell_length_c                   8.4532(6)
_cell_measurement_reflns_used    4015
_cell_measurement_temperature    123(2)
_cell_measurement_theta_max      29.8455
_cell_measurement_theta_min      3.8101
_cell_volume                     472.28(7)
_computing_cell_refinement
;
Crysalis PRO (Agilent, 2014)
;
_computing_data_collection
;
Crysalis PRO (Agilent, 2014)
;
_computing_data_reduction
;
Crysalis PRO (Agilent, 2014)
;
_computing_molecular_graphics
;
Mercury (Macrae <i>et al.</i>,  2008)
;
_computing_publication_material
;
SHELXL2014 (Sheldrick, 2015)
;
_computing_structure_refinement
;
SHELXL2014 (Sheldrick, 2015)
;
_computing_structure_solution    'by substitution from Br equivalent'
_diffrn_ambient_temperature      123(2)
_diffrn_measured_fraction_theta_full 0.998
_diffrn_measured_fraction_theta_max 0.919
_diffrn_measurement_device_type  'Oxford Diffraction Xcalibur E'
_diffrn_measurement_method       'omega scans'
_diffrn_radiation_type           MoK\a
_diffrn_radiation_wavelength     0.71073
_diffrn_reflns_av_R_equivalents  0.0386
_diffrn_reflns_av_unetI/netI     0.0524
_diffrn_reflns_limit_h_max       7
_diffrn_reflns_limit_h_min       -7
_diffrn_reflns_limit_k_max       14
_diffrn_reflns_limit_k_min       -14
_diffrn_reflns_limit_l_max       11
_diffrn_reflns_limit_l_min       -11
_diffrn_reflns_number            5854
_diffrn_reflns_theta_full        27.000
_diffrn_reflns_theta_max         29.912
_diffrn_reflns_theta_min         3.818
_diffrn_source                   'sealed tube'
_diffrn_standards_decay_%        0
_diffrn_standards_interval_count 0
_diffrn_standards_number         0
_exptl_absorpt_coefficient_mu    3.368
_exptl_absorpt_correction_T_max  0.612
_exptl_absorpt_correction_T_min  0.286
_exptl_absorpt_correction_type   analytical
_exptl_absorpt_process_details
;
[CrysAlis PRO (Agilent, 2014), based on expressions derived
by
Clark & Reid (1995)]
;
_exptl_crystal_colour            colourless
_exptl_crystal_density_diffrn    1.955
_exptl_crystal_description       'fragment cut from long rod'
_exptl_crystal_F_000             268
_exptl_crystal_size_max          0.6
_exptl_crystal_size_mid          0.35
_exptl_crystal_size_min          0.15
_refine_diff_density_max         0.871
_refine_diff_density_min         -0.653
_refine_ls_abs_structure_details
;
 Refined as an inversion twin
;
_refine_ls_abs_structure_Flack   -0.07(4)
_refine_ls_extinction_method     none
_refine_ls_goodness_of_fit_ref   1.020
_refine_ls_hydrogen_treatment    mixed
_refine_ls_matrix_type           full
_refine_ls_number_parameters     117
_refine_ls_number_reflns         2458
_refine_ls_number_restraints     7
_refine_ls_restrained_S_all      1.018
_refine_ls_R_factor_all          0.0325
_refine_ls_R_factor_gt           0.0286
_refine_ls_shift/su_max          0.001
_refine_ls_shift/su_mean         0.000
_refine_ls_structure_factor_coef Fsqd
_refine_ls_weighting_details
'w=1/[\s^2^(Fo^2^)+(0.0215P)^2^] where P=(Fo^2^+2Fc^2^)/3'
_refine_ls_weighting_scheme      calc
_refine_ls_wR_factor_gt          0.0553
_refine_ls_wR_factor_ref         0.0581
_reflns_number_gt                2288
_reflns_number_total             2458
_reflns_threshold_expression     'I > 2\s(I)'
_cod_data_source_file            hb7779sup1.cif
_cod_data_source_block           III
_cod_database_code               2242682
_shelx_space_group_comment
;
The symmetry employed for this shelxl refinement is uniquely defined
by the following loop, which should always be used as a source of
symmetry information in preference to the above space-group names.
They are only intended as comments.
;
_shelx_hkl_file
;
   0 -14   0 32241.7 4194.27   5
   0 -14   1 26332.3 3868.54   5
   0 -14  -1 32928.2 3967.86   5
   0 -14   2 3742.45 1600.84   5
   0 -14  -3-49.1127 380.234   7
   0 -13   0 668.110 858.775   5
   0 -13  -1 15683.9 2723.61   5
   0 -13   1 15689.7 3004.67   5
   0 -13  -1 19166.8 2382.92   7
   0 -13   2 17225.7 3249.33   5
   0 -13  -2 20808.2 2677.15   7
   0 -13   3 27822.7 4036.85   5
   0 -13  -3 29736.4 3402.52   7
   0 -13  -4 27548.6 3552.61   7
   0 -12   0 27075.1 2576.33   7
   0 -12   0 25817.6 3333.66   5
   0 -12  -1 39805.7 3936.77   5
   0 -12  -1 43181.9 3484.32   7
   0 -12   1 46884.6 4699.25   5
   0 -12  -2 20109.0 2536.12   7
   0 -12   2 22359.8 3417.27   5
   0 -12  -2 19497.2 2638.78   5
   0 -12   3 34.1147 582.938   5
   0 -12  -3 100.760 405.858   7
   0 -12   4 7534.74 2001.42   5
   0 -12  -4 8358.73 1900.69   7
   0 -12  -5 16318.8 2860.00   7
   0 -12   5 18306.5 3225.06   5
   0 -11   0-307.200 885.205   5
   0 -11   0 290.280 343.682   7
   0 -11   1 18497.5 2787.16   5
   0 -11  -1 17867.5 2512.69   5
   0 -11  -1 20395.4 2276.56   7
   0 -11  -2 39507.9 3406.10   7
   0 -11   2 38586.8 4219.30   5
   0 -11  -2 43694.4 3626.20   5
   0 -11  -3 57013.4 4396.37   7
   0 -11   3 62759.5 5408.78   5
   0 -11  -3 62303.1 4031.93   5
   0 -11  -4 37408.1 3847.59   7
   0 -11   4 44716.3 4622.91   5
   0 -11  -5 8167.07 1993.19   7
   0 -11   5 9528.33 2202.76   5
   0 -11   6 38.7754 789.752   5
   0 -11  -6 579.148 794.996   7
   0 -10   0 118057. 5008.68   7
   0 -10   0 120444. 6502.59   5
   0 -10  -1 82622.1 5113.26   5
   0 -10   1 88730.3 5867.32   5
   0 -10  -1 91339.5 4655.31   7
   0 -10   2 5115.26 1455.49   5
   0 -10  -2 3234.42 917.186   5
   0 -10  -2 5318.76 1221.46   7
   0 -10  -3-27.3473 349.555   7
   0 -10  -3 257.413 393.210   5
   0 -10   3 353.329 669.127   5
   0 -10  -4 25249.3 3042.45   7
   0 -10   4 22357.7 3216.22   5
   0 -10  -5 40594.6 4273.83   7
   0 -10   5 44607.7 4521.38   5
   0 -10  -6 41801.1 4626.97   7
   0 -10   6 44634.3 4563.57   5
   0 -10  -7 11355.4 2520.37   7
   0 -10   7 14773.7 2748.65   5
   0 -10   8 2974.84 1257.11   5
   0  -9   0-174.085 392.578   5
   0  -9   0 533.852 345.049   7
   0  -9   1 27826.0 3150.36   5
   0  -9  -1 26995.3 2365.23   7
   0  -9  -1 25553.7 2622.17   5
   0  -9  -2 92738.8 4822.24   7
   0  -9   2 93122.0 5907.99   5
   0  -9  -2 87894.6 4636.00   5
   0  -9  -3 151961. 5652.26   5
   0  -9   3 148613. 7663.79   5
   0  -9  -3 145101. 6645.94   7
   0  -9   4 19549.4 2710.57   5
   0  -9  -4 18594.1 2517.96   7
   0  -9   5 20843.1 2894.76   5
   0  -9  -5 22189.5 2992.46   7
   0  -9   6 3948.00 1423.38   5
   0  -9  -6 3870.02 1387.66   7
   0  -9   7 7052.93 1834.19   5
   0  -9  -7 5363.80 1704.53   7
   0  -9   8 31578.2 3776.69   5
   0  -9  -8 30743.2 4049.93   7
   0  -9   9 18056.1 2925.01   5
   0  -8   0 181126. 7371.09   5
   0  -8   0 189900. 5791.14   7
   0  -8  -1 76407.6 3834.13   7
   0  -8   1 83509.2 3319.76   7
   0  -8   1 77176.4 4976.87   5
   0  -8  -1 79263.6 4416.74   5
   0  -8   2 29172.5 3099.35   5
   0  -8  -2 30409.3 2498.41   5
   0  -8  -2 29003.8 2569.51   7
   0  -8  -3 5864.52 1254.94   7
   0  -8   3 3324.87 1089.88   5
   0  -8  -3 4719.62 900.740   5
   0  -8   4 29669.7 3215.22   5
   0  -8  -4 30530.5 2008.54   5
   0  -8  -4 27444.4 2941.64   7
   0  -8  -5 70761.0 5231.82   7
   0  -8   5 72701.2 5107.89   5
   0  -8  -6 65441.1 5283.10   7
   0  -8   6 75220.4 5322.89   5
   0  -8  -7 40908.7 4354.26   7
   0  -8   7 46371.6 4289.87   5
   0  -8  -8 9817.62 2244.02   7
   0  -8   8 9235.63 2025.02   5
   0  -8   9 4195.51 1384.03   5
   0  -7   0-284.589 250.294   7
   0  -7   0 381.083 370.357   5
   0  -7  -1 18669.1 1765.25   7
   0  -7   1 20317.2 2355.34   5
   0  -7   1 18844.2 1413.43   7
   0  -7  -1 18170.0 1969.80   5
   0  -7  -2 119084. 4669.30   5
   0  -7   2 106133. 5692.51   5
   0  -7  -2 107662. 4744.49   7
   0  -7  -3 112304. 4102.28   5
   0  -7  -3 115955. 5412.25   7
   0  -7   3 120794. 6088.06   5
   0  -7  -4 105271. 3504.35   5
   0  -7   4 104765. 5827.92   5
   0  -7  -4 96333.0 5420.35   7
   0  -7   5 40605.4 3593.45   5
   0  -7  -5 35708.0 3556.20   7
   0  -7  -6 1042.06 728.275   7
   0  -7   6 1685.01 811.575   5
   0  -7   7 37338.9 3657.25   5
   0  -7  -7 38625.5 4028.52   7
   0  -7  -8 42199.4 4383.49   7
   0  -7   8 46578.8 4187.36   5
   0  -7  -9 35681.9 4191.21   7
   0  -7   9 36897.6 3769.97   5
   0  -6   0 198609. 6847.23   5
   0  -6   0 207691. 5350.85   7
   0  -6   1 202042. 7260.30   5
   0  -6  -1 203008. 5834.72   7
   0  -6   1 201656. 4752.12   7
   0  -6  -1 196607. 6343.06   5
   0  -6  -2 45596.1 2607.50   5
   0  -6   2 45881.0 3368.38   5
   0  -6  -2 47022.9 2925.20   7
   0  -6  -3 3564.17 958.753   7
   0  -6  -3 3525.63 626.437   5
   0  -6   3 2647.57 885.206   5
   0  -6   4 47690.3 3649.00   5
   0  -6  -4 43634.4 3499.11   7
   0  -6  -4 49166.4 1996.93   5
   0  -6  -5 109785. 6060.28   7
   0  -6   5 115431. 5856.59   5
   0  -6   6 81485.8 4952.78   5
   0  -6  -6 67591.6 4940.69   7
   0  -6   7 58546.5 4321.41   5
   0  -6  -7 53708.7 4593.06   7
   0  -6   8 5901.61 1443.05   5
   0  -6  -8 4910.77 1444.94   7
   0  -6  -8 5536.87 1671.95   4
   0  -6  -9-52.3251 725.179   7
   0  -6  -9 532.898 682.723   4
   0  -6   9 18.0884 330.774   5
   0  -6 -10 15177.9 2726.01   7
   0  -5   0 517.802 362.394   5
   0  -5   0 224.316 217.011   7
   0  -5   1 186043. 6428.01   5
   0  -5  -1 187618. 5235.08   7
   0  -5   1 190385. 4187.73   7
   0  -5  -1 175370. 5430.17   5
   0  -5  -2 288602. 6650.71   2
   0  -5  -2 278140. 7410.64   7
   0  -5   2 283217. 8410.80   5
   0  -5  -2 283932. 6555.55   5
   0  -5  -3 190112. 4473.31   5
   0  -5   3 191545. 6846.01   5
   0  -5  -3 189451. 6576.96   7
   0  -5  -3 190709. 4568.13   2
   0  -5  -4 122934. 5666.18   7
   0  -5   4 124332. 5488.52   5
   0  -5  -4 118070. 2581.33   5
   0  -5   5 5716.10 1273.57   5
   0  -5  -5 7235.37 1317.16   4
   0  -5   5 6763.89 786.572   1
   0  -5  -5 6242.64 1368.73   7
   0  -5  -6 1147.32 516.045   4
   0  -5   6 1711.16 734.001   5
   0  -5  -6 820.764 540.276   7
   0  -5   7 36282.6 3195.61   5
   0  -5  -7 33591.5 3460.84   7
   0  -5  -7 33250.0 3506.52   4
   0  -5  -8 42058.9 4310.00   4
   0  -5  -8 47136.3 4232.30   7
   0  -5   8 46874.7 3717.76   5
   0  -5  -9 32138.4 3933.91   4
   0  -5  -9 37307.6 3943.20   7
   0  -5 -10 15328.1 2587.56   7
   0  -5 -10 11208.2 2485.72   4
   0  -4   0 192381. 5600.36   5
   0  -4   0 200902. 4480.33   7
   0  -4   1 383595. 8964.20   5
   0  -4  -1 388828. 7847.35   7
   0  -4  -1 374634. 7925.71   5
   0  -4  -1 412637. 8153.66   2
   0  -4   1 400359. 6462.22   7
   0  -4   2 114150. 4630.92   5
   0  -4  -2 115531. 3373.71   5
   0  -4  -2 123138. 3490.40   2
   0  -4  -2 111770. 4203.38   7
   0  -4  -3 17587.4 958.631   5
   0  -4  -3 16531.0 1766.13   7
   0  -4   3 13629.0 671.974   1
   0  -4   3 18832.3 1914.06   5
   0  -4  -3 18458.3 1015.32   2
   0  -4  -4 115536. 4647.45   4
   0  -4   4 104622. 3048.60   1
   0  -4  -4 100237. 4937.13   7
   0  -4   4 109558. 4841.05   5
   0  -4  -5 85039.6 4528.34   4
   0  -4  -5 79797.6 4618.85   7
   0  -4   5 84951.8 4345.60   5
   0  -4   5 72395.0 3092.16   1
   0  -4   5 88056.8 4435.31   6
   0  -4  -6 140300. 6613.61   4
   0  -4   6 144340. 5902.24   5
   0  -4  -6 136220. 6457.94   7
   0  -4   6 141965. 6391.41   6
   0  -4  -7 42671.7 3944.14   4
   0  -4  -7 44142.1 3786.96   7
   0  -4   7 46720.1 3398.35   5
   0  -4   7 43003.1 3760.70   6
   0  -4   8 10764.0 2050.18   6
   0  -4  -8 13102.3 2162.99   7
   0  -4   8 11921.3 1738.80   5
   0  -4  -8 8806.10 2003.05   4
   0  -4  -9 608.276 590.834   7
   0  -4  -9 190.357 542.741   4
   0  -4   9 712.823 664.383   6
   0  -4  10 17328.6 2922.75   6
   0  -4 -10 16001.8 2542.93   7
   0  -4 -10 13565.5 2653.74   4
   0  -4 -11 25233.5 3241.75   7
   0  -3   0 174.045 236.270   5
   0  -3   0 73.7841 144.014   2
   0  -3   0 157.330 152.634   7
   0  -3  -1 149483. 3797.08   2
   0  -3   1 152341. 4619.30   2
   0  -3  -1 141720. 3705.74   5
   0  -3  -1 146652. 3920.34   7
   0  -3  -2 127198. 3001.53   5
   0  -3  -2 126937. 2991.72   2
   0  -3  -2 128170. 4238.51   7
   0  -3   2 134786. 4588.66   5
   0  -3   3 136556. 4886.86   5
   0  -3   3 150046. 3457.46   1
   0  -3  -3 144281. 4597.47   4
   0  -3   4 343143. 8592.82   5
   0  -3  -4 362626. 8898.79   4
   0  -3   4 363435. 8786.28   6
   0  -3   5 49976.4 3019.84   5
   0  -3  -5 49709.2 3426.32   4
   0  -3   5 50082.4 3436.41   6
   0  -3   6 1137.93 549.319   5
   0  -3  -6 199.248 495.809   4
   0  -3   6 689.926 463.197   6
   0  -3   7 43459.5 3021.68   5
   0  -3   7 40564.7 3690.99   6
   0  -3  -7 30073.1 3260.06   4
   0  -3  -7 36963.3 3318.37   7
   0  -3   8 78729.2 4192.85   5
   0  -3  -8 71464.8 4841.40   7
   0  -3   8 81672.3 5749.87   6
   0  -3  -9 65203.2 4794.09   7
   0  -3  -9 60707.3 5083.97   4
   0  -3   9 64373.3 5341.66   6
   0  -3  10 25037.0 3420.38   6
   0  -3 -10 22616.9 2955.80   7
   0  -3 -10 18985.9 2987.29   4
   0  -3 -11 968.451 712.240   7
   0  -2   0 210821. 4535.59   2
   0  -2   0 210768. 4484.69   5
   0  -2   0 220199. 3798.34   7
   0  -2  -1 232656. 4262.48   5
   0  -2  -1 241608. 4911.98   7
   0  -2   1 240660. 5346.71   5
   0  -2   1 248476. 5428.94   2
   0  -2  -1 234716. 4341.71   2
   0  -2   2 197977. 4604.08   6
   0  -2   2 201604. 5157.13   5
   0  -2   2 202323. 3723.26   1
   0  -2  -2 193218. 4592.61   6
   0  -2  -2 198852. 4661.21   4
   0  -2   2 207499. 5200.45   2
   0  -2   3 5161.16 823.593   2
   0  -2   3 5236.87 832.162   6
   0  -2  -3 4369.22 767.462   4
   0  -2   3 5241.53 819.710   5
   0  -2   3 4110.57 594.596   1
   0  -2   4 34675.5 2117.07   1
   0  -2   4 38849.2 2305.33   5
   0  -2   4 36353.7 2576.67   6
   0  -2  -4 40026.5 2770.38   4
   0  -2   5 156743. 5125.80   5
   0  -2   5 162708. 6307.08   6
   0  -2  -5 160535. 6503.36   4
   0  -2   6 183235. 7357.72   6
   0  -2   6 176140. 5674.38   5
   0  -2   7 112929. 4558.70   5
   0  -2   7 120149. 6358.29   6
   0  -2   8 13863.2 2269.81   6
   0  -2  -8 12552.2 1951.68   7
   0  -2  -8 13164.6 2215.78   4
   0  -2   8 14353.0 1602.86   5
   0  -2  -9 3800.85 1181.47   7
   0  -2   9 4259.00 1325.28   6
   0  -2  -9 2028.91 1012.48   4
   0  -2  10 15126.6 2619.39   6
   0  -2 -10 12265.7 2385.30   4
   0  -2 -10 16560.4 2426.89   7
   0  -1   2 528826. 9652.83   3
   0  -1   2 546202. 9117.56   2
   0  -1   2 571776. 9574.44   6
   0  -1  -2 584835. 9713.63   4
   0  -1  -2 583227. 9586.15   6
   0  -1   2 550656. 9116.22   5
   0  -1   3 468939. 8493.89   2
   0  -1   3 459859. 8358.86   5
   0  -1  -3 491223. 10157.0   4
   0  -1   3 459818. 9574.32   6
   0  -1   4 114131. 3564.00   5
   0  -1   4 116661. 3652.54   2
   0  -1  -4 107591. 4737.38   4
   0  -1   4 120472. 4830.93   6
   0  -1  -5 27788.2 1266.15   2
   0  -1   5 32347.5 1949.51   5
   0  -1  -5 28666.1 2611.70   4
   0  -1   6 863.491 396.637   5
   0  -1  -6 683.354 570.072   4
   0  -1  -6 662.012 222.716   2
   0  -1   6 476.276 386.521   6
   0  -1  -7 46369.5 3862.42   4
   0  -1   7 49428.2 2638.85   5
   0  -1   7 53532.8 4051.21   6
   0  -1  -8 49734.8 4246.78   4
   0  -1   8 53822.1 4316.67   6
   0  -1  -9 62098.4 4998.87   4
   0  -1   9 67093.7 5095.15   6
   0  -1  -9 63488.3 4391.33   7
   0  -1 -10 27268.1 2980.96   7
   0  -1  10 27604.4 3424.63   6
   0  -1 -10 23331.4 3199.45   4
   0   0   2 69278.0 1840.00   2
   0   0  -2 67400.0 1855.13   5
   0   0  -2 69492.6 1847.33   2
   0   0  -2 69244.2 2974.44   4
   0   0   2 73492.4 2766.11   6
   0   0   2 69950.2 1792.39   5
   0   0   2 76317.7 2847.28   3
   0   0  -2 72604.0 2753.72   6
   0   0  -3 45735.1 2812.10   4
   0   0  -3 40393.6 1594.22   5
   0   0  -3 41741.6 1619.65   2
   0   0   3 46230.1 2618.09   6
   0   0   3 44096.9 1593.45   5
   0   0  -4 45508.6 1879.19   5
   0   0  -4 45209.4 3147.01   4
   0   0   4 41038.0 1597.86   8
   0   0  -4 43741.2 1872.23   2
   0   0   4 47815.9 2999.32   6
   0   0   4 44138.9 1805.69   5
   0   0   5 271808. 5270.54   5
   0   0  -5 280396. 8676.01   4
   0   0  -5 261117. 5302.59   5
   0   0  -5 259015. 5406.60   2
   0   0   5 282798. 8185.37   6
   0   0   6 109237. 5427.84   6
   0   0   6 116659. 3516.79   5
   0   0  -6 108907. 5724.68   4
   0   0  -6 109932. 3665.40   2
   0   0   7 33351.8 3158.13   6
   0   0   7 35636.6 1922.94   5
   0   0  -7 33162.0 3276.45   4
   0   0  -7 30670.2 1882.64   2
   0   0   8 25037.9 2917.28   6
   0   0  -8 21302.7 2740.73   4
   0   0  -9 2193.57 777.435   7
   0   0   9 2235.21 1032.48   6
   0   0  -9 1187.65 638.217   4
   0   0  10 4739.09 1467.93   6
   0   0 -10 4622.76 1382.28   4
   0   1   2 595548. 10377.5   3
   0   1   2 576817. 9683.20   6
   0   1  -2 556452. 9916.36   3
   0   1  -2 580771. 9446.23   2
   0   1   2 590180. 9886.12   4
   0   1  -2 571076. 9305.97   5
   0   1  -2 593124. 9823.79   6
   0   1   3 473231. 9661.02   6
   0   1  -3 470682. 8598.08   2
   0   1  -3 471507. 8460.70   5
   0   1  -3 485127. 9938.20   3
   0   1  -4 117594. 3648.30   5
   0   1   4 117997. 4692.88   6
   0   1  -4 113104. 3663.11   2
   0   1  -5 27601.7 1855.85   2
   0   1  -5 27716.7 2746.23   4
   0   1   5 25538.2 1131.72   5
   0   1   5 26945.8 2420.18   6
   0   1   6 451.077 527.574   6
   0   1  -6 329.005 477.102   4
   0   1   6 490.690 183.494   5
   0   1  -6 1163.09 423.899   2
   0   1  -7 49313.1 2797.06   2
   0   1   7 41486.2 3511.90   6
   0   1  -7 47370.7 3967.91   4
   0   1  -8 52686.1 4381.72   4
   0   1   8 49470.4 4067.42   6
   0   1   9 64752.1 4939.95   6
   0   1  -9 57066.0 4776.51   4
   0   1  -9 65336.8 4060.39   7
   0   1 -10 24024.7 3209.80   4
   0   1  10 22636.3 3071.78   6
   0   2   0 229795. 4655.85   2
   0   2   0 220410. 4552.84   5
   0   2   1 242660. 4396.88   5
   0   2  -1 251351. 4140.50   3
   0   2  -1 259811. 3843.10   7
   0   2   1 245483. 4382.02   2
   0   2   1 257183. 4759.44   4
   0   2   1 250250. 4742.50   6
   0   2  -1 250265. 5506.51   5
   0   2  -1 256871. 5575.27   2
   0   2  -2 195549. 4513.53   6
   0   2  -2 189584. 4546.78   3
   0   2  -2 189489. 4051.59   8
   0   2   2 182973. 4914.65   3
   0   2  -2 200369. 5105.86   2
   0   2  -2 195983. 4957.99   5
   0   2   2 188176. 4530.76   6
   0   2   2 198664. 4598.13   4
   0   2  -3 3133.23 374.720   8
   0   2  -3 4054.00 710.960   2
   0   2   3 4740.10 786.898   6
   0   2  -3 3933.39 765.139   3
   0   2  -3 5135.62 769.271   5
   0   2  -4 30158.2 1236.78   8
   0   2   4 34112.0 2434.11   6
   0   2  -4 35112.1 2254.32   2
   0   2  -5 149304. 5151.97   2
   0   2   5 151518. 5951.20   6
   0   2   6 159453. 6648.26   6
   0   2  -6 175269. 5758.38   2
   0   2  -6 163845. 7309.33   4
   0   2  -7 111380. 6337.19   4
   0   2   7 101286. 5597.22   6
   0   2  -7 105405. 4594.36   2
   0   2  -8 12353.5 1562.44   2
   0   2   8 10125.7 1856.69   6
   0   2  -8 11295.1 2081.79   4
   0   2  -9 3953.33 1259.78   4
   0   2   9 3612.32 1173.71   6
   0   2 -10 13676.2 2452.29   4
   0   2  10 13585.4 2398.94   6
   0   3   0 724.390 337.826   5
   0   3   0 205.756 163.908   7
   0   3   0 355.354 247.993   2
   0   3   1 136646. 3532.02   5
   0   3  -1 142422. 2859.47   7
   0   3   1 132064. 3502.07   2
   0   3  -1 142375. 4455.06   2
   0   3  -1 145050. 4401.77   5
   0   3  -2 136432. 4670.22   2
   0   3  -2 135114. 3554.12   3
   0   3   2 129876. 3796.79   6
   0   3   2 123431. 2928.48   2
   0   3  -3 139379. 4981.92   2
   0   3  -3 152333. 3817.79   8
   0   3   3 137223. 4478.35   6
   0   3  -3 138315. 4556.00   3
   0   3  -4 343279. 8233.71   2
   0   3   4 341529. 8087.29   6
   0   3  -5 49514.4 3081.53   2
   0   3   5 48113.6 3244.35   6
   0   3  -6 2409.23 739.195   2
   0   3   6 2655.02 902.789   6
   0   3  -7 29076.2 3249.17   4
   0   3  -7 37313.8 2899.09   2
   0   3   7 32677.9 3199.16   6
   0   3  -8 69454.4 4101.67   2
   0   3   8 70314.9 5006.66   6
   0   3  -8 62747.5 5106.29   4
   0   3   9 64545.7 5066.31   6
   0   3  -9 57949.9 5027.40   4
   0   3 -10 20452.5 3107.51   4
   0   3  10 21550.0 3023.90   6
   0   4   0 217626. 5838.06   2
   0   4   0 216671. 4902.67   7
   0   4  -1 382774. 8891.37   2
   0   4   1 369000. 7609.49   5
   0   4   1 377590. 7717.58   2
   0   4  -1 387905. 6509.60   7
   0   4   2 121593. 3451.31   2
   0   4  -2 127481. 2773.15   7
   0   4  -2 124105. 4877.12   2
   0   4   2 114368. 3303.00   5
   0   4  -2 120647. 3300.79   3
   0   4   2 117985. 3864.32   6
   0   4   3 16082.3 940.193   2
   0   4  -3 17984.1 1867.36   2
   0   4  -3 18314.4 1541.44   3
   0   4  -3 13553.4 1289.72   8
   0   4   3 18665.0 1617.97   6
   0   4   4 104908. 4433.01   6
   0   4  -4 114263. 4978.97   2
   0   4   5 80277.3 4259.38   6
   0   4  -5 86433.0 4427.12   2
   0   4  -6 127178. 5672.52   2
   0   4   6 126579. 6055.03   6
   0   4  -7 44267.9 3394.26   2
   0   4   7 41581.3 3680.37   6
   0   4  -8 10960.4 2175.12   4
   0   4   8 11595.7 2091.52   6
   0   4  -8 10064.9 1675.73   2
   0   4  -9-343.059 859.303   4
   0   4   9 1141.65 763.361   6
   0   4  10 13922.5 2518.60   6
   0   4 -10 13222.3 2515.73   4
   0   5   0 171.295 368.790   2
   0   5   1 186840. 5434.46   2
   0   5  -1 187229. 4355.80   7
   0   5  -1 182276. 6214.14   2
   0   5  -2 283074. 8448.30   2
   0   5  -2 294572. 5725.23   3
   0   5  -2 286187. 5378.91   7
   0   5   2 287166. 6934.40   6
   0   5   2 286011. 6444.45   5
   0   5   2 280497. 6517.13   2
   0   5  -3 193520. 3866.21   7
   0   5  -3 181688. 6817.48   2
   0   5  -3 186386. 5307.62   3
   0   5   3 172205. 4278.29   2
   0   5   3 181095. 5668.34   6
   0   5   4 123590. 4922.88   6
   0   5  -4 137229. 5898.47   2
   0   5   5 6907.65 1291.36   6
   0   5  -5 5814.96 1245.08   2
   0   5  -6 1854.61 813.073   2
   0   5   6 966.121 593.998   6
   0   5  -7 31223.2 3060.50   2
   0   5   7 37444.8 3564.27   6
   0   5  -8 42562.9 3674.45   2
   0   5   8 37947.1 3849.11   6
   0   5   9 38544.0 4120.83   6
   0   5  -9 31961.0 3976.23   4
   0   5  10 11938.6 2441.37   6
   0   5 -10 11724.4 2504.17   4
   0   6   0 206537. 4852.53   1
   0   6   0 207847. 6761.80   2
   0   6  -1 175041. 3293.23   1
   0   6   1 193306. 6058.51   2
   0   6  -1 191799. 6889.21   2
   0   6   2 50306.0 2791.32   6
   0   6  -2 54096.3 3704.73   2
   0   6  -2 50887.0 2010.89   3
   0   6   2 52268.5 2802.97   2
   0   6  -2 49825.8 2096.60   7
   0   6   3 4555.50 907.106   6
   0   6  -3 3911.34 501.832   7
   0   6   3 4624.30 708.794   2
   0   6  -3 4028.35 721.336   3
   0   6  -3 5505.90 1298.53   2
   0   6  -4 43525.3 1661.37   7
   0   6  -4 46538.6 3622.70   2
   0   6   4 36361.6 1754.43   2
   0   6   4 44294.0 3062.72   6
   0   6   5 122997. 5666.94   6
   0   6  -5 127456. 6309.68   2
   0   6  -6 73698.4 4880.58   2
   0   6   6 72139.8 4664.03   6
   0   6  -7 56359.2 4412.28   2
   0   6   7 57459.1 4534.49   6
   0   6   8 6199.94 1612.28   6
   0   6  -8 7548.90 1676.58   2
   0   6   9 204.152 655.528   6
   0   6  -9 1279.08 845.509   2
   0   7   0 137.254 158.741   1
   0   7   0 650.363 419.933   2
   0   7   1 20806.2 2064.74   2
   0   7  -1 18965.0 820.206   3
   0   7  -1 17836.7 898.716   1
   0   7  -2 105735. 3555.70   7
   0   7   2 108352. 4545.21   2
   0   7  -2 111558. 5809.07   2
   0   7  -2 119601. 3206.21   3
   0   7   3 117069. 4221.46   2
   0   7  -3 115430. 3382.93   7
   0   7  -3 125599. 6342.75   2
   0   7   3 122011. 5017.45   6
   0   7  -4 106475. 5941.03   2
   0   7   4 103312. 4929.31   6
   0   7   4 92827.0 3363.91   2
   0   7   5 37005.8 3139.66   6
   0   7  -5 37617.3 3594.50   2
   0   7  -6 1603.30 932.682   2
   0   7   6 1853.27 786.231   6
   0   7   7 33141.2 3508.79   6
   0   7  -7 33270.3 3595.86   2
   0   7   8 51130.5 4698.75   6
   0   7  -8 45201.0 4263.49   2
   0   7  -9 33312.5 3704.55   2
   0   7   9 34940.7 4092.03   6
   0   8   0 135025. 2861.68   3
   0   8   0 177574. 7019.62   2
   0   8   1 67163.8 2540.48   3
   0   8   1 79692.5 4387.03   2
   0   8  -1 78842.9 4825.43   2
   0   8  -1 59929.2 1871.97   1
   0   8  -2 28769.3 3089.20   2
   0   8   2 34255.8 2705.50   2
   0   8   3 4845.14 936.755   2
   0   8  -3 4659.01 1309.47   2
   0   8   3 5979.70 1222.60   6
   0   8  -4 31557.9 3393.22   2
   0   8   4 26129.6 1909.24   2
   0   8   4 30706.4 2741.41   6
   0   8  -5 69608.4 5237.95   2
   0   8   5 70648.8 4500.92   6
   0   8  -6 74429.2 5563.99   2
   0   8   6 72203.1 4948.95   6
   0   8  -7 44877.1 4421.24   2
   0   8   7 44178.7 4149.09   6
   0   8   8 8202.78 1992.42   6
   0   8  -8 10796.7 2218.95   2
   0   8  -9 6363.91 1774.23   2
   0   9   0 73.5889 347.753   2
   0   9   1 28220.8 2802.38   2
   0   9  -1 27855.4 3053.00   2
   0   9   2 91017.5 4808.67   2
   0   9  -2 86267.7 5719.62   2
   0   9   3 137015. 5427.70   2
   0   9   3 145363. 6075.67   6
   0   9  -3 155182. 7949.39   2
   0   9  -4 17163.5 2683.07   2
   0   9   4 18733.3 2243.37   6
   0   9   5 19262.4 2437.12   6
   0   9  -5 17420.1 2750.20   2
   0   9   6 5138.75 1396.94   6
   0   9  -6 5109.96 1574.02   2
   0   9  -7 6870.68 1866.08   2
   0   9   7 6174.12 1568.27   6
   0   9  -8 28325.3 3781.39   2
   0   9   8 27494.4 3594.48   6
   0   9  -9 18756.9 3093.90   2
   0  10   0 117342. 6475.65   2
   0  10   1 93033.8 5496.01   2
   0  10  -1 83041.5 5703.00   2
   0  10   2 3791.18 1031.03   2
   0  10  -2 5488.45 1486.07   2
   0  10  -3 250.902 485.894   2
   0  10   3 96.5370 323.778   2
   0  10   3-532.313 442.164   6
   0  10   4 25188.9 2697.59   6
   0  10  -4 26043.2 3508.48   2
   0  10  -5 39711.3 4434.03   2
   0  10   5 46036.1 3901.99   6
   0  10   6 39488.4 3874.29   6
   0  10  -6 46116.1 4870.68   2
   0  10  -7 18259.2 3084.26   2
   0  10   7 14737.5 2521.05   6
   0  10  -8 6014.54 1828.24   2
   0  11   0 574.864 706.755   2
   0  11   1 15030.0 2290.29   2
   0  11  -1 17499.1 2735.56   2
   0  11   2 36687.5 3328.27   2
   0  11   2 40967.3 3390.54   6
   0  11  -2 40694.6 4331.85   2
   0  11  -3 56203.8 5308.99   2
   0  11   3 63242.6 4326.66   6
   0  11   3 59036.2 3973.20   2
   0  11  -4 40178.1 4580.37   2
   0  11   4 39844.7 3536.53   6
   0  11   5 8812.03 1788.26   6
   0  11  -5 9120.21 2267.71   2
   0  11  -6 516.118 548.492   2
   0  11   6 171.996 448.885   6
   0  11   7 6644.21 1749.77   6
   0  12   0 28232.4 3516.55   2
   0  12   1 33864.7 3610.98   2
   0  12  -1 36643.7 4139.00   2
   0  12  -2 18069.5 3059.31   2
   0  12   2 18869.6 2538.01   2
   0  12   2 22816.9 2640.15   6
   0  12   3 66.0663 413.798   6
   0  12  -3-1148.33 928.704   2
   0  12   4 7536.02 1627.58   6
   0  12  -4 9003.31 2325.76   2
   0  12   5 18258.1 2687.50   6
   0  12  -5 24674.3 3836.56   2
   0  12   6 38281.2 4030.84   6
   0  13   0 1249.58 855.143   2
   0  13   1 17727.1 2720.55   2
   0  13  -1 15309.3 2835.15   2
   0  13   2 14315.2 2322.59   2
   0  13  -2 17012.0 3106.17   2
   0  13   2 19461.2 2539.59   6
   0  13  -3 26363.9 4017.00   2
   0  13   3 26889.9 3107.28   6
   0  13   4 25691.8 3103.86   6
   0  14   0 26320.9 3644.67   2
   0  14  -1 25130.8 3712.10   2
   0  14   1 23743.5 3277.40   2
   0  14   2 5359.19 1411.62   6
   0  14   3 259.068 474.079   6
   1 -14  -3 23819.0 3146.56   7
  -1 -14   2 15329.0 3316.79   5
  -1 -14   1 17406.2 3368.93   5
   1 -14  -1 17869.9 2839.72   5
   1 -14   0 12592.4 2610.34   5
  -1 -14   0 21643.2 3484.34   5
   1 -14   1 2679.85 1272.70   5
  -1 -14  -1-1961.49 1143.77   5
  -1 -14  -3 10655.2 2199.53   7
  -1 -13   4 24431.9 3907.67   5
   1 -13  -4 25647.0 3326.99   7
  -1 -13   3 21428.6 3694.95   5
   1 -13  -3 22798.4 2950.82   7
   1 -13  -2 1668.17 869.654   5
  -1 -13   2 1842.40 1190.20   5
  -1 -13   1 6229.82 1973.49   5
   1 -13  -1 6866.11 1800.87   5
   1 -13   0 14744.3 2634.35   5
  -1 -13   0 20010.4 3204.63   5
  -1 -13  -1 48631.6 4774.31   5
   1 -13   1 50158.7 5088.13   5
   1 -13   2 23869.8 3771.00   5
  -1 -13  -2 25239.9 2984.32   7
   1 -13   3 19169.4 3443.67   5
  -1 -13  -3 15713.5 2575.36   7
  -1 -13  -4 958.655 772.127   7
  -1 -12   5 3642.56 1471.93   5
   1 -12  -5 3503.45 1287.71   7
   1 -12  -4 1134.03 746.618   7
  -1 -12   4 1085.51 872.569   5
   1 -12  -3 17032.5 2491.64   7
  -1 -12   3 18681.7 3200.62   5
  -1 -12   2 63354.6 5923.10   5
   1 -12  -2 48733.7 4091.04   5
   1 -12  -2 54100.3 4189.58   7
  -1 -12   1 61217.4 5756.09   5
   1 -12  -1 61226.7 4826.19   5
   1 -12   0 33666.0 3806.35   5
  -1 -12   0 39459.6 4370.41   5
  -1 -12  -1 1252.20 676.068   7
   1 -12   1 1564.04 1205.81   5
  -1 -12  -1 2292.94 1080.99   5
  -1 -12  -2 5631.03 1388.62   7
   1 -12   2 6225.74 1930.60   5
  -1 -12  -2 5622.45 1562.15   5
  -1 -12  -3 35922.3 3778.18   7
   1 -12   3 34761.7 4483.60   5
   1 -12   4 32035.7 4249.65   5
  -1 -12  -4 24769.1 3471.18   7
  -1 -12  -5 21955.5 3532.31   7
  -1 -11   7 624.938 696.370   5
   1 -11  -6 14427.9 2647.73   7
  -1 -11   6 15589.7 2792.59   5
  -1 -11   5 34797.8 4216.46   5
   1 -11  -5 35977.5 3929.20   7
   1 -11  -4 56996.1 4636.08   7
  -1 -11   4 64300.2 5732.07   5
   1 -11  -3 19044.0 2525.62   7
   1 -11  -3 20550.6 2287.52   5
  -1 -11   3 21303.7 3280.51   5
  -1 -11   2 8897.35 2126.47   5
   1 -11  -2 7517.75 1491.47   7
   1 -11  -2 7733.87 1545.67   5
   1 -11  -1 7830.89 1668.49   5
  -1 -11   1 6332.95 1883.46   5
   1 -11   0 39198.5 3903.37   5
  -1 -11   0 42337.8 4471.98   5
  -1 -11   0 42601.9 3074.66   7
  -1 -11  -1 74417.8 4451.42   7
   1 -11   1 75512.4 5700.60   5
  -1 -11  -1 75697.1 5581.74   5
  -1 -11  -2 57488.6 4488.26   5
  -1 -11  -2 54304.2 4150.41   7
   1 -11   2 46096.9 4722.88   5
   1 -11   3 19540.3 3188.99   5
  -1 -11  -3 17322.9 2563.24   7
   1 -11   4 1563.30 1145.49   5
  -1 -11  -4 2627.34 1111.44   7
  -1 -11  -5 11031.4 2452.56   7
   1 -11   5 6173.94 1836.99   5
  -1 -11  -6 13634.9 2877.41   7
   1 -11   6 16826.7 3059.74   5
  -1 -10   8 29723.9 3817.16   5
   1 -10  -7 44579.4 4812.43   7
  -1 -10   7 57737.1 5219.32   5
  -1 -10   6 19082.8 3008.87   5
   1 -10  -6 18556.7 2939.53   7
  -1 -10   5 1982.33 1029.67   5
   1 -10  -5 2065.02 879.291   7
   1 -10  -4 4930.23 1347.52   7
  -1 -10   4 4355.92 1467.62   5
  -1 -10   3 41170.8 4354.10   5
   1 -10  -3 41567.0 3097.75   5
   1 -10  -3 41230.4 3554.23   7
   1 -10  -2 80367.8 4674.37   5
   1 -10  -2 79790.6 4686.39   7
  -1 -10   2 77423.3 5854.03   5
  -1 -10   1 74504.1 5711.97   5
   1 -10  -1 61299.5 4393.77   5
   1 -10  -1 68493.2 4084.37   7
  -1 -10   1 72000.6 3486.05   7
  -1 -10   0 20874.9 2027.43   7
  -1 -10   0 22131.1 2959.83   5
   1 -10   0 18788.9 2614.71   5
  -1 -10  -1 12548.1 2162.31   5
   1 -10   1 14348.2 2350.18   5
  -1 -10  -1 15771.5 1948.75   7
  -1 -10  -2 6455.69 1457.53   5
  -1 -10  -2 6041.69 1374.15   7
   1 -10   2 6389.36 1777.22   5
   1 -10   3 36110.6 4034.67   5
  -1 -10  -3 38070.6 3205.17   5
  -1 -10  -3 33471.2 3459.24   7
   1 -10   4 54748.2 5007.65   5
  -1 -10  -4 55854.6 4966.17   7
   1 -10   5 49844.9 4849.90   5
  -1 -10  -5 46560.7 4831.18   7
  -1 -10  -6 22430.5 3490.09   7
   1 -10   6 28333.8 3741.21   5
   1 -10   7 1017.38 803.452   5
  -1 -10  -7-158.249 497.031   7
  -1  -9   9 18587.5 2954.39   5
  -1  -9   8 5766.01 1557.02   5
   1  -9  -8 4176.57 1486.02   7
   1  -9  -7 2734.17 1169.50   7
  -1  -9   7 2567.71 1131.67   5
  -1  -9   6 34384.9 3800.41   5
   1  -9  -6 28346.5 3453.04   7
   1  -9  -5 68067.6 5010.61   7
  -1  -9   5 76440.5 5693.27   5
   1  -9  -4 93412.9 5498.58   7
   1  -9  -4 94322.5 4100.38   5
  -1  -9   4 93410.8 6201.46   5
  -1  -9   3 21417.6 2988.69   5
   1  -9  -3 19482.8 1993.66   5
   1  -9  -3 20898.9 2389.15   7
  -1  -9   2 4179.08 1438.03   5
  -1  -9   2 4391.68 673.515   7
   1  -9  -2 2728.38 822.011   7
   1  -9  -2 3842.88 1001.55   5
  -1  -9   1 9218.21 1141.82   7
  -1  -9   1 11068.3 2040.18   5
   1  -9  -1 8898.28 1590.13   5
   1  -9  -1 9711.83 1448.39   7
  -1  -9   0 36138.3 2572.40   7
  -1  -9   0 32792.9 3457.71   5
   1  -9   0 37361.9 3429.08   5
   1  -9   1 99854.9 5932.36   5
  -1  -9  -1 109419. 5030.96   7
  -1  -9  -1 108324. 5961.38   5
  -1  -9  -2 77817.5 4768.63   5
  -1  -9  -2 73867.2 4558.21   7
   1  -9   2 73406.7 5335.58   5
  -1  -9  -3 48195.7 4098.50   7
   1  -9   3 46732.3 4382.48   5
  -1  -9  -3 57553.9 3751.21   5
   1  -9   4 3521.82 1409.18   5
  -1  -9  -4 4616.74 1388.76   7
   1  -9   5 9236.32 2061.41   5
  -1  -9  -5 5168.55 1572.69   7
  -1  -9  -6 22407.5 3376.39   7
   1  -9   6 21748.2 3190.52   5
  -1  -9  -7 57026.5 5566.60   7
   1  -9   7 63314.8 5375.52   5
   1  -9   8 28008.5 3620.77   5
   1  -8  -9 9784.07 2264.58   7
  -1  -8   9 11924.6 2203.44   5
  -1  -8   8 39140.5 3967.97   5
   1  -8  -8 36659.6 4152.54   7
  -1  -8   7 50990.3 4512.78   5
   1  -8  -7 40800.9 4291.60   7
  -1  -8   6 48589.3 4362.09   5
   1  -8  -6 42504.4 4090.43   7
  -1  -8   5 9888.99 1921.51   5
   1  -8  -5 7122.28 1583.71   7
  -1  -8   4 1983.10 710.061   5
   1  -8  -4 2220.55 597.658   5
   1  -8  -4 1845.94 772.704   7
  -1  -8   3 42673.0 3843.96   5
   1  -8  -3 37985.6 2581.16   5
   1  -8  -3 39777.9 3173.69   7
   1  -8  -2 144410. 5819.61   7
  -1  -8   2 147404. 7143.28   5
  -1  -8   2 145414. 3883.58   7
   1  -8  -2 143275. 5671.10   5
  -1  -8   1 184574. 5180.19   7
   1  -8  -1 178197. 6740.95   5
   1  -8  -1 171433. 6003.04   7
  -1  -8   1 178635. 7847.64   5
   1  -8   0 70503.6 4367.75   5
  -1  -8   0 63514.7 4465.87   5
  -1  -8   0 67398.2 3352.67   7
  -1  -8  -1 1899.33 710.329   5
  -1  -8  -1 2490.59 748.962   7
   1  -8   1 1687.88 657.319   5
  -1  -8  -2 14606.0 1895.43   5
   1  -8   2 15000.0 2318.52   5
  -1  -8  -2 16656.3 2105.91   7
   1  -8   3 63274.5 4740.20   5
  -1  -8  -3 63879.9 3730.64   5
  -1  -8  -3 60822.1 4498.02   7
  -1  -8  -4 114844. 4530.98   5
   1  -8   4 113605. 6590.83   5
  -1  -8  -4 105133. 6474.10   7
   1  -8   5 66649.3 5062.04   5
  -1  -8  -5 66563.4 5350.35   7
   1  -8   6 9678.58 2026.23   5
  -1  -8  -6 12198.2 2394.68   7
   1  -8   7 2130.93 1047.18   5
  -1  -8  -7 2471.35 1230.57   7
  -1  -8  -8 1616.96 1010.35   7
   1  -8   8 1439.16 868.631   5
   1  -8   9 14279.7 2559.98   5
   1  -7  -9 17756.0 2881.67   7
  -1  -7   9 18899.9 2653.12   5
  -1  -7   8 1925.90 889.416   5
   1  -7  -8 1795.99 926.749   7
   1  -7  -7 1585.48 925.525   7
  -1  -7   7 1905.23 800.034   5
   1  -7  -6 34457.8 3533.93   7
  -1  -7   6 37637.4 3625.15   5
  -1  -7   5 52311.8 4175.05   5
   1  -7  -5 43699.9 3717.69   7
  -1  -7   4 180549. 7801.79   5
   1  -7  -4 176741. 5017.33   5
   1  -7  -4 166321. 6917.08   7
   1  -7  -3 90704.9 4602.77   7
  -1  -7   3 89859.9 5238.30   5
   1  -7  -3 96064.3 3874.22   5
   1  -7  -2 41684.3 2865.99   7
  -1  -7   2 41624.8 1755.44   7
   1  -7  -2 41029.0 2701.21   5
  -1  -7   2 40867.8 3420.32   5
   1  -7  -1 35241.4 2681.65   5
  -1  -7   1 35978.9 1981.24   7
   1  -7  -1 35235.4 2449.33   7
  -1  -7   1 35842.7 3141.39   5
  -1  -7   0 88648.4 3694.33   7
  -1  -7   0 90544.4 4951.47   5
   1  -7   0 92359.1 4713.53   5
  -1  -7  -1 246256. 8179.46   5
  -1  -7  -1 242958. 7367.50   7
  -1  -7  -2 164252. 6177.03   5
   1  -7   2 166226. 7200.50   5
  -1  -7  -2 165247. 6606.66   7
   1  -7   3 35399.7 3340.31   5
  -1  -7  -3 37689.2 2622.53   5
  -1  -7  -3 34321.2 3274.26   7
  -1  -7  -4 191.397 309.762   5
   1  -7   4 519.324 490.659   5
   1  -7   5 10064.7 1893.68   5
  -1  -7  -5 9777.33 1958.67   7
  -1  -7  -6 36858.1 3998.99   7
   1  -7   6 44730.9 4051.58   5
   1  -7   7 59057.2 4736.11   5
  -1  -7  -7 58988.2 5218.86   7
   1  -7   8 31127.4 3447.19   5
  -1  -7  -8 30806.8 3899.11   7
   1  -7   9 10560.0 2053.73   5
   1  -6 -10 3878.77 1366.06   7
   1  -6  -9 14186.9 2477.44   7
   1  -6  -9 11536.9 2434.32   4
  -1  -6   9 14019.2 2181.73   5
  -1  -6   8 64713.9 4609.21   5
   1  -6  -8 57068.9 4997.77   4
   1  -6  -8 53746.2 4673.06   7
  -1  -6   7 60557.5 4410.88   5
   1  -6  -7 56447.9 4596.62   7
  -1  -6   6 63456.6 4437.82   5
   1  -6  -6 61573.2 4564.85   7
   1  -6  -5 28968.2 2868.68   7
  -1  -6   5 34435.5 3150.87   5
   1  -6  -4 7147.23 825.092   5
  -1  -6   4 6450.61 1336.39   5
   1  -6  -4 5241.26 1165.46   7
   1  -6  -3 135349. 4309.33   5
  -1  -6   3 139492. 6134.45   5
   1  -6  -3 127182. 5267.24   7
  -1  -6   2 162193. 3446.06   7
   1  -6  -2 155602. 5471.22   7
   1  -6  -2 153812. 5050.59   5
  -1  -6   2 155600. 6309.66   5
   1  -6  -1 174712. 5423.58   7
  -1  -6   1 177163. 6585.19   5
   1  -6  -1 169558. 5710.69   5
  -1  -6   1 175186. 4413.06   7
  -1  -6   0 142754. 5840.11   5
  -1  -6   0 139885. 4531.95   7
   1  -6   0 142348. 5580.87   5
  -1  -6  -1 9858.13 1415.74   5
   1  -6   1 9015.83 1511.65   5
   1  -6   2 27813.8 2740.19   5
  -1  -6  -2 29514.7 2310.03   5
  -1  -6  -3 142998. 4880.57   5
   1  -6   3 130597. 6212.49   5
  -1  -6  -4 102292. 3594.52   5
   1  -6   4 89998.8 5211.87   5
   1  -6   5 126470. 6337.85   5
   1  -6   6 24354.1 2834.79   5
   1  -6   7 7662.99 1609.28   5
  -1  -6  -8 18745.2 2904.39   7
  -1  -6  -8 11983.1 2353.62   4
   1  -6   8 17262.3 2431.52   5
  -1  -6  -9 22123.0 3290.48   7
  -1  -6  -9 17367.0 2924.49   4
   1  -5 -10 27048.2 3844.51   4
   1  -5 -10 36562.8 3916.24   7
  -1  -5   9 38110.3 3348.11   5
   1  -5  -9 41191.5 4031.58   7
   1  -5  -9 30725.5 3906.38   4
   1  -5  -8 11286.9 2019.51   7
  -1  -5   8 11960.6 1893.94   5
   1  -5  -8 10501.2 2154.51   4
  -1  -5   7 8889.46 1604.07   5
   1  -5  -7 7009.31 1584.14   7
   1  -5  -7 7538.38 1659.85   4
   1  -5  -6 79481.2 4983.60   7
   1  -5  -6 79892.6 4834.82   4
   1  -5  -5 182617. 7207.53   7
  -1  -5   5 208093. 7533.26   5
  -1  -5   4 65225.1 1857.27   1
  -1  -5   4 76640.5 4275.17   5
   1  -5  -4 76063.0 4116.89   7
  -1  -5   3 110082. 4938.70   5
   1  -5  -3 106101. 3351.91   5
   1  -5  -3 106071. 4509.36   7
  -1  -5   3 99702.3 3299.04   3
   1  -5  -2 7972.89 981.044   5
  -1  -5   2 7568.70 1272.51   5
   1  -5  -2 7761.79 1090.80   7
  -1  -5   2 8491.14 653.381   1
  -1  -5   2 7212.00 512.735   7
   1  -5  -1 21540.3 1746.38   5
  -1  -5   1 26884.4 1473.81   1
  -1  -5   1 25927.1 2209.12   5
  -1  -5   1 22865.2 1327.14   7
   1  -5  -1 21817.5 1682.10   7
   1  -5   0 166688. 5548.43   5
  -1  -5   0 152926. 5669.71   5
   1  -5   1 107572. 4753.39   5
  -1  -5  -1 108373. 4562.75   5
   1  -5   2 129245. 5599.49   5
  -1  -5  -2 133518. 4790.38   5
  -1  -5  -3 178264. 5202.04   2
  -1  -5  -3 188706. 5328.89   5
   1  -5   3 184427. 6891.24   5
   1  -5   4 15583.8 1998.46   5
  -1  -5  -4 14986.8 1216.62   2
  -1  -5  -4 16664.4 1265.08   5
   1  -5   4 13997.4 1074.94   1
  -1  -5  -5 10980.3 1613.69   4
  -1  -5  -5 11277.3 775.853   5
   1  -5   5 11666.2 1778.63   5
   1  -5   6 100067. 5402.80   5
  -1  -5  -6 94044.2 5334.09   4
   1  -5   7 59790.8 4227.81   5
  -1  -5  -7 61003.2 4756.12   4
   1  -5   7 55753.2 4480.26   6
   1  -5   8 63404.5 4438.54   5
  -1  -5  -8 56307.8 4897.31   4
   1  -5   8 57418.6 4902.45   6
  -1  -5  -9 11442.6 2319.61   4
   1  -5   9 15997.9 2841.81   6
  -1  -5  -9 17676.0 2802.14   7
   1  -4 -11 6192.29 1653.75   7
   1  -4 -10 1196.42 752.440   7
   1  -4 -10 1182.08 923.781   4
   1  -4  -9 18762.4 2620.31   7
   1  -4  -9 18357.7 2903.76   4
   1  -4  -8 73145.3 5516.36   4
  -1  -4   8 87043.5 4745.94   5
   1  -4  -8 71689.3 4958.80   7
  -1  -4   7 95755.3 4965.80   5
   1  -4  -7 82565.8 5091.07   7
   1  -4  -7 83747.8 5500.55   4
   1  -4  -6 87013.0 4981.27   7
   1  -4  -6 88993.1 5117.63   4
  -1  -4   6 90416.9 4746.46   5
  -1  -4   5 13309.2 1697.74   5
   1  -4  -5 12569.8 1685.96   4
   1  -4  -5 11543.1 1666.69   7
  -1  -4   4 29338.1 2433.04   5
   1  -4  -4 24888.0 2227.72   7
   1  -4  -4 27093.6 2168.84   4
   1  -4  -3 142898. 3660.65   5
   1  -4  -3 152131. 5196.13   7
  -1  -4   3 140270. 2969.93   1
  -1  -4   3 145826. 5434.18   5
   1  -4  -2 262708. 5736.59   5
  -1  -4   2 276970. 5215.47   3
  -1  -4   2 242804. 4311.78   1
  -1  -4   2 245422. 3745.58   7
   1  -4  -2 264483. 6554.49   7
  -1  -4   2 243170. 7158.51   5
   1  -4  -1 125960. 4012.51   5
  -1  -4   1 116492. 4503.95   5
   1  -4  -1 115883. 3784.73   7
  -1  -4   1 128055. 3137.23   1
  -1  -4   0 218353. 3903.19   3
  -1  -4   0 214740. 6158.62   5
   1  -4   0 207847. 5880.59   5
  -1  -4   0 207692. 5017.54   1
  -1  -4  -1 21168.8 1801.53   5
   1  -4   1 21494.3 1874.65   5
  -1  -4  -1 22127.6 1461.77   3
  -1  -4  -2 18768.3 1611.65   2
   1  -4   2 15496.3 1785.32   5
   1  -4   2 16679.8 931.013   1
  -1  -4  -2 18729.7 1715.52   3
  -1  -4  -3 142940. 4410.68   2
   1  -4   3 151839. 3652.06   1
   1  -4   3 146411. 5728.60   5
  -1  -4  -4 145010. 3976.60   5
   1  -4   4 163227. 6192.03   5
  -1  -4  -4 156321. 5569.37   4
   1  -4   4 153426. 4317.95   1
   1  -4   4 158588. 5595.73   6
  -1  -4  -4 151577. 4124.69   2
   1  -4   5 107303. 5076.80   5
  -1  -4  -5 88386.1 2136.40   5
  -1  -4  -5 86163.3 2325.59   2
  -1  -4  -5 72859.6 2121.14   5
   1  -4   5 100124. 4966.51   6
  -1  -4  -5 106819. 5113.44   4
   1  -4   6 79864.6 4948.71   6
   1  -4   6 82062.4 4577.06   5
  -1  -4  -6 79767.3 4976.61   4
   1  -4   7 2223.96 986.037   6
   1  -4   7 2480.39 834.874   5
  -1  -4  -7 3084.95 1068.50   4
   1  -4   8 14969.6 2018.98   5
  -1  -4  -8 10884.4 2157.83   4
   1  -4   8 13467.0 2442.10   6
   1  -4   9 43215.2 4468.40   6
  -1  -4  -9 37815.9 4125.44   4
   1  -4  10 21454.8 3264.22   6
  -1  -4 -10 19295.5 2925.44   7
  -1  -4 -10 16693.4 2868.75   4
   1  -3 -11 20933.8 2845.16   7
   1  -3 -10 30619.3 3764.93   4
   1  -3 -10 36988.1 3642.72   7
  -1  -3  10 40252.5 4243.73   6
   1  -3  -9 29129.0 3125.00   7
  -1  -3   9 33975.9 3764.08   6
   1  -3  -9 28073.9 3439.29   4
   1  -3  -8 11529.5 1888.77   7
  -1  -3   8 10595.9 1519.24   5
   1  -3  -8 7064.20 1668.26   4
  -1  -3   8 10169.5 1951.49   6
  -1  -3   7 11363.6 1567.41   5
   1  -3  -7 8082.53 1679.33   4
   1  -3  -7 9965.52 1668.79   7
  -1  -3   7 10343.6 1777.27   6
  -1  -3   6 47445.4 3171.45   5
   1  -3  -6 43125.1 3313.95   7
   1  -3  -6 43472.8 3549.73   4
  -1  -3   6 46556.2 3435.09   6
   1  -3  -5 159860. 6139.71   7
   1  -3  -5 168961. 6382.98   4
  -1  -3   5 175952. 5957.99   5
  -1  -3   5 176072. 6270.19   6
   1  -3  -4 187804. 5929.50   4
   1  -3  -4 172587. 5837.50   7
  -1  -3   4 174300. 5768.33   5
   1  -3  -3 328055. 7371.46   4
   1  -3  -3 327139. 7758.37   7
  -1  -3   3 335136. 8092.31   5
  -1  -3   2 82003.5 2086.01   1
   1  -3  -2 84279.8 2661.24   5
   1  -3  -2 84311.2 3182.21   7
  -1  -3   2 87809.0 3595.01   5
   1  -3  -2 83487.9 2608.90   6
  -1  -3   1 102513. 3796.19   5
  -1  -3   1 107791. 2577.41   1
   1  -3  -1 101433. 3223.84   7
   1  -3  -1 101370. 3266.25   5
   1  -3   0 502308. 9412.34   5
  -1  -3   0 517418. 9754.05   2
  -1  -3   0 488450. 8408.88   1
   1  -3   0 493127. 10143.6   8
  -1  -3  -1 411017. 7189.01   3
  -1  -3  -1 393854. 7866.93   1
   1  -3   1 359864. 8206.47   5
   1  -3   1 367579. 6266.82   1
   1  -3   1 431474. 8948.99   8
  -1  -3  -1 402220. 8111.12   2
   1  -3   2 393486. 6667.41   1
  -1  -3  -2 396956. 7980.75   2
   1  -3   2 379004. 8930.00   5
   1  -3   3 37112.9 2561.72   5
  -1  -3  -3 37187.3 2270.80   4
   1  -3   3 39780.2 1882.83   1
  -1  -3  -3 42728.3 2838.45   3
  -1  -3  -3 39285.6 2026.82   2
   1  -3   3 41479.6 2421.51   6
  -1  -3  -4 4728.45 521.115   5
   1  -3   4 4939.49 971.696   6
  -1  -3  -4 3645.48 569.646   2
   1  -3   4 5557.46 908.884   8
   1  -3   4 4123.87 925.772   5
  -1  -3  -4 5045.54 959.839   4
  -1  -3  -4 4485.70 1063.01   3
   1  -3   5 31569.0 2108.87   8
   1  -3   5 29093.7 2407.59   5
  -1  -3  -5 26967.9 1170.72   5
  -1  -3  -5 28674.5 2580.61   4
   1  -3   5 27147.6 2604.74   6
  -1  -3  -6 70871.2 4601.89   4
   1  -3   6 79854.3 4955.95   6
   1  -3   6 81343.6 4251.87   5
  -1  -3  -7 54737.1 4280.66   4
   1  -3   7 59497.7 4649.71   6
   1  -3   7 63827.8 3837.60   5
   1  -3   8 57334.0 3721.11   5
   1  -3   8 63923.7 5060.22   6
  -1  -3  -9 15260.1 2541.98   4
   1  -3   9 17209.9 2749.40   6
  -1  -3 -10 3895.83 1454.70   4
  -1  -3 -10 2627.71 1100.53   7
   1  -3  10 3338.17 1294.60   6
   1  -2 -10 1543.81 970.237   4
   1  -2 -10 1310.92 711.768   7
  -1  -2  10 633.757 653.135   6
   1  -2  -9 34956.9 3787.94   4
  -1  -2   9 36744.1 3862.71   6
   1  -2  -9 34150.4 3227.45   7
  -1  -2   8 37852.4 2620.06   5
   1  -2  -8 38147.6 3252.47   7
  -1  -2   8 35790.6 3623.15   6
   1  -2  -8 33711.2 3584.56   4
  -1  -2   7 137119. 5124.31   5
   1  -2  -7 113388. 6173.84   4
   1  -2  -7 118791. 5648.37   7
  -1  -2   7 130939. 6477.42   6
  -1  -2   6 66494.7 4164.41   6
  -1  -2   6 62157.5 3305.76   5
   1  -2  -6 59558.1 3692.86   7
   1  -2  -6 61094.8 4200.45   4
  -1  -2   5 54769.5 3385.21   6
   1  -2  -5 50436.9 3107.64   7
  -1  -2   5 51893.2 2839.40   5
   1  -2  -5 52807.3 3563.75   4
  -1  -2   4 7916.40 1039.70   5
   1  -2  -4 7400.38 1100.63   7
  -1  -2   4 10669.5 1286.60   6
   1  -2  -4 8774.80 1225.41   4
  -1  -2   3 108835. 3868.66   5
   1  -2  -3 108959. 3810.73   7
   1  -2  -3 112532. 3798.89   4
  -1  -2   2 477533. 9185.79   2
   1  -2  -2 456690. 8026.93   4
   1  -2  -2 454786. 8396.78   7
   1  -2  -2 464513. 7872.92   6
  -1  -2   2 462980. 8895.27   5
  -1  -2   2 476323. 7422.63   1
  -1  -2   1 905667. 13092.3   2
   1  -2  -1 921606. 12063.7   5
   1  -2  -1 889686. 11968.4   7
  -1  -2   1 941625. 10987.8   1
  -1  -2   0 193138. 4571.59   2
   1  -2   0 181544. 4326.09   5
  -1  -2   0 182608. 3775.98   1
  -1  -2  -1 37281.4 1852.13   1
  -1  -2  -1 37507.4 1851.48   2
   1  -2   1 35138.4 1949.43   5
   1  -2   1 35805.2 1408.34   1
   1  -2   1 35877.9 1910.88   8
   1  -2   1 32513.4 1299.27   6
  -1  -2  -2 158011. 4059.30   2
  -1  -2  -2 164216. 4783.89   1
   1  -2   2 154487. 4708.59   5
   1  -2   2 154258. 3687.33   1
   1  -2   2 158936. 4378.43   8
   1  -2   2 157461. 4271.64   6
  -1  -2  -2 152003. 4065.54   4
  -1  -2  -2 153359. 4530.70   3
  -1  -2  -3 146747. 4666.86   4
   1  -2   3 137106. 4116.00   8
  -1  -2  -3 141084. 3292.41   5
  -1  -2  -3 140679. 5076.29   3
  -1  -2  -3 127329. 3764.39   2
   1  -2   3 140656. 4124.35   1
   1  -2   3 137499. 4650.11   5
   1  -2   3 143564. 4845.66   6
   1  -2   4 312154. 6779.23   8
  -1  -2  -4 305041. 5611.32   5
   1  -2   4 285203. 8276.88   6
  -1  -2  -4 298660. 8841.23   3
  -1  -2  -4 303850. 8335.87   4
   1  -2   4 286188. 7481.78   5
  -1  -2  -5 89916.0 2600.96   5
  -1  -2  -5 93877.1 4902.48   4
   1  -2   5 94229.1 4094.39   5
   1  -2   5 95748.4 5001.85   6
   1  -2   5 93941.2 3332.68   8
  -1  -2  -5 94163.1 5139.99   3
  -1  -2  -5 82812.1 2589.16   2
  -1  -2  -6 28434.3 1389.06   2
   1  -2   6 31050.5 3065.23   6
   1  -2   6 28635.3 1799.16   8
  -1  -2  -6 28848.9 2897.27   4
   1  -2   6 31913.8 2425.40   5
   1  -2   7 4358.28 1294.83   6
   1  -2   7 5009.20 1008.09   5
  -1  -2  -7 3118.75 1029.03   4
  -1  -2  -8 5240.23 1397.77   4
   1  -2   8 4833.43 1371.41   6
   1  -2   9 29824.8 3490.76   6
  -1  -2  -9 28620.4 3407.21   4
  -1  -2 -10 33962.1 3901.97   4
   1  -2  10 37317.0 4109.95   6
  -1  -1  11 28600.7 3738.45   6
   1  -1 -11 29377.2 3709.52   4
   1  -1 -10 49542.9 3887.02   7
   1  -1 -10 45375.3 4486.15   4
  -1  -1  10 47365.3 4496.14   6
   1  -1  -9 40620.9 3362.34   7
   1  -1  -9 29501.1 3446.21   4
  -1  -1   9 38308.8 3811.78   6
  -1  -1   8 8994.16 1765.24   6
   1  -1  -8 6293.39 1522.66   4
   1  -1  -8 8251.22 1461.80   7
  -1  -1   7 3880.00 1093.53   6
  -1  -1   7 3112.88 682.944   5
   1  -1  -7 2150.87 839.593   4
   1  -1  -7 2462.98 753.796   7
  -1  -1   6 87924.3 3582.69   5
   1  -1  -6 83757.2 4224.91   7
   1  -1  -6 77712.0 4647.64   4
  -1  -1   6 90194.8 4859.79   6
  -1  -1   5 198320. 5368.02   5
  -1  -1   5 208799. 6887.55   6
   1  -1  -5 195417. 6056.87   7
  -1  -1   4 271764. 6371.15   5
  -1  -1   4 264344. 6226.09   2
  -1  -1   4 290102. 7453.97   6
   1  -1  -4 274305. 6708.32   7
   1  -1  -4 291807. 8034.80   4
  -1  -1   3 117332. 3615.25   5
  -1  -1   3 124175. 3774.93   2
   1  -1  -3 118166. 3678.22   7
   1  -1  -3 116089. 4098.58   4
   1  -1  -3 118041. 4173.29   6
  -1  -1   2 23711.0 890.589   7
   1  -1  -2 24404.8 1460.67   6
   1  -1  -2 21569.8 1265.59   4
  -1  -1   2 24111.4 1434.21   2
  -1  -1   2 23111.4 1269.18   6
   1  -1  -2 20753.0 1218.81   7
  -1  -1   1 107677. 3081.01   2
  -1  -1   1 101164. 2422.63   1
   1  -1  -1 105886. 2243.28   6
  -1  -1   0 231921. 4749.70   2
   1  -1   0 228963. 4602.00   5
  -1  -1   0 225184. 4174.07   1
   1  -1   0 224899. 4106.20   1
   1  -1   1 360195. 7098.24   8
   1  -1   1 373125. 6942.02   5
  -1  -1  -1 364503. 6672.25   1
   1  -1   1 355444. 6286.92   6
  -1  -1  -1 373892. 5877.77   4
   1  -1   1 359490. 6100.54   1
   1  -1   2 379331. 7569.86   5
  -1  -1  -2 401231. 7802.20   1
  -1  -1  -2 370103. 6540.88   5
   1  -1   2 358986. 7560.90   8
   1  -1   2 382528. 7910.55   6
  -1  -1  -2 399383. 7587.55   4
  -1  -1  -2 381023. 7326.57   6
   1  -1   2 390412. 7174.78   1
  -1  -1  -2 381989. 7605.15   3
   1  -1   3 128702. 4079.90   8
  -1  -1  -3 129061. 3305.62   5
   1  -1   3 122541. 4018.39   5
  -1  -1  -3 125404. 4602.64   4
  -1  -1  -3 124757. 4537.81   3
   1  -1   3 129736. 4788.47   6
  -1  -1  -4 14629.2 1079.26   5
   1  -1   4 14075.7 1688.15   6
  -1  -1  -4 14031.8 1686.91   3
   1  -1   4 13756.9 1334.98   5
   1  -1   4 13925.4 1300.97   8
  -1  -1  -4 12357.5 1564.58   4
  -1  -1  -5 20494.1 1344.49   5
   1  -1   5 19181.9 1673.23   5
   1  -1   5 20652.8 2243.30   6
   1  -1   5 21224.3 1574.65   8
  -1  -1  -5 17328.8 2032.20   4
  -1  -1  -5 20957.6 1401.24   2
  -1  -1  -5 20300.9 2307.19   3
   1  -1   6 70039.5 3383.28   5
   1  -1   6 64274.3 2551.74   8
  -1  -1  -6 66599.5 2629.49   2
   1  -1   6 72319.8 4532.65   6
  -1  -1  -6 65560.8 4277.85   4
   1  -1   7 135347. 4949.32   5
   1  -1   7 133887. 6662.41   6
   1  -1   8 68377.6 4939.52   6
  -1  -1  -8 64047.2 4810.44   4
   1  -1   9 15055.8 2476.65   6
  -1  -1  -9 12698.0 2255.54   4
  -1  -1 -10-908.720 749.369   4
   1  -1  10 263.087 532.979   6
   1   0 -11 4689.46 1521.99   4
  -1   0  11 3274.74 1171.65   6
  -1   0  10 89.5437 548.961   6
   1   0 -10-1685.40 949.305   4
   1   0  -9 20415.4 2839.53   4
   1   0  -9 26379.8 2582.85   7
  -1   0   9 23678.5 2982.82   6
  -1   0   8 105486. 5960.23   6
   1   0  -8 111071. 5120.51   7
   1   0  -8 100551. 6006.86   4
  -1   0   7 170961. 4588.18   5
   1   0  -7 160119. 7387.16   4
   1   0  -7 166845. 6083.99   7
  -1   0   7 164877. 7135.78   6
   1   0  -7 154695. 4953.11   2
  -1   0   6 58685.3 3856.61   6
   1   0  -6 48888.4 2657.37   2
  -1   0   6 49295.7 2314.03   2
   1   0  -6 50574.8 3009.54   7
   1   0  -6 50913.1 3822.83   4
  -1   0   6 55525.8 2459.24   5
   1   0  -5 9633.74 1581.22   4
   1   0  -5 8862.52 1120.88   7
  -1   0   5 11983.4 1585.89   6
  -1   0   5 11194.4 1020.22   5
   1   0  -5 9729.58 1113.55   2
  -1   0   5 10875.4 1006.41   2
  -1   0   4 57184.8 2250.29   2
   1   0  -4 58787.2 2552.16   7
   1   0  -4 54822.1 3436.59   4
  -1   0   4 56905.9 2245.05   5
  -1   0   4 60493.4 3186.90   6
   1   0  -4 56755.3 2564.71   2
  -1   0   3 147007. 3408.40   2
  -1   0   3 168622. 3677.73   7
   1   0  -3 166150. 3659.74   7
  -1   0   3 167307. 4499.91   6
  -1   0   3 148842. 3366.51   8
   1   0  -3 162136. 3967.84   2
   1   0  -3 159447. 5056.80   4
  -1   0   2 350352. 6850.77   8
   1   0  -2 358825. 7398.63   4
  -1   0   2 353643. 6412.20   2
  -1   0   2 348627. 6521.12   6
   1   0  -2 359164. 6012.85   7
  -1   0   2 358792. 5984.37   7
   1   0  -2 354683. 6672.02   2
   1   0  -2 372274. 6780.07   6
   1   0  -1 180037. 3226.37   6
   1   0  -1 186898. 3456.39   4
  -1   0   1 182695. 3772.87   1
   1   0   0 117107. 2710.18   1
   1   0   0 124446. 3933.10   8
  -1   0  -1 61190.1 2063.06   1
  -1   0  -1 63372.6 2080.07   5
   1   0   1 56865.0 2016.65   1
  -1   0  -1 56504.6 2087.94   4
  -1   0  -1 59580.0 1808.58   6
   1   0   1 59265.7 1853.07   6
   1   0   2 13584.0 1135.72   1
  -1   0  -2 11881.3 1041.27   1
  -1   0  -2 12902.7 970.591   5
  -1   0  -2 12493.7 1064.48   6
  -1   0  -2 10750.2 1172.32   4
   1   0   2 11796.9 1099.61   6
  -1   0  -3 31658.3 2361.51   4
   1   0   3 31632.7 1766.51   5
  -1   0  -3 33713.4 1718.03   5
   1   0   3 31446.3 2186.20   6
   1   0   3 29660.0 2228.96   8
  -1   0  -3 33032.6 2025.44   1
  -1   0  -3 32371.4 2126.94   3
   1   0   4 328005. 8066.95   8
   1   0   4 321814. 7045.05   5
  -1   0  -4 340029. 9343.85   4
  -1   0  -4 327094. 8809.23   3
   1   0   4 323373. 8740.02   6
  -1   0  -4 340884. 7112.02   2
  -1   0  -4 343011. 6941.25   5
   1   0   5 177511. 5387.70   8
  -1   0  -5 183948. 7023.57   3
   1   0   5 183029. 5100.74   5
  -1   0  -5 187231. 7175.36   4
   1   0   5 177661. 6740.21   6
  -1   0  -5 183635. 5120.66   2
  -1   0  -6 91965.3 3575.42   2
   1   0   6 91890.9 5081.47   6
  -1   0  -6 98428.2 5492.05   3
  -1   0  -6 100851. 5443.00   4
   1   0   6 96131.5 3564.95   8
  -1   0  -7-203.141 622.339   4
   1   0   7-104.499 401.347   6
  -1   0  -7 387.360 227.864   2
   1   0   8 10215.3 1878.77   6
  -1   0  -8 9393.12 1817.37   4
   1   0   9 34417.5 3646.56   6
  -1   0  -9 36572.9 3770.45   4
  -1   0 -10 50115.2 4665.93   4
   1   0  10 50383.1 4622.77   6
   1   1 -11 28293.3 3583.56   4
  -1   1  11 31501.0 3770.72   6
  -1   1  10 43664.5 4231.06   6
   1   1 -10 45016.0 4367.94   4
   1   1  -9 29464.5 3422.72   4
  -1   1   9 32896.7 3444.82   6
  -1   1   8 6975.60 1535.89   6
   1   1  -8 7039.31 1181.36   7
   1   1  -8 6853.55 1579.92   4
   1   1  -7 3873.52 852.208   7
   1   1  -7 3079.49 761.611   2
  -1   1   7 2896.18 423.154   5
   1   1  -7 3678.40 1152.47   4
  -1   1   7 3614.74 998.106   6
  -1   1   6 70073.3 2174.44   5
   1   1  -6 76441.3 3570.87   2
   1   1  -6 82366.3 4956.84   4
   1   1  -6 80964.7 3486.32   7
  -1   1   6 78740.9 4390.61   6
  -1   1   5 194987. 4110.47   5
  -1   1   5 191634. 4076.63   8
   1   1  -5 197615. 5230.86   7
  -1   1   5 180244. 4028.99   2
   1   1  -5 211195. 7786.74   4
  -1   1   5 209763. 6888.04   6
   1   1  -5 187882. 5720.37   2
   1   1  -4 280636. 5778.04   7
   1   1  -4 278220. 8294.53   4
  -1   1   4 254780. 5105.66   2
   1   1  -4 279655. 6968.50   2
  -1   1   4 281369. 7600.82   6
  -1   1   3 108313. 2984.71   8
   1   1  -3 117769. 2785.48   8
  -1   1   3 120034. 3568.21   7
   1   1  -3 118561. 2780.92   7
  -1   1   3 107247. 2772.68   2
  -1   1   3 111189. 4000.40   6
   1   1  -3 121414. 3967.22   2
  -1   1   2 16031.7 1081.79   8
   1   1  -2 19152.8 1375.86   2
  -1   1   2 18353.1 1235.12   6
   1   1  -2 20274.5 1195.75   6
  -1   1   2 20148.2 1186.39   7
  -1   1   2 21038.1 1280.54   4
  -1   1   1 90297.7 2076.15   4
  -1   1   1 89618.6 2418.49   7
  -1   1   1 86587.5 2755.80   8
   1   1  -1 91397.1 2277.94   1
   1   1  -1 87043.7 2787.79   2
  -1   1   1 89178.7 1978.14   6
  -1   1   0 252879. 4698.85   5
   1   1   0 247819. 4152.03   1
  -1   1   0 247122. 4153.88   1
  -1   1  -1 370541. 6817.92   5
  -1   1  -1 383959. 7424.70   8
  -1   1  -1 351334. 6118.91   1
   1   1   1 354775. 6635.84   1
   1   1   1 365329. 6035.73   4
  -1   1  -1 366930. 6253.42   6
   1   1   1 356744. 6223.73   6
  -1   1  -2 398986. 7591.14   5
  -1   1  -2 386457. 7127.91   1
   1   1   2 376509. 7448.56   6
  -1   1  -2 372635. 7674.72   6
   1   1   2 404607. 8158.32   4
  -1   1  -3 118322. 3824.42   1
  -1   1  -3 126968. 3921.19   5
  -1   1  -3 117602. 4182.01   3
   1   1   3 116859. 4170.59   6
   1   1   4 15328.0 1693.77   6
  -1   1  -4 15429.4 1875.81   4
  -1   1  -4 16384.8 1723.16   3
  -1   1  -4 15951.6 1458.25   2
  -1   1  -5 22358.8 2309.94   3
  -1   1  -5 20478.5 1757.36   2
  -1   1  -5 20302.4 2356.77   4
   1   1   5 18565.7 2058.80   6
   1   1   6 64661.1 4179.28   6
  -1   1  -6 71355.5 4672.50   4
  -1   1  -6 61569.5 4264.85   3
  -1   1  -6 62372.2 3207.89   2
  -1   1  -7 120286. 4648.59   2
  -1   1  -7 126072. 6623.69   4
   1   1   7 114002. 6030.94   6
  -1   1  -8 77807.6 5363.85   4
   1   1   8 67369.9 4856.10   6
  -1   1  -9 9726.92 1969.83   4
   1   1   9 10987.0 2092.41   6
   1   1  10 347.074 487.594   6
  -1   1 -10-1079.61 785.405   4
  -1   2  10 680.201 701.460   6
   1   2 -10 967.422 818.623   4
   1   2  -9 31078.5 3581.61   4
  -1   2   9 35107.4 3582.72   6
   1   2  -8 32428.4 2694.85   2
   1   2  -8 31476.8 3444.52   4
   1   2  -8 34541.5 2470.14   7
  -1   2   8 33625.3 3318.71   6
   1   2  -7 123608. 5225.18   2
   1   2  -7 129808. 6866.85   4
  -1   2   7 124265. 6089.94   6
   1   2  -7 130496. 4588.15   7
   1   2  -6 65123.1 4435.79   4
  -1   2   6 60525.1 3900.93   6
   1   2  -6 59678.8 3394.02   2
   1   2  -6 61933.0 2767.15   7
  -1   2   5 33397.8 1064.61   5
   1   2  -5 43434.2 2746.74   2
  -1   2   5 30594.2 1072.75   5
  -1   2   5 44365.9 3020.90   6
   1   2  -5 47201.6 2022.38   7
  -1   2   5 33948.6 1094.99   2
  -1   2   4 6021.62 504.971   2
   1   2  -4 5950.38 1016.46   2
  -1   2   4 6676.90 579.028   5
   1   2  -4 7632.36 642.969   7
  -1   2   4 7154.20 1097.42   6
   1   2  -3 96021.8 3772.82   2
  -1   2   3 100489. 2549.20   5
   1   2  -3 99320.4 1866.26   7
  -1   2   3 100516. 3609.59   6
   1   2  -2 474923. 9324.29   2
   1   2  -2 494416. 8246.20   6
  -1   2   2 481846. 8189.87   6
  -1   2   2 492728. 8527.94   7
  -1   2   2 496306. 8270.98   4
  -1   2   2 503769. 7929.57   5
  -1   2   1 930905. 13810.9   5
   1   2  -1 913371. 14628.6   2
  -1   2   1 922989. 13733.4   7
  -1   2   1 930335. 12466.8   6
   1   2  -1 951810. 12798.9   1
  -1   2   0 157895. 4224.47   8
   1   2   0 164072. 3537.06   1
   1   2   0 164725. 4183.96   2
  -1   2   0 163594. 3445.22   1
  -1   2  -1 41316.5 2084.84   5
   1   2   1 42187.8 1892.29   1
  -1   2  -1 36754.7 1403.02   1
  -1   2  -1 39957.1 1522.13   6
   1   2   1 39767.7 1554.89   4
  -1   2  -2 151378. 4221.32   6
  -1   2  -2 151449. 3559.00   1
   1   2   2 155364. 4248.35   6
   1   2   2 158246. 4083.75   4
  -1   2  -3 147716. 4825.57   2
  -1   2  -3 141042. 4035.73   1
   1   2   3 145442. 4718.31   6
  -1   2  -3 138541. 4560.39   3
  -1   2  -4 292678. 7616.99   2
  -1   2  -4 282885. 7793.25   3
   1   2   4 277064. 7730.18   6
  -1   2  -5 88682.1 4072.14   2
  -1   2  -5 90907.9 4676.39   3
   1   2   5 91623.8 4656.76   6
  -1   2  -6 34979.9 2613.50   2
  -1   2  -6 32759.8 3263.94   4
   1   2   6 31534.8 2944.69   6
  -1   2  -6 34157.9 3157.60   3
  -1   2  -7 4669.43 1388.94   4
   1   2   7 2173.14 868.247   6
  -1   2  -7 3573.35 852.760   2
   1   2   8 3583.22 1161.28   6
  -1   2  -8 2530.80 941.126   4
  -1   2  -9 22853.7 3101.03   4
   1   2   9 23368.2 3050.97   6
  -1   2 -10 30110.7 3643.12   4
   1   2  10 30192.5 3662.47   6
  -1   3  10 27926.8 3429.73   6
   1   3 -10 28706.8 3629.34   4
  -1   3   9 33675.4 3530.77   6
   1   3  -9 30787.7 3661.91   4
   1   3  -8 9573.49 1543.12   2
   1   3  -8 9462.94 2010.79   4
  -1   3   8 10344.5 1863.59   6
   1   3  -7 9368.65 1506.84   2
  -1   3   7 10593.6 1780.80   6
   1   3  -7 10478.5 1103.23   7
   1   3  -7 10242.8 1857.33   4
   1   3  -6 38759.7 2936.80   2
  -1   3   6 34416.6 2976.31   6
   1   3  -6 39623.4 1886.59   7
  -1   3   5 169369. 5947.03   6
   1   3  -5 175036. 5923.54   2
   1   3  -5 171215. 3047.05   7
  -1   3   4 148593. 2949.09   5
   1   3  -4 179147. 6020.02   2
   1   3  -4 128908. 2390.13   7
  -1   3   4 127636. 2758.64   2
  -1   3   4 181194. 5688.26   6
  -1   3   3 337098. 7381.96   6
  -1   3   3 316026. 5878.55   5
   1   3  -3 341824. 8566.92   2
   1   3  -2 78343.6 3515.81   2
  -1   3   2 75434.6 2630.97   5
  -1   3   2 76220.5 2593.49   6
  -1   3   1 93453.8 3062.99   7
   1   3  -1 90075.0 3515.28   2
  -1   3   1 87238.6 3092.59   5
  -1   3   1 88989.6 2431.32   6
  -1   3   0 481711. 7604.79   1
   1   3   0 478418. 7787.04   1
  -1   3   0 495016. 8304.81   7
  -1   3  -1 349141. 5972.94   1
   1   3   1 365786. 7211.30   2
  -1   3  -1 376525. 8248.30   2
   1   3   1 381563. 7294.41   1
  -1   3  -1 371511. 6403.81   6
   1   3   1 392016. 6856.41   4
  -1   3  -2 382231. 7537.91   6
  -1   3  -2 372126. 6468.64   1
  -1   3  -2 384818. 8812.36   2
   1   3   2 389427. 8011.26   6
  -1   3  -3 37724.8 1829.07   1
  -1   3  -3 37309.6 2596.21   2
   1   3   3 39830.3 2431.69   6
  -1   3  -4 3477.45 842.291   2
   1   3   4 3673.29 847.378   6
  -1   3  -4 4407.32 877.606   3
  -1   3  -5 27794.5 2427.18   2
  -1   3  -5 28883.8 2596.61   3
   1   3   5 28443.7 2571.09   6
  -1   3  -6 81257.3 4888.45   3
   1   3   6 75427.1 4675.82   6
  -1   3  -6 76639.8 4190.63   2
  -1   3  -7 58948.8 3737.80   2
  -1   3  -7 54147.6 4503.25   4
   1   3   7 55643.8 4300.41   6
   1   3   8 52031.2 4430.58   6
  -1   3  -8 53406.6 3624.23   2
  -1   3  -8 51765.8 4605.94   4
   1   3   9 14804.2 2459.45   6
  -1   3  -9 15013.9 2585.34   4
   1   3  10 2225.95 1054.02   6
  -1   3 -10 3518.21 1239.18   4
   1   4 -10 1019.00 909.288   4
  -1   4  10 1809.94 865.120   6
  -1   4   9 17213.4 2612.72   6
   1   4  -9 15510.9 2664.92   4
   1   4  -8 79765.2 4738.30   2
   1   4  -8 72702.5 5438.03   4
  -1   4   8 74024.0 5150.46   6
  -1   4   7 77685.4 4963.83   6
   1   4  -7 85533.0 4807.80   2
   1   4  -6 80027.1 4508.27   2
   1   4  -6 71118.8 2009.90   7
  -1   4   6 79907.4 4640.05   6
   1   4  -5 12010.3 1693.91   2
  -1   4   5 12332.7 1629.97   6
  -1   4   4 27061.1 1314.85   5
   1   4  -4 27482.8 2506.72   2
  -1   4   4 23625.9 1205.92   2
  -1   4   4 28587.9 2193.08   6
  -1   4   3 141091. 4486.80   6
  -1   4   3 135481. 3712.13   5
   1   4  -3 137670. 5645.93   2
  -1   4   3 135517. 3746.07   2
  -1   4   2 240591. 5806.19   5
  -1   4   2 254064. 5999.57   2
  -1   4   2 258995. 5699.27   6
   1   4  -1 122556. 2800.19   1
   1   4  -1 124463. 4631.91   2
  -1   4   1 126766. 4265.42   2
   1   4   0 207198. 5734.37   2
   1   4   0 201043. 4487.80   1
  -1   4   0 199898. 5918.79   2
  -1   4  -1 17600.1 972.449   1
   1   4   1 19695.6 1509.29   2
  -1   4  -1 19928.0 1851.81   2
   1   4   2 15180.1 1237.27   2
  -1   4  -2 15760.1 931.683   1
  -1   4  -2 15168.5 1684.21   2
   1   4   2 14117.3 1375.65   6
   1   4   3 150542. 5160.17   6
  -1   4  -3 149679. 3766.53   1
  -1   4  -3 154113. 5853.28   2
  -1   4  -4 171407. 6438.38   2
   1   4   4 163576. 5921.25   6
  -1   4  -4 156152. 5583.49   3
  -1   4  -5 100592. 5042.98   2
   1   4   5 102534. 5044.75   6
  -1   4  -5 101519. 4950.63   3
  -1   4  -6 76994.1 4781.77   3
  -1   4  -6 75650.8 4455.27   2
   1   4   6 77766.3 4790.34   6
   1   4   7 1369.94 756.883   6
  -1   4  -7 1984.96 869.207   3
  -1   4  -7 2327.08 877.553   2
   1   4   8 9390.36 1933.53   6
  -1   4  -8 13207.3 1927.68   2
  -1   4  -8 11674.0 2273.61   4
  -1   4  -9 38304.0 4302.05   4
   1   4   9 36878.8 4026.77   6
  -1   4 -10 19501.6 3060.34   4
   1   5 -10 28063.7 3851.62   4
  -1   5  10 30308.7 3687.31   6
   1   5  -9 32364.4 3908.13   4
   1   5  -9 38577.7 3523.56   2
  -1   5   9 38715.3 3997.29   6
  -1   5   8 9150.55 1834.38   6
   1   5  -8 8256.10 1616.60   2
  -1   5   7 6061.82 1409.23   6
   1   5  -7 7806.18 1543.54   2
   1   5  -6 91828.4 5221.23   2
  -1   5   6 86049.4 4933.23   6
   1   5  -5 197243. 7450.82   2
  -1   5   5 193096. 6646.44   6
  -1   5   4 74369.5 2577.21   5
   1   5  -4 77205.5 4529.95   2
  -1   5   4 69946.8 2500.60   2
  -1   5   4 75893.6 3726.63   6
  -1   5   3 107365. 3641.85   5
  -1   5   3 105029. 3608.35   2
   1   5  -3 106485. 5255.30   2
  -1   5   3 104937. 4007.65   6
  -1   5   2 8861.15 1007.36   6
   1   5  -2 10356.8 1520.05   2
  -1   5   2 8104.48 1058.68   2
   1   5  -1 27478.1 2267.37   2
  -1   5   1 25636.2 2032.32   2
   1   5  -1 25805.2 1186.16   1
   1   5   0 154279. 5254.21   2
  -1   5   0 141535. 5378.44   2
   1   5   0 151172. 3917.66   1
   1   5   1 104330. 3966.68   2
  -1   5  -1 93813.7 2531.40   1
  -1   5  -1 98742.5 4601.90   2
   1   5   2 139889. 4399.35   2
  -1   5  -2 145427. 5850.61   2
   1   5   2 144183. 4877.59   6
   1   5   3 178124. 4796.14   2
  -1   5  -3 179785. 3969.57   1
   1   5   3 174968. 5890.87   6
  -1   5  -3 175519. 6776.60   2
  -1   5  -4 16503.5 1730.94   3
  -1   5  -4 15264.6 2021.97   2
   1   5   4 16013.0 1828.65   6
  -1   5  -5 10897.1 1731.66   2
  -1   5  -5 11042.5 1622.02   3
   1   5   5 13126.8 1835.61   6
   1   5   6 99084.5 5535.19   6
  -1   5  -6 100669. 5520.79   2
  -1   5  -6 97321.1 5450.51   3
  -1   5  -7 60222.0 4328.70   2
   1   5   7 61897.5 4731.81   6
  -1   5  -8 60669.8 4437.99   2
   1   5   8 51942.7 4664.68   6
   1   5   9 12134.1 2329.63   6
  -1   5  -9 13559.0 2596.60   4
  -1   6  10 4282.26 1459.99   6
  -1   6   9 14421.5 2481.36   6
   1   6  -9 16084.0 2404.09   2
   1   6  -8 57093.1 4495.49   2
  -1   6   8 58006.0 4759.68   6
   1   6  -7 54517.8 4287.39   2
  -1   6   7 57355.4 4414.35   6
   1   6  -6 57318.5 4339.21   2
  -1   6   6 58487.6 4106.73   6
   1   6  -5 32657.6 3296.13   2
  -1   6   5 25042.2 1282.16   2
  -1   6   5 32611.4 2759.66   6
   1   6  -4 7928.98 1606.42   2
  -1   6   4 7148.95 867.866   2
  -1   6   4 7756.85 1220.59   6
  -1   6   3 130791. 4495.63   2
   1   6  -3 139656. 6579.34   2
  -1   6   3 136722. 4834.61   6
   1   6  -2 150556. 6308.36   2
  -1   6   2 144725. 4530.71   6
  -1   6   2 146763. 5083.94   2
  -1   6   1 153274. 5682.70   2
   1   6  -1 165463. 6281.17   2
   1   6  -1 162677. 3590.92   1
   1   6   0 142508. 5460.48   2
  -1   6   0 133311. 5642.45   2
  -1   6  -1 10368.3 1536.92   2
   1   6   1 10692.5 1344.65   2
  -1   6  -1 10356.3 764.397   1
   1   6   2 30424.0 2121.64   2
  -1   6  -2 26132.9 1109.70   1
  -1   6  -2 31308.4 2847.57   2
   1   6   3 121460. 5007.99   6
   1   6   3 116813. 4081.87   2
  -1   6  -3 124553. 5966.29   2
  -1   6  -4 93409.5 5313.95   2
  -1   6  -4 97055.6 4379.31   3
   1   6   4 95310.3 4761.10   6
  -1   6  -5 113665. 6075.75   2
   1   6   5 116858. 5711.98   6
  -1   6  -5 112864. 5353.80   3
  -1   6  -6 21685.3 2677.72   2
  -1   6  -6 23394.2 2660.03   3
   1   6   6 24674.3 2803.89   6
   1   6   7 7493.33 1658.07   6
  -1   6  -7 4263.07 1214.73   2
  -1   6  -8 14957.8 2328.29   2
   1   6   8 14332.6 2506.95   6
  -1   6  -9 19929.6 3260.75   4
   1   6   9 20944.9 3178.63   6
  -1   7   9 16267.8 2727.05   6
   1   7  -9 18818.4 2726.92   2
  -1   7   8 3623.70 1287.85   6
   1   7  -8 3545.10 1223.47   2
  -1   7   7 1915.63 810.248   6
   1   7  -7 789.117 737.332   2
   1   7  -6 34201.7 3547.42   2
  -1   7   6 36144.2 3272.74   6
   1   7  -5 52612.7 4363.63   2
  -1   7   5 46468.9 3432.37   6
  -1   7   4 155137. 4877.30   2
  -1   7   4 176339. 6313.66   6
   1   7  -4 168886. 7904.73   2
   1   7  -3 95700.1 5686.08   2
  -1   7   3 90723.8 3985.23   2
  -1   7   3 89781.9 4048.50   6
  -1   7   2 37818.2 2720.37   2
  -1   7   2 38130.0 2387.22   6
   1   7  -1 36962.4 3069.56   2
   1   7  -1 34277.4 1529.20   1
  -1   7   1 33093.1 2712.07   2
  -1   7   0 88231.3 4758.05   2
   1   7   0 88968.5 4563.43   2
   1   7   1 223598. 7083.74   2
  -1   7  -1 227656. 8282.22   2
  -1   7  -1 205051. 4252.46   1
   1   7   2 158619. 5415.97   2
  -1   7  -2 148982. 6711.98   2
   1   7   3 33170.4 2263.30   2
  -1   7  -3 33711.1 3268.45   2
   1   7   3 34602.2 2733.39   6
  -1   7  -3 34400.9 2281.47   3
  -1   7  -4-147.913 255.500   3
   1   7   4 0.00000 135.233   2
   1   7   4 95.0555 378.752   6
  -1   7  -4 116.930 373.425   2
  -1   7  -5 10835.5 1940.52   2
   1   7   5 9632.21 1708.20   6
  -1   7  -5 10166.2 1594.02   3
  -1   7  -6 35784.6 3668.12   2
  -1   7  -6 45207.2 3705.30   3
   1   7   6 39880.8 3667.76   6
  -1   7  -7 48877.1 4370.19   2
   1   7   7 56449.6 4692.83   6
   1   7   8 28555.2 3594.00   6
  -1   7  -8 23861.4 3094.99   2
  -1   7  -9 7827.64 1831.34   2
  -1   8   9 11036.9 2306.10   6
   1   8  -9 7080.77 1786.52   2
   1   8  -8 31754.6 3712.17   2
  -1   8   8 31761.8 3693.87   6
   1   8  -7 41208.8 4179.39   2
  -1   8   7 47074.4 4191.74   6
   1   8  -6 41256.7 4102.79   2
  -1   8   6 46767.9 3850.95   6
  -1   8   5 6560.03 1305.04   6
   1   8  -5 8580.46 1895.36   2
  -1   8   4 2967.88 870.953   6
  -1   8   4 3688.00 762.068   2
   1   8  -4 4940.84 1449.29   2
  -1   8   3 38379.9 2729.67   6
  -1   8   3 35671.6 2645.27   2
   1   8  -3 38950.3 3770.50   2
  -1   8   2 137076. 5071.44   6
  -1   8   2 130287. 5621.38   2
   1   8  -1 162323. 7056.20   2
  -1   8   1 170833. 6813.61   2
   1   8  -1 154599. 3761.36   1
   1   8   0 63698.0 4121.39   2
  -1   8   0 53410.0 3948.03   2
  -1   8  -1 1876.02 346.140   1
  -1   8  -1 2967.45 978.333   2
   1   8   1 3305.25 904.506   2
   1   8   2 15882.4 1803.34   2
  -1   8  -2 17544.5 2405.48   2
   1   8   3 56054.3 3177.60   2
   1   8   3 55663.0 3662.17   6
  -1   8  -3 61321.3 4654.65   2
  -1   8  -3 58973.6 3028.54   3
   1   8   4 106424. 4160.33   2
  -1   8  -4 116884. 6662.67   2
  -1   8  -4 112805. 4838.07   3
   1   8   4 118451. 5686.20   6
  -1   8  -5 68149.2 5180.60   2
   1   8   5 62392.3 4421.81   6
  -1   8  -5 67826.4 4168.72   3
   1   8   6 10272.1 1935.77   6
  -1   8  -6 14033.1 2094.84   3
  -1   8  -6 12343.7 2290.90   2
   1   8   7 2163.16 998.589   6
  -1   8  -7 2682.94 1119.56   2
   1   8   8 1887.24 1006.40   6
  -1   8  -8 3227.17 1266.71   2
  -1   8  -9 18651.5 2961.93   2
   1   9  -9 21567.9 3250.64   2
  -1   9   8 4290.09 1439.18   6
   1   9  -8 4828.54 1551.45   2
  -1   9   7 1947.15 867.038   6
   1   9  -7 2727.34 1032.52   2
   1   9  -6 32492.1 3859.88   2
  -1   9   6 24578.6 2872.63   6
   1   9  -5 73067.2 5757.07   2
  -1   9   5 71943.8 4592.54   6
  -1   9   4 89892.3 4249.31   2
  -1   9   4 98142.1 5022.78   6
   1   9  -4 106408. 6784.29   2
   1   9  -3 25528.2 3217.45   2
  -1   9   3 19831.4 2127.14   2
  -1   9   3 20488.9 2106.93   6
  -1   9   2 2418.18 689.537   6
   1   9  -2 4115.34 1315.18   2
  -1   9   2 2876.61 881.591   2
   1   9  -1 8348.57 1674.73   2
  -1   9   1 7621.97 1504.38   2
   1   9   0 35444.7 3232.27   2
  -1   9   0 32042.6 3223.03   2
   1   9   1 109945. 5503.88   2
  -1   9  -1 109918. 6318.20   2
   1   9   2 73521.7 4259.16   2
  -1   9  -2 75274.8 5342.61   2
   1   9   3 42034.6 2964.53   2
  -1   9  -3 45786.1 4215.20   2
   1   9   3 42214.7 3343.16   6
  -1   9  -4 3326.76 1285.31   2
   1   9   4 3475.51 982.324   6
   1   9   5 8622.67 1709.04   6
  -1   9  -5 9026.97 1974.37   2
  -1   9  -6 24131.9 3336.20   2
   1   9   6 24650.5 3035.50   6
   1   9   7 58270.5 5033.11   6
  -1   9  -7 52638.3 5048.30   2
  -1   9  -8 29484.1 3840.25   2
   1  10  -8 28414.1 3879.11   2
  -1  10   8 27560.7 3586.20   6
   1  10  -7 57815.3 5456.93   2
  -1  10   7 51588.2 4603.50   6
  -1  10   6 19940.3 2673.45   6
   1  10  -6 19223.3 3104.43   2
   1  10  -5 821.902 509.735   2
  -1  10   5 773.843 421.701   6
  -1  10   4 5503.71 1249.03   6
   1  10  -4 4987.48 1578.47   2
   1  10  -3 39852.7 4207.68   2
  -1  10   3 39173.4 3184.84   2
  -1  10   3 38695.8 3086.01   6
   1  10  -2 76034.5 5562.22   2
  -1  10   2 69277.5 4564.52   2
  -1  10   2 75859.3 4174.79   6
   1  10  -1 63515.4 4827.71   2
  -1  10   1 57849.3 4362.09   2
   1  10   0 16012.7 2321.17   2
  -1  10   0 15679.5 2350.03   2
  -1  10  -1 12779.1 2235.46   2
   1  10   1 12823.5 1981.61   2
   1  10   2 5566.90 1267.77   2
  -1  10  -2 7155.36 1756.09   2
   1  10   3 30948.9 2689.20   2
  -1  10  -3 35644.0 3962.92   2
   1  10   3 34754.6 3191.78   6
  -1  10  -4 56327.7 5082.31   2
   1  10   4 49253.5 3965.75   6
  -1  10  -5 53387.2 5086.99   2
   1  10   5 56076.5 4512.11   6
  -1  10  -6 24685.4 3470.64   2
   1  10   6 25106.3 3159.95   6
   1  10   7-109.580 429.807   6
  -1  10  -7 1035.64 811.128   2
  -1  11   7 2267.62 1030.92   6
   1  11  -7 755.762 1039.03   2
   1  11  -6 13632.1 2751.43   2
  -1  11   6 16294.9 2469.40   6
   1  11  -5 33738.1 4240.51   2
  -1  11   5 34091.9 3338.33   6
   1  11  -4 62553.5 5732.67   2
  -1  11   4 62426.7 4307.32   6
   1  11  -3 17160.8 2942.89   2
  -1  11   3 17647.9 2287.42   2
  -1  11   3 17359.4 2142.27   6
  -1  11   2 7790.24 1586.24   2
  -1  11   2 7262.27 1324.98   6
   1  11  -2 8942.66 2020.74   2
  -1  11   1 4475.72 1337.57   2
   1  11  -1 5771.12 1595.61   2
   1  11   0 40591.1 3893.42   2
  -1  11   0 33163.2 3622.42   2
   1  11   1 75946.4 5099.44   2
  -1  11  -1 73047.2 5710.17   2
   1  11   2 47848.7 3799.82   2
  -1  11  -2 46743.3 4710.45   2
   1  11   2 48838.7 3862.02   6
  -1  11  -3 14688.9 2705.88   2
   1  11   3 21355.9 2619.13   6
   1  11   4 2039.10 839.344   6
  -1  11  -4 4333.63 1432.97   2
   1  11   5 11412.9 2108.57   6
  -1  11  -5 8416.49 2103.68   2
   1  11   6 12685.8 2308.67   6
  -1  11  -6 14615.1 2830.45   2
  -1  12   6 20667.5 2909.97   6
  -1  12   5 1911.54 861.424   6
   1  12  -5 4559.60 1739.68   2
  -1  12   4 435.564 615.996   6
   1  12  -4 1267.03 997.363   2
   1  12  -3 19310.0 3215.21   2
  -1  12   3 14867.8 2108.99   6
  -1  12   2 54509.4 3892.55   6
   1  12  -2 55162.1 5252.56   2
  -1  12   2 48817.4 4296.91   2
   1  12  -1 57968.4 5123.56   2
  -1  12   1 52531.3 4627.01   2
   1  12   0 35481.9 3847.98   2
  -1  12   0 33151.6 3799.72   2
   1  12   1 354.713 499.955   2
  -1  12  -1 310.186 565.006   2
   1  12   2 5649.85 1420.99   6
   1  12   2 3952.29 1123.48   2
  -1  12  -2 3535.61 1458.35   2
  -1  12  -3 36463.9 4445.27   2
   1  12   3 34380.9 3504.12   6
  -1  12  -4 21765.1 3506.46   2
   1  12   4 29686.4 3330.75   6
   1  12   5 27409.0 3378.57   6
  -1  13   5 17769.4 2591.02   6
   1  13  -4 23431.3 3843.21   2
  -1  13   4 24116.9 2921.84   6
   1  13  -3 18687.9 3264.75   2
  -1  13   3 20615.8 2590.28   6
  -1  13   2 2486.89 938.433   6
  -1  13   2 3115.29 1300.42   2
   1  13  -2 3231.69 1447.27   2
  -1  13   1 6719.95 1826.01   2
   1  13  -1 6323.22 1825.70   2
   1  13   0 10909.2 2216.55   2
  -1  13   0 15743.1 2786.91   2
   1  13   1 37360.1 3943.05   2
  -1  13  -1 37998.4 4478.16   2
  -1  13  -2 23325.0 3649.67   2
   1  13   2 27846.3 3256.94   6
   1  13   3 13966.2 2294.35   6
  -1  13  -3 14841.0 3010.75   2
   1  14  -1 14305.4 2750.55   2
  -1  14   1 16870.3 2930.40   2
   1  14   0 16730.1 2868.05   2
  -1  14   0 12658.7 2651.74   2
   1  14   1 157.220 475.125   2
  -1  14  -1-64.1412 557.677   2
  -2 -14   1 8251.72 2339.27   5
   2 -14  -1 6566.80 1764.72   5
  -2 -14   0 1925.46 1194.19   5
   2 -14   0 2578.85 1381.34   5
  -2 -13   3 2388.77 1272.96   5
  -2 -13   2 8442.37 2338.40   5
   2 -13  -2 8135.11 1859.89   5
  -2 -13   1 35222.7 4933.57   5
   2 -13  -1 31771.3 3698.32   5
  -2 -13   0 27753.2 4212.85   5
   2 -13   0 24896.7 3484.09   5
  -2 -13  -1 27080.9 3939.53   5
   2 -13   1 23579.4 3535.81   5
   2 -13   2 2338.60 1182.69   5
  -2 -13  -3 271.625 501.774   7
  -2 -12   5 15177.6 2964.23   5
   2 -12  -5 16853.5 2742.70   7
   2 -12  -4 32769.1 3660.98   7
  -2 -12   4 41034.0 4949.22   5
  -2 -12   3 25598.7 4010.36   5
  -2 -12   2 27135.3 4115.35   5
   2 -12  -2 24419.8 2923.49   5
  -2 -12   1 5010.45 1900.72   5
   2 -12  -1 4511.59 1398.35   5
  -2 -12   0-744.296 868.783   5
   2 -12   0-1193.27 832.922   5
  -2 -12  -1 7298.81 1970.18   5
   2 -12   1 5412.48 1618.66   5
   2 -12   2 32634.9 4166.97   5
  -2 -12  -2 31450.2 3440.87   7
   2 -12   3 28148.9 4033.51   5
  -2 -12  -3 30580.6 3767.30   7
  -2 -12  -4 21075.2 3415.77   7
   2 -11  -6 34952.3 4076.24   7
  -2 -11   6 43497.3 4892.95   5
  -2 -11   5 29902.6 4007.79   5
   2 -11  -5 21443.4 2994.13   7
  -2 -11   4 18794.5 3176.27   5
   2 -11  -4 12665.5 2235.34   7
  -2 -11   3 1155.29 1015.82   5
   2 -11  -3 2463.68 918.160   5
  -2 -11   2 19997.3 3253.38   5
   2 -11  -2 15885.1 2286.59   5
  -2 -11   1 35864.6 4358.91   5
   2 -11  -1 29543.8 3257.20   5
   2 -11   0 76981.7 5587.05   5
  -2 -11   0 75768.6 6137.42   5
  -2 -11   0 74650.5 4277.12   7
  -2 -11  -1 34085.1 3961.98   5
  -2 -11  -1 29487.5 2970.06   7
   2 -11   1 24931.9 3369.30   5
  -2 -11  -2 12957.7 2341.64   5
  -2 -11  -2 14052.9 2274.11   7
   2 -11   2 12623.3 2528.01   5
   2 -11   3 1037.91 988.075   5
  -2 -11  -3 1137.49 768.005   7
   2 -11   4 7296.89 1987.71   5
  -2 -11  -4 6127.03 1824.11   7
   2 -11   5 42159.7 4845.78   5
  -2 -11  -5 38184.5 4755.08   7
  -2 -10   8 15074.9 2800.42   5
  -2 -10   7 16962.0 2995.02   5
   2 -10  -7 12945.5 2576.94   7
  -2 -10   6-1277.78 929.473   5
   2 -10  -6-536.669 612.037   7
  -2 -10   5 5982.63 1726.18   5
   2 -10  -5 4525.96 1337.02   7
  -2 -10   4 49080.4 4794.51   5
   2 -10  -4 40666.3 3736.17   7
   2 -10  -3 72183.8 4840.23   7
   2 -10  -3 77912.5 4516.40   5
  -2 -10   3 81517.9 6149.84   5
  -2 -10   2 95130.2 6678.29   5
   2 -10  -2 79119.1 4866.09   5
  -2 -10   1 12620.5 2493.62   5
   2 -10  -1 9476.71 1833.46   5
  -2 -10   0 726.031 626.032   5
   2 -10   0-11.6833 565.239   5
  -2 -10   0 950.642 495.485   7
  -2 -10  -1 38492.8 3973.86   5
   2 -10   1 33958.7 3766.83   5
  -2 -10  -1 33764.5 3115.58   7
  -2 -10  -2 53758.2 4475.11   5
   2 -10   2 53324.3 4850.25   5
  -2 -10  -2 52717.7 4408.42   7
   2 -10   3 79998.5 6194.94   5
  -2 -10  -3 84003.2 6181.72   7
   2 -10   4 19432.9 3082.00   5
  -2 -10  -4 20058.7 3176.27   7
  -2 -10  -5 2294.32 1198.32   7
   2 -10   5 488.698 674.551   5
   2 -10   6 1171.74 845.008   5
  -2 -10  -6 591.783 767.417   7
  -2  -9   9-106.944 514.355   5
  -2  -9   8 6524.41 1812.48   5
   2  -9  -8 5651.60 1763.16   7
  -2  -9   7 19287.9 3027.59   5
   2  -9  -7 11360.9 2320.04   7
  -2  -9   6 68306.7 5577.28   5
   2  -9  -6 54496.6 4742.23   7
   2  -9  -5 54707.0 4491.34   7
  -2  -9   5 58706.0 5088.26   5
   2  -9  -4 12723.9 1616.40   5
  -2  -9   4 12309.1 2261.00   5
   2  -9  -4 9716.54 1789.99   7
   2  -9  -3 5952.61 1180.39   5
  -2  -9   3 3380.78 1205.74   5
   2  -9  -3 4723.93 1141.47   7
   2  -9  -2 33053.9 2926.55   5
  -2  -9   2 33037.3 3670.96   5
  -2  -9   1 82716.1 3748.98   7
  -2  -9   1 80290.7 5740.82   5
   2  -9  -1 79165.6 4854.82   5
  -2  -9   0 163713. 8178.83   5
   2  -9   0 144858. 7067.96   5
  -2  -9   0 150196. 5938.19   7
  -2  -9  -1 56233.6 4551.69   5
  -2  -9  -1 48519.4 3721.19   7
   2  -9   1 46404.5 4178.14   5
  -2  -9  -2 17941.5 2471.88   5
  -2  -9  -2 15081.8 2326.12   7
   2  -9   2 14022.9 2372.66   5
  -2  -9  -3 10602.9 1828.41   5
   2  -9   3 10182.6 2107.90   5
   2  -9   4 14642.6 2595.13   5
   2  -9   5 43745.1 4509.45   5
  -2  -9  -5 43115.9 4683.26   7
   2  -9   6 46540.3 4684.64   5
  -2  -9  -6 41677.3 4787.72   7
   2  -9   7 21564.3 3245.79   5
  -2  -9  -7 17342.9 3170.31   7
  -2  -8   9 33605.2 3893.88   5
   2  -8  -9 35835.4 4267.39   7
  -2  -8   8 58312.0 5088.01   5
   2  -8  -8 48731.0 4856.56   7
  -2  -8   7 3685.71 1249.58   5
   2  -8  -7 3128.41 1249.96   7
  -2  -8   6 1508.26 857.351   5
   2  -8  -6 1066.25 705.755   7
  -2  -8   5 12099.8 2169.93   5
   2  -8  -5 11119.7 1949.77   7
  -2  -8   4 104774. 6248.64   5
   2  -8  -4 102776. 4431.00   5
   2  -8  -4 96229.9 5394.26   7
  -2  -8   3 108480. 6331.83   5
   2  -8  -3 110118. 5427.01   7
   2  -8  -3 107520. 4855.70   5
  -2  -8   2 57719.1 4510.45   5
   2  -8  -2 57655.0 3688.24   5
  -2  -8   2 57387.5 2498.42   7
   2  -8  -1 12277.6 1786.63   5
  -2  -8   1 14367.9 2171.01   5
  -2  -8   1 14934.3 1517.11   7
  -2  -8   0 3822.13 1193.26   5
   2  -8   0 2665.62 910.145   5
  -2  -8  -1 63914.4 4647.45   5
   2  -8   1 54807.7 4247.98   5
  -2  -8  -2 68112.3 4599.30   5
   2  -8   2 63342.0 4848.54   5
  -2  -8  -3 101161. 5314.00   5
   2  -8   3 92470.9 6088.70   5
   2  -8   4 72836.0 5487.64   5
   2  -8   5 11690.3 2242.86   5
   2  -8   6 2658.11 1148.01   5
   2  -8   7 15497.5 2658.02   5
   2  -8   8 27687.5 3571.71   5
  -2  -7   9 1456.96 914.957   5
   2  -7  -9 1030.27 896.104   7
  -2  -7   8 7155.50 1741.25   5
   2  -7  -8 4918.39 1517.82   7
   2  -7  -7 55301.9 4716.09   7
  -2  -7   7 62325.8 4876.00   5
   2  -7  -6 108593. 6262.85   7
  -2  -7   6 134234. 7055.11   5
  -2  -7   5 63423.5 4662.76   5
   2  -7  -5 52936.1 4044.86   7
  -2  -7   4 8606.59 1676.77   5
  -2  -7   4 8626.35 871.814   1
   2  -7  -4 8925.35 1565.75   7
   2  -7  -3 2154.31 682.542   5
  -2  -7   3 1758.15 770.859   5
  -2  -7   3 1262.98 359.649   1
   2  -7  -3 1888.73 667.852   7
  -2  -7   3 1584.96 239.691   7
  -2  -7   2 41066.4 3614.30   5
   2  -7  -2 38441.4 2855.27   5
  -2  -7   2 41009.1 2014.39   7
  -2  -7   1 124966. 6357.14   5
   2  -7  -1 114131. 5286.43   5
  -2  -7   0 101931. 4696.48   1
  -2  -7   0 92141.8 5439.08   5
   2  -7   0 95880.9 5097.46   5
  -2  -7  -1 84498.0 5102.01   5
   2  -7   1 73657.4 4654.19   5
  -2  -7  -2 58173.2 4028.79   5
   2  -7   2 48457.7 4059.67   5
  -2  -7  -3 1499.13 652.969   5
   2  -7   3 43.4863 621.293   5
  -2  -7  -4 36851.6 2876.53   5
   2  -7   4 32605.5 3469.35   5
   2  -7   5 70095.4 5181.96   5
   2  -7   6 78253.0 5573.01   5
   2  -7   7 37674.0 3937.62   5
   2  -7   8 2574.38 1084.30   5
   2  -6 -10 19678.1 3070.65   7
  -2  -6   9 48598.6 4221.50   5
   2  -6  -9 47738.0 4563.29   7
  -2  -6   8 43618.0 3963.81   5
   2  -6  -8 35326.7 3824.41   7
   2  -6  -7 25059.5 3034.59   7
  -2  -6   7 29893.9 3193.14   5
   2  -6  -6 4339.40 1225.18   7
  -2  -6   6 2954.96 967.927   5
  -2  -6   5 37296.1 1842.65   1
   2  -6  -5 34431.9 3118.36   7
  -2  -6   5 32315.0 3129.06   5
  -2  -6   4 115021. 5780.50   5
   2  -6  -4 108468. 5266.23   7
  -2  -6   4 112801. 3319.37   1
  -2  -6   3 157868. 6766.66   5
   2  -6  -3 147576. 5102.56   5
  -2  -6   3 155147. 4184.26   1
   2  -6  -3 144859. 5702.10   7
  -2  -6   2 118100. 5783.15   5
   2  -6  -2 115611. 4739.16   5
  -2  -6   2 110174. 3753.72   1
  -2  -6   1 69169.1 3231.77   1
   2  -6  -1 66735.5 3725.92   5
  -2  -6   1 65433.5 4211.01   5
  -2  -6   0 7168.68 1136.77   1
  -2  -6   0 8290.06 1511.45   5
   2  -6   0 7974.02 1358.12   5
  -2  -6   0 7682.57 809.272   3
  -2  -6  -1 52505.9 3770.01   5
  -2  -6  -1 57246.1 3479.15   1
   2  -6   1 45982.4 3485.10   5
  -2  -6  -1 49610.2 2681.79   3
  -2  -6  -2 144959. 6309.88   5
   2  -6   2 143509. 6576.18   5
  -2  -6  -2 154177. 5741.79   3
  -2  -6  -3 122232. 5431.43   5
   2  -6   3 115959. 6044.36   5
  -2  -6  -3 118418. 5647.50   3
  -2  -6  -4 72943.2 3898.03   5
   2  -6   4 67431.3 4703.69   5
   2  -6   5 13998.9 2178.10   5
   2  -6   6 6543.43 1630.23   5
   2  -6   7 25241.0 3061.91   5
   2  -6   8 41923.5 4007.23   5
   2  -5 -11 14371.9 2553.79   7
   2  -5 -10 9267.44 2269.05   4
   2  -5 -10 11305.3 2235.86   7
  -2  -5   9-601.812 552.679   5
   2  -5  -9-778.479 649.304   7
   2  -5  -9-317.803 909.754   4
  -2  -5   8 18951.2 2453.73   5
   2  -5  -8 20660.2 2775.60   7
   2  -5  -8 14558.4 2428.17   4
   2  -5  -7 50171.4 4113.52   4
  -2  -5   7 55351.7 4115.59   5
   2  -5  -7 48742.5 4085.13   7
   2  -5  -6 48116.7 3755.36   7
  -2  -5   6 48365.4 3688.44   5
  -2  -5   6 47062.9 2552.36   1
  -2  -5   5 128761. 5954.53   5
  -2  -5   5 128642. 4004.39   1
   2  -5  -5 124966. 5796.21   7
  -2  -5   4 86370.5 2975.94   1
   2  -5  -4 101790. 4820.84   7
  -2  -5   3 1839.77 401.648   1
  -2  -5   3 1604.81 636.050   5
   2  -5  -3 2063.61 656.294   7
  -2  -5   2 62526.2 3823.04   5
  -2  -5   2 55641.5 2449.02   1
   2  -5  -2 57202.5 3049.18   5
   2  -5  -1 228009. 6925.93   5
  -2  -5   1 243426. 6005.36   1
  -2  -5   0 277413. 7151.52   1
   2  -5   0 260954. 7816.84   5
  -2  -5  -1 224868. 6876.40   1
   2  -5   1 224188. 7512.26   5
   2  -5   1 237164. 8547.87   8
  -2  -5  -1 237461. 5925.30   3
  -2  -5  -2 3337.11 757.371   3
   2  -5   2 1455.49 852.617   8
  -2  -5  -2 1982.07 683.644   1
   2  -5   2 2361.18 862.752   5
  -2  -5  -3 2697.97 809.735   3
   2  -5   3 3213.91 1031.51   5
   2  -5   3 2423.27 897.196   8
   2  -5   4 75911.5 4718.88   5
  -2  -5  -4 79293.1 4860.55   3
   2  -5   5 88866.4 5254.88   5
   2  -5   6 49892.4 3968.04   5
  -2  -5  -6 42841.9 3553.03   4
   2  -5   6 43074.2 3729.75   6
   2  -5   7 28666.9 3293.01   6
   2  -5   7 32644.8 3294.30   5
  -2  -5  -7 31323.7 3337.30   4
   2  -5   8 7223.01 1597.74   5
   2  -5   8 7906.98 1939.34   6
  -2  -5  -8 5885.74 1571.55   4
   2  -5   9 615.441 658.307   6
  -2  -5  -9 1189.20 820.731   4
   2  -4 -11 6146.22 1675.93   7
   2  -4 -10 34668.6 3717.61   7
   2  -4 -10 22276.3 3403.94   4
  -2  -4   9 46679.6 3742.44   5
   2  -4  -9 40843.2 4328.82   4
   2  -4  -9 33229.0 3535.73   7
  -2  -4   8 35081.7 3153.67   5
   2  -4  -8 24986.2 2976.67   7
   2  -4  -8 27357.3 3382.81   4
  -2  -4   7 58735.0 3974.17   5
   2  -4  -7 53784.6 4079.02   7
   2  -4  -7 53644.7 4324.29   4
   2  -4  -6 2923.30 900.005   4
  -2  -4   6 1395.90 647.326   5
   2  -4  -6 2236.66 853.962   7
  -2  -4   5 44976.0 3261.43   5
   2  -4  -5 40891.9 3082.79   7
   2  -4  -5 41335.0 2934.97   4
  -2  -4   5 44476.4 2423.32   1
  -2  -4   4 134546. 5604.85   5
  -2  -4   4 125631. 3905.45   1
   2  -4  -4 123707. 5108.00   7
   2  -4  -3 134699. 4890.40   7
  -2  -4   3 135453. 5458.97   5
   2  -4  -2 391684. 8719.65   5
  -2  -4   2 390702. 7440.27   1
   2  -4  -1 50431.6 3535.54   8
   2  -4  -1 49472.0 2804.75   5
  -2  -4   1 48627.2 2322.88   1
   2  -4   0 6101.71 1098.29   5
  -2  -4   0 7846.98 986.511   1
   2  -4   0 7205.11 1479.84   8
  -2  -4  -1 95325.6 3981.39   1
   2  -4   1 90717.8 4308.52   5
   2  -4   1 96212.3 4875.65   8
   2  -4   2 234717. 7610.37   5
  -2  -4  -2 242071. 6552.34   3
  -2  -4  -3 151606. 6095.73   1
   2  -4   3 152203. 6286.03   5
   2  -4   3 150066. 4820.48   6
  -2  -4  -3 166026. 6010.60   3
   2  -4   4 69705.8 4255.25   5
  -2  -4  -4 73214.1 3693.06   4
   2  -4   4 70828.5 3825.40   6
  -2  -4  -4 77399.0 4516.73   3
   2  -4   5 10024.7 1660.97   5
   2  -4   5 16405.4 2001.21   8
  -2  -4  -5 10945.7 1589.65   4
   2  -4   5 9813.98 1674.35   6
  -2  -4  -5 11127.6 1883.23   3
   2  -4   6-907.100 560.613   5
  -2  -4  -6 530.249 509.277   4
   2  -4   6 210.278 450.974   8
   2  -4   6 34.0839 330.510   6
   2  -4   7 53534.1 4001.29   5
  -2  -4  -7 48008.6 4153.82   4
   2  -4   7 50136.1 4495.98   6
   2  -4   8 30792.1 3084.59   5
  -2  -4  -8 26269.4 3226.56   4
   2  -4   8 30965.4 3783.48   6
   2  -4   9 27912.5 3680.77   6
  -2  -4  -9 24306.2 3345.23   4
   2  -3 -10 15404.2 2374.03   7
   2  -3 -10 12173.6 2505.19   4
   2  -3  -9 1382.61 759.619   4
   2  -3  -9 1912.75 798.058   7
   2  -3  -8 25540.7 2873.46   7
   2  -3  -8 17671.0 2617.23   4
  -2  -3   8 24200.7 2437.03   5
   2  -3  -7 103083. 5434.17   7
   2  -3  -7 109223. 6150.72   4
  -2  -3   7 115792. 5247.23   5
  -2  -3   6 121429. 5266.08   5
   2  -3  -6 114274. 5626.73   4
   2  -3  -6 105149. 5158.01   7
   2  -3  -5 109916. 4904.90   4
  -2  -3   5 111920. 4924.63   5
   2  -3  -5 112616. 4928.69   7
  -2  -3   4 58028.9 3372.58   5
  -2  -3   4 59305.9 1758.68   7
   2  -3  -4 58556.4 3271.90   7
   2  -3  -4 58621.7 3049.23   4
  -2  -3   4 60636.1 2765.15   1
   2  -3  -3 8463.89 1293.82   8
   2  -3  -3 12113.4 1082.67   6
  -2  -3   3 11204.2 1052.52   1
   2  -3  -3 11773.1 1333.82   7
  -2  -3   2 92463.8 2947.34   1
   2  -3  -2 45506.7 3413.44   8
   2  -3  -1 173634. 5207.04   5
  -2  -3   1 168080. 4313.71   1
   2  -3   0 175331. 5619.55   5
   2  -3   0 174499. 6090.60   8
  -2  -3   0 184406. 5019.39   1
   2  -3   1 166188. 5684.09   5
  -2  -3  -1 177294. 5276.09   1
   2  -3   1 168673. 5902.12   8
  -2  -3  -2 88440.0 4001.92   1
   2  -3   2 95268.7 4388.08   5
   2  -3   2 92872.8 4303.04   8
   2  -3   2 87665.1 3060.59   6
  -2  -3  -3 9595.62 1396.08   1
   2  -3   3 9749.30 1425.47   8
   2  -3   3 11100.4 1561.43   5
  -2  -3  -3 9639.12 1141.10   4
   2  -3   3 11152.3 1332.79   6
  -2  -3  -3 11245.0 1427.21   3
  -2  -3  -4 65047.0 3962.11   3
   2  -3   4 59692.3 3734.43   5
   2  -3   4 61253.3 3661.52   6
   2  -3   4 67596.5 3744.81   8
  -2  -3  -4 62021.7 3387.71   4
  -2  -3  -5 144364. 6014.59   4
   2  -3   5 164092. 5931.81   8
   2  -3   5 149608. 6193.57   5
   2  -3   5 143763. 6473.86   6
  -2  -3  -5 156720. 6958.50   3
  -2  -3  -6 71717.5 5083.41   3
   2  -3   6 85273.5 4718.68   5
   2  -3   6 84727.7 4207.21   8
  -2  -3  -6 77726.6 4800.04   4
   2  -3   6 80281.0 5189.02   6
   2  -3   7 59419.6 4003.84   5
   2  -3   7 58975.8 4749.89   6
  -2  -3  -7 51644.4 4188.86   4
  -2  -3  -8 8712.04 1854.61   4
   2  -3   8 6780.55 1739.37   6
  -2  -3  -9 3514.78 1294.32   4
   2  -3   9 4095.37 1309.22   6
   2  -3  10 19074.7 3096.34   6
   2  -2 -11 1705.88 875.747   4
  -2  -2  10 25403.9 3322.28   6
   2  -2 -10 23363.5 3247.81   4
   2  -2 -10 25663.7 2930.51   7
   2  -2  -9 78603.8 5739.09   4
   2  -2  -9 80524.2 5034.19   7
  -2  -2   9 90892.6 5972.18   6
  -2  -2   8 70153.5 4866.85   6
   2  -2  -8 59172.4 4683.08   4
   2  -2  -8 63120.7 4327.16   7
  -2  -2   8 76501.7 4048.24   5
  -2  -2   7 28383.0 2384.40   5
   2  -2  -7 25772.0 2898.58   4
   2  -2  -7 26402.1 2576.68   7
  -2  -2   7 32551.1 3011.29   6
   2  -2  -6 2295.07 819.673   4
  -2  -2   6 2635.40 741.828   5
   2  -2  -6 2253.76 724.759   7
  -2  -2   6 2424.64 783.660   6
  -2  -2   5 93169.4 4182.53   5
   2  -2  -5 82915.6 3964.36   7
   2  -2  -5 84668.8 4295.92   4
  -2  -2   4 173126. 3849.97   7
   2  -2  -4 161254. 5267.13   7
   2  -2  -4 163066. 5272.02   4
  -2  -2   3 300971. 4756.25   7
   2  -2  -3 279595. 6393.87   7
   2  -2  -3 279431. 5904.88   4
  -2  -2   3 292042. 6091.26   1
   2  -2  -3 283176. 6291.85   6
  -2  -2   2 47538.4 2194.99   1
   2  -2  -2 47006.9 2671.20   8
   2  -2  -2 52626.5 1837.53   6
   2  -2  -1 94747.8 3818.33   8
  -2  -2   1 89821.5 3011.04   1
   2  -2   0 6254.87 1068.30   8
  -2  -2   0 4915.94 729.599   1
   2  -2   1 56878.2 2980.77   5
  -2  -2  -1 52092.6 2635.31   1
   2  -2   1 53187.9 1854.30   6
  -2  -2  -2 185982. 5647.49   1
   2  -2   2 179645. 5840.89   5
  -2  -2  -2 169696. 4326.45   4
   2  -2   2 166295. 4804.25   6
  -2  -2  -3 218761. 6732.87   1
   2  -2   3 209543. 6733.06   5
   2  -2   3 221438. 7109.67   8
   2  -2   3 197833. 6302.89   6
  -2  -2  -3 207200. 5700.00   4
  -2  -2  -3 208608. 6390.06   3
  -2  -2  -4 119149. 5255.28   1
  -2  -2  -4 124592. 5428.94   3
   2  -2   4 123147. 5170.21   5
   2  -2   4 134492. 5681.72   6
  -2  -2  -4 126034. 4971.57   4
   2  -2   4 125279. 5127.19   8
   2  -2   5 61364.6 3394.52   8
   2  -2   5 59505.7 3603.14   5
   2  -2   5 62234.9 4165.81   6
  -2  -2  -5 53626.9 3623.72   4
  -2  -2  -5 54440.8 3914.00   3
  -2  -2  -6 8793.04 1699.26   3
   2  -2   6 9863.80 1772.72   6
   2  -2   6 8628.89 1396.93   5
   2  -2   6 7799.37 1166.30   8
  -2  -2  -6 8540.29 1529.04   4
  -2  -2  -7 31367.5 3180.98   4
   2  -2   7 30539.0 3285.87   6
  -2  -2  -7 28788.8 3362.97   3
  -2  -2  -8 60215.2 4729.19   4
   2  -2   8 70864.9 5231.13   6
   2  -2   9 37701.9 4035.54   6
  -2  -2  -9 33117.3 3699.96   4
   2  -2  10 12517.0 2431.64   6
  -2  -2 -10 12585.6 2392.86   4
   2  -1 -11 25686.0 3502.28   4
  -2  -1  11 25445.8 3448.94   6
   2  -1 -10 12804.4 2379.24   4
  -2  -1  10 15273.3 2574.19   6
   2  -1  -9 623.381 544.611   7
   2  -1  -9-140.560 608.571   4
  -2  -1   9 469.165 517.503   6
  -2  -1   8 10742.9 1375.52   5
   2  -1  -8 7856.86 1448.66   7
   2  -1  -8 7164.52 1543.44   4
  -2  -1   8 10833.4 1915.69   6
  -2  -1   7 70122.5 4496.07   6
  -2  -1   7 72197.0 3545.47   5
   2  -1  -7 66517.6 3880.78   7
   2  -1  -7 61094.2 4406.79   4
  -2  -1   6 169449. 5574.43   5
   2  -1  -6 152651. 6694.68   4
   2  -1  -6 153502. 5635.04   7
  -2  -1   6 169993. 6537.71   6
  -2  -1   5 163273. 5759.37   6
   2  -1  -5 164187. 6342.66   4
   2  -1  -5 155589. 5223.01   7
  -2  -1   4 23298.0 1773.68   6
  -2  -1   4 22773.3 1382.99   7
   2  -1  -4 23015.3 1956.23   4
   2  -1  -4 22363.7 1683.16   7
   2  -1  -3 20354.5 1520.73   8
  -2  -1   3 18279.8 1489.64   1
   2  -1  -3 18065.0 1383.43   4
  -2  -1   3 19283.3 1184.69   7
   2  -1  -3 18447.2 1522.89   6
  -2  -1   2 97623.4 3235.10   1
   2  -1  -2 96619.6 2617.74   4
   2  -1  -2 93541.5 2848.31   6
   2  -1  -1 363158. 8342.78   8
   2  -1  -1 352321. 5161.39   6
  -2  -1   0 363910. 7296.42   1
   2  -1   0 365894. 5405.68   6
  -2  -1  -1 242155. 6039.27   1
  -2  -1  -1 250961. 4425.96   4
   2  -1   1 261101. 5378.23   6
   2  -1   1 246676. 7410.18   8
   2  -1   2 24195.1 2248.88   8
  -2  -1  -2 21975.8 1757.09   1
  -2  -1  -2 23027.6 1474.53   4
   2  -1   2 23559.8 1757.93   6
   2  -1   3 6257.20 1180.06   8
  -2  -1  -3 5374.18 961.490   1
   2  -1   3 7115.05 1123.05   6
  -2  -1  -3 6101.79 936.687   4
  -2  -1  -4 84829.0 4226.45   1
   2  -1   4 96209.3 4623.88   8
  -2  -1  -4 78391.1 3989.59   4
  -2  -1  -4 82663.9 4234.36   3
   2  -1   4 89674.2 4513.20   6
  -2  -1  -5 63496.6 3912.28   4
   2  -1   5 79049.8 4000.80   8
   2  -1   5 72423.5 4334.64   6
  -2  -1  -5 68419.3 4301.08   3
   2  -1   6 154411. 6936.08   6
  -2  -1  -6 142747. 6506.10   4
  -2  -1  -6 157020. 5254.89   2
  -2  -1  -6 151485. 7155.52   3
  -2  -1  -7 28015.0 3023.66   4
   2  -1   7 31400.1 3257.08   6
  -2  -1  -7 28928.4 3329.62   3
   2  -1   8 6683.73 1647.96   6
  -2  -1  -8 5762.25 1447.57   4
   2  -1   9 698.886 666.110   6
  -2  -1  -9 1934.91 961.475   4
  -2  -1 -10 5897.85 1613.61   4
   2  -1  10 6333.09 1744.26   6
   2   0 -11 10276.3 2249.02   4
  -2   0  11 9976.58 2135.39   6
   2   0 -10 25895.7 3360.99   4
  -2   0  10 31583.0 3619.09   6
   2   0  -9 26401.1 3209.68   4
   2   0  -9 31223.1 2803.38   7
  -2   0   9 29271.1 3285.60   6
   2   0  -8 101517. 6040.60   4
   2   0  -8 105814. 4962.99   7
  -2   0   8 111355. 6114.37   6
  -2   0   7 3192.03 1015.77   6
  -2   0   7 2023.25 575.215   5
   2   0  -7 2798.86 760.273   7
   2   0  -7 1817.65 608.340   4
  -2   0   6 13120.0 1359.59   5
  -2   0   6 13299.5 1745.71   6
   2   0  -6 11050.1 1778.49   4
   2   0  -6 13645.7 1479.34   7
   2   0  -5 26254.9 2481.87   4
  -2   0   5 23745.6 2059.97   6
   2   0  -5 27214.4 1870.76   7
   2   0  -4 92940.6 2964.44   8
  -2   0   4 85002.3 3544.22   6
   2   0  -3 713387. 12122.9   8
  -2   0   3 703449. 11571.6   6
   2   0  -3 705494. 12781.3   4
   2   0  -2 220169. 4554.35   4
  -2   0   2 222081. 5464.50   1
   2   0  -2 215214. 4523.97   6
  -2   0   1 152772. 4191.77   1
   2   0  -1 143288. 5298.80   8
   2   0   0 8584.17 1516.38   8
  -2   0   0 8321.44 883.190   1
  -2   0  -1 219927. 4592.39   4
  -2   0  -1 218334. 5447.04   1
   2   0   1 213907. 4557.18   6
  -2   0  -2 225227. 5981.09   1
  -2   0  -2 213221. 5714.61   4
   2   0   2 233393. 5688.53   6
  -2   0  -3 310193. 7798.01   1
   2   0   3 325936. 9962.20   8
   2   0   3 310135. 7876.26   6
  -2   0  -4 77909.5 3891.02   1
  -2   0  -4 75515.4 4044.44   4
   2   0   4 72433.4 3933.04   6
   2   0   4 85405.1 4629.99   8
  -2   0  -4 76142.8 4008.94   3
   2   0   5 1617.45 608.586   6
   2   0   5 884.879 473.333   8
  -2   0  -5 2310.38 737.590   4
  -2   0  -6 9257.45 1746.73   3
   2   0   6 8886.67 1597.69   6
   2   0   6 7353.11 1232.92   8
  -2   0  -6 8173.00 1209.87   2
  -2   0  -6 8246.35 1516.99   4
  -2   0  -7 3583.05 1164.56   3
   2   0   7 4762.96 1214.85   6
  -2   0  -7 1865.78 741.465   4
  -2   0  -8 61133.4 4674.18   4
   2   0   8 54348.9 4478.92   6
   2   0   9 42968.3 4172.85   6
  -2   0  -9 44127.8 4207.23   4
   2   0  10 15279.3 2590.32   6
  -2   0 -10 16069.6 2689.44   4
  -2   1  11 23011.5 3224.79   6
   2   1 -11 23407.2 3283.69   4
  -2   1  10 16874.7 2585.15   6
   2   1 -10 15332.8 2543.93   4
  -2   1   9 211.851 641.678   6
   2   1  -9-79.8895 725.474   4
  -2   1   8 8281.96 1613.97   6
   2   1  -8 7806.38 1384.89   2
   2   1  -8 8900.97 1303.41   7
   2   1  -8 6940.75 1618.44   4
   2   1  -7 57781.1 3632.90   2
  -2   1   7 64757.8 2752.56   5
   2   1  -7 67588.4 4780.17   4
   2   1  -7 64384.2 3250.75   7
  -2   1   7 69882.8 4435.39   6
   2   1  -6 160575. 6111.02   2
   2   1  -6 176773. 7432.39   4
   2   1  -6 160829. 4907.25   7
  -2   1   6 161111. 6381.79   6
   2   1  -5 157187. 5946.27   2
   2   1  -5 158601. 6618.39   4
   2   1  -5 158985. 4451.37   7
  -2   1   5 153326. 5581.30   6
   2   1  -4 23796.5 2181.09   2
   2   1  -4 27593.9 1645.89   8
   2   1  -4 23782.2 2249.21   4
  -2   1   4 25573.1 1907.39   6
   2   1  -3 19184.4 1840.68   2
   2   1  -3 19191.8 1788.18   4
   2   1  -3 21243.2 1740.65   8
  -2   1   3 18801.6 1331.60   6
   2   1  -2 87707.6 2684.41   6
  -2   1   2 87496.8 3273.27   1
  -2   1   2 86197.3 2320.54   6
  -2   1   2 90399.3 2768.30   4
  -2   1   1 367616. 7341.80   1
  -2   1   1 367414. 5573.70   4
  -2   1   0 382749. 7487.12   1
   2   1   1 266214. 5541.08   6
  -2   1  -1 262353. 5941.84   1
  -2   1  -1 256845. 4787.98   6
  -2   1  -2 21343.6 1652.14   1
   2   1   2 18684.5 1443.85   6
  -2   1  -2 19376.2 1347.68   6
  -2   1  -3 5984.68 954.205   1
  -2   1  -3 6560.19 1113.37   4
   2   1   3 6249.77 972.534   6
  -2   1  -4 80376.7 3847.05   1
   2   1   4 76228.2 3969.91   6
  -2   1  -4 75924.8 4320.47   4
  -2   1  -4 78876.0 4067.55   3
   2   1   5 60892.7 4177.90   8
  -2   1  -5 76780.3 4636.01   4
  -2   1  -5 76558.8 4424.25   3
  -2   1  -5 72011.5 3763.41   2
   2   1   5 75153.8 4335.97   6
  -2   1  -6 152524. 7002.03   4
  -2   1  -6 153055. 5843.56   2
   2   1   6 147690. 6677.44   6
  -2   1  -6 158939. 7139.98   3
  -2   1  -7 27107.5 2447.58   2
  -2   1  -7 26744.6 3022.29   4
   2   1   7 27194.7 3001.05   6
  -2   1  -7 29816.0 3316.13   3
   2   1   8 4861.40 1370.61   6
  -2   1  -8 5956.91 1470.69   4
  -2   1  -8 8207.16 1878.37   3
   2   1   9 2520.55 1006.70   6
  -2   1  -9-174.907 626.769   4
  -2   1 -10 6051.02 1651.71   4
  -2   2  11 2235.65 1044.78   6
   2   2 -11 2884.28 1170.49   4
   2   2 -10 19456.6 2932.58   4
  -2   2  10 20578.4 2839.50   6
   2   2  -9 85410.1 5968.96   4
  -2   2   9 82124.8 5472.77   6
   2   2  -8 63442.7 4150.70   2
   2   2  -8 70088.9 5164.25   4
  -2   2   8 64760.8 4533.09   6
   2   2  -7 27919.4 3156.48   4
   2   2  -7 26827.9 2752.15   2
  -2   2   7 27004.4 2722.68   6
   2   2  -7 29577.1 1903.61   7
  -2   2   6 2144.48 742.067   6
   2   2  -6 1045.32 195.323   8
   2   2  -6 1210.74 535.170   2
   2   2  -6 1297.49 727.141   4
  -2   2   6 1716.49 408.966   2
   2   2  -5 81256.6 4398.99   2
   2   2  -5 82027.8 4712.09   4
   2   2  -5 82145.7 2795.47   8
  -2   2   5 81194.3 4082.97   6
   2   2  -4 166860. 6237.84   2
  -2   2   4 160135. 5236.11   6
   2   2  -3 282498. 7922.65   2
  -2   2   3 260834. 6037.09   6
   2   2  -2 59274.4 3176.78   2
  -2   2   2 58049.2 2161.04   4
  -2   2   2 55500.7 1843.23   6
  -2   2   1 90887.6 3217.68   1
  -2   2   0 5872.25 784.078   1
   2   2   0 6003.63 490.907   4
   2   2   1 45964.2 1786.91   4
  -2   2  -1 45949.8 1615.82   6
  -2   2  -1 44029.7 2129.17   1
   2   2   1 46371.0 2183.76   6
  -2   2  -2 170742. 4867.33   1
   2   2   2 180597. 5107.94   6
   2   2   2 183314. 5050.01   4
  -2   2  -2 181985. 4752.15   6
  -2   2  -3 214728. 5951.14   1
   2   2   3 222490. 6371.52   6
  -2   2  -4 130376. 4859.74   1
   2   2   4 127808. 5190.17   6
  -2   2  -5 52158.1 3912.88   4
  -2   2  -5 55721.6 3526.03   2
   2   2   5 57550.2 3792.53   6
  -2   2  -5 49818.1 3635.66   3
  -2   2  -6 7001.03 1457.34   3
   2   2   6 8842.76 1599.85   6
  -2   2  -6 8154.65 1649.91   4
  -2   2  -6 9871.79 1546.41   2
   2   2   7 28023.1 3083.11   6
  -2   2  -7 30963.0 3361.25   4
  -2   2  -7 28045.5 3218.16   3
  -2   2  -7 31428.7 2811.01   2
  -2   2  -8 66999.3 5421.26   3
  -2   2  -8 65807.0 5090.37   4
   2   2   8 62509.5 4930.65   6
  -2   2  -9 27518.6 3390.36   4
   2   2   9 33149.6 3736.71   6
  -2   3  11 22924.0 3235.41   6
  -2   3  10 13815.5 2346.32   6
   2   3 -10 10733.7 2234.09   4
  -2   3   9 1962.61 906.694   6
   2   3  -9 656.213 606.778   4
   2   3  -8 18762.8 2360.29   2
   2   3  -8 19610.0 2799.01   4
  -2   3   8 19248.8 2498.09   6
   2   3  -7 116756. 5869.85   2
   2   3  -7 100797. 6137.57   4
  -2   3   7 111409. 5663.11   6
   2   3  -6 93963.8 2790.37   8
   2   3  -6 101857. 5476.23   2
  -2   3   6 107641. 5139.19   6
  -2   3   5 100228. 3293.06   2
   2   3  -5 109228. 5339.69   2
  -2   3   5 106815. 3682.51   5
  -2   3   5 112135. 4831.87   6
   2   3  -4 55160.8 3659.50   2
  -2   3   4 50877.6 2876.65   6
   2   3  -3 11753.0 1590.86   2
  -2   3   3 10891.5 1118.92   6
   2   3  -2 88462.9 4163.39   2
  -2   3   2 85866.6 2668.05   6
   2   3  -1 180282. 5826.53   2
  -2   3   1 171351. 3011.97   6
   2   3   0 183728. 5702.92   2
  -2   3   0 175128. 4706.09   1
  -2   3  -1 167502. 3905.14   6
  -2   3  -1 166869. 4452.51   1
  -2   3  -2 79865.6 3081.81   1
  -2   3  -2 81303.0 3133.41   6
   2   3   2 82971.2 3499.14   6
  -2   3  -3 9410.57 1105.81   1
   2   3   3 8903.58 1249.66   6
  -2   3  -4 64235.9 3242.98   1
  -2   3  -4 64381.6 3835.53   2
   2   3   4 61271.3 3631.74   6
  -2   3  -5 143695. 6173.90   2
   2   3   5 138966. 6097.22   6
  -2   3  -5 142206. 6132.21   3
  -2   3  -6 76594.2 5128.64   4
  -2   3  -6 81376.7 4723.77   2
   2   3   6 78325.0 4936.01   6
  -2   3  -6 77392.1 4948.18   3
  -2   3  -7 54690.5 4652.09   4
  -2   3  -7 62336.5 4204.16   2
   2   3   7 52140.3 4355.93   6
  -2   3  -7 58784.4 4702.36   3
   2   3   8 9526.89 1934.12   6
  -2   3  -8 7232.02 1707.73   4
  -2   3  -8 11739.1 2305.01   3
   2   3   9 4507.03 1434.54   6
  -2   3  -9 2844.57 1159.79   4
   2   4 -10 28231.0 3666.13   4
  -2   4  10 30815.9 3616.79   6
   2   4  -9 42235.6 3710.02   2
   2   4  -9 42024.3 4373.51   4
  -2   4   9 38042.0 3790.61   6
  -2   4   8 26697.2 2955.99   6
   2   4  -8 31156.6 3133.49   2
   2   4  -8 28373.7 3446.73   4
   2   4  -7 55614.3 4155.97   2
  -2   4   7 47032.7 3733.44   6
  -2   4   6 2921.14 905.709   6
   2   4  -6 1410.09 550.859   2
   2   4  -5 40608.4 3398.37   2
  -2   4   5 41219.2 2935.89   6
   2   4  -4 119365. 5859.72   2
  -2   4   4 118055. 4592.70   6
   2   4  -3 142214. 5935.91   2
  -2   4   3 135347. 4311.35   6
   2   4  -2 385791. 9910.16   2
  -2   4   2 377210. 6940.61   6
  -2   4   1 54267.7 2574.08   1
   2   4  -1 52692.4 3163.81   2
  -2   4   1 49940.2 1605.59   6
   2   4   0 6273.40 1028.57   2
  -2   4   0 7381.90 881.891   1
  -2   4   0 5916.08 515.574   6
  -2   4  -1 84946.9 2997.56   1
  -2   4  -1 81860.2 2637.87   6
  -2   4  -2 236643. 5669.08   1
   2   4   2 230246. 6552.58   6
  -2   4  -3 145070. 4462.51   1
  -2   4  -3 138543. 5893.44   2
   2   4   3 148788. 5453.13   6
  -2   4  -4 77171.5 3480.13   1
  -2   4  -4 72991.6 4408.63   2
   2   4   4 79809.4 4257.38   6
  -2   4  -5 11320.4 1792.09   2
   2   4   5 12229.2 1796.05   6
  -2   4  -5 10920.6 1682.74   3
  -2   4  -6 579.471 495.032   3
   2   4   6 630.426 658.342   6
  -2   4  -6 209.020 319.854   2
  -2   4  -7 49092.5 4441.44   4
  -2   4  -7 49855.6 3964.11   2
   2   4   7 47905.2 4232.36   6
  -2   4  -7 47667.7 4271.99   3
  -2   4  -8 28096.3 3018.86   2
  -2   4  -8 27951.1 3536.71   4
   2   4   8 30061.4 3554.45   6
  -2   4  -8 31786.8 3739.20   3
  -2   4  -9 25899.6 3492.98   4
   2   4   9 24932.7 3430.88   6
  -2   5  10 11026.4 2188.92   6
   2   5 -10 12149.9 2572.30   4
  -2   5   9-262.351 468.190   6
   2   5  -9-170.441 594.201   4
   2   5  -9-352.782 505.808   2
   2   5  -8 17455.7 2443.49   2
  -2   5   8 13546.2 2181.38   6
   2   5  -7 51306.3 4186.17   2
  -2   5   7 50632.5 3944.74   6
   2   5  -6 49588.5 4044.36   2
  -2   5   6 37698.4 3159.55   6
  -2   5   5 124218. 5333.96   6
   2   5  -5 121217. 6233.76   2
  -2   5   5 112690. 3874.81   2
   2   5  -4 113504. 5931.23   2
  -2   5   4 108380. 4438.28   6
  -2   5   3 1670.76 472.794   6
   2   5  -3 3280.88 925.832   2
   2   5  -2 56530.4 3693.81   2
  -2   5   2 54867.5 2291.26   6
  -2   5   1 219385. 5825.07   1
  -2   5   1 211158. 4576.11   6
   2   5   0 252143. 7497.49   2
  -2   5   0 243457. 5844.21   1
   2   5   1 222252. 6648.51   2
  -2   5  -1 207669. 5098.86   1
  -2   5  -1 202815. 4865.02   6
  -2   5  -1 209613. 7355.35   2
  -2   5  -2 1561.57 411.538   1
  -2   5  -2 2644.13 827.932   2
   2   5   2 1748.82 610.167   6
  -2   5  -3 2744.62 889.525   2
   2   5   3 2389.78 699.761   6
  -2   5  -3 2661.38 566.051   1
  -2   5  -4 82521.4 3530.44   1
  -2   5  -4 76229.6 4772.56   2
   2   5   4 80282.2 4458.64   6
  -2   5  -5 79261.1 5017.74   2
   2   5   5 81551.5 4840.89   6
  -2   5  -5 83281.3 4733.08   3
  -2   5  -6 47128.0 3981.02   2
   2   5   6 50184.3 4081.26   6
  -2   5  -6 47453.4 3898.83   3
  -2   5  -7 31085.2 3275.26   2
   2   5   7 30062.5 3438.58   6
  -2   5  -7 31719.9 3490.04   3
   2   5   8 6497.78 1713.57   6
  -2   5  -8 5685.09 1686.86   4
  -2   5  -8 8158.26 1700.51   2
  -2   5  -8 5852.69 1689.24   3
   2   5   9 2620.71 1160.37   6
  -2   5  -9 2503.62 1251.51   4
  -2   6  10 17900.1 2808.15   6
   2   6 -10 15914.6 2960.63   4
   2   6  -9 41315.3 3999.76   2
   2   6  -9 34348.6 4118.49   4
  -2   6   9 38495.0 3950.76   6
   2   6  -8 39760.6 3897.42   2
  -2   6   8 44569.0 4041.87   6
   2   6  -7 28429.7 3241.77   2
  -2   6   7 25879.3 2889.86   6
  -2   6   6 3855.27 1060.45   6
   2   6  -6 4123.23 1326.56   2
   2   6  -5 35643.0 3563.28   2
  -2   6   5 34100.6 2178.43   2
  -2   6   5 41750.7 3084.69   6
   2   6  -4 105470. 6035.07   2
  -2   6   4 97978.6 4162.27   2
  -2   6   4 99880.2 4339.58   6
   2   6  -3 148636. 6833.85   2
  -2   6   3 138180. 5344.17   2
  -2   6   3 147142. 4764.27   6
  -2   6   2 101829. 3472.30   6
   2   6  -2 104505. 5389.21   2
  -2   6   2 93086.3 4577.59   2
   2   6  -1 61797.7 3869.20   2
  -2   6   1 56309.0 3702.94   2
  -2   6   0 7240.11 1415.60   2
  -2   6   0 6588.79 855.554   1
   2   6   0 7173.67 1235.04   2
   2   6   1 46262.5 3081.96   2
  -2   6  -1 49591.7 2296.51   1
  -2   6  -1 52177.5 3782.53   2
   2   6   2 140937. 5373.20   2
  -2   6  -2 143734. 6581.41   2
  -2   6  -2 136931. 4008.52   1
   2   6   2 135286. 5335.83   6
  -2   6  -3 120487. 3807.92   1
  -2   6  -3 108627. 5886.92   2
   2   6   3 109578. 5053.49   6
  -2   6  -4 72804.9 3169.96   1
  -2   6  -4 70668.9 4813.79   2
   2   6   4 71062.2 4294.55   6
  -2   6  -5 12735.2 2088.95   2
   2   6   5 14401.5 2080.82   6
  -2   6  -5 14955.5 2001.04   3
  -2   6  -6 6412.56 1486.67   3
   2   6   6 10067.2 1932.77   6
  -2   6  -6 7440.30 1659.07   2
  -2   6  -7 22648.1 2947.56   2
   2   6   7 18617.6 2760.95   6
  -2   6  -7 20052.8 2798.49   3
  -2   6  -8 42550.0 4124.17   2
  -2   6  -8 42751.2 4442.57   3
   2   6   8 39967.5 4343.50   6
  -2   7  10 9522.89 2095.79   6
  -2   7   9 318.337 474.904   6
   2   7  -9 1551.40 774.633   2
  -2   7   8 5307.03 1442.61   6
   2   7  -8 6421.55 1666.43   2
   2   7  -7 57124.8 4887.60   2
  -2   7   7 51133.9 4168.26   6
   2   7  -6 113860. 6883.99   2
  -2   7   6 115364. 5911.37   6
   2   7  -5 54836.7 4602.44   2
  -2   7   5 49123.4 2788.94   2
  -2   7   5 55578.7 3646.81   6
  -2   7   4 8233.81 1242.93   2
   2   7  -4 8853.58 1769.72   2
  -2   7   4 9275.46 1326.56   6
  -2   7   3 1265.52 568.211   2
  -2   7   3 1823.65 505.453   6
   2   7  -3 1908.45 792.356   2
   2   7  -2 38453.0 3423.20   2
  -2   7   2 39867.3 3131.75   2
  -2   7   2 40997.3 2307.63   6
   2   7  -1 120997. 5848.42   2
  -2   7   1 98630.2 5302.19   2
   2   7   0 88618.9 4719.09   2
  -2   7   0 84096.5 5075.06   2
  -2   7   0 82786.7 3270.84   1
   2   7   1 69379.7 3993.78   2
  -2   7  -1 69493.0 2787.53   1
  -2   7  -1 66918.0 4608.97   2
   2   7   2 50484.5 3239.15   2
  -2   7  -2 45858.0 3899.05   2
  -2   7  -2 47472.2 2193.37   1
   2   7   2 51125.4 3365.48   6
  -2   7  -3 774.256 600.458   2
   2   7   3 958.988 428.048   6
  -2   7  -3 321.504 209.419   1
  -2   7  -4 35101.3 3583.29   2
   2   7   4 34263.2 3046.15   6
  -2   7  -4 35777.3 2870.99   3
  -2   7  -5 62897.3 4940.42   2
   2   7   5 60669.4 4397.80   6
  -2   7  -5 68082.8 4373.96   3
  -2   7  -6 77570.6 5623.61   2
   2   7   6 77887.1 5408.93   6
  -2   7  -6 76752.2 5141.37   3
  -2   7  -7 36289.0 3913.41   2
  -2   7  -7 37692.3 3903.79   3
   2   7   7 33317.6 3756.76   6
   2   7   8 3682.50 1362.43   6
  -2   7  -8 2541.53 1100.12   3
  -2   7  -8 4189.34 1469.39   2
   2   8  -9 31900.5 3873.21   2
  -2   8   9 28011.5 3544.28   6
   2   8  -8 49235.3 4769.24   2
  -2   8   8 43918.9 4212.48   6
  -2   8   7 2563.43 1007.14   6
   2   8  -7 6604.66 1825.84   2
  -2   8   6 1114.47 614.706   6
   2   8  -6 2075.77 946.861   2
   2   8  -5 10180.1 2133.28   2
  -2   8   5 12166.0 1742.18   6
   2   8  -4 105068. 6642.07   2
  -2   8   4 91744.8 4544.29   2
  -2   8   4 101039. 4676.71   6
   2   8  -3 99008.7 6158.67   2
  -2   8   3 88399.5 4770.24   2
  -2   8   3 107802. 4458.49   6
   2   8  -2 59013.1 4480.20   2
  -2   8   2 51028.5 3761.44   2
  -2   8   2 54695.9 2892.05   6
  -2   8   1 11669.1 1903.95   2
   2   8  -1 14034.0 2065.23   2
  -2   8   0 2086.83 845.120   2
   2   8   0 2745.89 894.847   2
  -2   8   0 2542.72 573.102   1
   2   8   1 50057.7 3614.09   2
  -2   8  -1 50363.4 2352.52   1
  -2   8  -1 49857.0 4210.90   2
   2   8   2 59147.5 3700.19   2
  -2   8  -2 54909.0 4491.16   2
  -2   8  -2 59592.2 2419.89   1
   2   8   3 89519.8 4445.33   2
  -2   8  -3 88455.1 5845.93   2
   2   8   3 82550.5 4737.06   6
  -2   8  -4 61448.5 4980.56   2
   2   8   4 62215.6 4316.40   6
  -2   8  -4 68913.6 4124.75   3
  -2   8  -5 10621.3 1757.26   3
   2   8   5 10134.9 1831.81   6
  -2   8  -5 9926.29 2101.16   2
  -2   8  -6 3660.87 1139.93   3
   2   8   6 1575.90 870.254   6
  -2   8  -6 2081.71 978.710   2
   2   8   7 14079.9 2510.41   6
  -2   8  -7 19312.4 2826.01   3
  -2   8  -7 13096.4 2464.92   2
  -2   8  -8 31007.8 3890.37   2
  -2   9   9 2612.32 1146.82   6
   2   9  -9 668.345 751.100   2
  -2   9   8 7418.37 1800.23   6
   2   9  -8 6353.43 1797.22   2
   2   9  -7 18128.8 3011.88   2
  -2   9   7 16396.0 2478.37   6
   2   9  -6 58998.4 5397.77   2
  -2   9   6 65368.0 4575.68   6
   2   9  -5 57838.9 5254.71   2
  -2   9   5 57294.1 3967.61   6
  -2   9   4 10279.3 1578.43   2
   2   9  -4 10738.6 2231.22   2
  -2   9   4 11631.8 1635.15   6
  -2   9   3 4617.72 956.096   6
   2   9  -3 2955.77 1172.30   2
  -2   9   3 3400.08 953.473   2
   2   9  -2 30774.4 3437.81   2
  -2   9   2 27108.9 2916.56   2
  -2   9   2 30738.8 2291.15   6
  -2   9   1 72169.9 5029.33   2
  -2   9   1 78956.4 3701.49   1
   2   9  -1 76371.7 5147.93   2
  -2   9   0 131459. 7100.03   2
   2   9   0 141006. 6801.39   2
  -2   9   0 128297. 4316.26   1
   2   9   1 42001.9 3433.39   2
  -2   9  -1 39662.9 3951.06   2
   2   9   2 15305.0 1982.33   2
  -2   9  -2 13719.5 2347.91   2
   2   9   3 10207.4 1555.44   2
   2   9   3 8185.11 1547.59   6
  -2   9  -3 9041.22 1968.24   2
   2   9   4 11705.5 1935.85   6
  -2   9  -4 11334.0 2266.99   2
  -2   9  -4 14976.4 1923.97   3
  -2   9  -5 42307.3 4418.31   2
   2   9   5 40724.7 3832.36   6
  -2   9  -6 35774.5 4176.77   2
   2   9   6 38808.9 3976.61   6
  -2   9  -7 20065.8 3141.14   2
  -2  10   8 14427.5 2533.98   6
   2  10  -8 13465.7 2769.09   2
  -2  10   7 15080.2 2448.60   6
   2  10  -7 17599.9 3078.06   2
  -2  10   6-147.535 366.637   6
   2  10  -6 1179.84 917.613   2
  -2  10   5 4169.31 1111.97   6
   2  10  -5 5650.96 1765.68   2
   2  10  -4 39180.8 4469.62   2
  -2  10   4 42188.4 3227.90   6
   2  10  -3 75107.9 5889.05   2
  -2  10   3 73573.0 4767.45   2
  -2  10   3 70922.8 3949.68   6
   2  10  -2 81355.4 5929.39   2
  -2  10   2 74052.1 5070.04   2
  -2  10   2 79050.4 3968.74   6
  -2  10   1 11405.4 1421.78   1
   2  10  -1 11465.2 2123.54   2
  -2  10   1 12170.0 2112.36   2
   2  10   0 59.6559 313.567   2
  -2  10   0 869.788 606.920   2
   2  10   1 30714.9 3126.39   2
  -2  10  -1 30601.7 3693.53   2
   2  10   2 52233.5 3846.45   2
  -2  10  -2 47750.6 4659.70   2
   2  10   2 49733.4 3929.81   6
   2  10   3 76530.8 4493.18   2
  -2  10  -3 76213.7 5979.27   2
   2  10   3 81368.0 5176.49   6
  -2  10  -4 17082.4 2981.07   2
   2  10   4 20137.2 2607.29   6
   2  10   5 1174.31 820.656   6
  -2  10  -5 1057.69 820.138   2
   2  10   6 2257.62 1029.36   6
  -2  10  -6 1828.63 1063.27   2
   2  11  -6 43964.4 5145.40   2
   2  11  -5 30030.3 4108.75   2
  -2  11   5 26606.1 2856.38   6
   2  11  -4 11217.0 2527.77   2
  -2  11   4 14931.6 2000.10   6
  -2  11   3 2120.87 703.759   6
   2  11  -3 1413.75 944.514   2
  -2  11   3 918.698 531.220   2
   2  11  -2 16968.2 2791.77   2
  -2  11   2 14336.4 2332.96   2
  -2  11   2 16516.3 1883.59   6
   2  11  -1 31597.3 3665.58   2
  -2  11   1 28195.9 3394.78   2
   2  11   0 67446.1 5115.68   2
  -2  11   0 58852.8 5237.39   2
  -2  11  -1 31195.2 3951.42   2
   2  11   1 31754.1 3346.44   2
   2  11   2 12823.3 2027.77   2
  -2  11  -2 13898.5 2619.98   2
   2  11   2 15316.8 2276.77   6
   2  11   3 1479.84 813.708   6
  -2  11  -3 1273.33 834.855   2
   2  11   4 4553.50 1293.31   6
  -2  11  -4 8061.28 2074.32   2
  -2  11  -5 42235.7 4856.91   2
   2  11   5 44013.6 4257.95   6
   2  12  -5 15672.6 3192.34   2
   2  12  -4 35756.6 4596.91   2
   2  12  -3 26963.4 3891.12   2
   2  12  -2 25692.3 3612.54   2
  -2  12   2 21127.2 2905.25   2
   2  12  -1 2343.19 1128.48   2
  -2  12   1 3032.70 1165.55   2
   2  12   0-839.476 707.307   2
  -2  12   0 1003.52 810.844   2
   2  12   1 8304.91 1846.58   2
  -2  12  -1 9714.87 2274.91   2
   2  12   2 28612.8 3168.55   2
  -2  12  -2 30117.4 4112.95   2
   2  12   2 31146.0 3378.34   6
  -2  12  -3 24184.0 3707.69   2
   2  12   3 33817.1 3603.55   6
   2  13  -3 1134.35 944.032   2
  -2  13   2 9403.82 2056.69   2
   2  13  -2 8618.57 2195.70   2
   2  13  -1 28873.7 3824.17   2
  -2  13   1 26680.3 3597.57   2
   2  13   0 23979.7 3314.20   2
  -2  13   0 21981.8 3401.08   2
   2  13   1 19794.7 2914.12   2
  -2  13  -1 20520.8 3450.84   2
  -2  13  -2 2599.11 1333.10   2
  -2  14   1 5951.10 1703.48   2
   2  14   0 1379.35 932.930   2
   3 -13  -2 30612.5 3637.78   5
  -3 -13   1 24710.2 4153.75   5
   3 -13  -1 12252.4 2400.41   5
  -3 -13   0 15383.8 3212.57   5
   3 -13   0 11688.0 2464.27   5
  -3 -12   4 31310.7 4435.56   5
  -3 -12   3 29786.5 4315.80   5
  -3 -12   2 2075.44 1434.79   5
   3 -12  -2 1951.16 860.981   5
  -3 -12   1 10035.5 2554.85   5
   3 -12  -1 6079.64 1561.83   5
  -3 -12   0 43341.2 5132.40   5
   3 -12   0 34284.5 4060.39   5
  -3 -12  -1 38550.7 4676.19   5
   3 -12   1 31110.1 4032.69   5
   3 -12   2 28574.1 4049.55   5
  -3 -12  -2 29686.5 3721.53   7
  -3 -12  -3 6230.80 1920.42   7
  -3 -11   5 6676.26 1984.79   5
  -3 -11   4 4848.71 1783.15   5
  -3 -11   3 32500.9 4267.63   5
   3 -11  -3 27528.6 2992.30   5
  -3 -11   2 62418.2 5947.64   5
   3 -11  -2 52901.3 4365.13   5
  -3 -11   1 38166.4 4679.24   5
   3 -11  -1 37396.3 3840.00   5
  -3 -11   0 27063.4 3810.74   5
   3 -11   0 24233.9 3251.23   5
  -3 -11  -1 598.050 864.202   5
   3 -11   1 1298.14 838.910   5
  -3 -11  -1 758.498 580.576   7
  -3 -11  -2 7493.94 1921.39   5
   3 -11   2 3691.36 1494.13   5
  -3 -11  -2 6617.62 1827.51   7
   3 -11   3 25272.0 3745.30   5
  -3 -11  -3 24177.8 3652.68   7
  -3 -11  -4 31464.9 4280.51   7
  -3 -10   7 2014.79 1060.18   5
   3 -10  -7 2111.68 1031.30   7
  -3 -10   6 31805.3 4065.11   5
  -3 -10   5 55695.1 5292.10   5
  -3 -10   4 48031.7 4919.44   5
  -3 -10   3 13271.3 2606.45   5
   3 -10  -3 11289.0 1849.52   5
  -3 -10   2 4144.25 1455.54   5
   3 -10  -2 1828.50 778.267   5
  -3 -10   1 4286.08 1620.71   5
   3 -10  -1 4033.99 1244.02   5
  -3 -10   0 26437.4 3692.85   5
   3 -10   0 26336.6 3298.66   5
  -3 -10   0 25377.4 2701.65   7
  -3 -10  -1 57502.1 5229.39   5
   3 -10   1 50148.1 4703.49   5
  -3 -10  -2 57412.5 5069.98   5
   3 -10   2 50815.6 4994.93   5
   3 -10   3 18650.5 3189.02   5
   3 -10   4 2421.93 1174.18   5
   3 -10   5 4998.34 1642.39   5
  -3  -9   8 36446.7 4364.72   5
   3  -9  -7 47754.5 4734.22   7
  -3  -9   7 56699.7 5262.51   5
  -3  -9   6 9394.28 2122.31   5
   3  -9  -6 10574.9 2129.58   7
  -3  -9   5 2471.59 1076.12   5
  -3  -9   4 13290.5 2408.70   5
  -3  -9   3 36747.1 4017.52   5
   3  -9  -3 34624.6 3096.90   5
  -3  -9   2 72372.4 5713.27   5
   3  -9  -2 65412.5 4501.97   5
  -3  -9   1 69342.8 4425.45   1
  -3  -9   1 68184.1 5701.89   5
   3  -9  -1 59752.7 4543.92   5
  -3  -9   0 22155.4 3221.83   5
   3  -9   0 18953.5 2656.52   5
  -3  -9  -1 8737.78 2020.64   5
   3  -9   1 3198.99 1250.53   5
   3  -9   2 9073.57 2045.13   5
  -3  -9  -2 8207.20 1890.53   5
  -3  -9  -3 22894.5 2962.87   5
   3  -9   3 22111.9 3213.79   5
   3  -9   4 70945.6 5944.47   5
   3  -9   5 36813.6 4353.84   5
   3  -9   6 11079.9 2390.31   5
  -3  -8   9 14399.8 2683.81   5
   3  -8  -8 5088.84 1654.46   7
  -3  -8   8 4639.93 1538.85   5
  -3  -8   7 2425.66 1225.97   5
   3  -8  -7 2884.89 1247.52   7
  -3  -8   6 24579.8 3242.42   5
   3  -8  -6 22139.4 2971.33   7
  -3  -8   5 56414.0 4807.54   5
  -3  -8   4 93997.3 6179.65   5
  -3  -8   3 47240.8 4343.03   5
  -3  -8   3 46870.2 2990.56   1
  -3  -8   2 9521.64 2049.75   5
  -3  -8   2 7477.67 1262.56   1
   3  -8  -2 8345.24 1552.09   5
  -3  -8   1 21666.2 2960.66   5
  -3  -8   1 20742.1 2244.98   1
   3  -8  -1 18245.5 2362.24   5
  -3  -8   0 62841.4 5155.15   5
  -3  -8   0 63466.9 4206.02   1
   3  -8   0 58548.5 4481.36   5
  -3  -8  -1 99303.1 6430.88   5
   3  -8   1 99857.0 6128.79   5
  -3  -8  -2 102245. 6287.33   5
   3  -8   2 92088.6 6152.59   5
  -3  -8  -3 11478.5 2136.68   5
   3  -8   3 10727.9 2170.62   5
   3  -8   4 1200.40 991.024   5
   3  -8   5 12495.7 2467.65   5
   3  -8   6 11498.8 2343.62   5
   3  -8   7 40168.3 4421.54   5
  -3  -7   9 21681.5 3150.02   5
   3  -7  -9 18678.2 3078.24   7
  -3  -7   8 19846.0 2886.83   5
   3  -7  -8 17923.5 2825.89   7
  -3  -7   7 50197.1 4499.82   5
   3  -7  -7 43743.9 4204.62   7
  -3  -7   6 40063.0 3959.63   5
   3  -7  -6 33755.6 3486.41   7
  -3  -7   5 13615.4 2240.62   5
  -3  -7   4 7567.26 1621.19   5
  -3  -7   4 7464.80 1058.26   1
  -3  -7   3 45205.7 3985.94   5
  -3  -7   3 46855.7 2820.35   1
  -3  -7   2 153438. 7499.11   5
   3  -7  -2 148110. 6358.85   5
  -3  -7   2 160601. 5649.39   1
  -3  -7   1 161883. 7726.78   5
  -3  -7   1 153683. 5974.44   1
   3  -7  -1 144108. 6544.34   5
  -3  -7   0 60013.9 4718.85   5
  -3  -7   0 58573.7 3789.49   1
   3  -7   0 53228.5 4071.71   5
  -3  -7   0 64563.2 2931.87   3
  -3  -7  -1 8716.38 1573.86   1
   3  -7   1 8979.89 1756.37   5
  -3  -7  -1 10566.1 1379.83   3
  -3  -7  -2 22226.3 2635.88   1
   3  -7   2 20475.4 2785.45   5
  -3  -7  -2 22043.9 2296.16   3
   3  -7   3 53975.9 4678.21   5
  -3  -7  -3 72206.1 4629.65   3
   3  -7   4 62016.2 5063.00   5
  -3  -7  -4 68884.8 4978.64   3
   3  -7   5 37256.0 4002.82   5
   3  -7   6 11955.8 2327.44   5
   3  -7   7 162.258 556.882   5
   3  -7   8 3631.15 1308.18   5
   3  -6 -10 18853.4 3014.67   7
  -3  -6   9 29863.7 3470.55   5
   3  -6  -9 22281.8 3247.76   7
  -3  -6   8 2256.31 999.047   5
   3  -6  -8 1418.03 955.723   7
  -3  -6   7 4042.75 1231.63   5
   3  -6  -7 6031.68 1530.55   7
  -3  -6   6 35574.0 3538.17   5
   3  -6  -6 36400.9 3462.69   7
  -3  -6   5 99441.8 5857.06   5
  -3  -6   5 92031.3 3807.98   1
  -3  -6   4 90347.4 5425.75   5
  -3  -6   4 85409.1 3609.92   1
  -3  -6   3 93559.0 5493.18   5
  -3  -6   3 94536.1 3900.41   1
  -3  -6   2 1824.37 651.724   1
   3  -6  -1 5964.31 1302.23   5
  -3  -6   1 3467.74 767.615   1
  -3  -6   0 134252. 5540.01   1
   3  -6   0 140281. 6369.57   5
   3  -6   0 124379. 7483.61   8
  -3  -6  -1 97373.3 4964.67   1
   3  -6   1 99587.8 5588.51   5
   3  -6   1 92376.1 6145.09   8
  -3  -6  -2 106449. 5569.38   1
   3  -6   2 115464. 6255.51   5
   3  -6   2 117960. 7010.06   8
  -3  -6  -2 109348. 4879.61   3
  -3  -6  -3 36189.6 3381.16   1
   3  -6   3 32389.6 3440.05   5
   3  -6   3 37224.9 3916.31   8
  -3  -6  -3 36777.2 3094.27   3
  -3  -6  -4 4984.45 1283.47   3
   3  -6   4 4736.43 1332.85   5
   3  -6   4 7360.23 1724.91   8
   3  -6   5 14141.8 2359.69   5
   3  -6   5 22990.7 2950.28   8
  -3  -6  -5 17059.7 2581.42   3
   3  -6   6 48637.8 4402.76   5
   3  -6   7 35095.5 3800.83   5
   3  -6   8 29572.7 3480.45   5
   3  -5 -10 1573.27 1058.52   7
   3  -5 -10 1649.20 1005.97   4
  -3  -5   9 22299.8 2878.07   5
   3  -5  -9 19147.2 2867.07   7
   3  -5  -9 19748.0 3077.54   4
  -3  -5   8 69516.4 4920.55   5
   3  -5  -8 58773.8 4765.86   7
  -3  -5   7 76855.4 5141.19   5
  -3  -5   7 71397.7 3870.44   1
   3  -5  -7 68119.4 4843.78   7
  -3  -5   6 42385.9 2802.37   1
   3  -5  -6 41122.6 3554.24   7
  -3  -5   5 1611.75 701.833   5
  -3  -5   5 1816.16 537.660   1
  -3  -5   4 23608.5 1844.04   1
  -3  -5   4 23848.1 2633.72   5
  -3  -5   3 82413.2 3502.81   1
   3  -5  -2 92099.4 6091.57   8
  -3  -5   2 119724. 4403.20   1
  -3  -5   1 64648.3 3354.37   1
   3  -5  -1 58372.8 4495.31   8
   3  -5   0 68297.1 4143.89   5
  -3  -5   0 71417.6 3674.35   1
  -3  -5  -1 16271.5 1884.15   1
   3  -5   1 15909.3 2076.92   5
   3  -5   1 18825.4 2607.66   8
  -3  -5  -2 8627.58 1498.92   1
   3  -5   2 10231.1 1779.15   5
   3  -5   2 10636.7 2107.11   8
  -3  -5  -2 9459.30 1329.22   3
  -3  -5  -3 91436.9 5166.22   1
   3  -5   3 96912.3 5699.57   5
   3  -5   3 108859. 6477.97   8
  -3  -5  -3 92855.3 4807.52   3
   3  -5   4 76542.9 5134.91   5
  -3  -5  -4 88906.1 5165.11   3
   3  -5   5 74845.3 5179.18   5
  -3  -5  -5 79910.0 5403.62   3
   3  -5   6 33352.6 3469.84   5
   3  -5   6 28145.0 2994.16   6
  -3  -5  -6 30520.9 3566.02   3
   3  -5   7-849.375 665.959   5
   3  -4 -10 34025.6 3806.66   7
   3  -4 -10 30701.6 3969.13   4
  -3  -4   9 23747.9 2791.46   5
   3  -4  -9 23634.3 3065.46   7
   3  -4  -9 16157.4 2804.09   4
  -3  -4   8 12058.7 1971.29   5
   3  -4  -8 13590.8 2171.69   7
   3  -4  -8 12526.2 2250.65   4
  -3  -4   8 12366.5 1793.37   1
  -3  -4   7 15667.9 2217.82   5
   3  -4  -7 14893.8 2161.14   7
   3  -4  -7 12324.1 1975.22   4
  -3  -4   7 14982.1 1803.11   1
  -3  -4   6 62086.2 4285.26   5
   3  -4  -6 56816.9 3771.61   4
  -3  -4   6 63762.4 3520.54   1
   3  -4  -6 58803.8 4066.46   7
  -3  -4   5 132722. 6251.01   5
  -3  -4   5 137744. 5043.94   1
  -3  -4   4 99292.1 4068.67   1
  -3  -4   4 91782.3 2724.75   7
  -3  -4   3 52135.6 2664.67   1
   3  -4  -3 10532.6 1793.56   8
  -3  -4   2 11704.6 1274.93   1
   3  -4  -2 5865.57 1685.06   8
   3  -4  -1 15955.2 2686.72   8
  -3  -4   1 31802.4 2224.93   1
   3  -4   0 88958.5 5117.45   8
  -3  -4   0 88803.6 4002.95   1
   3  -4   1 145563. 6164.10   5
  -3  -4  -1 139152. 5417.11   1
   3  -4   1 150189. 6791.92   8
  -3  -4  -2 91816.7 4659.03   1
   3  -4   2 92534.7 5064.43   5
   3  -4   2 89891.7 5297.07   8
  -3  -4  -3 95161.0 5036.51   1
   3  -4   3 88008.8 5133.33   5
   3  -4   3 81379.8 3452.38   6
  -3  -4  -3 85073.6 4393.98   3
  -3  -4  -4 4102.61 1104.81   3
  -3  -4  -4 2552.89 856.712   1
   3  -4   4 2928.16 1005.36   5
   3  -4   4 3395.58 1054.89   8
   3  -4   4 2955.34 810.854   6
   3  -4   5 17680.6 2392.35   5
   3  -4   5 17579.7 2363.46   8
  -3  -4  -5 18473.8 2027.24   4
   3  -4   5 18324.7 2227.48   6
  -3  -4  -5 16752.6 2398.55   3
   3  -4   6 61126.4 4489.12   5
  -3  -4  -6 52038.1 3844.52   4
   3  -4   6 49551.5 4118.70   6
  -3  -4  -6 53609.5 4626.71   3
  -3  -4  -7 41462.4 3759.69   4
   3  -4   7 42861.8 4158.95   6
  -3  -4  -7 49755.8 4738.68   3
  -3  -4  -8 29392.6 3387.56   4
   3  -4   8 35646.2 4009.21   6
   3  -3 -10 3461.01 1179.44   7
   3  -3 -10 3300.19 1380.71   4
   3  -3  -9 21957.0 2795.48   7
   3  -3  -9 21343.6 3068.28   4
  -3  -3   8 68401.6 4382.60   5
   3  -3  -8 58721.6 4326.89   7
   3  -3  -8 57631.2 4816.52   4
  -3  -3   7 44332.9 3224.47   1
  -3  -3   7 46494.0 3557.56   5
   3  -3  -7 39131.6 3331.29   7
   3  -3  -7 42179.4 3666.33   4
  -3  -3   6 90080.7 4902.40   5
   3  -3  -6 76880.9 4442.29   7
   3  -3  -6 84056.3 4624.62   4
  -3  -3   6 84060.1 4267.52   1
  -3  -3   5 11001.5 1389.56   1
   3  -3  -5 8343.75 1251.19   4
   3  -3  -4 1400.92 978.535   8
  -3  -3   4 7829.54 1115.06   1
  -3  -3   3 116248. 4343.18   1
   3  -3  -3 113382. 5467.52   8
   3  -3  -3 127405. 3352.81   6
   3  -3  -2 168361. 6479.47   8
  -3  -3   2 165913. 5144.79   1
   3  -3  -1 212169. 7486.32   8
  -3  -3   1 221271. 6136.02   1
   3  -3   0 113401. 5467.18   8
  -3  -3   0 107873. 4355.54   1
   3  -3   1 4880.42 1150.81   8
  -3  -3  -1 4361.57 941.093   1
  -3  -3  -2 35974.7 2783.11   1
   3  -3   2 40578.8 3365.92   8
   3  -3   2 40115.9 2016.73   6
  -3  -3  -3 114829. 5425.13   1
   3  -3   3 123875. 6107.58   8
   3  -3   3 112890. 4494.96   6
  -3  -3  -4 67828.9 4383.77   1
   3  -3   4 78509.2 4773.52   8
  -3  -3  -4 76465.2 3687.54   4
   3  -3   4 70019.6 4030.81   6
  -3  -3  -4 70641.0 4292.01   3
   3  -3   5 97573.3 5271.10   8
  -3  -3  -5 83958.3 4457.46   4
   3  -3   5 85008.6 5038.72   6
  -3  -3  -5 82733.6 5136.60   3
   3  -3   6 20968.0 2363.11   8
  -3  -3  -6 16830.8 2161.71   4
   3  -3   6 19891.5 2627.13   6
  -3  -3  -6 19474.6 2710.67   3
   3  -3   7 695.299 664.958   6
  -3  -3  -7 203.088 476.289   4
  -3  -3  -7 826.225 588.847   3
  -3  -3  -8 5106.31 1348.27   4
   3  -3   8 4848.49 1407.04   6
  -3  -3  -9 13615.1 2420.01   4
   3  -3   9 15245.4 2649.01   6
   3  -2 -11 18524.8 3022.76   4
   3  -2 -10 26362.0 3497.12   4
   3  -2  -9 17728.5 2723.94   4
   3  -2  -9 21039.3 2625.72   7
  -3  -2   8 6392.28 1324.34   5
   3  -2  -8 7747.64 1524.19   7
   3  -2  -8 4833.45 1318.89   4
  -3  -2   7 4281.99 1120.63   5
   3  -2  -7 5398.30 1190.83   7
   3  -2  -7 5172.11 1297.76   4
  -3  -2   6 46267.6 3235.57   1
   3  -2  -6 44641.6 3330.15   4
   3  -2  -5 124623. 4798.35   4
  -3  -2   5 124195. 4883.78   1
  -3  -2   4 204314. 6036.47   1
   3  -2  -4 176834. 5252.11   4
   3  -2  -3 139146. 5320.76   8
  -3  -2   3 144126. 5022.09   1
   3  -2  -3 140631. 4253.83   6
  -3  -2   2 16678.2 1531.91   1
   3  -2  -2 19290.9 1976.43   8
   3  -2  -2 17060.5 867.308   6
   3  -2  -1 50434.9 3461.39   8
  -3  -2   1 50030.5 2684.11   1
   3  -2   0 155846. 6782.08   8
  -3  -2   0 163803. 5351.13   1
   3  -2   1 287299. 9465.53   8
  -3  -2  -1 277935. 7538.29   1
  -3  -2  -2 133847. 5264.28   1
   3  -2   2 132474. 6402.04   8
   3  -2   2 125134. 4355.47   6
  -3  -2  -3 44218.2 3198.62   1
   3  -2   3 48950.2 3953.70   8
  -3  -2  -3 43987.5 2395.07   4
   3  -2   3 42700.3 2945.86   6
  -3  -2  -4 11466.8 1735.39   1
   3  -2   4 11111.3 1909.85   8
  -3  -2  -4 11753.9 1426.12   4
   3  -2   4 11998.3 1718.44   6
  -3  -2  -4 11709.8 1737.49   3
  -3  -2  -5 19348.8 2403.60   1
   3  -2   5 21198.5 2435.50   8
  -3  -2  -5 17065.6 1976.47   4
   3  -2   5 19764.6 2440.03   6
  -3  -2  -5 19117.1 2423.65   3
   3  -2   6 51465.6 3607.57   8
  -3  -2  -6 44294.1 3511.99   4
   3  -2   6 47610.4 3961.35   6
  -3  -2  -6 50036.5 4248.50   3
  -3  -2  -7 39094.3 3553.06   4
   3  -2   7 47303.1 4133.99   6
  -3  -2  -7 46076.0 4441.28   3
  -3  -2  -8 29084.3 3266.44   4
   3  -2   8 36706.8 3843.82   6
  -3  -2  -8 37323.9 4270.23   3
   3  -2   9 10011.6 2147.54   6
  -3  -2  -9 7974.65 1810.30   4
  -3  -1  11 1218.51 873.772   6
   3  -1 -11 1043.60 840.935   4
  -3  -1  10 848.329 556.451   6
   3  -1 -10 1945.24 924.803   4
   3  -1  -9 26427.8 3300.87   4
   3  -1  -9 28925.0 2868.97   7
  -3  -1   9 30193.6 3297.76   6
  -3  -1   8 74587.9 4183.72   5
   3  -1  -8 62138.9 4763.00   4
   3  -1  -8 69879.6 4230.77   7
  -3  -1   8 64404.9 4466.20   6
  -3  -1   7 118667. 5258.41   5
   3  -1  -7 105187. 5880.37   4
   3  -1  -6 24302.0 2153.30   8
   3  -1  -6 44428.0 3418.88   4
  -3  -1   5 6162.88 1143.14   1
   3  -1  -5 5550.08 1018.62   4
   3  -1  -4 20111.2 1783.18   8
   3  -1  -4 22852.7 1744.21   4
  -3  -1   4 24087.2 2050.38   1
   3  -1  -3 129629. 5107.19   8
  -3  -1   3 133565. 4721.84   1
   3  -1  -3 122409. 3520.87   4
   3  -1  -3 127811. 4111.79   6
  -3  -1   2 188960. 5785.96   1
   3  -1  -2 192444. 4227.00   6
  -3  -1   1 267453. 6689.65   1
   3  -1  -1 286783. 8654.24   8
   3  -1   0 43211.1 3422.20   8
  -3  -1   0 41853.3 2512.66   1
   3  -1   0 40086.0 1462.41   6
   3  -1   1 16594.3 2328.81   8
  -3  -1  -1 15743.3 1651.83   1
   3  -1   1 17967.9 1325.80   6
  -3  -1  -2 31613.6 2431.17   1
   3  -1   2 24159.2 2793.18   8
  -3  -1  -2 25859.8 1453.99   4
   3  -1   2 30362.6 2120.01   6
  -3  -1  -3 78154.9 4188.33   1
  -3  -1  -3 76222.8 3271.69   4
   3  -1   3 78830.4 3965.29   6
  -3  -1  -4 180844. 6935.91   1
   3  -1   4 176976. 7550.04   8
  -3  -1  -4 162122. 5817.79   4
   3  -1   4 164127. 6473.50   6
  -3  -1  -4 164027. 6552.89   3
  -3  -1  -5 88143.5 5047.24   1
   3  -1   5 87104.6 5040.22   8
  -3  -1  -5 78439.2 4356.70   4
   3  -1   5 82360.6 4835.51   6
  -3  -1  -5 83182.3 4984.59   3
   3  -1   6 21671.6 2448.23   8
  -3  -1  -6 17865.3 2227.39   4
   3  -1   6 21977.6 2606.17   6
  -3  -1  -6 19681.0 2658.20   3
  -3  -1  -7 2104.91 972.011   3
   3  -1   7 2025.65 922.487   6
  -3  -1  -7-519.986 496.198   4
   3  -1   8 13166.4 2266.97   6
  -3  -1  -8 12415.0 2078.75   4
  -3  -1  -8 12862.6 2496.49   3
   3  -1   9 16353.4 2627.01   6
  -3  -1  -9 18022.9 2656.27   4
  -3   0  11 22814.2 3181.67   6
   3   0 -11 16426.2 2845.01   4
   3   0 -10 62748.7 5346.44   4
  -3   0  10 69465.9 5327.84   6
  -3   0   9 29543.5 3280.29   6
   3   0  -9 25693.3 3234.27   4
   3   0  -8 1853.97 717.168   4
  -3   0   8 2932.38 977.359   6
  -3   0   7 10049.2 1607.89   6
   3   0  -7 10090.6 1748.71   4
   3   0  -6 56407.8 3880.71   4
  -3   0   6 65019.8 3647.24   6
   3   0  -5 184352. 5329.24   8
   3   0  -5 170750. 6398.85   4
  -3   0   4 196410. 6381.46   1
   3   0  -4 189041. 5969.83   8
   3   0  -4 186088. 5700.01   4
   3   0  -3 11351.9 1487.12   8
   3   0  -3 9220.71 878.220   4
  -3   0   3 7783.06 1131.92   1
  -3   0   2 8774.70 1156.80   1
   3   0  -2 8133.94 1384.99   8
   3   0  -2 7615.19 728.025   6
  -3   0   1 20592.5 1715.98   1
   3   0  -1 19365.6 2307.68   8
   3   0   0 38257.2 3501.01   8
  -3   0   0 42898.8 2495.53   1
   3   0   0 37178.1 1620.11   6
   3   0   1 264336. 9946.52   8
  -3   0  -1 246862. 4446.36   4
  -3   0  -1 267262. 7141.53   1
   3   0   1 254143. 5611.91   6
   3   0   2 147187. 7945.65   8
  -3   0  -2 148530. 5398.45   1
  -3   0  -2 151045. 4251.07   4
   3   0   2 151865. 4769.15   6
  -3   0  -3 52984.7 2888.49   4
  -3   0  -3 57897.0 3477.79   1
   3   0   3 65227.8 4826.63   8
   3   0   3 56439.2 3255.83   6
  -3   0  -4 14797.3 1871.32   1
  -3   0  -4 12784.3 1574.98   4
   3   0   4 15594.8 2255.66   8
   3   0   4 15319.0 1860.87   6
  -3   0  -5 22942.4 2504.77   1
   3   0   5 25307.8 2767.09   8
  -3   0  -5 22942.1 2328.52   4
   3   0   5 23806.7 2528.73   6
  -3   0  -5 23766.7 2626.73   3
   3   0   6 60309.8 4170.26   8
  -3   0  -6 51263.2 3801.60   4
   3   0   6 55755.7 4183.69   6
  -3   0  -6 61717.7 4630.60   3
  -3   0  -7 92191.9 5502.73   4
   3   0   7 85428.2 5464.02   6
  -3   0  -7 87717.3 6106.08   3
  -3   0  -8 22905.1 2899.27   4
   3   0   8 20019.6 2772.75   6
  -3   0  -8 22841.6 3346.60   3
   3   0   9 10533.6 2132.17   6
  -3   0  -9 12625.9 2262.50   4
   3   1 -11 3218.29 1198.46   4
  -3   1  11 830.471 688.117   6
   3   1 -10 1861.03 856.680   4
  -3   1  10 1150.91 679.834   6
   3   1  -9 27728.8 3390.68   4
  -3   1   9 30434.6 3335.89   6
   3   1  -8 76621.5 5317.35   4
  -3   1   8 79241.4 5034.86   6
   3   1  -7 111094. 6088.58   4
  -3   1   7 101736. 5219.37   6
   3   1  -6 40464.8 2147.90   8
   3   1  -6 40986.9 3410.66   4
  -3   1   6 41201.8 2948.35   6
   3   1  -5 4599.07 829.167   8
   3   1  -5 4848.14 1061.40   4
  -3   1   5 4690.30 860.159   6
   3   1  -4 19000.4 1825.40   8
   3   1  -4 19602.3 1905.87   4
   3   1  -3 132352. 4331.91   4
  -3   1   3 129396. 4929.75   1
   3   1  -2 196255. 7764.49   8
  -3   1   2 187371. 4584.45   4
  -3   1   2 195006. 5861.05   1
   3   1  -2 197468. 3823.08   4
  -3   1   1 268111. 7176.17   1
  -3   1   1 273496. 4340.76   4
  -3   1   0 39657.4 2406.71   1
   3   1   0 11802.0 4297.73   8
  -3   1  -1 16196.5 1214.71   4
  -3   1  -1 16113.5 1579.00   1
   3   1   1 16129.5 1302.47   6
   3   1   2 18994.5 3211.21   8
  -3   1  -2 24623.7 2089.98   1
   3   1   2 26095.0 1887.31   6
  -3   1  -2 25327.2 1896.12   4
  -3   1  -3 81158.2 4050.76   1
   3   1   3 76634.0 5973.56   8
  -3   1  -3 82572.9 4004.64   4
   3   1   3 79205.2 3805.40   6
  -3   1  -4 165655. 6344.54   1
   3   1   4 159215. 7866.84   8
  -3   1  -4 162912. 6316.27   4
   3   1   4 152236. 6112.84   6
  -3   1  -5 87167.7 4797.67   1
   3   1   5 77291.6 5281.81   8
  -3   1  -5 82416.2 4712.82   4
   3   1   5 82089.4 4796.52   6
  -3   1  -5 84264.5 4979.35   3
   3   1   6 14666.3 2188.26   8
  -3   1  -6 20283.0 2449.90   4
  -3   1  -6 19682.2 2253.61   2
   3   1   6 19180.8 2460.32   6
  -3   1  -6 21715.6 2784.82   3
  -3   1  -7 1776.90 888.382   3
   3   1   7 1663.33 804.578   6
  -3   1  -7 2235.31 718.548   4
  -3   1  -8 12774.6 2495.04   3
   3   1   8 12585.1 2183.72   6
  -3   1  -8 13181.9 2184.57   4
  -3   1  -9 20980.0 2897.69   4
   3   1   9 18015.6 2789.69   6
   3   2 -11 23052.6 3253.41   4
  -3   2  11 22930.8 3210.61   6
   3   2 -10 29549.1 3608.51   4
  -3   2  10 28077.1 3325.85   6
   3   2  -9 21254.8 2929.23   4
  -3   2   9 19482.5 2635.37   6
  -3   2   8 4683.33 1252.43   6
   3   2  -8 5633.19 1446.59   4
  -3   2   7 5111.93 1158.92   6
   3   2  -7 5291.34 1337.80   4
   3   2  -6 46085.7 3823.87   4
  -3   2   6 43165.0 3026.64   6
   3   2  -6 45854.0 2389.39   8
   3   2  -5 115531. 4573.70   8
   3   2  -5 131488. 6110.70   4
  -3   2   5 120646. 4601.79   6
   3   2  -4 180665. 6644.19   4
   3   2  -4 184539. 6852.09   8
  -3   2   4 183564. 5034.41   6
  -3   2   3 154675. 5527.25   1
  -3   2   2 18227.9 1161.35   4
  -3   2   2 17623.3 1671.85   1
  -3   2   1 54187.0 2923.86   1
  -3   2   1 55623.3 1824.23   4
  -3   2   0 146421. 4848.11   1
   3   2   0 135594. 2860.94   4
   3   2   1 265722. 6045.39   4
  -3   2  -1 285682. 7293.60   1
   3   2   1 287023. 6775.86   6
  -3   2  -2 135031. 4952.97   1
   3   2   2 133507. 4664.54   6
  -3   2  -2 122479. 3634.20   6
  -3   2  -3 41535.0 2834.02   1
   3   2   3 46919.0 2963.12   6
  -3   2  -4 12776.7 1698.31   1
  -3   2  -4 11485.4 1740.77   4
   3   2   4 13101.7 1715.51   6
  -3   2  -5 15923.5 1993.91   1
   3   2   5 9720.41 1986.84   8
  -3   2  -5 13985.3 2069.30   4
   3   2   5 16238.4 2122.88   6
  -3   2  -5 15836.3 2143.37   3
  -3   2  -6 52928.1 4159.35   4
  -3   2  -6 50506.9 3806.00   2
   3   2   6 44177.9 3813.50   6
  -3   2  -6 54116.1 4363.74   3
  -3   2  -7 42053.4 3876.59   4
  -3   2  -7 46276.1 3775.01   2
   3   2   7 39601.5 3848.10   6
  -3   2  -7 47638.0 4431.98   3
  -3   2  -8 34980.3 3671.15   4
   3   2   8 36901.0 3889.81   6
  -3   2  -8 42206.8 4483.09   3
   3   2   9 5940.42 1642.86   6
  -3   2  -9 4942.88 1470.75   4
  -3   3  11 1551.48 947.534   6
  -3   3  10 2920.10 1087.85   6
   3   3 -10 2766.02 1194.33   4
   3   3  -9 17453.5 2732.61   4
  -3   3   9 20309.2 2676.41   6
   3   3  -8 66803.6 4828.33   2
  -3   3   8 62035.1 4406.74   6
   3   3  -8 58230.4 4881.66   4
   3   3  -7 42280.7 3862.03   2
   3   3  -7 39041.3 3846.26   4
  -3   3   7 41786.8 3323.02   6
   3   3  -6 82361.8 5202.92   2
   3   3  -6 79444.8 5151.44   4
   3   3  -6 76330.3 3464.47   8
  -3   3   6 70159.0 4003.95   6
   3   3  -5 9834.56 1880.58   2
   3   3  -5 9282.01 1468.37   8
  -3   3   5 8066.78 1150.29   6
   3   3  -4 5713.14 1299.88   2
  -3   3   4 7143.68 919.745   6
   3   3  -3 154795. 6527.73   2
  -3   3   3 147946. 5526.06   1
  -3   3   3 137516. 3516.88   6
  -3   3   2 178870. 5771.84   1
  -3   3   1 229115. 6493.24   1
  -3   3   0 113502. 4347.49   1
   3   3   0 121824. 2978.19   4
  -3   3  -1 3594.42 748.493   1
   3   3   1 3309.21 537.262   4
   3   3   1 5133.23 869.939   6
  -3   3  -2 44073.1 2712.41   1
  -3   3  -2 36507.2 1826.16   6
   3   3   2 43146.3 2684.37   6
  -3   3  -3 117648. 4738.40   1
   3   3   3 115880. 4936.77   6
  -3   3  -4 83077.5 4251.35   1
   3   3   4 75256.5 4311.99   6
  -3   3  -5 92171.2 4764.66   1
  -3   3  -5 86268.1 5307.27   4
  -3   3  -5 84723.5 5013.58   2
   3   3   5 90290.7 5147.65   6
  -3   3  -5 85562.6 5150.06   3
  -3   3  -6 15547.1 2376.97   4
  -3   3  -6 14541.8 2133.52   2
   3   3   6 15688.1 2329.59   6
  -3   3  -6 16735.9 2435.07   3
  -3   3  -7 1362.08 958.684   3
  -3   3  -7 513.902 492.701   2
   3   3   7-344.704 479.492   6
  -3   3  -7-1077.29 723.784   4
  -3   3  -8 6492.82 1811.85   3
   3   3   8 4711.36 1437.80   6
  -3   3  -8 3866.14 1231.32   4
  -3   3  -9 12739.3 2376.00   4
   3   4 -10 36922.6 4233.37   4
  -3   4  10 32977.9 3618.94   6
   3   4  -9 22074.9 2893.99   2
   3   4  -9 20770.8 3082.58   4
  -3   4   9 18866.6 2586.62   6
   3   4  -8 11764.4 2134.43   2
   3   4  -8 10605.2 2180.10   4
  -3   4   8 12477.7 1960.24   6
   3   4  -7 14187.4 2331.31   4
   3   4  -7 13239.5 2241.49   2
  -3   4   7 18035.1 2176.69   6
   3   4  -6 58137.1 4559.42   2
   3   4  -6 55858.8 3424.43   8
  -3   4   6 58848.9 3705.03   6
   3   4  -5 124963. 6595.52   2
  -3   4   5 123618. 4942.00   6
   3   4  -4 87097.5 5186.01   2
  -3   4   4 80833.0 3377.78   6
   3   4  -3 55719.8 3927.76   2
  -3   4   3 51315.4 2081.93   6
   3   4  -2 10758.9 1654.19   2
  -3   4   2 9841.24 1341.43   1
  -3   4   1 31575.2 2253.07   1
  -3   4   0 90514.5 3873.20   1
   3   4   0 91701.5 2937.39   4
  -3   4  -1 123256. 2775.96   6
  -3   4  -1 143866. 4812.58   1
  -3   4  -2 88560.6 3859.08   1
  -3   4  -2 84630.5 3014.77   6
   3   4   2 93053.6 4233.89   6
  -3   4  -3 94023.6 4193.19   1
   3   4   3 93947.3 4587.24   6
   3   4   4 3221.78 937.233   6
  -3   4  -4 3563.73 855.103   1
  -3   4  -4 3112.71 970.106   2
  -3   4  -5 16508.9 1968.49   1
  -3   4  -5 18485.8 2436.47   2
   3   4   5 15176.0 2161.56   6
  -3   4  -5 18210.7 2324.54   3
  -3   4  -6 55763.9 4612.60   4
  -3   4  -6 52637.0 4296.67   2
   3   4   6 54158.5 4395.30   6
  -3   4  -6 59103.2 4614.40   3
  -3   4  -7 46024.0 4418.99   4
  -3   4  -7 44109.7 3999.43   2
   3   4   7 42921.0 4211.58   6
  -3   4  -7 46781.7 4457.01   3
  -3   4  -8 32735.0 3806.67   4
   3   4   8 31256.8 3761.37   6
  -3   4  -8 33965.7 4063.96   3
  -3   4  -9 6347.10 1669.14   4
  -3   5  10 1904.04 938.499   6
   3   5 -10 2178.74 1154.28   4
   3   5  -9 21037.8 2908.31   2
   3   5  -9 21434.9 3219.36   4
  -3   5   9 19486.2 2657.82   6
   3   5  -8 61806.4 5038.04   2
   3   5  -8 53359.9 4826.39   4
  -3   5   8 63554.0 4522.60   6
   3   5  -7 67709.8 5133.08   2
  -3   5   7 63315.6 4222.00   6
   3   5  -6 40483.7 4031.99   2
  -3   5   6 51136.4 3463.74   6
  -3   5   5 1260.72 490.721   6
   3   5  -5 1841.56 903.029   2
   3   5  -4 21533.5 2688.21   2
  -3   5   4 26201.7 1987.76   6
   3   5  -3 85302.5 5079.47   2
  -3   5   3 82195.0 3053.72   6
   3   5  -2 119640. 5800.28   2
  -3   5   2 105893. 2666.92   6
  -3   5   2 121075. 4879.52   1
   3   5  -1 67088.5 4191.93   2
  -3   5   1 66115.0 3344.90   1
  -3   5   0 64345.3 3266.91   1
  -3   5  -1 15276.6 1020.18   6
  -3   5  -1 16627.4 1570.02   1
  -3   5  -2 9870.71 1268.13   1
   3   5   2 8633.18 1332.09   6
  -3   5  -3 94024.7 4101.83   1
  -3   5  -3 92088.5 5356.97   2
   3   5   3 93032.0 4720.32   6
  -3   5  -4 78070.7 3984.11   1
  -3   5  -4 75420.3 5005.00   2
   3   5   4 80341.1 4713.02   6
  -3   5  -5 78278.0 4238.91   1
  -3   5  -5 72252.4 5115.65   2
   3   5   5 73472.4 4861.30   6
  -3   5  -5 75276.2 4868.01   3
  -3   5  -6 33132.2 3552.56   2
   3   5   6 35209.5 3592.85   6
  -3   5  -6 33764.5 3542.74   3
  -3   5  -7 329.524 502.188   3
   3   5   7 674.383 605.551   6
  -3   5  -7 253.193 491.621   4
  -3   5  -7 83.6618 344.215   2
  -3   5  -8 16135.7 2863.90   3
   3   5   8 13836.5 2598.94   6
  -3   5  -8 14604.3 2700.26   4
  -3   6  10 16488.5 2633.08   6
   3   6 -10 11575.0 2630.34   4
   3   6  -9 22811.5 3201.01   2
   3   6  -9 21802.5 3288.41   4
  -3   6   9 24850.9 3017.26   6
  -3   6   8 3252.62 1041.17   6
   3   6  -8 3739.10 1341.65   2
  -3   6   7 5120.17 1219.95   6
   3   6  -7 4201.58 1446.60   2
   3   6  -6 33798.8 3713.22   2
  -3   6   6 29180.0 2704.91   6
   3   6  -5 90991.5 6032.81   2
  -3   6   5 78603.1 4095.81   6
   3   6  -4 87681.9 5659.02   2
  -3   6   4 79711.9 3715.39   6
   3   6  -3 79567.1 5135.28   2
  -3   6   3 84207.2 3309.76   6
  -3   6   2 1219.28 330.561   6
  -3   6   2 743.294 409.022   1
   3   6  -2 350.379 435.434   2
   3   6  -1 4219.84 1088.42   2
  -3   6   1 3559.96 798.793   1
  -3   6   1 4425.09 473.233   6
   3   6   0 128209. 5937.59   2
  -3   6   0 114649. 4621.35   1
  -3   6  -1 95033.5 3886.83   1
  -3   6  -2 94822.6 5628.22   2
  -3   6  -2 99852.0 4080.98   1
   3   6   2 101713. 4876.66   6
  -3   6  -3 35509.7 2436.76   1
  -3   6  -3 34199.1 3420.90   2
   3   6   3 31326.9 2814.95   6
  -3   6  -4 5116.28 1383.35   2
   3   6   4 6116.70 1367.37   6
  -3   6  -4 5557.24 1029.94   1
  -3   6  -5 17349.2 2590.02   2
   3   6   5 19420.9 2527.46   6
  -3   6  -5 17298.5 2367.67   3
  -3   6  -6 37719.1 3941.81   2
   3   6   6 38387.3 3858.94   6
  -3   6  -6 45759.7 4142.10   3
  -3   6  -7 31027.1 3645.84   2
   3   6   7 30699.5 3708.02   6
  -3   6  -7 32752.6 3793.19   3
  -3   6  -8 20744.5 3267.71   4
  -3   6  -8 28624.6 3830.91   3
  -3   6  -8 25591.0 3360.65   2
   3   7  -9 20961.8 3145.19   2
  -3   7   9 16533.5 2516.95   6
   3   7  -8 16649.8 2775.30   2
  -3   7   8 15222.9 2278.29   6
   3   7  -7 39936.6 4261.75   2
  -3   7   7 42392.9 3595.90   6
   3   7  -6 39295.7 4190.94   2
  -3   7   6 35543.9 3059.28   6
  -3   7   5 9898.11 1525.85   2
   3   7  -5 9880.46 2086.33   2
  -3   7   5 11872.5 1598.73   6
  -3   7   4 8097.14 1450.46   2
   3   7  -4 6703.61 1653.62   2
  -3   7   4 9925.16 1323.62   6
   3   7  -3 42941.8 3910.04   2
  -3   7   3 36123.2 3228.17   2
  -3   7   3 47318.7 2544.78   6
  -3   7   2 136299. 5585.29   1
   3   7  -2 147086. 7081.79   2
  -3   7   2 129823. 6549.36   2
  -3   7   2 146332. 4064.16   6
   3   7  -1 143724. 6754.82   2
  -3   7   1 138573. 5171.73   1
  -3   7   1 135247. 6863.44   2
  -3   7   1 137379. 3612.52   6
   3   7   0 54912.8 3960.72   2
  -3   7   0 63227.5 4627.77   2
  -3   7  -1 10205.8 1889.48   2
  -3   7  -1 9359.08 1178.51   1
  -3   7  -2 20632.7 2734.60   2
  -3   7  -2 24955.5 1964.07   1
   3   7   2 20331.5 2259.85   6
  -3   7  -3 65078.7 3266.15   1
  -3   7  -3 61476.0 4848.00   2
   3   7   3 62248.3 4140.30   6
  -3   7  -4 69116.9 5287.27   2
   3   7   4 62598.6 4415.53   6
  -3   7  -5 28298.5 3481.96   2
   3   7   5 32919.7 3384.89   6
  -3   7  -5 35270.2 3412.37   3
  -3   7  -6 13701.9 2304.72   3
   3   7   6 13344.5 2336.26   6
  -3   7  -6 13082.8 2425.59   2
  -3   7  -7 40.0256 515.026   3
   3   7   7 15.0403 435.045   6
  -3   7  -7 663.378 570.752   2
  -3   7  -8 8015.54 1948.70   2
   3   8  -9 11801.1 2465.59   2
   3   8  -8 5711.73 1784.05   2
   3   8  -7 2946.97 1348.21   2
   3   8  -6 23887.8 3428.78   2
   3   8  -5 47277.9 4740.51   2
   3   8  -4 92547.1 6358.32   2
  -3   8   4 83528.7 5008.73   2
   3   8  -3 42787.2 4133.30   2
  -3   8   3 35127.8 3354.96   2
  -3   8   2 7158.15 1559.85   2
  -3   8   2 7308.85 1294.44   1
   3   8  -2 7214.83 1629.10   2
   3   8  -1 18794.2 2499.75   2
  -3   8   1 21758.8 2877.74   2
  -3   8   1 19423.3 1915.40   1
   3   8   0 48047.8 3863.36   2
  -3   8   0 38207.9 2747.59   1
  -3   8   0 47775.2 4296.98   2
   3   8   1 94582.9 5342.48   2
  -3   8  -1 83920.5 5821.92   2
  -3   8  -1 88143.3 3751.94   1
  -3   8  -2 88048.3 6060.40   2
   3   8   2 87709.8 4990.70   6
  -3   8  -3 10298.5 2102.19   2
   3   8   3 9166.87 1631.99   6
  -3   8  -4 1314.29 739.775   2
   3   8   4 1340.76 813.635   6
  -3   8  -5 11072.0 1919.51   3
   3   8   5 13204.5 2205.18   6
  -3   8  -5 10635.1 2202.10   2
   3   8   6 16384.0 2614.82   6
  -3   8  -6 17734.9 2645.85   3
  -3   8  -6 14663.9 2658.78   2
  -3   8  -7 42290.9 4603.66   2
  -3   8  -7 42557.7 4437.55   3
   3   9  -8 36421.9 4405.15   2
   3   9  -7 54884.1 5436.78   2
   3   9  -6 11622.7 2435.35   2
   3   9  -5 1803.16 984.542   2
  -3   9   4 8820.82 1698.45   2
   3   9  -4 8396.75 2025.07   2
   3   9  -3 34491.2 3891.40   2
  -3   9   3 28221.7 3151.61   2
   3   9  -2 60511.6 4942.09   2
  -3   9   2 51097.4 4464.31   2
  -3   9   2 60789.6 3810.44   1
   3   9  -1 62481.2 4801.25   2
  -3   9   1 54574.0 4809.06   2
  -3   9   1 57923.0 3413.57   1
   3   9   0 22282.1 2747.16   2
  -3   9   0 15365.9 1758.00   1
  -3   9   0 22129.5 3086.21   2
  -3   9  -1 1442.70 881.344   2
   3   9   1 4222.28 1200.81   2
  -3   9  -2 7081.85 1727.59   2
   3   9   2 6534.81 1416.95   6
  -3   9  -3 19502.7 3011.51   2
   3   9   3 18411.6 2455.34   6
  -3   9  -4 71336.0 5917.90   2
   3   9   4 74317.5 5140.35   6
  -3   9  -5 36734.2 4274.36   2
   3   9   5 40756.1 4046.47   6
  -3   9  -5 42393.4 3825.74   3
  -3   9  -6 13269.7 2640.60   2
   3  10  -7-732.162 795.666   2
   3  10  -6 29052.6 4083.62   2
   3  10  -5 56021.2 5630.21   2
   3  10  -4 39701.7 4558.88   2
  -3  10   4 32707.8 3362.40   2
  -3  10   3 11251.1 1776.94   1
   3  10  -3 13037.4 2533.22   2
  -3  10   3 10885.9 2056.12   2
  -3  10   2 1364.42 605.630   1
   3  10  -2 1290.28 869.328   2
  -3  10   2 775.835 600.322   2
  -3  10   1 3495.58 1318.95   2
  -3  10   1 4992.08 1020.09   1
   3  10  -1 3691.94 1267.45   2
   3  10   0 25006.9 3070.24   2
  -3  10   0 28008.7 3626.56   2
   3  10   1 44594.5 3931.24   2
  -3  10  -1 45566.3 4723.52   2
  -3  10  -2 41399.9 4535.66   2
   3  10   2 56275.4 4366.69   6
   3  10   3 18359.0 2557.45   6
  -3  10  -3 15148.1 2800.83   2
   3  10   4 899.436 499.501   6
  -3  10  -4 1951.25 963.322   2
   3  10   5 4535.80 1407.79   6
  -3  10  -5 5952.00 1862.35   2
   3  11  -5 3805.20 1643.29   2
   3  11  -4 3520.01 1492.52   2
  -3  11   3 20446.9 2490.07   1
   3  11  -3 25485.1 3636.67   2
  -3  11   3 27142.6 3342.92   2
   3  11  -2 57062.2 5273.88   2
  -3  11   2 48774.1 4670.57   2
   3  11  -1 35394.2 3958.66   2
  -3  11   1 29010.4 3749.75   2
   3  11   0 25214.0 3200.23   2
  -3  11   0 23789.8 3532.03   2
   3  11   1 90.1281 419.299   2
  -3  11  -1-3.54752 736.491   2
   3  11   2 6143.85 1483.52   2
   3  11   2 6586.23 1544.66   6
  -3  11  -2 6145.44 1928.09   2
  -3  11  -3 21166.5 3435.84   2
   3  11   3 22712.2 3013.24   6
   3  12  -4 30495.9 4278.11   2
   3  12  -3 25532.3 3797.83   2
  -3  12   3 21395.9 3058.60   2
   3  12  -2 1001.10 817.136   2
  -3  12   2 1128.27 813.588   2
   3  12  -1 7120.49 1863.97   2
  -3  12   1 6390.19 1837.16   2
   3  12   0 33483.6 3841.23   2
  -3  12   0 32745.1 4303.94   2
   3  12   1 32566.8 3659.93   2
  -3  12  -1 30340.1 4248.84   2
  -3  12  -2 26450.0 4007.07   2
   3  12   2 30005.2 3479.06   6
  -3  13   2 26530.3 3757.42   2
   3  13  -1 18246.7 3109.74   2
  -3  13   1 22934.4 3581.31   2
   3  13   0 10592.3 2263.32   2
  -3  13   0 11114.0 2621.77   2
   3  13   1-449.525 544.629   2
  -4 -12   1 35515.0 5008.21   5
   4 -12  -1 25064.7 3469.46   5
  -4 -12   0 17709.2 3501.54   5
  -4 -11   3 44826.4 5191.41   5
  -4 -11   2 14644.4 2976.86   5
  -4 -11   1 6746.75 2128.37   5
   4 -11  -1 8363.96 1921.20   5
  -4 -11   0-2250.66 1302.06   5
   4 -11   0 52.1750 587.592   5
  -4 -11  -1 12856.4 2742.42   5
   4 -11   1 12709.5 2619.38   5
  -4 -10   5 39082.5 4575.88   5
  -4 -10   4 7159.44 1863.45   5
  -4 -10   3 658.438 549.222   5
  -4 -10   2 30634.2 4227.48   5
  -4 -10   1 40385.9 4925.66   5
   4 -10  -1 38306.6 3978.44   5
  -4 -10   0 67803.1 6301.48   5
   4 -10   0 62879.0 5329.63   5
  -4 -10  -1 25528.8 3818.79   5
   4 -10   1 23689.0 3395.89   5
  -4 -10  -2 3587.35 1460.91   5
   4 -10   2-233.947 615.389   5
  -4  -9   7 6494.21 1847.98   5
  -4  -9   6 2795.61 1144.35   5
  -4  -9   5 15345.6 2781.52   5
  -4  -9   4 34563.1 4196.16   5
  -4  -9   3 78808.4 6288.48   5
  -4  -9   2 53299.5 5187.71   5
  -4  -9   1 14660.0 2153.74   1
  -4  -9   1 12295.6 2592.30   5
  -4  -9   0 9796.46 1921.13   1
  -4  -9   0 13688.9 2664.71   5
   4  -9   0 11360.1 2169.35   5
  -4  -9  -1 10278.5 2027.93   1
  -4  -9  -1 9187.87 2227.75   5
   4  -9   1 10095.5 2199.86   5
  -4  -9  -2 52800.7 5065.74   5
   4  -9   2 56761.1 5319.29   5
   4  -9   3 38801.7 4562.56   5
   4  -9   4 15413.5 2895.83   5
  -4  -8   8 7718.99 1983.90   5
  -4  -8   7 45881.6 4692.05   5
  -4  -8   6 41318.6 4383.41   5
  -4  -8   5 37632.8 4140.34   5
  -4  -8   4 6895.87 1829.59   5
  -4  -8   3 1783.94 915.295   5
  -4  -8   3 705.700 449.660   1
  -4  -8   2 25326.9 3434.72   5
  -4  -8   2 20086.6 2316.88   1
  -4  -8   1 45993.5 4650.34   5
  -4  -8   1 48271.3 3778.92   1
  -4  -8   0 92574.2 6736.65   5
  -4  -8   0 97857.5 5641.69   1
   4  -8   0 85414.0 5860.95   5
  -4  -8  -1 35574.4 3542.86   1
   4  -8   1 37115.6 3951.92   5
  -4  -8  -2 4283.81 1260.04   1
   4  -8   2 3956.06 1473.09   5
  -4  -8  -3 197.598 461.229   5
   4  -8   3 436.624 889.618   5
   4  -8   4 13301.8 2596.93   5
   4  -8   5 42956.3 4704.98   5
  -4  -7   9 44904.6 4681.39   5
  -4  -7   8 29674.7 3684.56   5
  -4  -7   7 7038.16 1857.06   5
  -4  -7   6 2505.37 1134.15   5
  -4  -7   5 35483.7 3823.14   5
  -4  -7   4 57446.1 4818.56   5
  -4  -7   4 53475.2 3461.80   1
  -4  -7   3 60259.4 4954.79   5
  -4  -7   3 59416.9 3714.15   1
  -4  -7   2 51281.3 3515.11   1
  -4  -7   1 5461.02 1192.67   1
  -4  -7   0 35.7013 400.530   1
   4  -7   0 70.5542 510.090   8
  -4  -7  -1 17524.3 2399.99   1
   4  -7   1 13880.6 2730.56   8
  -4  -7  -1 16869.9 1855.41   3
  -4  -7  -2 48856.7 4181.89   1
   4  -7   2 55774.7 4833.72   5
   4  -7   2 52662.3 5524.96   8
  -4  -7  -2 49388.8 3578.05   3
  -4  -7  -3 78849.8 5588.44   1
   4  -7   3 74824.5 5847.42   5
   4  -7   3 99530.2 7515.48   8
  -4  -7  -3 91763.9 5382.20   3
   4  -7   4 26984.4 3489.42   5
   4  -7   4 31526.6 4148.05   8
  -4  -7  -4 29258.7 3293.02   3
  -4  -7  -5 7156.51 1746.51   3
  -4  -6   9 4502.90 1513.98   5
  -4  -6   8 14958.5 2522.06   5
  -4  -6   7 42605.5 4205.72   5
  -4  -6   6 53701.9 4650.55   5
  -4  -6   5 56265.4 4618.27   5
  -4  -6   5 49617.0 3254.69   1
  -4  -6   4 19275.0 1968.54   1
  -4  -6   3 2357.62 757.728   1
  -4  -6   2 41753.0 3067.22   1
   4  -6  -2 35167.2 4130.68   8
  -4  -6   1 79213.7 4338.91   1
   4  -6  -1 44251.4 4849.20   8
  -4  -6   0 74755.6 4472.55   1
   4  -6   0 90159.2 6700.04   8
   4  -6   1 67952.2 5938.18   8
  -4  -6  -1 56318.7 4098.08   1
  -4  -6  -2 12321.7 1999.17   1
   4  -6   2 14756.3 2813.61   8
  -4  -6  -2 11066.2 1610.60   3
  -4  -6  -3 4441.71 1167.33   3
  -4  -6  -3 4995.00 1363.33   1
   4  -6   3 8338.94 2145.26   8
   4  -6   4 37640.9 4362.89   8
  -4  -6  -4 28745.1 3129.64   3
   4  -6   5 49733.4 4877.81   8
  -4  -6  -5 40902.3 4058.26   3
  -4  -6  -6 37044.7 4170.44   3
  -4  -5   9 18933.2 2813.68   5
  -4  -5   8 31218.5 3515.36   5
  -4  -5   7 25838.1 3174.35   5
  -4  -5   7 15214.4 2070.84   1
  -4  -5   6 2019.77 1059.68   5
  -4  -5   6 1029.81 598.258   1
  -4  -5   5 15230.9 1811.71   1
   4  -5  -4 20038.6 3737.35   8
  -4  -5   4 88083.1 4225.93   1
  -4  -5   3 106866. 4750.81   1
   4  -5  -3 85718.8 5967.93   8
   4  -5  -2 97397.6 6539.90   8
  -4  -5   2 103931. 4770.01   1
   4  -5  -1 17454.9 2734.92   8
  -4  -5   1 37366.8 2926.21   1
  -4  -5   0 17314.0 2012.24   1
   4  -5   0 13049.3 2380.15   8
  -4  -5  -1 75757.9 4559.89   1
   4  -5   1 80254.0 5988.47   8
  -4  -5  -2 87479.3 5196.23   1
   4  -5   2 100564. 6921.55   8
  -4  -5  -3 34877.9 3395.86   1
  -4  -5  -3 39710.5 3262.62   3
  -4  -5  -4 50553.6 4373.16   1
   4  -5   4 63602.7 5443.41   8
  -4  -5  -4 51763.3 4117.96   3
  -4  -5  -5 1841.39 942.991   3
   4  -5   5 1240.15 1020.92   8
  -4  -5  -6 1364.39 891.495   3
  -4  -5  -7 10316.4 2335.17   3
   4  -4 -10 12074.6 2505.47   4
  -4  -4   9 432.492 529.260   5
   4  -4  -9 2042.15 1019.48   4
  -4  -4   8 10852.0 1986.84   5
  -4  -4   8 8178.89 1545.16   1
  -4  -4   7 38231.1 3651.59   5
  -4  -4   7 39044.2 3237.31   1
  -4  -4   6 61217.1 4049.14   1
  -4  -4   5 57193.1 3608.36   1
   4  -4  -5 33383.1 3417.26   8
  -4  -4   4 41860.6 2906.51   1
   4  -4  -4 6271.88 1561.32   8
  -4  -4   3 1315.38 531.573   1
   4  -4  -3 390.906 530.907   8
   4  -4  -2 30047.7 3372.38   8
  -4  -4   2 37645.2 2757.59   1
   4  -4  -1 186450. 8279.12   8
  -4  -4   1 177184. 6465.48   1
  -4  -4   0 60700.1 3769.29   1
   4  -4   0 68402.3 5017.56   8
  -4  -4  -1 73827.1 4333.92   1
   4  -4   1 77477.5 5494.41   8
  -4  -4  -2 16952.2 2197.58   1
   4  -4   2 17660.4 2693.49   8
  -4  -4  -3 9057.59 1711.36   1
   4  -4   3 13363.9 2392.26   8
  -4  -4  -4 42357.4 3875.16   1
   4  -4   4 48278.5 4471.50   8
  -4  -4  -4 42456.7 3604.02   3
   4  -4   5 47217.0 4289.90   8
  -4  -4  -5 41504.2 3894.73   3
  -4  -4  -6 33895.6 3842.13   3
  -4  -4  -7 27568.5 3704.37   3
   4  -3 -10 16817.1 2903.98   4
  -4  -3   9 44668.5 3988.70   5
   4  -3  -9 39308.8 4210.24   4
  -4  -3   9 39176.7 3647.23   1
  -4  -3   8 57028.3 4440.71   5
   4  -3  -8 55788.2 4475.67   4
  -4  -3   8 56924.6 4209.83   1
  -4  -3   7 8114.95 1630.99   5
   4  -3  -7 6450.51 1323.80   4
  -4  -3   7 8095.90 1494.08   1
  -4  -3   6 2966.94 918.866   1
   4  -3  -6 259.293 350.035   8
  -4  -3   5 35538.3 2963.93   1
   4  -3  -5 10342.0 1953.56   8
  -4  -3   4 84780.3 4378.06   1
   4  -3  -4 79648.3 4965.09   8
  -4  -3   3 127286. 5174.40   1
   4  -3  -3 119916. 5989.32   8
   4  -3  -2 47535.1 3812.70   8
  -4  -3   2 45862.2 3016.74   1
   4  -3  -1 28622.5 3031.51   8
  -4  -3   1 21655.8 2136.63   1
   4  -3   0 80.8591 481.633   8
  -4  -3   0 844.618 583.244   1
  -4  -3  -1 58731.9 3773.20   1
   4  -3   1 51015.7 4346.40   8
  -4  -3  -2 102857. 5293.28   1
   4  -3   2 96351.7 6182.67   8
  -4  -3  -3 72798.5 4722.44   1
   4  -3   3 80026.2 5604.89   8
  -4  -3  -4 66141.0 4697.69   1
   4  -3   4 66569.8 5038.83   8
  -4  -3  -4 61942.6 4349.39   3
  -4  -3  -5 8984.65 1841.80   3
  -4  -3  -5 7808.61 1726.21   1
   4  -3   5 10376.2 1961.51   8
  -4  -3  -6 4167.09 1292.81   3
   4  -3   6 3800.76 1200.98   8
  -4  -3  -7 30382.2 3839.16   3
   4  -2 -11 21417.6 3367.83   4
  -4  -2  10 5784.45 1555.19   1
   4  -2 -10 6178.31 1732.78   4
  -4  -2   9-204.608 420.643   1
   4  -2  -9 16.5843 741.549   4
  -4  -2   8 26737.7 2881.05   5
   4  -2  -8 21007.0 2780.83   4
  -4  -2   8 23258.1 2811.28   1
   4  -2  -7 53109.2 3915.53   4
  -4  -2   7 59470.5 4122.88   1
  -4  -2   6 120636. 5523.78   1
   4  -2  -6 113506. 4960.10   4
   4  -2  -5 38486.2 3238.39   8
  -4  -2   5 52003.6 3515.55   1
  -4  -2   4 6271.03 1241.08   1
   4  -2  -4 6362.55 1296.65   8
   4  -2  -3 2317.74 857.859   8
  -4  -2   3 2879.86 736.342   1
   4  -2  -2 52160.1 3971.14   8
  -4  -2   2 43920.1 2970.35   1
   4  -2  -1 88500.4 5522.15   8
  -4  -2   1 89592.4 4301.88   1
   4  -2   0 138912. 7233.07   8
  -4  -2   0 137574. 5625.81   1
   4  -2   1 60475.5 4897.94   8
  -4  -2  -1 64852.3 3897.63   1
   4  -2   1 56640.2 2157.95   6
  -4  -2  -2 28277.4 2656.31   1
   4  -2   2 28086.5 3464.48   8
   4  -2   2 25775.6 1921.44   6
   4  -2   3 104.461 402.414   6
  -4  -2  -3 439.289 379.261   1
   4  -2   3-307.319 823.931   8
  -4  -2  -4 41618.9 3648.81   1
   4  -2   4 44538.7 4258.34   8
   4  -2   4 39384.8 3226.34   6
  -4  -2  -5 74441.7 5196.29   1
   4  -2   5 78956.5 5420.83   8
  -4  -2  -5 69197.7 4922.14   3
   4  -2   6 62005.7 4540.65   8
  -4  -2  -6 52197.9 4660.39   3
  -4  -2  -7 16503.1 2796.41   3
   4  -1 -11-864.842 856.649   4
  -4  -1  10 29084.9 3522.95   1
   4  -1 -10 25298.7 3435.90   4
  -4  -1   9 40935.6 3960.20   1
   4  -1  -9 35705.7 3810.90   4
  -4  -1   8 34140.6 3095.09   5
  -4  -1   8 34886.2 3467.21   1
   4  -1  -8 27216.0 3124.71   4
  -4  -1   7 14000.0 2067.83   1
   4  -1  -7 14602.8 2052.98   4
   4  -1  -6 212.555 359.222   8
  -4  -1   6 935.149 602.551   1
   4  -1  -6 408.487 483.166   4
   4  -1  -5 34738.2 2693.17   8
  -4  -1   5 38099.8 3008.57   1
   4  -1  -5 34977.6 2390.06   4
  -4  -1   4 106334. 5005.01   1
   4  -1  -4 117361. 5356.23   8
  -4  -1   3 117173. 5292.56   1
   4  -1  -3 134944. 6207.68   8
   4  -1  -3 129107. 4113.04   6
  -4  -1   2 151057. 5703.60   1
   4  -1  -2 151067. 6929.83   8
   4  -1  -2 149201. 3655.43   6
  -4  -1   1 4304.02 915.648   1
   4  -1  -1 4750.75 1369.28   8
   4  -1  -1 4127.03 429.250   6
   4  -1  -1 4037.10 433.988   6
   4  -1   0 1484.90 321.924   6
  -4  -1   0 1546.60 639.938   1
   4  -1   0 1270.43 787.287   8
   4  -1   1 63429.0 5030.08   8
  -4  -1  -1 55906.2 3640.24   1
   4  -1   1 62708.5 2793.39   6
  -4  -1  -2 84305.0 4613.03   1
   4  -1   2 89472.5 6135.85   8
   4  -1   2 78338.6 3716.79   6
  -4  -1  -3 155782. 4545.54   4
   4  -1   3 160166. 6065.78   6
  -4  -1  -4 22050.8 2596.60   1
   4  -1   4 21280.5 2861.94   8
   4  -1   4 23461.4 2432.72   6
   4  -1   5 8745.01 1626.08   6
  -4  -1  -5 7603.14 1658.31   3
  -4  -1  -5 10569.6 1871.54   1
   4  -1   5 8810.21 1844.91   8
   4  -1   6 2886.06 971.150   6
  -4  -1  -6 2350.12 944.531   3
   4  -1   6 2789.40 1033.51   8
  -4  -1  -7 14393.2 2620.33   3
   4   0 -11 11103.7 2337.60   4
   4   0 -10 2256.16 1071.45   4
   4   0  -9 298.124 493.026   4
  -4   0   8 13380.1 2197.11   1
   4   0  -8 11001.9 1922.98   4
  -4   0   7 49933.2 4021.83   1
   4   0  -7 42922.8 3634.98   4
  -4   0   6 82872.9 4965.69   1
   4   0  -6 76355.1 3826.75   8
   4   0  -6 79716.4 4414.92   4
   4   0  -5 66884.5 3827.91   8
   4   0  -5 64224.6 3310.90   4
  -4   0   5 70563.1 4206.75   1
   4   0  -4 74154.9 4286.51   8
  -4   0   4 74913.1 4149.77   1
   4   0  -4 70184.6 2802.06   4
  -4   0   3 6114.85 1207.67   1
   4   0  -3 6838.46 1440.53   8
  -4   0   2 51725.4 3292.36   1
   4   0  -2 60684.1 4451.46   8
   4   0  -2 54449.9 2164.43   6
  -4   0   1 125854. 5201.61   1
   4   0  -1 147300. 7410.13   8
   4   0   0 275367. 10967.3   8
  -4   0   0 277137. 8053.51   1
   4   0   0 260731. 5696.97   6
   4   0   1 77678.2 5869.36   8
  -4   0  -1 79417.5 4255.72   1
   4   0   1 83917.3 3252.72   6
   4   0   2 1183.98 433.825   6
   4   0   2 816.417 870.442   8
  -4   0  -2 2157.33 865.846   1
  -4   0  -2 1418.14 310.944   4
  -4   0  -3 19007.1 2216.60   1
   4   0   3 21032.9 3006.49   8
  -4   0  -3 14501.0 1327.76   4
   4   0   3 15676.7 1827.98   6
   4   0   4 8893.18 1503.50   6
  -4   0  -4 10474.7 1788.40   1
   4   0   4 11614.3 2176.11   8
  -4   0  -5 89507.5 5491.88   1
   4   0   5 88088.5 5837.81   8
   4   0   5 79296.2 4857.98   6
  -4   0  -5 90634.9 5614.90   3
  -4   0  -6 38852.2 3852.66   1
   4   0   6 36049.5 3554.43   8
   4   0   6 35211.6 3393.34   6
  -4   0  -6 35605.9 3766.99   3
   4   0   7 20429.1 2716.03   6
  -4   0  -7 21786.5 3195.76   3
   4   1 -11-470.447 761.576   4
   4   1 -10 29474.6 3657.58   4
  -4   1  10 27076.2 3203.69   6
   4   1  -9 34145.3 3749.26   4
  -4   1   9 42004.6 3703.78   6
   4   1  -8 29641.8 3208.14   4
   4   1  -7 10554.2 1786.66   4
   4   1  -6 341.075 266.598   8
  -4   1   6 679.372 613.800   1
   4   1  -6 515.942 376.958   4
   4   1  -5 38917.0 2927.91   8
   4   1  -5 36125.8 2663.43   4
  -4   1   5 39516.1 3230.03   1
   4   1  -4 112175. 5570.94   8
   4   1  -4 99876.8 3629.37   4
  -4   1   4 100849. 4956.49   1
  -4   1   3 136111. 5616.73   1
   4   1  -3 123029. 2941.71   4
  -4   1   2 144035. 5901.79   1
   4   1  -2 175942. 8262.67   8
  -4   1   1 4787.54 995.975   1
   4   1  -1 4073.95 1476.20   8
   4   1   0 2123.90 525.857   6
  -4   1   0 1416.27 501.471   1
   4   1   0 1090.62 1053.63   8
   4   1   1 46811.9 5331.80   8
  -4   1  -1 50122.3 1559.22   4
  -4   1  -1 63309.6 3795.62   1
   4   1   1 62232.9 2922.57   6
   4   1   2 80489.0 6797.19   8
  -4   1  -2 88404.2 4622.84   1
  -4   1  -2 81857.1 2992.27   4
   4   1   2 80593.9 3742.96   6
  -4   1  -3 173393. 6815.37   1
   4   1   3 181105. 9502.16   8
  -4   1  -3 160240. 5217.09   4
   4   1   3 168520. 6173.68   6
  -4   1  -4 25153.0 2716.94   1
   4   1   4 24245.8 3314.11   8
  -4   1  -4 20569.0 1994.88   4
   4   1   4 20281.5 2282.08   6
   4   1   5 7680.04 1515.43   6
  -4   1  -5 8070.85 1735.56   3
  -4   1  -5 8236.04 1641.75   1
   4   1   5 4423.90 1352.13   8
   4   1   6 2160.38 946.761   6
  -4   1  -6 3088.56 1130.12   3
  -4   1  -6 2968.55 1107.10   1
   4   1   6 2130.91 956.370   8
  -4   1  -7 14991.3 2642.90   3
   4   1   7 12588.6 2217.50   6
   4   1   8 25527.5 3214.21   6
   4   2 -11 23443.0 3347.19   4
   4   2 -10 6559.57 1771.50   4
  -4   2  10 6728.43 1620.61   6
   4   2  -9-978.378 792.452   4
  -4   2   9 1504.95 759.482   6
   4   2  -8 18309.5 2616.27   4
  -4   2   8 22385.8 2510.12   6
   4   2  -7 58142.7 4370.58   4
  -4   2   7 53120.7 3488.92   6
  -4   2   6 123574. 6287.54   1
   4   2  -6 110480. 4854.84   8
   4   2  -6 113257. 5715.46   4
  -4   2   5 53399.4 3871.06   1
   4   2  -5 54132.1 3682.59   8
   4   2  -5 44807.8 3215.41   4
   4   2  -4 6109.96 1008.53   4
  -4   2   4 8856.79 1457.64   1
  -4   2   3 4313.84 1002.05   1
   4   2  -3 3616.99 551.716   4
   4   2  -2 44943.5 4685.23   8
  -4   2   2 38810.8 2988.94   1
  -4   2   2 43251.9 1906.30   4
  -4   2   1 92720.4 4490.45   1
  -4   2   1 96541.2 2235.27   4
   4   2   0 105684. 8345.53   8
  -4   2   0 132289. 5329.12   1
  -4   2  -1 71603.4 3940.89   1
   4   2   1 72312.4 3393.74   6
   4   2   2 19102.4 3827.11   8
  -4   2  -2 26487.9 2008.35   4
  -4   2  -2 24110.6 2398.31   1
   4   2   2 26601.8 2204.27   6
   4   2   3 591.855 476.997   6
   4   2   3 292.662 690.362   8
  -4   2  -3 214.034 470.527   1
  -4   2  -3 506.883 370.339   4
  -4   2  -4 38529.7 3358.36   1
   4   2   4 33207.4 4152.66   8
  -4   2  -4 41010.7 3078.11   4
   4   2   4 35867.2 3071.90   6
  -4   2  -5 81504.0 5082.80   1
   4   2   5 74409.6 4847.85   6
  -4   2  -6 58770.0 4569.20   1
   4   2   6 55553.0 4446.78   6
  -4   2  -6 57294.1 4823.46   3
   4   2   7 15775.7 2489.09   6
  -4   2  -7 18469.9 2940.29   3
   4   2   8 3712.61 1281.40   6
   4   3 -10 18810.3 2907.85   4
  -4   3  10 19753.6 2728.43   6
   4   3  -9 42601.1 4233.69   4
  -4   3   9 36117.9 3551.50   6
   4   3  -8 54386.2 4616.09   4
  -4   3   8 51044.3 3843.48   6
   4   3  -7 6934.12 1586.99   4
  -4   3   7 6738.76 1278.43   6
   4   3  -6 1935.97 679.076   8
   4   3  -6 1500.16 629.094   4
  -4   3   6 1428.48 563.303   6
  -4   3   5 39251.6 3367.60   1
   4   3  -5 36229.2 3153.91   4
   4   3  -5 31288.3 3098.23   8
   4   3  -4 106063. 6669.15   8
   4   3  -4 106149. 4932.23   4
  -4   3   4 98342.3 5112.51   1
   4   3  -3 123385. 4592.35   4
  -4   3   3 127120. 5521.38   1
  -4   3   2 48128.1 3262.84   1
  -4   3   1 23025.4 2223.02   1
  -4   3   0 213.922 270.024   1
  -4   3  -1 51074.0 3278.39   1
   4   3   1 51511.5 3053.09   6
  -4   3  -2 98249.4 4809.62   1
   4   3   2 105796. 4715.22   6
  -4   3  -3 75083.9 4321.43   1
   4   3   3 70987.1 4136.80   6
  -4   3  -4 69156.0 4397.05   1
  -4   3  -4 62996.2 4209.61   4
   4   3   4 67188.5 4359.08   6
   4   3   5 11805.8 1967.28   6
  -4   3  -5 9519.97 1702.91   1
  -4   3  -6 4454.74 1418.19   3
   4   3   6 5106.13 1399.07   6
  -4   3  -6 3095.98 1107.63   2
  -4   3  -6 3809.73 1183.94   1
   4   3   6 4.69341 563.139   8
  -4   3  -7 23727.1 3046.87   2
   4   3   7 27796.8 3421.93   6
  -4   3  -7 30025.2 3747.55   3
   4   3   8 22177.0 3220.00   6
   4   4 -10 16742.6 2787.39   4
   4   4  -9 2451.04 1109.45   4
   4   4  -8 8908.23 1919.91   4
   4   4  -7 39340.2 3918.86   4
   4   4  -6 59522.6 4095.91   8
   4   4  -6 72121.1 5041.13   4
  -4   4   5 67283.8 4527.63   1
   4   4  -5 63424.5 4924.72   8
  -4   4   4 36823.4 3160.53   1
  -4   4   3 1394.28 593.458   1
  -4   4   2 39280.0 2965.29   1
  -4   4   1 195794. 6906.08   1
  -4   4   0 67041.6 3723.07   1
  -4   4  -1 77771.7 4114.61   1
   4   4   1 80003.6 4041.32   6
  -4   4  -2 19814.2 2115.34   1
   4   4   2 16567.3 1903.38   6
  -4   4  -3 10888.3 1637.32   1
   4   4   3 11610.1 1729.72   6
  -4   4  -4 48185.8 3566.59   1
   4   4   4 43391.5 3605.12   6
  -4   4  -5 43634.9 3602.93   1
  -4   4  -5 41911.5 3930.60   2
   4   4   5 41974.5 3804.29   6
  -4   4  -6 30287.3 3159.79   1
  -4   4  -6 28644.5 3365.02   2
   4   4   6 34207.0 3673.80   6
  -4   4  -6 33900.9 3722.22   3
  -4   4  -7 27659.4 3408.41   2
   4   4   7 26328.3 3433.82   6
  -4   4  -7 31939.8 3892.94   3
   4   5 -10 19346.2 3079.00   4
   4   5  -9 17223.4 2818.52   4
   4   5  -8 26283.1 3569.02   2
   4   5  -8 20485.9 3037.38   4
   4   5  -7 20725.9 3157.02   2
   4   5  -7 21813.9 2982.87   4
   4   5  -6 32.9712 398.364   8
   4   5  -6 1340.54 896.384   2
   4   5  -5 14310.6 2485.51   2
  -4   5   5 14437.1 2179.75   1
  -4   5   4 85110.9 5005.92   1
  -4   5   3 100797. 5064.39   1
  -4   5   2 95297.2 4734.73   1
  -4   5   1 30810.0 2674.66   1
  -4   5   0 12628.3 1644.78   1
  -4   5  -1 77024.3 4089.95   1
   4   5   1 82149.3 4336.30   6
  -4   5  -2 87500.9 4441.46   1
   4   5   2 91811.8 4780.52   6
  -4   5  -3 45720.0 3284.42   1
   4   5   3 43710.3 3456.86   6
  -4   5  -4 48934.7 3570.58   1
  -4   5  -4 45127.8 4127.04   2
   4   5   4 48586.1 3896.30   6
   4   5   5 2173.65 1012.36   6
  -4   5  -5 2120.21 955.354   2
  -4   5  -5 958.551 641.631   1
  -4   5  -6 5139.87 1519.74   3
  -4   5  -6 3692.29 1317.30   2
   4   5   6 2879.95 1169.96   6
  -4   5  -7 11190.0 2273.23   2
   4   5   7 10475.2 2261.03   6
   4   6 -10 4499.33 1567.14   4
   4   6  -9 3628.06 1389.98   2
   4   6  -9 4118.90 1412.17   4
   4   6  -8 15198.0 2813.48   2
   4   6  -8 15038.6 2659.49   4
   4   6  -7 34132.9 4030.52   2
   4   6  -6 57462.3 5221.92   2
   4   6  -5 41259.2 4317.17   2
  -4   6   5 46328.7 3964.01   1
   4   6  -4 18285.8 2724.02   2
  -4   6   4 20654.8 2504.07   1
   4   6  -3 984.451 680.638   2
  -4   6   3 1741.83 769.440   1
  -4   6   2 44523.6 3238.84   1
  -4   6   1 60583.9 3917.48   1
  -4   6   0 78622.7 4128.19   1
  -4   6  -1 58705.9 3528.36   1
   4   6   1 59394.7 3825.45   6
  -4   6  -2 15078.1 1810.67   1
   4   6   2 11693.5 1764.66   6
   4   6   3 6085.75 1382.74   6
  -4   6  -3 6116.22 1543.32   2
  -4   6  -3 7194.52 1294.73   1
  -4   6  -4 32478.2 2839.23   1
  -4   6  -4 25348.5 3214.17   2
   4   6   4 27985.1 3045.40   6
  -4   6  -5 37354.4 4024.42   2
   4   6   5 39551.5 3872.02   6
  -4   6  -6 32849.3 3906.01   2
   4   6   6 38530.0 4066.78   6
  -4   6  -6 35257.6 3893.41   3
  -4   6  -7 14707.8 2640.27   2
   4   7  -9 37583.5 4374.89   2
   4   7  -9 30142.5 3948.78   4
   4   7  -8 27063.3 3792.69   2
   4   7  -7 7368.87 1978.94   2
   4   7  -6 2777.25 1231.06   2
   4   7  -5 32487.6 3916.18   2
  -4   7   4 54012.3 4125.64   1
   4   7  -4 51121.0 4738.22   2
   4   7  -3 48865.8 4500.18   2
  -4   7   3 58306.6 4027.90   1
   4   7  -2 42600.0 4038.82   2
  -4   7   2 41265.1 3218.09   1
  -4   7   1 3628.72 1141.21   1
  -4   7   0-186.008 353.820   1
  -4   7  -1 17520.6 2651.37   2
  -4   7  -1 17980.5 1938.93   1
  -4   7  -2 47051.2 3196.51   1
  -4   7  -2 48632.6 4498.66   2
   4   7   2 46465.0 3654.03   6
  -4   7  -3 83106.0 6030.35   2
   4   7   3 77945.4 4961.70   6
  -4   7  -4 29072.0 3588.72   2
   4   7   4 24796.8 2947.05   6
  -4   7  -5 8030.84 2006.67   2
   4   7   5 7491.65 1728.84   6
  -4   7  -6 22.7852 382.795   2
  -4   7  -6 3436.89 1292.03   3
   4   7   6 2203.92 923.707   6
   4   8  -8 3136.44 1426.00   2
   4   8  -7 44124.0 4886.32   2
   4   8  -6 40321.8 4680.94   2
   4   8  -5 34301.1 4196.91   2
  -4   8   5 35107.6 3604.79   1
  -4   8   5 38269.2 3626.13   2
  -4   8   4 5248.75 1435.87   2
  -4   8   4 4049.74 1183.21   1
   4   8  -4 6022.83 1795.46   2
  -4   8   3 1522.44 810.945   2
  -4   8   3 1876.43 771.196   1
   4   8  -3 1554.25 932.561   2
   4   8  -2 17980.8 2723.50   2
  -4   8   2 17677.8 2146.96   1
  -4   8   2 18737.6 2830.20   2
  -4   8   1 31786.7 2986.61   1
  -4   8   1 36983.8 4062.90   2
  -4   8   0 75507.0 4115.30   1
  -4   8   0 75893.5 5830.75   2
  -4   8  -1 38747.1 4165.80   2
  -4   8  -1 34796.8 2694.92   1
  -4   8  -2 4489.37 1450.83   2
   4   8   2 4675.75 1231.01   6
  -4   8  -3-597.399 664.293   2
   4   8   3 1586.22 760.952   6
  -4   8  -4 13955.7 2665.41   2
   4   8   4 14549.2 2355.50   6
  -4   8  -5 44803.7 4752.14   2
   4   8   5 49609.8 4536.39   6
  -4   8  -5 50184.8 4453.48   3
  -4   8  -6 28624.6 3585.61   3
   4   9  -7 4169.07 1708.71   2
   4   9  -6 1370.48 1043.54   2
  -4   9   5 15665.3 2467.55   1
   4   9  -5 16957.2 3064.32   2
  -4   9   4 29477.4 3181.76   1
   4   9  -4 32401.7 4068.90   2
  -4   9   4 27508.4 3394.85   2
   4   9  -3 71976.2 5844.88   2
  -4   9   3 66502.6 5450.14   2
  -4   9   3 72645.2 4695.04   1
   4   9  -2 42713.3 4376.17   2
  -4   9   2 39730.9 3263.10   1
  -4   9   2 35484.7 4170.70   2
   4   9  -1 13405.8 2331.74   2
  -4   9   1 10686.9 2312.32   2
  -4   9   1 6751.57 1368.81   1
  -4   9   0 10520.0 2267.88   2
  -4   9   0 8345.46 1367.19   1
  -4   9  -1 11620.6 2436.83   2
  -4   9  -2 54809.8 5333.12   2
   4   9   2 56083.8 4379.33   6
  -4   9  -3 38902.5 4523.40   2
   4   9   3 39829.7 3818.86   6
  -4   9  -4 15611.6 2877.77   2
   4   9   4 12809.1 2267.31   6
  -4   9  -5 1136.95 755.042   3
   4  10  -5 40528.4 4870.65   2
  -4  10   5 33781.0 3668.62   1
  -4  10   4 5887.75 1622.15   2
  -4  10   4 7042.90 1594.57   1
   4  10  -4 6744.42 1961.85   2
  -4  10   3-127.416 398.560   2
  -4  10   3 838.533 621.263   1
   4  10  -3-164.006 654.503   2
   4  10  -2 26122.7 3531.41   2
  -4  10   2 25651.9 2669.77   1
  -4  10   2 26791.2 3739.52   2
   4  10  -1 33593.1 3871.21   2
  -4  10   1 33829.8 4284.64   2
  -4  10   0 61625.7 5918.33   2
  -4  10  -1 23152.0 3619.40   2
  -4  10  -2 1842.98 1220.60   2
   4  10   2 1290.94 782.085   6
   4  10   3 2740.10 1096.18   6
  -4  11   5 8208.74 1895.66   1
   4  11  -4 17868.2 3248.64   2
  -4  11   4 17948.8 2623.36   1
   4  11  -3 38776.5 4584.37   2
  -4  11   3 30865.0 4044.38   2
  -4  11   2 12030.8 2569.87   2
   4  11  -2 14237.8 2700.79   2
  -4  11   1 5087.33 1845.27   2
   4  11  -1 7092.14 1958.84   2
  -4  11   0 537.938 721.563   2
  -4  11  -1 13883.3 2874.68   2
   4  11   1 11175.1 2128.81   6
  -4  12   2 7307.25 2048.34   2
   4  12  -1 26250.4 3669.37   2
  -4  12   1 22098.8 3687.79   2
  -5 -10   2 39999.4 5039.30   5
  -5 -10   1 32068.3 4589.54   5
  -5 -10   0 4799.13 1872.85   5
  -5 -10  -1-521.370 763.231   5
  -5  -9   4 36145.4 4416.95   5
  -5  -9   3 5142.70 1775.95   5
  -5  -9   2-2075.57 1220.92   5
  -5  -9   1 1555.83 1100.60   5
  -5  -9   1 1843.00 940.627   1
  -5  -9   0 21543.7 2993.99   1
  -5  -9   0 22679.6 3692.84   5
  -5  -9  -1 41162.4 4929.80   5
  -5  -9  -1 35979.7 3975.77   1
  -5  -9  -2 42044.7 4800.39   5
  -5  -8   6 16318.4 2868.77   5
  -5  -8   5 2545.12 1188.14   5
  -5  -8   4 1762.63 957.632   5
  -5  -8   3 41424.4 4625.10   5
  -5  -8   2 37328.1 3531.71   1
  -5  -8   1 64181.2 4785.07   1
  -5  -8   0 10348.8 1940.01   1
  -5  -8  -1 428.295 571.201   1
  -5  -8  -2 11916.7 2276.16   1
  -5  -7   7 5732.48 1719.62   5
  -5  -7   6 15318.8 2695.01   5
  -5  -7   5 53570.0 4988.15   5
  -5  -7   4 49634.4 3835.83   1
  -5  -7   3 33655.0 3172.50   1
   5  -7  -2 2628.10 1305.15   8
  -5  -7   2 4906.97 1230.86   1
  -5  -7   1 20996.4 2590.70   1
   5  -7  -1 18069.7 3543.83   8
  -5  -7   0 45959.9 4014.16   1
   5  -7   0 41525.1 5208.76   8
  -5  -7  -1 57064.1 4651.80   1
   5  -7   1 63961.6 6655.54   8
  -5  -7  -2 25098.8 3192.17   1
   5  -7   2 29779.2 4622.98   8
  -5  -7  -3 14701.6 2493.42   1
   5  -7   3 15720.7 3380.39   8
   5  -7   4 2249.98 1351.22   8
  -5  -6   8 34074.1 4105.89   5
  -5  -6   7 25229.0 3431.69   5
  -5  -6   6 23930.5 3295.28   5
  -5  -6   5 1565.78 706.058   1
  -5  -6   4 6046.45 1339.92   1
   5  -6  -4 4627.77 1660.04   8
   5  -6  -3 39454.6 4618.36   8
  -5  -6   3 48193.9 3696.60   1
  -5  -6   2 61890.6 4252.07   1
   5  -6  -2 35984.2 4593.91   8
  -5  -6   1 56575.8 4122.12   1
   5  -6  -1 42541.6 5096.11   8
  -5  -6   0 26980.4 2926.17   1
   5  -6   0 10330.6 3168.62   8
  -5  -6  -1-634.396 569.651   1
   5  -6   1 4.20440 556.587   8
  -5  -6  -2 16622.2 2533.93   1
   5  -6   2 19332.6 3573.07   8
  -5  -6  -3 30686.8 3588.88   1
  -5  -6  -3 24908.7 2843.86   3
  -5  -6  -4 41496.0 4353.82   1
  -5  -6  -4 40916.0 3968.07   3
   5  -6   5 29640.9 4187.14   8
  -5  -6  -5 18532.3 2865.08   3
  -5  -5   9 16189.6 2808.51   5
  -5  -5   8 1487.44 862.967   5
  -5  -5   7 10200.8 2049.50   5
  -5  -5   6 38365.8 3353.40   1
   5  -5  -5 36476.2 4190.12   8
  -5  -5   5 57020.4 3998.96   1
   5  -5  -4 26235.6 4014.54   8
  -5  -5   4 39997.6 3291.26   1
   5  -5  -3 10725.2 2446.87   8
  -5  -5   3 18527.9 2257.41   1
   5  -5  -2 1342.50 952.138   8
  -5  -5   2 3237.67 1054.60   1
   5  -5  -1 2350.26 1757.20   8
  -5  -5   1 8335.95 1631.34   1
  -5  -5   0 38456.9 3400.89   1
   5  -5   0 38125.2 4534.79   8
  -5  -5  -1 56035.3 4345.45   1
   5  -5   1 56079.2 5701.52   8
  -5  -5  -2 55851.7 4555.22   1
   5  -5   2 58360.4 5908.17   8
  -5  -5  -3 23222.0 3036.16   1
   5  -5   3 23458.1 3771.54   8
  -5  -5  -3 20207.9 2551.33   3
  -5  -5  -4 1383.78 786.989   3
  -5  -5  -4 566.122 767.207   1
   5  -5   4-457.089 721.643   8
  -5  -5  -5 4818.20 1463.53   3
   5  -5   5 7494.23 2083.98   8
  -5  -4   9 20710.8 3007.15   5
  -5  -4   8 35983.2 3885.01   5
  -5  -4   7 48088.1 4055.14   1
  -5  -4   6 20307.8 2463.59   1
   5  -4  -6 12603.5 2435.41   8
  -5  -4   5 1998.94 844.291   1
   5  -4  -5 474.844 958.618   8
   5  -4  -4 10177.7 2142.47   8
  -5  -4   4 15376.8 2022.27   1
   5  -4  -3 45323.2 4509.25   8
  -5  -4   3 44895.3 3454.40   1
   5  -4  -2 61931.9 5217.72   8
  -5  -4   2 75279.8 4582.94   1
   5  -4  -1 38792.8 4245.42   8
  -5  -4   1 44891.2 3569.80   1
  -5  -4   0 43737.5 3627.47   1
   5  -4   0 45298.5 4642.10   8
   5  -4   1 472.151 553.263   8
  -5  -4  -1 240.425 464.074   1
  -5  -4  -2 6619.42 1534.87   1
   5  -4   2 4692.77 1670.98   8
  -5  -4  -3 59627.2 4814.62   1
   5  -4   3 66244.1 5969.54   8
  -5  -4  -4 44734.2 4299.74   1
   5  -4   4 44168.5 4773.29   8
  -5  -4  -4 41509.2 3897.86   3
  -5  -4  -5 37799.7 4155.99   1
   5  -4   5 36153.9 4195.45   8
  -5  -4  -5 32114.6 3700.31   3
  -5  -3   9 15569.2 2405.71   1
  -5  -3   8 2442.64 1124.54   5
  -5  -3   8 2872.28 1007.88   1
  -5  -3   7 1347.30 791.243   1
  -5  -3   6 40724.9 3665.75   1
   5  -3  -6 21517.5 3011.32   8
  -5  -3   5 60356.6 4167.82   1
   5  -3  -5 23302.8 3266.25   8
  -5  -3   4 64311.8 4210.99   1
   5  -3  -4 57308.5 4497.60   8
   5  -3  -3 51388.2 4353.20   8
  -5  -3   3 53012.0 3746.68   1
  -5  -3   2 4385.89 1087.94   1
   5  -3  -2 2288.38 1069.18   8
   5  -3  -1 31746.5 3663.29   8
  -5  -3   1 30851.9 2936.93   1
   5  -3   0 67369.0 5522.90   8
  -5  -3   0 74697.2 4714.73   1
  -5  -3  -1 64709.7 4486.51   1
   5  -3   1 69527.5 5784.84   8
  -5  -3  -2 60464.4 4517.27   1
   5  -3   2 59829.8 5438.17   8
  -5  -3  -3 13946.2 2298.91   1
   5  -3   3 12483.7 2540.33   8
  -5  -3  -4-666.333 580.533   3
  -5  -3  -4 7.86772 340.689   1
  -5  -3  -5 13802.4 2378.56   3
  -5  -3  -5 12308.8 2382.87   1
   5  -3   5 12551.8 2491.91   8
  -5  -3  -6 17039.7 2835.43   3
  -5  -2  10 1850.19 913.338   1
  -5  -2   9 12274.8 2202.47   1
  -5  -2   8 35237.7 3568.58   1
  -5  -2   7 37971.6 3577.82   1
  -5  -2   6 24343.1 2856.01   1
   5  -2  -6 16291.4 2639.03   8
  -5  -2   5 17266.3 2271.50   1
   5  -2  -5 9519.03 1715.06   8
  -5  -2   4 16962.0 2161.34   1
   5  -2  -4 17472.4 2417.40   8
  -5  -2   3 60287.3 4023.12   1
   5  -2  -3 59009.6 4558.08   8
   5  -2  -2 157773. 8026.57   8
  -5  -2   2 139990. 6247.83   1
   5  -2  -1 66600.4 5450.60   8
  -5  -2   1 75494.6 4573.06   1
   5  -2   0 33371.6 4110.24   8
  -5  -2   0 41612.9 3440.25   1
   5  -2   1 3154.37 1325.35   8
  -5  -2  -1 3925.90 1153.57   1
  -5  -2  -2 30329.4 3118.72   1
   5  -2   2 28728.0 3960.16   8
  -5  -2  -3 43573.3 3984.61   1
   5  -2   3 47637.9 4968.40   8
  -5  -2  -4 50540.1 4467.70   1
   5  -2   4 56924.6 5268.44   8
  -5  -2  -5 25551.2 3356.31   1
   5  -2   5 26516.2 3412.77   8
  -5  -2  -5 26688.5 3317.89   3
  -5  -2  -6 10005.2 2183.95   3
  -5  -1  10 23673.0 3329.31   1
  -5  -1   9 14322.8 2439.82   1
  -5  -1   8-283.349 438.836   1
  -5  -1   7 2717.86 1015.77   1
  -5  -1   6 45751.3 3832.25   1
   5  -1  -6 36751.3 3161.55   8
  -5  -1   5 52921.6 4115.34   1
   5  -1  -5 55628.5 3985.52   8
  -5  -1   4 97338.6 5405.22   1
   5  -1  -4 101725. 5868.27   8
  -5  -1   3 14974.2 1979.77   1
   5  -1  -3 15873.1 2464.99   8
  -5  -1   2 5315.02 1163.43   1
   5  -1  -2 4471.03 1465.69   8
   5  -1  -1 15868.2 2767.19   8
  -5  -1   1 15676.3 2020.87   1
   5  -1   0 51152.7 4957.60   8
  -5  -1   0 56812.1 4029.09   1
   5  -1   1 97663.5 7132.58   8
  -5  -1  -1 98720.3 5488.21   1
  -5  -1  -2 79657.6 5046.99   1
   5  -1   2 80140.7 6491.60   8
  -5  -1  -3 17375.8 2450.09   1
   5  -1   3 17203.6 2992.94   8
  -5  -1  -4 1532.56 885.246   1
   5  -1   4 54.3129 750.474   8
  -5  -1  -5 12605.8 2283.05   1
   5  -1   5 14019.0 2596.94   8
  -5  -1  -5 16686.3 2656.94   3
  -5  -1  -6 22540.9 3224.92   1
  -5   0  10 1301.58 878.632   1
  -5   0   9 20064.6 3033.77   1
  -5   0   8 44814.9 4229.43   1
  -5   0   7 67321.3 4932.38   1
   5   0  -6 13285.4 1841.85   8
  -5   0   6 18994.3 2483.09   1
  -5   0   5 311.098 550.621   1
   5   0  -5 1078.80 703.718   8
   5   0  -4 6167.00 1441.95   8
  -5   0   4 3976.18 1211.88   1
  -5   0   3 44724.8 3515.81   1
   5   0  -3 42927.2 4119.00   8
  -5   0   2 84097.4 4781.14   1
   5   0  -2 90869.3 6363.08   8
   5   0  -1 82522.8 6362.78   8
  -5   0   1 85502.4 4789.46   1
   5   0   0 11263.6 2422.44   8
  -5   0   0 17596.0 2188.11   1
   5   0   1 3919.46 1594.15   8
  -5   0  -1 5059.45 1258.75   1
   5   0   2 6645.46 1919.75   8
  -5   0  -2 6504.85 1468.25   1
  -5   0  -3 49405.4 4059.91   1
   5   0   3 55906.4 5517.72   8
  -5   0  -4 78562.0 5490.26   1
   5   0   4 71994.4 6025.33   8
  -5   0  -5 48728.2 4451.02   1
   5   0   5 44466.4 4526.78   8
  -5   0  -5 50079.4 4532.53   3
  -5   0  -6 9432.03 2074.45   1
  -5   1   9 16163.6 2764.93   1
  -5   1   8 707.421 744.435   1
  -5   1   7 3713.43 1231.17   1
   5   1  -6 36079.2 3144.01   8
  -5   1   6 48271.0 4015.23   1
   5   1  -5 60557.9 4359.63   8
  -5   1   5 69393.2 4643.48   1
  -5   1   4 87626.8 5289.71   1
   5   1  -4 99438.7 6039.79   8
  -5   1   3 17602.0 2228.80   1
   5   1  -3 18578.3 2863.16   8
   5   1  -2 6154.06 1849.28   8
  -5   1   2 4520.31 1087.44   1
   5   1  -1 11431.5 2523.11   8
  -5   1   1 12660.9 1840.95   1
   5   1  -1 14817.1 1365.34   6
   5   1   0 52485.9 5365.02   8
  -5   1   0 52980.4 3807.53   1
   5   1   1 98434.5 7690.97   8
  -5   1  -1 96121.1 5324.75   1
   5   1   2 71748.6 6563.26   8
  -5   1  -2 70879.7 4685.56   1
  -5   1  -3 13180.2 2087.69   1
   5   1   3 13139.5 2751.04   8
  -5   1  -4 2475.67 959.076   1
   5   1   4 750.145 532.629   8
  -5   1  -5 13728.7 2330.30   1
   5   1   5 12485.5 2529.32   8
  -5   1  -6 18077.7 2801.91   1
   5   1   6 16010.2 2704.78   8
  -5   2   9 11898.4 2453.17   1
  -5   2   8 36120.4 3973.66   1
  -5   2   7 34254.6 3698.59   1
   5   2  -6 29131.8 2879.13   8
  -5   2   6 32830.5 3400.98   1
   5   2  -5 12806.2 2083.58   8
  -5   2   5 12920.0 2010.24   1
   5   2  -4 22235.5 2954.12   8
  -5   2   4 17064.5 2241.33   1
  -5   2   3 48541.2 3860.57   1
   5   2  -3 56383.0 5154.13   8
  -5   2   2 156686. 6731.93   1
   5   2  -2 180947. 9978.49   8
   5   2  -1 57277.6 6234.98   8
  -5   2   1 68752.3 4292.71   1
   5   2   0 42308.1 5237.46   8
  -5   2   0 39264.4 3259.21   1
   5   2   0 43038.9 2673.25   6
   5   2   1 3918.10 883.812   6
   5   2   1 1581.44 1154.79   8
  -5   2  -1 3098.75 1004.27   1
   5   2   2 26506.5 4154.43   8
  -5   2  -2 32094.9 3112.44   1
   5   2   2 27501.3 2442.70   6
  -5   2  -3 44199.1 3748.32   1
   5   2   3 37373.7 4909.66   8
   5   2   3 47713.6 3501.14   6
  -5   2  -4 53361.1 4346.22   1
   5   2   4 33926.1 4388.89   8
  -5   2  -5 24508.2 3062.20   1
   5   2   5 16422.8 2977.36   8
  -5   2  -6 12940.7 2367.70   1
   5   2   6 4974.01 1587.13   8
  -5   3   9 10095.8 2305.21   1
  -5   3   8 3091.71 1234.93   1
  -5   3   7 3099.25 1142.71   1
   5   3  -6 38762.5 3483.06   8
  -5   3   6 39187.0 3837.10   1
   5   3  -5 53981.5 4553.30   8
  -5   3   5 54609.6 4259.72   1
   5   3  -4 67676.4 5636.49   8
  -5   3   4 73840.6 4757.78   1
  -5   3   3 45944.0 3727.03   1
   5   3  -3 55313.5 5549.27   8
   5   3  -2 1509.15 1250.32   8
  -5   3   2 2501.69 844.620   1
  -5   3   1 27899.0 2731.80   1
   5   3  -1 22472.3 4250.29   8
  -5   3   0 81037.2 4717.24   1
   5   3   0 83918.2 4079.64   6
   5   3   1 68599.1 7370.04   8
  -5   3  -1 77082.9 4709.97   1
   5   3   1 73044.2 3976.70   6
  -5   3  -2 55845.6 4158.36   1
   5   3   2 60590.0 3823.34   6
  -5   3  -3 13563.6 2040.32   1
   5   3   3 8528.63 2541.19   8
   5   3   3 14144.8 1992.61   6
   5   3   4 354.882 437.400   6
   5   3   4 1565.00 1095.14   8
  -5   3  -4 180.956 399.077   1
  -5   3  -5 14023.0 2292.45   1
   5   3   5 3483.64 1277.52   8
  -5   3  -6 16399.7 2652.62   2
  -5   3  -6 17659.1 2650.75   1
  -5   4   8 37398.2 4269.53   1
  -5   4   7 40416.8 4247.18   1
   5   4  -6 13401.4 2169.62   8
  -5   4   6 17617.7 2607.97   1
  -5   4   5 1002.31 654.245   1
   5   4  -5 547.390 624.036   8
   5   4  -4 12593.2 2742.95   8
  -5   4   4 15856.7 2222.24   1
  -5   4   3 40570.9 3515.03   1
   5   4  -3 36278.7 4904.97   8
  -5   4   2 71320.3 4552.20   1
  -5   4   1 45816.1 3521.47   1
  -5   4   0 44656.7 3480.12   1
   5   4   0 46090.4 3200.30   6
  -5   4  -1-1295.59 664.173   1
   5   4   1 8.44885 425.769   6
   5   4   2 6522.90 1339.27   6
  -5   4  -2 4534.36 1258.79   1
  -5   4  -3 62199.3 4415.36   1
   5   4   3 63321.7 4351.20   6
  -5   4  -4 41766.2 3709.96   1
   5   4   4 43769.4 3852.60   6
  -5   4  -5 38702.7 3800.16   1
   5   4   5 39677.3 3912.17   6
  -5   4  -6 5723.52 1689.76   2
   5   4   6 893.602 864.123   8
  -5   5   8 444.651 831.058   1
  -5   5   7 10624.9 2185.40   1
   5   5  -6 16427.1 2562.38   8
  -5   5   6 34668.8 3761.92   1
   5   5  -5 31468.0 4112.67   8
  -5   5   5 56925.6 4541.63   1
  -5   5   4 34499.0 3343.15   1
  -5   5   3 17237.6 2284.52   1
  -5   5   2 2717.79 1022.98   1
  -5   5   1 8635.38 1546.07   1
  -5   5   0 41118.2 3338.12   1
  -5   5  -1 57343.3 4006.80   1
   5   5   1 55485.2 3800.80   6
  -5   5  -2 48640.8 3762.55   1
   5   5   2 54609.9 3941.27   6
  -5   5  -3 25376.1 2743.77   1
   5   5   3 21790.8 2630.91   6
   5   5   4 474.146 525.785   6
  -5   5  -4-897.356 604.629   1
   5   5   5 7292.87 1782.10   6
  -5   5  -5 5477.85 1633.00   2
   5   5   6 37472.9 4214.56   6
  -5   6   7 25290.0 3477.23   1
  -5   6   6 19034.2 2852.82   1
  -5   6   5 2106.31 865.256   1
  -5   6   4 4028.74 1188.67   1
  -5   6   3 48180.4 3910.47   1
  -5   6   2 45013.5 3836.56   1
  -5   6   1 42398.3 3450.49   1
  -5   6   0 23805.8 2562.99   1
   5   6   1 54.0161 297.258   6
  -5   6  -1-553.600 491.040   1
  -5   6  -2 14140.6 2030.32   1
   5   6   2 14722.5 2101.79   6
  -5   6  -3 30628.3 3008.89   1
   5   6   3 30891.1 3267.74   6
  -5   6  -4 39380.1 4280.21   2
   5   6   4 42428.0 4028.90   6
   5   6   5 21936.8 3050.73   6
  -5   7   7 2240.34 1052.65   1
  -5   7   6 15114.9 2584.78   1
  -5   7   5 44883.7 4205.62   1
  -5   7   4 44685.4 3943.14   1
  -5   7   3 29788.4 3101.44   1
  -5   7   2 2362.01 972.082   1
  -5   7   1 22856.3 2566.25   1
  -5   7   0 41667.6 3382.51   1
  -5   7  -1 52522.0 3861.28   1
   5   7   1 54960.1 4150.57   6
  -5   7  -2 27348.5 2782.73   1
  -5   7  -2 26120.0 3546.55   2
   5   7   2 28561.4 3070.52   6
   5   7   3 11433.2 2077.65   6
  -5   7  -3 11291.4 2395.29   2
   5   7   4 3406.05 1195.37   6
  -5   8   6 14768.3 2625.76   1
  -5   8   5 3847.94 1321.59   1
  -5   8   4 2854.07 1060.17   1
  -5   8   3 36365.6 3493.87   1
  -5   8   2 27794.8 3043.32   1
  -5   8   1 53953.3 3989.38   1
  -5   8   0 9265.82 2283.52   2
  -5   8   0 10522.9 1724.18   1
  -5   8  -1-1039.92 824.767   2
   5   8   1 38.8687 495.422   6
  -5   8  -2 11207.2 2454.48   2
   5   8   2 12486.4 2146.52   6
   5   8   3 18483.6 2686.77   6
  -5   9   5 24634.0 3180.67   1
  -5   9   4 35480.7 3635.63   1
  -5   9   4 36197.9 4281.70   2
  -5   9   3 4048.80 1698.26   2
  -5   9   3 4924.64 1416.59   1
  -5   9   2 934.791 854.584   2
  -5   9   2 925.060 600.603   1
  -5   9   1 3391.05 1475.48   2
  -5   9   1 2628.06 916.997   1
  -5   9   0 19728.3 3378.43   2
  -5   9  -1 35711.3 4560.83   2
   5   9   1 38999.9 3805.99   6
   5   9   2 31757.4 3501.78   6
  -5  10   4 5458.41 1481.65   1
  -5  10   3 11328.3 2620.63   2
  -5  10   3 8349.31 1857.16   1
  -5  10   2 33148.6 4577.32   2
  -5  10   1 23091.9 3902.20   2
  -6  -8   2 13612.0 2343.69   1
  -6  -8   1 611.830 597.576   1
  -6  -8   0 1201.70 558.448   1
   6  -7  -3 1274.52 1144.37   8
  -6  -7   3 1256.61 816.719   1
   6  -7  -2 7244.86 2443.67   8
  -6  -7   2 6049.87 1510.16   1
  -6  -7   1 28282.4 3362.65   1
   6  -7  -1 28415.9 4680.14   8
  -6  -7   0 31509.5 3656.41   1
  -6  -7  -1 19785.1 2972.22   1
  -6  -6   5 12712.9 2159.71   1
   6  -6  -4 26412.9 4090.16   8
  -6  -6   4 41719.4 3889.31   1
   6  -6  -3 29413.5 4349.07   8
  -6  -6   3 29737.7 3310.12   1
  -6  -6   2 29460.0 3305.60   1
   6  -6  -2 24752.1 4304.19   8
   6  -6  -1 3463.04 1680.06   8
  -6  -6   1 4828.65 1423.33   1
   6  -6   0 4645.37 1977.55   8
  -6  -6   0 3588.13 1221.83   1
  -6  -6  -1 16678.2 2674.81   1
   6  -6   1 11556.4 3323.08   8
  -6  -5   6 34615.4 3566.89   1
   6  -5  -5 10417.5 2352.94   8
  -6  -5   5 25123.1 3003.23   1
   6  -5  -4 14268.4 3022.25   8
  -6  -5   4 21288.9 2781.96   1
   6  -5  -3 2140.33 1162.97   8
  -6  -5   3 5016.33 1316.75   1
   6  -5  -2 33772.0 4910.80   8
  -6  -5   2 42777.0 3957.85   1
  -6  -5   1 46040.6 4124.06   1
   6  -5  -1 46205.2 5467.26   8
  -6  -5   0 33256.5 3545.07   1
   6  -5   0 34105.1 4806.42   8
  -6  -5  -1 27063.7 3355.96   1
   6  -5   1 18809.7 3805.69   8
  -6  -5  -2 1079.44 834.261   1
   6  -5   2 1464.30 1220.78   8
  -6  -5  -3 5738.54 1501.99   3
  -6  -4   7 12193.6 2196.48   1
  -6  -4   6 146.248 373.537   1
   6  -4  -6 990.306 798.296   8
   6  -4  -5 15362.9 2904.71   8
  -6  -4   5 23964.1 2900.93   1
   6  -4  -4 29929.0 4492.60   8
  -6  -4   4 49064.6 4125.46   1
   6  -4  -3 35469.4 4376.63   8
  -6  -4   3 30064.7 3281.55   1
   6  -4  -2 38014.3 4620.87   8
  -6  -4   2 40807.5 3816.22   1
   6  -4  -1 9915.75 2376.89   8
  -6  -4   1 10418.6 1996.99   1
   6  -4   0 9190.79 2360.51   8
  -6  -4   0 8555.22 1821.82   1
  -6  -4  -1 28294.5 3313.76   1
   6  -4   1 24235.8 3945.33   8
  -6  -4  -2 36194.7 3962.63   1
   6  -4   2 32531.3 4677.26   8
   6  -4   3 33633.0 4645.61   8
  -6  -3   8 15333.9 2586.02   1
  -6  -3   7 31625.5 3562.04   1
  -6  -3   6 40544.8 3875.89   1
   6  -3  -6 15430.6 2658.58   8
   6  -3  -5 13355.2 2585.42   8
  -6  -3   5 17832.7 2525.51   1
  -6  -3   4 8370.73 1686.53   1
   6  -3  -4 7940.28 1926.99   8
  -6  -3   3 3162.55 999.542   1
   6  -3  -3 3895.68 1427.89   8
   6  -3  -2 17894.9 3003.88   8
  -6  -3   2 23703.5 2922.31   1
   6  -3  -1 31052.2 4118.01   8
  -6  -3   1 37198.8 3694.04   1
   6  -3   0 42188.5 4962.44   8
  -6  -3   0 44119.7 4078.60   1
  -6  -3  -1 37383.2 3802.86   1
   6  -3   1 34454.8 4620.24   8
   6  -3   2 2080.20 1167.61   8
  -6  -3  -2 3022.35 1145.69   1
  -6  -3  -3 1036.29 733.382   1
   6  -3   3 846.061 873.069   8
   6  -3   4 12664.8 2802.07   8
  -6  -2   8 16801.2 2776.90   1
  -6  -2   7 3403.84 1343.38   1
   6  -2  -6 3398.78 1379.60   8
  -6  -2   6 5651.56 1500.96   1
  -6  -2   5 16763.0 2432.30   1
   6  -2  -5 13453.1 2321.84   8
   6  -2  -4 41851.8 4239.71   8
  -6  -2   4 46423.2 4017.81   1
   6  -2  -3 40950.8 4321.08   8
  -6  -2   3 35865.7 3502.16   1
   6  -2  -2 37410.8 4446.34   8
  -6  -2   2 31459.0 3302.05   1
   6  -2  -1 1589.83 982.668   8
  -6  -2   1 3411.55 1128.34   1
   6  -2   0-310.651 724.265   8
  -6  -2   0 822.060 776.195   1
  -6  -2  -1 14915.7 2394.02   1
   6  -2   1 10108.0 2621.43   8
  -6  -2  -2 53857.2 4671.30   1
   6  -2   2 61819.2 6312.54   8
  -6  -2  -3 41643.8 4299.48   1
   6  -2   3 49927.5 5500.07   8
   6  -2   4 24593.7 3786.88   8
  -6  -1   8 8002.28 1966.33   1
  -6  -1   7 16128.0 2782.45   1
  -6  -1   6 48059.2 4418.77   1
   6  -1  -6 35980.2 3524.26   8
  -6  -1   5 46163.0 4094.12   1
   6  -1  -5 38995.8 3854.91   8
  -6  -1   4 1034.31 717.330   1
   6  -1  -4 543.928 648.880   8
  -6  -1   3-363.988 474.044   1
   6  -1  -3-247.839 888.823   8
   6  -1  -2 31598.0 4143.23   8
  -6  -1   2 32683.5 3346.62   1
   6  -1  -1 55984.1 5779.79   8
  -6  -1   1 53471.2 4354.76   1
   6  -1   0 68104.2 6597.39   8
  -6  -1   0 74788.2 5268.87   1
  -6  -1  -1 17056.9 2538.69   1
   6  -1   1 14391.2 3066.25   8
   6  -1   2 4027.23 1578.23   8
  -6  -1  -2 5348.53 1447.66   1
   6  -1   3 2266.97 1354.24   8
  -6  -1  -3 5443.50 1518.11   1
   6  -1   4 17951.4 3243.71   8
  -6   0   8 14213.0 2562.58   1
  -6   0   7 7078.90 1747.66   1
   6   0  -6-1857.48 850.383   8
  -6   0   6-435.048 515.931   1
   6   0  -5 11800.0 2177.93   8
  -6   0   5 9690.24 1947.24   1
  -6   0   4 51471.0 4263.87   1
   6   0  -4 52424.0 4918.93   8
  -6   0   3 103796. 6039.92   1
   6   0  -3 112321. 7608.51   8
   6   0  -2 28027.3 3914.48   8
  -6   0   2 25372.1 2912.78   1
  -6   0   1 6992.94 1520.97   1
   6   0  -1 5528.73 1793.20   8
   6   0   0 1625.28 1218.42   8
  -6   0   0 4698.34 1291.64   1
   6   0   1 29328.7 4422.90   8
  -6   0  -1 35497.7 3644.39   1
  -6   0  -2 56919.4 4707.02   1
   6   0   2 52144.7 5925.65   8
  -6   0  -3 26096.9 3327.20   1
   6   0   3 22733.7 3740.25   8
   6   0   4 14401.4 2912.77   8
  -6   1   8 8476.40 2009.34   1
  -6   1   7 25066.6 3273.21   1
  -6   1   6 28597.4 3506.42   1
   6   1  -6 34568.9 3537.31   8
  -6   1   5 28431.6 3675.75   1
   6   1  -5 42178.6 4160.80   8
   6   1  -4 544.929 681.595   8
  -6   1   4 1548.17 833.468   1
  -6   1   3 22.0711 346.274   1
   6   1  -3-223.582 937.653   8
   6   1  -2 37817.6 4705.81   8
  -6   1   2 32443.7 3339.49   1
   6   1  -1 57500.6 6117.58   8
  -6   1   1 57973.5 4447.21   1
   6   1   0 70272.8 6987.74   8
  -6   1   0 78116.6 5306.05   1
   6   1   1 21362.2 3968.94   8
  -6   1  -1 20782.6 2777.49   1
   6   1   2 5688.61 2051.20   8
  -6   1  -2 7513.78 1719.16   1
   6   1   3 3510.32 1640.66   8
  -6   1  -3 4869.13 1410.68   1
   6   1   4 14497.5 3025.96   8
  -6   2   7 3941.86 1341.53   1
  -6   2   6 4595.92 1346.15   1
   6   2  -6 2763.77 1103.61   8
  -6   2   5 8340.52 2022.54   1
   6   2  -5 12662.0 2365.41   8
  -6   2   4 43672.5 4085.38   1
   6   2  -4 36747.6 4345.94   8
  -6   2   3 41135.5 3786.53   1
   6   2  -3 40107.9 4817.82   8
   6   2  -2 33678.4 4695.09   8
  -6   2   2 30246.7 3207.24   1
  -6   2   1 2565.32 958.902   1
   6   2  -1 2125.56 1400.65   8
  -6   2   0-350.270 736.112   1
   6   2   0-201.316 1108.56   8
   6   2   1 13451.3 3237.43   8
  -6   2  -1 14388.9 2354.48   1
   6   2   2 45056.5 5781.33   8
  -6   2  -2 58130.1 4688.34   1
  -6   2  -3 45391.7 4201.56   1
   6   2   3 34536.7 4803.52   8
  -6   2  -4 25880.9 3361.48   1
  -6   3   7 29392.8 3632.03   1
   6   3  -6 26273.8 3254.91   8
  -6   3   6 41255.0 4176.39   1
  -6   3   5 14950.3 2486.88   1
   6   3  -5 16170.4 2783.13   8
   6   3  -4 5967.39 1831.04   8
  -6   3   4 5089.46 1537.57   1
   6   3  -3 2868.99 1545.64   8
  -6   3   3 4452.85 1297.71   1
  -6   3   2 17501.1 2454.07   1
   6   3  -2 15068.4 3423.36   8
   6   3  -1 35736.1 5181.59   8
  -6   3   1 38620.9 3620.04   1
   6   3   0 43749.8 5917.46   8
  -6   3   0 55608.9 4392.52   1
   6   3   1 23275.8 4512.18   8
  -6   3  -1 33596.7 3467.44   1
   6   3   2 717.877 962.644   8
  -6   3  -2 2983.82 1174.70   1
   6   3   3-1241.10 1128.07   8
  -6   3  -3 1438.64 857.258   1
  -6   3  -4 14595.4 2529.45   1
  -6   4   6 298.413 507.509   1
   6   4  -6 523.782 579.846   8
  -6   4   5 17705.8 2822.96   1
   6   4  -5 13513.0 2660.11   8
  -6   4   4 34975.1 3763.59   1
   6   4  -4 34617.9 4556.61   8
  -6   4   3 39851.9 3814.02   1
   6   4  -3 24101.5 4165.88   8
  -6   4   2 44052.9 3876.80   1
   6   4  -2 20011.6 4149.91   8
  -6   4   1 7212.63 1596.89   1
   6   4  -1 6546.74 2356.03   8
  -6   4   0 11021.7 1941.89   1
   6   4   0 3843.99 2157.24   8
   6   4   1 10643.0 3306.06   8
  -6   4  -1 25390.1 3011.69   1
  -6   4  -2 37780.0 3712.47   1
   6   4   2 9329.59 3069.38   8
  -6   4  -3 34373.1 3598.81   1
  -6   4  -4 8987.95 1982.33   1
  -6   5   6 27876.9 3489.94   1
  -6   5   5 22312.6 3068.46   1
   6   5  -5 6262.67 1863.44   8
  -6   5   4 15161.2 2629.26   1
   6   5  -4 7837.52 2414.51   8
   6   5  -3 1943.95 1345.22   8
  -6   5   3 5114.41 1393.61   1
  -6   5   2 41320.4 3761.29   1
   6   5  -2 12437.4 3329.32   8
   6   5  -1 7663.82 2800.12   8
  -6   5   1 45945.4 3961.50   1
   6   5   0 8364.24 2803.91   8
  -6   5   0 37069.7 3547.30   1
   6   5   1 3756.74 2270.12   8
  -6   5  -1 27031.3 3137.60   1
  -6   5  -2 1343.50 765.357   1
  -6   5  -3 4826.05 1407.84   1
  -6   6   5 13795.8 2407.94   1
   6   6  -5 1433.31 1193.93   8
  -6   6   4 26862.2 3460.72   1
   6   6  -4 5261.37 2047.02   8
  -6   6   3 22444.6 2932.54   1
   6   6  -3 1310.13 1356.08   8
  -6   6   2 23309.8 2879.88   1
   6   6  -2 3286.02 2049.55   8
  -6   6   1 5923.82 1429.98   1
  -6   6   0 1899.45 989.158   1
  -6   6  -1 16710.4 2469.58   1
  -6   6  -2 38306.4 3740.49   1
   6   7  -5-29.1836 518.553   8
  -6   7   4 1979.73 1045.10   1
   6   7  -4 3423.59 1703.73   8
  -6   7   3 2009.43 1014.61   1
  -6   7   2 8548.57 1755.00   1
  -6   7   1 27714.2 3122.02   1
  -6   7   0 32813.8 3386.42   1
   6   7   0 33914.4 3362.52   6
  -6   7  -1 16368.8 2405.89   1
  -6   8   3 37550.4 3981.99   1
  -6   8   2 11917.3 2101.74   1
  -6   8   1-133.730 351.089   1
   6   8   0-803.036 617.846   6
   6   8   1 10056.8 1968.42   6
  -7  -3   4 6332.24 1630.18   1
  -7  -3   3 42629.6 4363.12   1
   7  -2  -6 10071.2 2261.54   8
   7  -2  -5 31599.9 3965.83   8
   7  -2  -4 29674.3 4014.39   8
  -7  -2   4 34891.3 3866.70   1
  -7  -2   3 14243.2 2443.09   1
   7  -2  -3 11264.0 2669.51   8
  -7  -2   2-453.702 527.947   1
   7  -1  -6 3595.06 1325.62   8
   7  -1  -5-2396.44 1162.90   8
  -7  -1   4 6329.86 1644.84   1
   7  -1  -4 2584.06 1338.93   8
   7  -1  -3 20693.4 3828.46   8
  -7  -1   3 23264.0 3135.07   1
   7  -1  -2 34499.7 4985.53   8
  -7  -1   2 40032.8 4189.32   1
   7   0  -6 12590.0 2339.04   8
   7   0  -5 19093.5 3223.83   8
   7   0  -4 18898.7 3264.56   8
  -7   0   3 7216.99 1713.79   1
   7   0  -3 4276.50 1905.16   8
  -7   0   2-1479.13 877.833   1
   7   0  -2-186.653 808.041   8
   7   1  -6 2224.25 1074.39   8
   7   1  -5-2099.06 1186.28   8
   7   1  -4 4165.54 1637.14   8
   7   1  -3 18666.2 3546.59   8
   7   1  -2 29038.6 4690.91   8
  -7   1   2 34041.2 3790.56   1
   7   2  -5 35288.6 4360.57   8
   7   2  -4 24580.6 3905.26   8
   7   2  -3 10192.8 2731.03   8
   7   3  -5-2536.50 1253.00   8
   7   3  -4 2176.37 1291.94   8
;
_shelx_hkl_checksum              64843
_shelx_res_file
;
    shelx.res created by SHELXL-2014/7
TITL logan_aspar_br in P 21
CELL  0.71073   5.3668  10.6744   8.4532   90.000  102.772   90.000
ZERR     2.00   0.0005   0.0008   0.0006    0.000    0.008    0.000
LATT  -1
SYMM  - X, 1/2 + Y, - Z
SFAC  I    O    N    C    H
UNIT  2 8 4 8 22
MERG   2
OMIT    -3.00 180.00
OMIT    -6   7   5
TWIN
dfix .88 .01 o1w h1w o1w h2w o2 h1h
dfix .90 .01 n2 h4n n2 h5n
dfix 1.33 .02 h1w h2w
EQIV $1 -x+2, y-1/2, -z+1
HTAB O2 O3_$1
EQIV $2 -x+1, y-1/2, -z+2
HTAB O1W I1_$2
EQIV $3 -x+2, y-1/2, -z+2
HTAB O1W I1_$3
HTAB N1 O1W
HTAB N1 I1
EQIV $4 x+1, y, z
HTAB N1 I1_$4
HTAB N1 O3
EQIV $5 x-1, y, z-1
HTAB N2 O1W_$5
EQIV $6 x, y, z-1
HTAB N2 I1_$6
EQIV $7 -x+2, y+1/2, -z+1
HTAB N2 O1_$7
EQIV $8 x-1, y, z
FMAP   2
PLAN   25
ACTA    54.00
BOND   $H
CONF
L.S.   8
TEMP  -150.00
WGHT    0.021500
BASF  -0.06972
FVAR       7.28053
I1    1    0.369213    0.908440    0.914300    11.00000    0.01668    0.01986 =
         0.01982   -0.00362    0.00223    0.00126
O1    2    1.119178    0.518616    0.743991    11.00000    0.01789    0.02873 =
         0.02374   -0.00550   -0.00097    0.00906
O2    2    0.806970    0.456142    0.538400    11.00000    0.01581    0.03128 =
         0.02941   -0.01404    0.00309    0.00607
AFIX   2
H1H   5    0.936370    0.415485    0.515650    11.00000   -1.20000
AFIX   0
O3    2    0.890402    0.798608    0.546439    11.00000    0.02286    0.03444 =
         0.02372    0.01072   -0.00233   -0.01124
O1W   2    1.149131    0.615973    1.146046    11.00000    0.02488    0.02199 =
         0.03376    0.00063    0.00290   -0.00618
AFIX   2
H1W   5    1.253337    0.553091    1.143336    11.00000   -1.20000
H2W   5    1.029473    0.574706    1.180615    11.00000   -1.20000
AFIX   0
N1    3    0.834838    0.697469    0.837971    11.00000    0.01285    0.01918 =
         0.01805    0.00127    0.00497    0.00659
AFIX 137
H1N   5    0.717208    0.742049    0.877274    11.00000   -1.50000
H2N   5    0.931536    0.750759    0.792588    11.00000   -1.50000
H3N   5    0.937222    0.654600    0.920456    11.00000   -1.50000
AFIX   0
N2    3    0.581689    0.774292    0.320132    11.00000    0.02508    0.02171 =
         0.01900    0.00249    0.00192   -0.00284
AFIX   2
H4N   5    0.635652    0.834690    0.262149    11.00000   -1.20000
H5N   5    0.428054    0.740311    0.277343    11.00000   -1.20000
AFIX   0
C1    4    0.900979    0.523165    0.666855    11.00000    0.01734    0.01306 =
         0.01812    0.00337    0.00430    0.00075
C2    4    0.701251    0.607263    0.712662    11.00000    0.01528    0.01541 =
         0.01564   -0.00101    0.00299   -0.00197
AFIX  13
H2    5    0.588223    0.553653    0.763984    11.00000   -1.20000
AFIX   0
C3    4    0.532104    0.673655    0.567629    11.00000    0.01441    0.01811 =
         0.01963    0.00115    0.00196    0.00210
AFIX  23
H3A   5    0.434908    0.610035    0.493654    11.00000   -1.20000
H3B   5    0.407381    0.727094    0.606680    11.00000   -1.20000
AFIX   0
C4    4    0.681619    0.753685    0.474314    11.00000    0.01572    0.01598 =
         0.02245    0.00134    0.00391    0.00198
HKLF 4
REM  logan_aspar_br in P 21
REM R1 =  0.0286 for    2288 Fo > 4sig(Fo)  and  0.0325 for all    2458 data
REM    117 parameters refined using      7 restraints
END
WGHT      0.0215      0.0000
REM Highest difference peak  0.871,  deepest hole -0.653,  1-sigma level  0.116
Q1    1   0.5261  0.9091  1.0197  11.00000  0.05    0.87
Q2    1   1.1177  0.4067  0.7491  11.00000  0.05    0.72
Q3    1   0.3848  0.8587  0.8378  11.00000  0.05    0.66
Q4    1   0.3796  0.9600  0.8404  11.00000  0.05    0.64
Q5    1   0.2021  0.9045  0.8095  11.00000  0.05    0.57
Q6    1   0.3184  0.9094  0.7713  11.00000  0.05    0.54
Q7    1   0.3796  0.9829  0.9966  11.00000  0.05    0.52
Q8    1   0.3771  0.8354  0.9921  11.00000  0.05    0.49
Q9    1   0.9588  0.9081  0.6467  11.00000  0.05    0.49
Q10   1   0.4027  0.9085  1.0547  11.00000  0.05    0.48
Q11   1   0.4221  0.8365  0.7134  11.00000  0.05    0.45
Q12   1   0.4189  0.9801  0.7155  11.00000  0.05    0.43
Q13   1   0.6188  0.4046  0.5415  11.00000  0.05    0.42
Q14   1   0.5875  0.4062  0.3568  11.00000  0.05    0.41
Q15   1   0.6115  0.4137  0.6484  11.00000  0.05    0.39
Q16   1   0.5630  0.8646  0.9010  11.00000  0.05    0.38
Q17   1   0.4109  0.6392  0.5156  11.00000  0.05    0.37
Q18   1   1.1229  0.7935  1.0594  11.00000  0.05    0.36
Q19   1   0.5068  0.9577  0.9387  11.00000  0.05    0.36
Q20   1   0.5051  0.8042  0.8186  11.00000  0.05    0.36
Q21   1   0.4983  0.8584  0.9398  11.00000  0.05    0.35
Q22   1   0.4570  0.5333  0.8699  11.00000  0.05    0.35
Q23   1   0.4632  0.6857  0.2155  11.00000  0.05    0.35
Q24   1   0.5786  0.6808  0.4883  11.00000  0.05    0.35
Q25   1   0.9211  0.4125  0.7755  11.00000  0.05    0.35
;
_shelx_res_checksum              19461
loop_
_space_group_symop_operation_xyz
'x, y, z'
'-x, y+1/2, -z'
loop_
_atom_site_type_symbol
_atom_site_label
_atom_site_fract_x
_atom_site_fract_y
_atom_site_fract_z
_atom_site_U_iso_or_equiv
_atom_site_adp_type
_atom_site_calc_flag
_atom_site_occupancy
I I1 0.36921(6) 0.90844(10) 0.91430(3) 0.01907(10) Uani d 1
O O1 1.1192(8) 0.5186(4) 0.7440(5) 0.0243(10) Uani d 1
O O2 0.8070(8) 0.4561(4) 0.5384(5) 0.0258(11) Uani d 1
H H1H 0.936(10) 0.415(8) 0.516(7) 0.031 Uiso d 1
O O3 0.8904(9) 0.7986(4) 0.5464(5) 0.0282(11) Uani d 1
O O1W 1.1491(15) 0.6160(6) 1.1460(9) 0.0274(16) Uani d 1
H H1W 1.253(10) 0.553(4) 1.143(9) 0.033 Uiso d 1
H H2W 1.029(9) 0.575(5) 1.181(8) 0.033 Uiso d 1
N N1 0.8348(14) 0.6975(7) 0.8380(8) 0.0165(16) Uani d 1
H H3N 0.9372 0.6546 0.9205 0.025 Uiso calc 1
H H1N 0.7172 0.7420 0.8773 0.025 Uiso calc 1
H H2N 0.9315 0.7508 0.7926 0.025 Uiso calc 1
N N2 0.5817(11) 0.7743(5) 0.3201(6) 0.0224(12) Uani d 1
H H5N 0.428(7) 0.740(6) 0.277(8) 0.027 Uiso d 1
H H4N 0.636(13) 0.835(5) 0.262(7) 0.027 Uiso d 1
C C1 0.9010(11) 0.5232(5) 0.6669(7) 0.0161(12) Uani d 1
C C2 0.7013(12) 0.6073(5) 0.7127(7) 0.0155(12) Uani d 1
H H2 0.5882 0.5537 0.7640 0.019 Uiso calc 1
C C3 0.5321(12) 0.6737(6) 0.5676(7) 0.0177(12) Uani d 1
H H3A 0.4349 0.6100 0.4937 0.021 Uiso calc 1
H H3B 0.4074 0.7271 0.6067 0.021 Uiso calc 1
C C4 0.6816(11) 0.7537(6) 0.4743(7) 0.0181(12) Uani d 1
loop_
_atom_site_aniso_label
_atom_site_aniso_U_11
_atom_site_aniso_U_22
_atom_site_aniso_U_33
_atom_site_aniso_U_12
_atom_site_aniso_U_13
_atom_site_aniso_U_23
I1 0.01668(17) 0.01986(16) 0.01982(16) 0.0013(3) 0.00223(11) -0.0036(2)
O1 0.018(2) 0.029(2) 0.024(2) 0.009(2) -0.0010(17) -0.006(2)
O2 0.016(2) 0.031(2) 0.029(2) 0.0061(18) 0.0031(18) -0.0140(18)
O3 0.023(3) 0.034(3) 0.024(2) -0.011(2) -0.0023(18) 0.011(2)
O1W 0.025(4) 0.022(4) 0.034(3) -0.006(3) 0.003(3) 0.001(3)
N1 0.013(4) 0.019(4) 0.018(3) 0.007(3) 0.005(2) 0.001(3)
N2 0.025(3) 0.022(3) 0.019(3) -0.003(2) 0.002(2) 0.002(2)
C1 0.017(3) 0.013(3) 0.018(3) 0.001(2) 0.004(2) 0.003(2)
C2 0.015(3) 0.015(3) 0.016(2) -0.002(2) 0.003(2) -0.001(2)
C3 0.014(3) 0.018(3) 0.020(3) 0.002(3) 0.002(2) 0.001(2)
C4 0.016(3) 0.016(3) 0.022(3) 0.002(2) 0.004(2) 0.001(2)
loop_
_atom_type_symbol
_atom_type_description
_atom_type_scat_dispersion_real
_atom_type_scat_dispersion_imag
_atom_type_scat_source
I I -0.4742 1.8119 'International Tables Vol C Tables 4.2.6.8 and 6.1.1.4'
O O 0.0106 0.0060 'International Tables Vol C Tables 4.2.6.8 and 6.1.1.4'
N N 0.0061 0.0033 'International Tables Vol C Tables 4.2.6.8 and 6.1.1.4'
C C 0.0033 0.0016 'International Tables Vol C Tables 4.2.6.8 and 6.1.1.4'
H H 0.0000 0.0000 'International Tables Vol C Tables 4.2.6.8 and 6.1.1.4'
loop_
_geom_angle_atom_site_label_1
_geom_angle_atom_site_label_2
_geom_angle_atom_site_label_3
_geom_angle
C1 O2 H1H 106(5)
H1W O1W H2W 98(3)
C2 N1 H3N 109.5
C2 N1 H1N 109.5
H3N N1 H1N 109.5
C2 N1 H2N 109.5
H3N N1 H2N 109.5
H1N N1 H2N 109.5
C4 N2 H5N 118(5)
C4 N2 H4N 124(5)
H4N N2 H5N 117(7)
O1 C1 O2 125.2(6)
O1 C1 C2 122.9(5)
O2 C1 C2 111.9(5)
N1 C2 C1 107.9(5)
N1 C2 C3 112.1(5)
C1 C2 C3 113.5(5)
N1 C2 H2 107.7
C1 C2 H2 107.7
C3 C2 H2 107.7
C4 C3 C2 113.1(5)
C4 C3 H3A 109.0
C2 C3 H3A 109.0
C4 C3 H3B 109.0
C2 C3 H3B 109.0
H3A C3 H3B 107.8
O3 C4 N2 123.1(6)
O3 C4 C3 119.1(5)
N2 C4 C3 117.8(5)
loop_
_geom_bond_atom_site_label_1
_geom_bond_atom_site_label_2
_geom_bond_distance
O1 C1 1.209(7)
O2 C1 1.305(7)
O2 H1H 0.876(14)
O3 C4 1.247(7)
O1W H2W 0.880(14)
O1W H1W 0.877(14)
N1 C2 1.492(9)
N1 H3N 0.9100
N1 H1N 0.9100
N1 H2N 0.9100
N2 C4 1.314(7)
N2 H5N 0.900(14)
N2 H4N 0.896(14)
C1 C2 1.513(8)
C2 C3 1.529(8)
C2 H2 1.0000
C3 C4 1.509(9)
C3 H3A 0.9900
C3 H3B 0.9900
loop_
_geom_hbond_atom_site_label_D
_geom_hbond_atom_site_label_H
_geom_hbond_atom_site_label_A
_geom_hbond_site_symmetry_A
_geom_hbond_distance_DH
_geom_hbond_distance_HA
_geom_hbond_distance_DA
_geom_hbond_angle_DHA
O2 H1H O3 2_746 0.876(14) 1.71(3) 2.549(6) 160(9)
N1 H1N I1 . 0.91 2.65 3.528(7) 163.6
N1 H2N I1 1_655 0.91 2.89 3.591(8) 135.1
N1 H2N O3 . 0.91 2.11 2.766(8) 128.5
N1 H3N O1W . 0.91 2.03 2.905(6) 159.7
N2 H4N I1 1_554 0.896(14) 3.07(6) 3.659(5) 125(5)
N2 H4N O1 2_756 0.896(14) 2.37(4) 3.171(7) 149(6)
N2 H5N O1W 1_454 0.900(14) 2.12(3) 2.983(9) 160(7)
O1W H1W I1 2_747 0.877(14) 2.68(2) 3.526(8) 164(5)
O1W H2W I1 2_647 0.880(14) 2.76(4) 3.504(7) 143(6)
loop_
_geom_torsion_atom_site_label_1
_geom_torsion_atom_site_label_2
_geom_torsion_atom_site_label_3
_geom_torsion_atom_site_label_4
_geom_torsion
O1 C1 C2 N1 12.5(8)
O2 C1 C2 N1 -168.8(5)
O1 C1 C2 C3 137.5(6)
O2 C1 C2 C3 -43.9(7)
N1 C2 C3 C4 64.3(7)
C1 C2 C3 C4 -58.3(7)
C2 C3 C4 O3 -27.3(8)
C2 C3 C4 N2 153.8(6)

_cod_database_fobs_code 2242682
