#------------------------------------------------------------------------------
#$Date: 2018-11-08 05:50:43 +0200 (Thu, 08 Nov 2018) $
#$Revision: 211854 $
#$URL: file:///home/coder/svn-repositories/cod/cif/2/24/27/2242707.cif $
#------------------------------------------------------------------------------
#
# This file is available in the Crystallography Open Database (COD),
# http://www.crystallography.net/. The original data for this entry
# were provided by IUCr Journals, http://journals.iucr.org/.
#
# The file may be used within the scientific community so long as
# proper attribution is given to the journal article from which the
# data were obtained.
#
data_2242707
loop_
_publ_author_name
'Salian, Akshatha R.'
'Foro, Sabine'
'Gowda, B. Thimme'
_publ_section_title
;
 Crystal structures and the Hirshfeld surface analysis of
 <i>(E)</i>-4-nitro-<i>N</i>'-(<i>o</i>-chloro, <i>o</i>- and
 <i>p</i>-methylbenzylidene)benzenesulfonohydrazides
;
_journal_coeditor_code           SU5460
_journal_issue                   12
_journal_name_full               'Acta Crystallographica Section E'
_journal_page_first              1710
_journal_page_last               1716
_journal_paper_doi               10.1107/S2056989018015207
_journal_volume                  74
_journal_year                    2018
_chemical_formula_iupac          'C13 H10 Cl N3 O4 S'
_chemical_formula_moiety         'C13 H10 Cl N3 O4 S'
_chemical_formula_sum            'C13 H10 Cl N3 O4 S'
_chemical_formula_weight         339.75
_chemical_name_systematic
;
(<i>E</i>)-<i>N</i>'-(2-Chlorobenzylidene)-4-nitrobenzenesulfonohydrazide
;
_space_group_crystal_system      monoclinic
_space_group_IT_number           4
_space_group_name_Hall           'P 2yb'
_space_group_name_H-M_alt        'P 1 21 1'
_symmetry_space_group_name_Hall  'P 2yb'
_symmetry_space_group_name_H-M   'P 1 21 1'
_atom_sites_solution_hydrogens   mixed
_atom_sites_solution_primary     direct
_atom_sites_solution_secondary   difmap
_audit_creation_method           SHELXL-2014/6
_cell_angle_alpha                90
_cell_angle_beta                 104.400(10)
_cell_angle_gamma                90
_cell_formula_units_Z            2
_cell_length_a                   4.9498(6)
_cell_length_b                   22.340(3)
_cell_length_c                   7.0003(9)
_cell_measurement_reflns_used    1264
_cell_measurement_temperature    293(2)
_cell_measurement_theta_max      27.68
_cell_measurement_theta_min      2.99
_cell_volume                     749.76(17)
_computing_cell_refinement
;
CrysAlis RED (Oxford Diffraction, 2009)
;
_computing_data_collection
;
CrysAlis CCD (Oxford Diffraction, 2009)
;
_computing_data_reduction
;
CrysAlis RED (Oxford Diffraction, 2009)
;
_computing_molecular_graphics
;
PLATON (Spek, 2009)
;
_computing_publication_material
;
SHELXL2014 (Sheldrick, 2015)
;
_computing_structure_refinement
;
SHELXL2014 (Sheldrick, 2015)
;
_computing_structure_solution
;
SHELXS2013 (Sheldrick, 2008)
;
_diffrn_ambient_temperature      293(2)
_diffrn_measured_fraction_theta_full 0.991
_diffrn_measured_fraction_theta_max 0.991
_diffrn_measurement_device_type
;
Oxford Diffraction Xcalibur single crystal X-ray diffractometer
with Sapphire CCD detector
;
_diffrn_measurement_method
;
Rotation method data acquisition using omega scans.
;
_diffrn_radiation_type           MoK\a
_diffrn_radiation_wavelength     0.71073
_diffrn_reflns_av_R_equivalents  0.0149
_diffrn_reflns_av_unetI/netI     0.0213
_diffrn_reflns_limit_h_max       5
_diffrn_reflns_limit_h_min       -3
_diffrn_reflns_limit_k_max       26
_diffrn_reflns_limit_k_min       -26
_diffrn_reflns_limit_l_max       7
_diffrn_reflns_limit_l_min       -8
_diffrn_reflns_number            4582
_diffrn_reflns_theta_full        25.242
_diffrn_reflns_theta_max         25.350
_diffrn_reflns_theta_min         3.004
_diffrn_source                   'Enhance (Mo) X-ray Source'
_exptl_absorpt_coefficient_mu    0.415
_exptl_absorpt_correction_T_max  0.952
_exptl_absorpt_correction_T_min  0.907
_exptl_absorpt_correction_type   multi-scan
_exptl_absorpt_process_details
;
(CrysAlis RED; Oxford Diffraction, 2009)
;
_exptl_crystal_colour            colourless
_exptl_crystal_density_diffrn    1.505
_exptl_crystal_description       prism
_exptl_crystal_F_000             348
_exptl_crystal_size_max          0.240
_exptl_crystal_size_mid          0.240
_exptl_crystal_size_min          0.120
_refine_diff_density_max         0.140
_refine_diff_density_min         -0.199
_refine_ls_abs_structure_details
;
Flack <i>x</i> determined using 1102 quotients
[(<i>I</i>^+^)-(<i>I</i>^-^)]/[(<i>I</i>^+^)+(<i>I</i>^-^)]
(Parsons <i>et al.</i>,  2013)
;
_refine_ls_abs_structure_Flack   0.05(3)
_refine_ls_extinction_method     none
_refine_ls_goodness_of_fit_ref   1.008
_refine_ls_hydrogen_treatment    mixed
_refine_ls_matrix_type           full
_refine_ls_number_parameters     202
_refine_ls_number_reflns         2696
_refine_ls_number_restraints     2
_refine_ls_restrained_S_all      1.008
_refine_ls_R_factor_all          0.0355
_refine_ls_R_factor_gt           0.0304
_refine_ls_shift/su_max          0.000
_refine_ls_shift/su_mean         0.000
_refine_ls_structure_factor_coef Fsqd
_refine_ls_weighting_details
'w=1/[\s^2^(Fo^2^)+(0.0489P)^2^+0.0544P] where P=(Fo^2^+2Fc^2^)/3'
_refine_ls_weighting_scheme      calc
_refine_ls_wR_factor_gt          0.0753
_refine_ls_wR_factor_ref         0.0778
_reflns_number_gt                2457
_reflns_number_total             2696
_reflns_threshold_expression     'I > 2\s(I)'
_cod_data_source_file            su5460sup1.cif
_cod_data_source_block           I
_cod_database_code               2242707
_shelx_space_group_comment
;
The symmetry employed for this shelxl refinement is uniquely defined
by the following loop, which should always be used as a source of
symmetry information in preference to the above space-group names.
They are only intended as comments.
;
_shelx_estimated_absorpt_t_min   0.907
_shelx_estimated_absorpt_t_max   0.952
_shelx_hkl_file
;
   0   0  -1 223.991 7.63137   3
   0   0  -2 3382.09 28.4608   5
   0   0  -2 3404.98 30.8153   3
   0   0  -3 1005.33 20.4190   5
   0   0  -3 1009.12 22.3547   3
   0   0  -4 5001.85 49.4166   5
   0   0  -4 4902.96 53.0460   3
   0   0  -5 2493.74 40.7531   5
   0   0  -5 2594.49 45.7860   3
   0   0  -6 3548.27 59.1832   3
   0   0  -7 96.9039 20.9687   3
   0   0  -8 237.837 26.7360   3
   0  -1  -1 5469.88 27.5570   3
   0   1  -1 5468.52 26.8303   3
   0  -1  -2 1522.15 21.2792   3
   0   1  -2 1517.45 18.3018   5
   0   1  -2 1456.00 20.3305   3
   0   1  -3 2236.73 31.0081   3
   0  -1  -3 2280.62 31.6555   3
   0   1  -3 2193.76 27.3591   5
   0  -1  -3 2203.09 29.6325   5
   0  -1  -4 2134.50 36.3017   3
   0   1  -4 2104.02 31.6751   5
   0  -1  -4 2123.89 34.0801   5
   0   1  -4 2105.89 35.8276   3
   0  -1  -5 343.320 23.2644   3
   0   1  -5 341.586 18.5163   5
   0  -1  -5 341.100 19.6286   5
   0   1  -5 383.488 23.3164   3
   0  -1  -6 2183.01 43.8035   5
   0   1  -6 2260.31 48.2980   3
   0  -1  -6 2202.25 48.1541   3
   0  -1  -7 62.3159 19.5203   3
   0   1  -7 86.4523 22.2397   3
   0  -1  -8 73.5311 20.4936   3
   0   1  -8 42.0865 22.1526   3
   0   2  -1 21684.3 48.7978   3
   0  -2   1 17145.8 59.8254   4
   0  -2  -2 237.707 11.1768   3
   0   2  -2 248.135 11.4107   3
   0   2  -2 257.067 8.91126   5
   0   2  -3 2586.79 28.1746   5
   0   2  -3 2508.32 32.6229   3
   0  -2  -3 2625.41 33.7390   3
   0  -2  -4 4128.24 49.1415   3
   0   2  -4 3977.22 41.0724   5
   0   2  -4 4055.79 48.0041   3
   0  -2  -4 4086.43 47.8029   5
   0  -2  -5 7838.21 73.4923   5
   0   2  -5 7875.94 66.2767   5
   0  -2  -5 7937.24 75.9773   3
   0   2  -5 7870.67 75.9629   3
   0  -2  -6 262.380 23.1807   3
   0  -2  -6 280.628 21.2610   5
   0   2  -6 232.513 24.2992   3
   0  -2  -7 545.118 31.1196   3
   0   2  -7 543.565 29.6349   3
   0   2  -8 8.45313 18.4779   3
   0  -2  -8 57.1292 21.1679   3
   0  -3   0 9.37014 5.91296   0
   0   3   0 3.89603 6.12993   0
   0  -3  -1 57260.3 401.072   3
   0  -3   1 57347.7 395.591   4
   0   3  -1 58051.0 379.933   3
   0   3  -2 28759.3 65.2415   5
   0  -3   2 28876.4 90.2696   4
   0   3  -2 29078.3 87.4744   3
   0  -3  -2 28824.1 90.9845   3
   0   3  -3 6524.18 41.7407   5
   0  -3  -3 6523.06 52.6720   3
   0   3  -3 6332.41 50.9688   3
   0  -3  -4 3624.12 46.5133   3
   0   3  -4 3592.92 37.8467   5
   0   3  -4 3576.92 45.1019   3
   0  -3  -4 3609.74 46.5001   5
   0   3  -5 2501.52 44.7735   3
   0  -3  -5 2466.03 44.5242   3
   0  -3  -5 2538.54 44.4656   5
   0  -3  -6 1825.31 42.4427   5
   0  -3  -6 1861.52 43.7230   3
   0   3  -6 1782.38 44.1759   3
   0   3  -7 657.353 30.8461   3
   0  -3  -7 719.838 32.3282   3
   0  -3  -8 160.847 25.6853   3
   0   3  -8 109.285 20.2821   3
   0  -4   0 17459.2 52.5596   2
   0  -4   0 17307.2 52.8943   0
   0   4   0 17647.1 54.2573   0
   0   4   0 18802.7 53.6312   3
   0  -4   1 27642.2 239.850   2
   0   4  -1 28374.3 71.6878   3
   0  -4  -1 27617.3 75.6289   3
   0  -4   1 27945.5 76.4494   4
   0  -4   2 17101.8 72.3174   4
   0  -4  -2 17128.7 72.9995   3
   0  -4   2 17125.8 54.9609   2
   0   4  -2 17013.6 68.3367   3
   0  -4   3 6215.07 53.2464   4
   0   4  -3 6203.19 38.0185   5
   0   4  -3 6121.32 50.8610   3
   0  -4  -3 6133.29 52.4874   3
   0  -4   4 529.857 22.4012   4
   0  -4  -4 560.400 22.0538   5
   0   4  -4 562.984 21.0994   3
   0  -4  -4 574.127 21.8011   3
   0   4  -4 591.465 15.5514   5
   0  -4  -5 1531.01 36.5753   5
   0   4  -5 1620.74 36.0697   3
   0  -4  -5 1664.55 37.8782   3
   0  -4   5 1612.75 37.1488   4
   0  -4  -6 2526.05 50.3958   5
   0   4  -6 2696.00 52.1805   3
   0  -4  -6 2650.43 51.5675   3
   0  -4  -7 161.694 25.4605   3
   0  -4  -7 224.502 22.4260   5
   0   4  -7 239.307 25.1562   3
   0   4  -8-6.32174 20.7862   3
   0  -4  -8 4.33796 22.6861   3
   0  -5   0 8.34738 9.26720   2
   0  -5   0 0.03698 9.91498   0
   0   5   0 6.55297 7.33224   3
   0   5   0 7.10308 9.93989   0
   0  -5   1 3395.37 24.4500   2
   0  -5   1 3354.81 30.8787   4
   0   5  -1 3361.73 27.6346   3
   0  -5   2 1323.70 23.3237   4
   0  -5  -2 1347.14 23.1683   3
   0  -5   2 1355.11 17.2579   2
   0   5  -2 1253.68 20.2576   3
   0   5  -3 17541.1 85.8826   3
   0   5  -3 17266.9 59.7103   5
   0  -5   3 17505.5 88.2181   4
   0  -5  -3 17658.6 90.0675   3
   0   5  -4 650.761 22.5036   3
   0  -5   4 716.869 26.3500   4
   0  -5  -4 661.828 23.2318   3
   0   5  -5 233.570 18.6870   3
   0  -5  -5 254.895 19.9836   3
   0  -5   5 212.469 22.2106   4
   0  -5  -5 220.215 19.9295   5
   0  -5  -6 1729.03 43.6498   5
   0   5  -6 1714.96 42.3041   3
   0  -5  -6 1685.40 43.1471   3
   0   5  -7 66.4125 21.0505   3
   0  -5  -7 55.6023 21.6115   3
   0  -5  -7 66.0344 17.0218   5
   0  -5  -8 109.138 23.6728   3
   0   5  -8 122.227 27.8984   3
   0   6   0 5704.83 39.6226   0
   0  -6   0 5824.03 38.4469   2
   0  -6   0 5758.48 38.4258   0
   0   6   0 5967.25 37.4138   3
   0   6  -1 38378.9 97.2360   3
   0  -6   1 38831.7 348.999   2
   0  -6  -1 37989.5 110.654   2
   0  -6  -1 38310.1 111.055   0
   0  -6   1 38032.9 106.780   4
   0   6  -2 7480.78 49.7190   3
   0  -6  -2 7239.28 51.7576   3
   0  -6   2 7488.69 40.6583   2
   0  -6   2 7293.51 52.2936   4
   0  -6   3 4302.00 45.8718   4
   0  -6   3 4416.69 35.0594   2
   0   6  -3 4437.46 28.8946   5
   0  -6  -3 4486.22 47.9374   3
   0   6  -3 4597.81 45.6735   3
   0   6  -4 1414.14 30.8932   3
   0  -6  -4 1358.35 31.8448   3
   0  -6   4 1392.93 32.5073   4
   0  -6  -5 1221.93 33.9598   3
   0  -6  -5 1207.17 34.7552   5
   0  -6   5 1129.82 33.9811   4
   0   6  -5 1243.80 32.7603   3
   0   6  -6 769.829 30.6392   3
   0  -6  -6 671.022 31.0603   3
   0  -6  -6 671.174 31.5942   5
   0  -6  -7 627.627 32.1605   3
   0  -6  -7 701.843 34.0149   5
   0   6  -7 688.911 33.7530   3
   0   6  -8 59.5250 21.7032   3
   0  -6  -8 12.2760 18.5956   3
   0  -7   0-1.64907 11.7923   0
   0   7   0 4.28189 7.92678   3
   0   7   0 24.0337 13.3138   0
   0  -7   0 0.32522 11.4166   2
   0   7  -1 1755.92 23.7930   3
   0  -7  -1 1740.22 28.0144   0
   0   7  -1 1685.03 22.7079   0
   0  -7  -1 1714.11 27.4681   2
   0  -7   1 1682.08 26.4681   4
   0  -7   1 1730.13 21.5904   2
   0  -7   2 22414.7 74.3924   2
   0   7  -2 22586.8 88.8823   3
   0  -7  -2 22581.8 94.3756   3
   0  -7   2 22397.7 94.5536   4
   0   7  -3 5235.97 49.0479   3
   0  -7   3 5408.57 39.4539   2
   0  -7  -3 5373.52 53.4064   3
   0  -7   3 5312.30 51.9925   4
   0   7  -4 1508.94 31.7934   3
   0  -7  -4 1597.24 34.7052   3
   0  -7   4 1493.42 33.6426   4
   0   7  -5 19.9292 15.2171   3
   0  -7   5 32.8404 19.4123   4
   0  -7  -5 40.6068 15.4483   3
   0  -7  -5 50.4331 17.5888   5
   0   7  -6 908.580 32.8547   3
   0  -7  -6 816.570 34.1480   5
   0  -7  -6 885.007 34.6620   3
   0   7  -7 851.037 35.2901   3
   0  -7  -7 899.974 38.4415   3
   0  -7  -7 899.131 37.2593   5
   0  -7  -8 261.170 27.4222   3
   0   7  -8 278.323 26.7528   3
   0   8   0 36156.7 105.102   3
   0  -8   0 36305.4 106.418   2
   0  -8   0 36049.0 107.549   0
   0   8   0 35772.5 111.046   0
   0  -8  -1 58.6873 15.2704   2
   0   8  -1 37.3460 9.37945   3
   0   8  -1 29.5766 10.7499   0
   0  -8  -1 54.5472 15.4544   0
   0  -8   1 56.7041 9.22467   2
   0   8  -2 8403.23 56.8275   3
   0  -8   2 8147.50 61.1385   4
   0  -8   2 8251.29 47.7930   2
   0  -8   3 195.028 18.1548   4
   0  -8   3 207.732 11.4010   2
   0   8  -3 189.399 12.2185   3
   0  -8  -3 200.144 16.0199   3
   0  -8  -4 452.185 22.1662   3
   0  -8   4 511.977 24.3327   4
   0   8  -4 461.420 20.3589   3
   0   8  -5 219.362 18.9748   3
   0  -8   5 251.336 22.6613   4
   0  -8  -5 244.245 20.9161   3
   0  -8  -5 255.956 22.9183   5
   0  -8  -6 1396.48 42.2434   3
   0  -8  -6 1386.54 42.6267   5
   0   8  -6 1293.99 37.5639   3
   0  -8  -7 339.319 27.8006   3
   0   8  -7 322.144 26.9289   3
   0  -8  -7 279.863 26.1860   5
   0   8  -8 247.671 26.6599   3
   0  -8  -8 244.482 28.6366   5
   0  -8  -8 205.864 25.7616   3
   0   9   0 54.5786 10.0876   3
   0  -9   0 33.0561 13.4222   0
   0   9   0 95.8028 5.86362   1
   0   9   0 129.958 16.1404   0
   0  -9   0 32.3269 13.4056   2
   0   9  -1 3560.12 35.7552   0
   0  -9   1 3497.69 34.4800   2
   0  -9  -1 3604.85 42.0781   2
   0  -9  -1 3591.89 42.4335   0
   0   9  -1 3592.11 36.5554   3
   0  -9   2 3056.31 31.1577   2
   0  -9  -2 3052.68 42.0535   0
   0  -9   2 3035.65 41.1594   4
   0  -9  -2 3068.15 43.3557   2
   0   9  -2 3058.20 36.4122   3
   0  -9   3 8846.83 71.5518   4
   0  -9  -3 9405.30 74.5986   3
   0  -9   3 8977.23 54.1129   2
   0   9  -3 8469.90 63.7479   3
   0  -9  -4 91.3006 16.1306   3
   0   9  -4 93.7779 14.8582   3
   0  -9   4 82.3269 20.4994   4
   0  -9  -5 1130.59 35.2174   3
   0  -9   5 1112.89 34.4221   4
   0   9  -5 1174.73 33.5187   3
   0  -9  -5 1164.02 37.3011   5
   0  -9  -6 199.694 23.9745   5
   0  -9  -6 172.925 21.0554   3
   0   9  -6 207.522 21.3843   3
   0  -9  -7 96.2248 23.4211   5
   0  -9  -7 69.7819 20.5124   3
   0   9  -7 87.3735 20.5299   3
   0   9  -8 130.042 25.8748   3
   0  -9  -8 168.163 25.5118   3
   0  -9  -8 193.137 26.3901   5
   0 -10   0 4030.68 41.9706   0
   0  10   0 4023.39 40.5400   3
   0  10   0 3951.29 23.0917   1
   0 -10   0 4149.31 42.3295   2
   0  10   0 4051.35 43.9091   0
   0  10  -1 3613.57 38.6788   3
   0 -10  -1 3618.42 44.2273   2
   0 -10   1 3535.51 36.3592   2
   0  10   1 3590.47 40.1776   3
   0 -10  -1 3646.16 45.0118   0
   0  10  -1 3573.67 38.4652   0
   0 -10   2 890.404 26.5082   4
   0 -10  -2 960.469 29.3777   2
   0 -10  -2 916.352 28.7519   0
   0 -10   2 901.547 18.9311   2
   0  10  -2 893.634 21.8688   3
   0  10  -3 1865.21 33.2399   3
   0 -10   3 2031.02 28.2117   2
   0 -10   3 1976.23 38.0056   4
   0  10  -4 1049.42 29.5052   3
   0 -10  -4 1143.64 32.5846   3
   0 -10   4 1094.65 33.7305   4
   0 -10  -5 1040.26 36.8756   5
   0 -10  -5 978.508 33.3395   3
   0  10  -5 1013.16 31.8785   3
   0 -10   5 944.481 33.1592   4
   0 -10  -6 288.759 26.5847   3
   0 -10  -6 305.754 26.3457   5
   0  10  -6 274.160 22.2046   3
   0 -10  -7 332.044 28.9787   3
   0 -10  -7 508.814 33.5173   5
   0  10  -7 323.580 24.4700   3
   0 -10  -8 128.642 27.3646   5
   0  10  -8 72.4665 20.5546   3
   0 -11   0-0.08443 14.2493   0
   0  11   0 67.3248 16.7012   0
   0 -11   0 5.18402 13.4555   2
   0  11   0 45.0339 11.4037   3
   0  11   0 25.4071 5.23123   1
   0 -11  -1 1557.62 32.9772   0
   0  11  -1 1499.23 28.6404   0
   0  11   1 1450.72 21.7492   1
   0  11  -1 1509.34 27.4099   3
   0  11   1 1448.38 28.0887   3
   0 -11   1 1540.98 26.5745   2
   0 -11  -1 1559.49 32.8919   2
   0  11  -2 5403.22 51.7346   3
   0  11  -2 5542.43 47.6415   0
   0 -11   2 5417.11 45.4627   2
   0 -11  -2 5507.59 60.3909   2
   0 -11  -2 5533.33 61.1051   0
   0 -11   2 5386.40 57.6332   4
   0 -11   3 169.343 11.9115   2
   0 -11  -3 189.995 26.6845   2
   0  11  -3 139.934 14.4296   3
   0 -11   3 168.874 20.3689   4
   0 -11   4 6355.98 70.2263   4
   0  11  -4 6663.60 67.1441   3
   0 -11  -4 6972.28 73.9455   3
   0 -11  -5 125.372 21.0918   3
   0 -11  -5 104.319 20.8776   5
   0  11  -5 88.8054 17.6013   3
   0 -11   5 120.931 22.2142   4
   0 -11  -6 92.3321 20.0507   3
   0 -11  -6 136.318 23.8343   5
   0  11  -6 100.501 19.0023   3
   0 -11  -7 193.987 26.3596   5
   0 -11  -7 140.771 24.1027   3
   0  11  -7 191.152 23.2534   3
   0 -11  -8 69.4837 25.0565   5
   0  11  -8 69.8029 23.2265   3
   0 -12   0 6603.12 58.4445   0
   0 -12   0 6669.48 58.5234   2
   0  12   0 6686.81 57.3336   3
   0  12   0 6547.55 31.6393   1
   0 -12  -1 3209.41 45.5095   2
   0  12  -1 3349.88 42.2301   0
   0 -12  -1 3281.60 44.9012   0
   0  12   1 3314.20 42.6093   3
   0  12  -1 3257.69 40.6009   3
   0 -12   1 3225.77 38.9656   2
   0  12   1 3330.43 32.1810   1
   0 -12   2 353.330 15.0155   2
   0 -12  -2 379.183 24.6202   2
   0  12  -2 395.572 18.5082   3
   0  12  -2 365.830 17.7472   0
   0 -12  -3 1698.59 43.1591   2
   0 -12   3 1623.30 38.0766   4
   0  12  -3 1530.36 32.4554   3
   0 -12   3 1555.09 27.2453   2
   0  12  -4 60.9009 15.3735   3
   0 -12  -4 99.2452 29.4375   2
   0 -12   4 41.1951 22.3398   4
   0 -12  -5 316.902 24.1466   3
   0 -12   5 235.018 22.8662   4
   0  12  -5 298.679 21.8792   3
   0 -12  -5 326.174 31.1437   2
   0 -12  -6 441.354 35.6302   2
   0 -12  -6 402.752 29.3573   3
   0 -12  -6 385.054 30.4581   5
   0  12  -6 366.800 26.4590   3
   0 -12  -7 117.460 24.2276   5
   0  12  -7 111.382 25.1654   3
   0 -12  -7 116.787 26.9373   2
   0 -12  -7 95.3350 21.1338   3
   0  12  -8-2.91836 19.1363   3
   0  13   0 87.2548 13.7300   3
   0 -13   0 39.0550 16.4828   2
   0  13  -1 439.650 19.1593   3
   0  13   1 385.802 13.6146   1
   0  13   1 381.681 19.1695   3
   0  13  -1 402.172 20.5570   0
   0 -13   1 387.079 18.3411   2
   0 -13  -1 451.645 24.9905   2
   0  13  -2 871.286 24.3416   0
   0 -13   2 866.399 22.0301   2
   0  13  -2 868.264 24.8914   3
   0 -13  -2 970.038 33.4997   2
   0  13  -3 2048.38 38.2422   3
   0 -13  -3 2231.18 48.5025   2
   0 -13   3 2123.31 43.6609   4
   0  13  -4 551.761 22.4430   3
   0 -13  -4 704.636 36.7647   2
   0 -13   4 621.635 30.8910   4
   0  13  -5 463.928 25.9333   3
   0 -13  -5 565.463 36.2770   2
   0 -13   5 306.623 23.7189   4
   0 -13  -6 155.316 29.0237   2
   0  13  -6 102.822 18.5938   3
   0 -13  -6 101.810 22.8762   5
   0 -13  -6 118.110 20.8698   3
   0  13  -7 137.623 21.5876   3
   0 -13  -7 139.991 23.6769   3
   0 -13  -7 107.802 25.4473   5
   0 -13  -7 113.368 26.1937   2
   0  14   0 3812.25 48.3259   3
   0 -14   0 3898.09 49.9064   2
   0  14   1 4582.87 38.7894   1
   0  14   1 4796.89 55.5088   3
   0 -14   1 4807.59 51.2773   2
   0  14  -1 4835.01 54.1857   0
   0  14  -1 4809.53 53.0237   3
   0 -14  -1 4779.44 58.4522   2
   0 -14  -2 1063.11 36.4070   2
   0  14  -2 937.096 26.3324   3
   0  14   2 1004.10 24.7511   1
   0  14  -2 1025.31 28.4893   0
   0 -14   2 931.129 23.7798   2
   0 -14  -3 304.793 29.3830   2
   0  14  -3 222.881 17.7829   3
   0  14  -4 829.799 26.7123   3
   0 -14  -4 1022.33 40.5564   2
   0 -14   4 978.989 36.2536   4
   0 -14   5 341.263 24.2170   4
   0 -14  -5 487.796 34.8392   2
   0  14  -5 426.670 24.5199   3
   0 -14  -6 227.082 33.4836   2
   0  14  -6 151.989 21.3590   3
   0 -14  -6 306.680 27.8116   5
   0  14  -7 275.387 25.5882   3
   0 -14  -7 139.340 25.9586   5
   0 -14  -7 216.407 30.2564   2
   0  15   0 45.9213 12.6482   3
   0 -15   0 17.5165 18.7298   2
   0  15  -1 90.7140 16.0247   3
   0 -15   1 60.0529 15.6921   2
   0 -15  -1 57.1796 22.2978   2
   0  15  -1 110.494 21.2968   0
   0  15   1 50.5457 15.8382   3
   0  15  -2 6552.08 63.5427   0
   0  15   2 6512.57 69.5675   3
   0  15  -2 6333.59 64.0387   3
   0  15   2 6638.71 57.2128   1
   0 -15   2 6510.76 59.3813   2
   0 -15  -2 6765.55 76.7507   2
   0  15  -3 947.198 29.3096   3
   0 -15  -3 993.563 39.2520   2
   0  15  -4 767.977 28.1218   3
   0 -15   4 1005.86 36.6873   4
   0 -15  -4 965.707 39.4430   2
   0 -15  -5 121.670 28.9685   2
   0  15  -5 82.8488 18.4355   3
   0 -15  -6 15.1624 25.3167   2
   0 -15  -6 23.9476 20.3461   5
   0  15  -6 24.6538 15.2204   3
   0 -15  -7 266.903 32.1461   2
   0 -15  -7 190.477 28.0072   5
   0  15  -7 248.234 22.8964   3
   0 -16   0 594.037 26.2010   2
   0  16   0 572.326 23.8236   3
   0 -16  -1-5.15963 21.5995   2
   0  16  -1 18.8175 14.2701   3
   0  16   1 53.8487 15.8796   3
   0 -16   1 19.2959 15.0046   2
   0  16   2 401.872 23.1676   3
   0 -16  -2 479.223 32.1670   2
   0  16  -2 411.623 21.7812   3
   0 -16   2 392.052 19.8626   2
   0  16   3 705.085 26.5054   1
   0 -16  -3 791.038 37.9654   2
   0  16  -3 644.426 26.7263   3
   0 -16  -4 457.375 33.7219   2
   0  16  -4 452.262 23.6147   3
   0  16  -5 25.5542 16.8049   3
   0 -16  -5 93.5033 28.4611   2
   0 -16  -6 84.5388 21.5232   5
   0 -16  -6 75.2331 31.2659   2
   0  16  -6 46.5857 20.3272   3
   0  16  -7 82.5533 21.9780   3
   0 -16  -7 32.6135 27.0564   2
   0  17   0 40.5929 13.5300   3
   0 -17   0 12.0595 17.2202   2
   0  17  -1 1275.95 32.5435   3
   0 -17  -1 1368.23 39.6490   2
   0  17   1 1304.58 34.6158   3
   0 -17   1 1369.17 33.6666   2
   0  17  -2 407.952 22.0483   3
   0  17   2 430.664 24.3209   3
   0 -17   2 436.882 21.2551   2
   0 -17  -2 428.222 31.4782   2
   0  17  -3 5275.52 65.8676   3
   0 -17  -3 5574.31 79.3177   2
   0  17   4 10.9341 19.7347   1
   0 -17  -4 36.6638 26.2473   2
   0  17  -4 49.0346 16.8999   3
   0  17  -5 311.108 22.3566   3
   0 -17  -5 361.112 33.6084   2
   0 -17  -5 331.008 29.3184   5
   0 -17  -6 61.0376 23.0563   5
   0  17   6 47.8575 23.7984   1
   0  17  -6 46.1412 18.6879   3
   0 -17  -6 49.2571 26.5152   2
   0 -17  -7-20.5355 25.5146   2
   0  17   7-13.8324 29.5825   1
   0 -18   0 1118.41 33.9794   2
   0  18   0 1083.43 32.3286   3
   0 -18  -1 493.545 30.3794   2
   0  18  -1 448.966 23.8677   3
   0 -18   1 526.927 24.2246   2
   0  18   1 499.778 24.9307   3
   0  18  -2 154.953 18.4874   3
   0 -18  -2 128.846 27.9999   2
   0 -18   2 146.634 18.0685   2
   0  18   2 187.865 21.7264   3
   0 -18  -3 239.524 30.2846   2
   0  18   3 265.959 24.7396   3
   0  18  -3 272.256 22.0572   3
   0 -18  -4 775.692 41.4898   2
   0  18  -4 667.441 28.3006   3
   0  18   5 97.2282 25.2752   1
   0  18  -5 57.6035 17.2286   3
   0 -18  -5 93.5635 31.4182   2
   0 -18  -5 71.0088 23.3189   5
   0  18  -6 137.166 20.9476   3
   0 -18  -6 96.7773 24.8216   5
   0 -18  -6 47.6695 31.4621   2
   0  18   6 56.7226 26.4660   1
   0  19   0 7.93726 14.6711   3
   0 -19   0 31.5438 19.3573   2
   0  19  -1 195.798 20.1487   3
   0 -19   1 222.169 21.0838   2
   0 -19  -1 207.965 26.3778   2
   0  19   1 199.920 21.1199   3
   0  19  -2 2091.95 44.0086   3
   0 -19  -2 2089.81 51.7580   2
   0  19   2 2164.45 47.2561   3
   0 -19  -3 173.856 31.1325   2
   0  19   3 132.137 21.7560   3
   0  19  -3 120.929 18.7366   3
   0  19  -4 1253.06 37.7494   3
   0 -19  -4 1443.17 50.6992   2
   0 -19  -5 56.2901 29.7674   2
   0  19  -5 52.6376 18.5924   3
   0 -19  -5 86.4720 22.5593   5
   0  19   6-7.67309 22.2386   1
   0 -19  -6-3.69073 25.8871   2
   0  19  -6 42.4190 19.6960   3
   0 -19  -6 19.4000 21.6967   5
   0 -20   0 358.336 24.6461   2
   0  20   0 273.788 22.3620   3
   0  20   1 899.714 32.8709   3
   0  20  -1 873.433 31.2233   3
   0 -20  -1 940.864 37.7167   2
   0 -20   1 858.102 30.3043   2
   0  20   2 63.2156 19.3047   3
   0 -20  -2 17.8935 27.1910   2
   0  20  -2 61.3341 17.3841   3
   0  20  -3 39.8317 16.2291   3
   0 -20  -3 39.2558 26.0743   2
   0  20   3 53.6817 21.0393   3
   0  20  -4 9.97114 16.1633   3
   0 -20  -4 39.7571 28.3706   2
   0  20   4 48.0889 22.2158   3
   0 -20  -5 126.645 34.0196   2
   0  20  -5 102.176 20.3281   3
   0 -20  -5 182.033 28.8573   5
   0 -20  -6 98.4768 35.2614   2
   0 -21   0 14.5212 19.3145   2
   0  21   0 0.52133 15.8069   3
   0  21   1 762.030 31.6336   3
   0 -21  -1 690.253 35.5656   2
   0 -21   1 715.907 29.9575   2
   0  21  -1 728.670 29.8468   3
   0 -21  -2 127.113 26.6781   2
   0  21  -2 121.351 20.0309   3
   0  21   2 127.837 21.5600   3
   0  21   3 886.335 36.5377   3
   0  21  -3 874.264 33.1867   3
   0 -21  -3 901.349 43.3342   2
   0 -21  -4 136.491 32.9821   2
   0  21   4 121.411 24.5413   3
   0  21  -4 76.5590 15.6219   3
   0 -21  -5 67.8390 22.9593   5
   0 -21  -5 79.9890 31.7230   2
   0  21  -5 53.7931 17.8190   3
   0  22   0 484.798 27.5030   3
   0 -22   0 506.741 29.6545   2
   0 -22  -1 439.939 30.0019   2
   0 -22   1 404.845 24.8427   2
   0  22  -1 384.531 24.8757   3
   0  22   1 424.887 28.1396   3
   0  22  -2 302.331 22.4522   3
   0 -22  -2 339.865 33.2595   2
   0  22   2 286.882 24.9904   3
   0 -22  -3 166.124 28.5579   2
   0  22  -3 194.850 22.9205   3
   0  22   3 224.963 25.7101   3
   0 -22  -4 124.386 31.4236   2
   0  22  -4 172.419 21.9063   3
   0  22   4 146.381 26.0687   3
   0 -22  -5 366.218 42.0984   2
   0 -22  -5 537.737 38.8189   5
   0  22  -5 309.034 24.7110   3
   0  22   5 398.786 34.3261   3
   0 -23   0 17.6846 20.2722   2
   0  23   0 12.2402 17.2211   3
   0  23   1 380.663 25.7958   3
   0 -23   1 389.359 27.4801   2
   0  23  -1 389.519 25.7952   3
   0 -23  -1 392.658 30.3247   2
   0 -23  -2 69.6684 27.1830   2
   0  23  -2 57.4952 17.8483   3
   0  23   2 83.1575 19.2017   3
   0  23   3 51.0580 19.8568   3
   0  23  -3 41.1506 17.9623   3
   0 -23  -3-6.13000 27.8891   2
   0  23   4 242.238 29.7132   3
   0 -23  -4 236.242 37.7379   2
   0  23  -4 211.830 24.1595   3
   0 -23  -4 270.194 29.8756   5
   0 -24   0 391.935 30.0619   2
   0  24   0 382.621 27.3616   3
   0  24   1 157.923 24.0600   3
   0 -24  -1 169.845 26.1362   2
   0  24  -1 168.349 19.5759   3
   0 -24   1 169.664 22.7160   2
   0 -24  -2 24.7575 26.5020   2
   0  24  -2 41.6061 18.9271   3
   0  24   2 21.5407 19.0158   3
   0 -24  -3 143.487 28.0293   2
   0  24  -3 118.652 20.8581   3
   0  24   3 140.772 24.5373   3
   0  24  -4 97.9680 20.3884   3
   0 -24  -4 4.78653 23.1215   5
   0 -24  -4 60.2246 33.1456   2
   0  24   4 73.1985 21.4281   3
   0 -25   0 43.8300 21.9333   2
   0  25   0 47.2288 19.6419   3
   0  25  -1 186.353 24.9004   3
   0  25   1 219.377 26.0509   3
   0 -25  -1 230.022 26.3946   2
   0  25  -2 21.2226 16.2350   3
   0  25   2-3.07006 17.5973   3
   0 -25  -2 18.7251 27.9235   2
   0 -25  -3 240.253 36.2467   2
   0  25  -3 228.564 25.0528   3
   0  25   3 225.455 30.3983   3
   0  25  -4 38.4779 17.3164   3
   0 -25  -4 28.2403 26.4828   5
   0  26   0 407.668 28.9213   3
   0 -26   0 380.009 31.6489   2
   0 -26  -1 48.6819 22.9523   2
   0  26   1 66.6658 20.1345   3
   0  26  -1 53.3092 17.6109   3
   0 -26  -2 130.236 26.6028   2
   0  26   2 100.246 25.5089   3
   0  26  -2 132.645 20.5426   3
   0  26  -3-4.27876 18.5557   3
   0  26   3 27.1300 20.6644   3
   0 -26  -3 13.0877 31.5452   2
   0 -26  -3-2.52372 24.3920   5
   0 -27   0 41.1111 20.9197   2
   0  27   0 30.0527 19.9002   3
   0 -27  -1 11.5418 25.0560   2
   0  27   1 9.08170 23.2865   3
   0  27  -1 1.98754 17.2560   3
   0  27   2 217.581 27.6885   3
   0 -27  -2 282.034 32.9071   2
   0  27  -2 164.033 21.5699   3
   0  27  -3 16.2970 17.9156   3
   0 -28   0 173.228 25.4821   2
   0  28   0 143.598 25.0196   3
   0  28   1 204.384 28.2770   3
   0  28  -1 148.282 22.0777   3
   0 -28  -1 182.462 28.3588   2
   0  28  -2 51.8312 22.2344   3
   1   0  -8 129.911 24.8143   3
   1   0  -7 559.033 32.6843   3
   1   0  -6 930.643 30.1137   5
   1   0  -6 978.280 33.9743   3
   1   0  -5 76.5015 13.5874   5
   1   0  -5 73.3593 17.0233   3
   1   0  -4 30.1749 13.8243   3
   1   0  -4 57.2667 10.9499   2
   1   0  -4 51.7961 9.71578   0
   1   0  -4 34.6315 11.7050   5
   1   0  -3 91.4956 11.9838   3
   1   0  -3 104.086 8.49085   0
   1   0  -3 97.4463 11.2084   5
   1   0  -3 117.792 8.65902   2
   1   0  -2 1633.05 22.8635   3
   1   0  -2 1701.87 24.6133   5
  -1   0   2 1670.40 16.0921   0
   1   0  -1 624.561 14.3486   5
   1   0  -1 632.728 14.3424   1
   1   0  -1 616.353 11.0500   3
   1   0   0 69016.0 443.098   1
   1   0   0 68141.2 450.382   2
  -1   0  -1 15868.8 45.5343   3
   1   0   1 15625.1 62.4431   1
   1   0   2 23745.4 91.8993   1
  -1   0  -2 23847.2 77.7184   3
  -1   0  -3 1232.75 24.0647   3
   1   0   3 1258.04 27.9181   1
  -1   0  -4 1806.32 33.0958   3
  -1   0  -5 927.504 29.7050   3
  -1   0  -6 376.024 23.7873   3
  -1   0  -7 107.034 19.0125   3
   1   0   7 52.6738 25.2782   1
   1   0   8 19.8528 23.0240   1
   1  -1  -8 57.1160 23.8042   3
   1   1  -8 46.8396 21.4140   3
   1   1  -7 133.254 22.0360   3
   1  -1  -7 104.114 20.3055   3
   1  -1  -6 269.744 24.8100   3
   1  -1  -6 258.336 20.4767   5
   1   1  -6 203.007 22.3061   3
   1   1  -6 225.861 18.9313   5
   1  -1  -5 631.351 23.7229   5
   1   1  -5 663.751 26.3606   3
   1  -1  -5 644.920 25.9950   3
   1   1  -5 652.712 22.9215   5
   1   1  -4 5773.58 54.7236   5
   1  -1  -4 5737.12 57.4858   3
   1  -1  -4 5635.04 43.1355   2
   1   1  -4 5690.70 57.0378   3
   1  -1  -4 5808.66 56.8290   5
   1  -1  -4 5571.27 43.1476   0
   1  -1  -3 3015.52 36.6844   3
   1   1  -3 3234.81 37.4396   3
   1  -1  -3 3079.93 27.4228   2
   1  -1  -3 3028.93 36.8915   5
   1   1  -3 3252.16 22.6177   0
   1  -1  -3 3045.82 27.9035   0
   1   1  -3 3158.38 21.7547   2
   1   1  -3 3227.89 36.4819   5
   1  -1  -2 16848.2 73.0111   5
   1   1  -2 16628.0 70.1190   5
   1   1  -2 16583.0 68.4153   3
   1  -1  -2 16533.9 66.7239   3
   1  -1  -2 16455.4 51.5392   2
  -1   1   2 16394.3 53.6363   0
   1  -1  -1 8883.17 35.0928   3
   1  -1  -1 8805.92 35.9497   2
   1  -1  -1 8956.53 42.4814   1
   1   1  -1 8250.99 35.1265   3
   1   1  -1 8770.82 42.8511   1
   1  -1  -1 8897.68 45.6198   5
   1  -1   0 24109.6 68.6640   2
   1   1   0 23976.2 67.9980   1
   1  -1   0 24193.2 63.7772   1
   1  -1   1 12844.9 54.0375   1
  -1  -1  -1 13078.6 44.8587   3
   1   1   1 12662.5 57.7985   1
   1  -1   2 1203.77 22.6217   1
   1   1   2 1089.64 23.3026   1
  -1   1  -2 1109.90 17.9414   3
  -1  -1  -2 1175.94 18.9466   3
   1  -1   3 3466.95 42.3350   1
  -1   1  -3 3604.70 38.2668   3
   1   1   3 3511.97 44.1015   1
  -1  -1  -3 3425.62 38.1132   3
  -1  -1  -4 2412.99 37.7658   3
  -1   1  -4 2437.66 37.6369   3
  -1   1  -5 5450.02 62.7599   3
  -1  -1  -5 5632.15 64.4521   3
  -1  -1  -6 1139.71 34.0989   3
  -1   1  -6 1082.19 33.9364   3
  -1  -1  -7 227.390 22.9257   3
   1  -1   7 238.122 28.6591   1
  -1   1  -7 243.184 22.1653   3
   1   1   7 256.071 29.6143   1
   1   1   8 5.58261 24.0573   1
   1  -1   8 11.6888 20.8976   1
   1   2  -8 669.718 35.3042   3
   1  -2  -8 646.458 36.0921   3
   1  -2  -7 36.8353 16.8074   5
   1   2  -7 18.9137 21.6507   3
   1  -2  -7 31.3772 20.0948   3
   1   2  -6 3059.21 48.9168   5
   1  -2  -6 3200.82 56.0585   3
   1   2  -6 3104.17 55.7561   3
   1  -2  -6 3079.60 52.4993   5
   1  -2  -5 468.619 22.5886   5
   1   2  -5 460.241 23.6030   3
   1  -2  -5 469.822 23.6237   3
   1   2  -5 441.912 19.7644   5
   1   2  -4 517.577 20.5937   3
   1  -2  -4 569.319 18.0471   0
   1  -2  -4 554.273 21.7783   5
   1   2  -4 543.908 18.9407   5
   1  -2  -4 552.737 21.4906   3
   1  -2  -4 546.994 17.9453   2
   1  -2  -3 12626.0 72.8076   3
   1   2  -3 12755.4 73.3162   3
   1  -2  -3 13305.6 77.5144   5
   1  -2  -3 12444.1 58.8245   2
   1   2  -3 12970.0 69.6772   5
   1   2  -3 12608.0 36.5227   0
  -1  -2   3 12875.2 48.9417   4
   1  -2  -3 12621.1 59.5144   0
   1   2  -2 19166.6 74.7202   3
  -1   2   2 19359.7 65.4465   0
   1   2  -2 19531.8 75.9925   5
   1  -2  -2 19930.3 81.3203   5
   1  -2  -2 19470.6 62.9455   2
   1  -2  -2 19472.3 73.2438   3
   1  -2  -1 11893.8 53.5970   5
   1  -2  -1 11930.6 41.1005   3
   1   2  -1 12223.2 49.8584   1
   1  -2  -1 12002.5 49.4075   1
   1  -2  -1 11916.0 46.3576   2
   1   2  -1 12000.7 46.5440   3
   1   2   0 13545.6 42.8190   3
   1  -2   0 13624.1 47.2420   1
   1  -2   0 13278.5 53.8724   2
   1  -2   0 14553.4 57.9776   4
   1   2   0 13560.3 53.2094   1
   1  -2   1 1005.69 16.3731   1
   1   2   1 968.122 18.4240   1
   1  -2   1 1001.30 19.0798   2
  -1  -2  -2 2199.04 26.1777   3
  -1   2  -2 2046.14 23.1289   3
   1  -2   2 2165.48 27.8343   1
   1   2   2 2033.11 30.0618   1
   1   2   3 5262.50 54.1144   1
  -1   2  -3 5519.38 46.6242   3
  -1  -2  -3 5285.79 47.8449   3
   1  -2   3 5286.07 50.7225   1
  -1   2  -4 2893.66 40.7145   3
  -1  -2  -4 2865.80 41.3296   3
  -1  -2  -5 6417.08 68.8237   3
  -1   2  -5 6323.69 67.3682   3
  -1  -2  -6 212.587 20.9312   3
  -1   2  -6 208.958 20.8412   3
   1   2   7 47.2922 23.5419   1
  -1  -2  -7 49.7741 17.6082   3
  -1   2  -7 12.7649 17.0149   3
   1  -2   7 47.3679 20.1702   1
   1   2   8 10.0624 22.1704   1
   1  -2   8 22.4040 18.4127   1
  -1  -2  -8 19.9175 18.1934   3
   1   3  -8 79.4113 22.2760   3
   1  -3  -8 101.420 28.1102   3
   1  -3  -7 206.151 18.6768   5
   1  -3  -7 191.995 21.4668   3
   1   3  -7 216.247 26.9056   3
   1  -3  -6 307.432 25.1461   3
   1  -3  -6 311.569 22.3503   5
   1   3  -6 300.439 26.0735   3
   1   3  -5 377.325 21.6322   3
   1  -3  -5 382.068 20.1581   2
   1  -3  -5 300.650 21.4695   3
   1   3  -5 374.661 18.3765   5
   1  -3  -5 355.704 21.6106   5
   1  -3  -4 3584.09 39.2286   2
   1  -3  -4 3903.95 50.3591   5
   1   3  -4 3770.26 47.8346   3
   1   3  -4 3747.14 42.4428   5
   1  -3  -4 3554.87 39.4808   0
  -1  -3   4 3829.54 37.1789   4
   1  -3  -4 3641.87 46.6911   3
   1   3  -3 5185.75 44.6782   5
   1  -3  -3 5272.40 42.2885   0
   1  -3  -3 5830.51 54.2152   5
   1  -3  -3 5310.71 47.9009   3
   1  -3  -3 5140.54 41.3702   2
  -1  -3   3 5304.11 32.6427   4
   1   3  -3 5075.92 47.7525   3
   1  -3  -2 1538.07 21.6963   2
   1   3  -2 1513.43 22.5793   3
   1  -3  -2 1540.26 22.5250   3
  -1   3   2 1674.09 23.3201   0
   1  -3  -2 1557.93 25.2305   5
   1   3  -1 33761.9 83.3525   3
   1  -3  -1 33273.9 282.876   3
   1  -3  -1 32980.8 331.476   2
   1   3  -1 33954.3 83.4678   1
   1  -3  -1 33437.5 91.7563   5
   1  -3  -1 33352.7 82.1745   1
   1   3   0 1141.26 17.7200   1
   1  -3   0 1038.47 14.1149   1
   1  -3   0 1009.88 14.8921   5
   1  -3   0 1055.56 19.0246   4
   1  -3   0 998.479 17.1043   2
   1   3   0 1111.82 15.1056   3
   1   3   1 698.753 17.8310   1
   1  -3   1 733.507 19.5782   4
   1  -3   1 743.875 13.9554   1
   1  -3   1 738.761 17.8681   2
   1   3   2 980.939 22.5124   1
  -1   3  -2 979.297 16.6526   3
   1  -3   2 959.042 19.2597   1
  -1  -3  -2 961.964 19.2411   3
  -1  -3  -3 2268.32 32.7751   3
  -1   3  -3 2181.84 30.3953   3
   1  -3   3 2241.16 33.8689   1
   1   3   3 2158.13 36.8553   1
  -1   3  -4 540.330 20.6251   3
  -1  -3  -4 483.813 20.5099   3
  -1   3  -5 77.8201 18.0287   3
  -1  -3  -5 102.906 18.2424   3
  -1   3  -6 110.177 18.3897   3
  -1  -3  -6 109.958 19.0814   3
   1   3   7 230.298 28.0796   1
   1  -3   7 168.595 25.8021   1
  -1  -3  -7 209.016 21.8186   3
  -1   3  -7 243.857 22.9387   3
   1   3   8 198.795 27.8520   1
   1  -3   8 169.486 24.4330   1
  -1  -3  -8 197.571 23.5723   3
   1  -4  -8 58.2049 21.4138   3
   1   4  -8 2.15901 21.2940   3
   1  -4  -7 1242.57 41.6138   3
   1  -4  -7 1206.50 38.6897   5
   1   4  -7 1212.42 41.3593   3
   1  -4  -6 482.577 27.2289   3
   1  -4  -6 441.085 27.1723   5
   1   4  -6 479.406 26.7091   3
   1  -4  -5 908.122 26.7786   2
   1  -4  -5 872.419 29.2658   3
   1  -4  -5 870.023 29.9052   5
   1   4  -5 847.346 24.1921   5
   1   4  -5 857.759 28.7179   3
   1  -4  -4 828.710 25.2412   3
   1  -4  -4 844.531 23.1737   0
  -1  -4   4 798.913 19.1033   4
   1  -4  -4 921.004 27.6402   5
   1   4  -4 839.944 21.0139   5
   1   4  -4 909.677 26.5647   3
   1  -4  -4 853.505 23.3770   2
   1   4  -3 7954.44 59.8643   3
   1  -4  -3 7793.50 54.1376   0
   1  -4  -3 7971.27 58.9084   3
   1  -4  -3 8186.25 64.5002   5
  -1  -4   3 7764.04 41.5885   4
   1   4  -3 8105.29 54.5754   5
   1  -4  -3 7872.03 53.8963   2
  -1   4   2 1848.55 26.4471   0
   1  -4  -2 1785.65 28.1323   5
   1  -4  -2 1671.27 23.5766   3
   1  -4  -2 1657.59 24.1518   2
   1   4  -2 1701.14 24.3535   3
   1  -4  -1 106739. 669.196   5
   1  -4  -1 109230. 546.924   3
   1   4  -1 108341. 606.075   1
   1   4  -1 108267. 637.647   3
   1  -4  -1 108860. 652.902   2
   1  -4   0 6623.21 31.1584   1
   1   4   0 6650.92 39.2260   1
   1   4   0 6528.54 37.5528   3
   1  -4   0 6507.34 41.5655   2
   1  -4   0 6563.10 33.9790   5
   1  -4   0 6713.17 44.4946   4
   1  -4   1 4977.71 30.8739   1
   1  -4   1 5173.16 40.0922   2
   1   4   1 5167.96 40.7370   1
  -1   4  -1 4774.24 24.7147   3
   1  -4   1 5243.93 46.4280   4
   1   4   2 3054.86 38.1083   1
   1  -4   2 3121.83 31.1370   1
  -1   4  -2 2965.73 28.1472   3
  -1  -4  -2 3066.63 33.1469   3
   1  -4   2 3023.13 34.9350   2
   1  -4   2 3017.28 41.4865   4
   1  -4   3 2513.94 34.6364   1
  -1  -4  -3 2619.35 36.0195   3
  -1   4  -3 2537.56 32.4872   3
   1   4   3 2652.62 41.2061   1
  -1   4  -4 4107.90 47.9733   3
  -1  -4  -4 4122.73 50.8002   3
  -1  -4  -5 1175.03 34.0912   3
  -1   4  -5 1221.59 33.1919   3
  -1   4  -6 621.808 66.6704   3
  -1  -4  -6 578.062 28.1789   3
  -1  -4  -7 239.769 23.6799   3
   1   4   7 269.621 31.2727   1
   1  -4   7 150.585 24.3504   4
   1  -4   7 179.610 23.0372   1
   1   4   8 128.236 31.1406   1
  -1  -4  -8 69.6769 19.3464   3
   1  -5  -8 25.3271 18.9904   5
   1   5  -8 36.3534 22.1677   3
   1  -5  -8 35.8972 18.2998   3
   1  -5  -7 517.790 29.7067   3
   1  -5  -7 518.532 30.1850   5
   1   5  -7 532.788 29.5792   3
   1   5  -6 529.755 26.9545   3
   1  -5  -6 517.739 27.6903   3
   1  -5  -6 577.062 29.7591   5
   1  -5  -5 599.335 25.3570   2
   1   5  -5 587.013 25.5209   3
   1  -5  -5 626.943 26.2840   3
   1   5  -5 612.428 20.8651   5
   1  -5  -5 630.275 27.3960   5
   1  -5  -5 378.756 18.7596   0
   1  -5  -4 2570.11 40.5130   3
   1  -5  -4 2567.03 37.8689   2
   1   5  -4 2531.30 40.9602   3
   1  -5  -4 2531.92 37.6967   0
   1   5  -4 2547.09 34.7823   5
   1  -5  -4 2761.45 44.4124   5
  -1  -5   4 2526.35 31.1275   4
   1   5  -3 1439.08 27.2422   3
   1  -5  -3 1586.67 27.8717   0
   1  -5  -3 1651.58 31.8056   5
   1  -5  -3 1534.56 27.8728   3
   1  -5  -3 1552.84 27.9967   2
  -1  -5   3 1551.48 21.1819   4
   1  -5  -2 2302.31 32.2900   5
   1  -5  -2 2275.73 29.5712   2
  -1   5   2 2305.01 30.6895   0
   1  -5  -2 2239.40 27.7452   3
   1  -5  -2 2217.43 29.4386   0
   1   5  -2 2252.61 29.2455   3
   1   5  -2 2257.01 26.6516   1
   1  -5  -1 72442.7 477.089   3
   1   5  -1 73628.0 505.592   1
   1  -5  -1 73459.6 577.438   2
   1   5  -1 72538.1 557.421   3
   1  -5  -1 73592.9 576.189   5
   1   5   0 4358.30 33.6665   3
   1   5   0 4481.05 33.5388   1
   1  -5   0 4425.73 36.2579   2
   1  -5   0 4338.96 24.7419   1
   1  -5   0 4433.66 28.7855   5
   1  -5   0 4482.42 39.3477   4
  -1   5   0 4452.28 24.0796   3
   1  -5   1 1609.36 24.7736   2
  -1   5  -1 1347.31 15.1271   3
   1   5   1 1364.06 22.7004   1
   1  -5   1 1416.48 27.2998   4
   1  -5   1 1482.72 16.7935   1
  -1   5  -2 8359.36 47.3666   3
   1   5   2 8224.96 61.2443   1
   1  -5   2 8383.84 48.2124   1
   1  -5   2 8364.43 57.4573   2
   1  -5   2 9445.48 76.1242   4
   1  -5   3 3168.98 48.6976   4
  -1   5  -3 3011.11 35.1487   3
   1  -5   3 3081.38 37.0121   1
  -1  -5  -3 3042.86 39.6803   3
   1   5   3 3023.62 44.4545   1
   1  -5   4 873.009 34.0045   4
  -1   5  -4 881.400 24.0296   3
  -1  -5  -4 889.963 26.9418   3
  -1   5  -5 1627.76 36.8760   3
  -1  -5  -5 1600.54 38.7327   3
   1  -5   5 1670.37 45.2774   4
   1  -5   6 315.316 23.9221   1
  -1   5  -6 373.200 23.5261   3
   1   5   6 391.884 29.2585   1
   1  -5   6 360.528 30.4075   4
  -1  -5  -6 373.484 24.8407   3
   1  -5   7 212.445 25.1610   4
  -1  -5  -7 403.698 27.8541   3
   1   5   7 385.795 33.8514   1
  -1  -5  -8-7.17051 18.6991   3
   1  -6  -8 671.558 35.4047   3
   1  -6  -8 680.176 33.5377   5
   1   6  -8 664.486 37.5166   3
   1   6  -7 746.452 33.6585   3
   1  -6  -7 758.089 35.3385   3
   1  -6  -7 788.216 35.8523   5
   1  -6  -6 1557.72 41.0521   3
   1   6  -6 1616.76 40.1887   3
   1  -6  -6 1660.28 44.0841   5
   1  -6  -5 385.303 23.4496   3
   1   6  -5 439.510 23.5327   3
   1  -6  -5 440.223 23.8269   2
   1  -6  -5 440.458 24.5190   5
   1  -6  -4 90.6599 17.5203   0
   1  -6  -4 98.5126 17.6534   2
   1  -6  -4 108.384 16.0124   5
   1  -6  -4 94.3979 14.6699   3
   1   6  -4 91.6587 14.7409   3
  -1  -6   4 81.0134 11.7290   4
   1   6  -3 2871.55 35.7510   3
  -1  -6   3 3012.61 30.3379   4
   1  -6  -3 3065.51 38.8958   3
   1  -6  -3 3136.86 43.3572   5
   1  -6  -3 3040.04 38.8527   0
   1  -6  -3 3032.62 38.8805   2
  -1   6   2 10981.9 66.5600   0
   1  -6  -2 10623.8 63.3746   2
   1  -6  -2 10519.4 63.6894   0
   1  -6  -2 10433.7 59.3979   3
   1  -6  -2 10613.4 67.5171   5
   1   6  -2 10534.9 63.1805   3
   1   6  -2 10923.6 55.1945   1
   1  -6  -1 4617.96 38.9312   5
   1   6  -1 4576.26 33.3159   1
   1   6  -1 4495.16 38.3383   3
  -1   6   1 4717.05 41.5109   0
   1  -6  -1 4535.97 39.7324   2
  -1   6   0 3700.34 25.2858   3
   1  -6   0 3653.21 38.1935   4
   1   6   0 3646.68 33.4525   3
   1   6   0 3653.26 31.0559   1
   1  -6   0 3526.63 22.0194   1
   1  -6   0 3520.13 26.8082   5
   1  -6   0 3676.19 35.0780   2
   1  -6   1 5238.78 28.5561   1
   1   6   1 5311.80 43.1831   1
  -1   6  -1 5165.55 31.4696   3
   1  -6   1 5281.80 43.8562   2
   1  -6   1 5285.42 49.3355   4
  -1   6  -2 5750.45 40.6460   3
   1  -6   2 5949.99 49.7241   2
   1   6   2 5789.86 52.5870   1
   1  -6   2 5797.18 39.3138   1
   1  -6   2 5824.87 58.3500   4
   1  -6   3 9458.88 81.8202   4
   1  -6   3 9078.50 66.1809   2
  -1   6  -3 8873.12 60.8496   3
  -1  -6  -3 9184.54 69.2026   3
   1  -6   3 9081.41 60.1598   1
   1   6   3 9287.23 75.0226   1
   1  -6   4 281.768 28.4535   4
  -1  -6  -4 300.751 18.9974   3
   1   6   4 322.275 25.9800   1
   1  -6   4 281.824 18.5178   1
  -1   6  -4 269.619 15.7635   3
  -1  -6  -5 1359.75 36.7989   3
  -1   6  -5 1426.03 34.7989   3
   1  -6   5 1401.48 45.6261   4
  -1   6  -6 411.113 23.0242   3
  -1  -6  -6 418.242 25.4833   3
   1   6   6 376.768 31.7586   1
   1  -6   6 370.908 33.4019   4
   1   6   7 34.0014 23.2492   1
  -1  -6  -7 27.8113 20.2312   3
  -1  -6  -8-53.0496 18.7886   3
   1   7  -8 103.660 25.5670   3
   1  -7  -8 92.4048 23.9017   3
   1  -7  -8 137.390 24.5982   5
   1   7  -7 256.168 24.5769   3
   1  -7  -7 260.096 25.2634   3
   1  -7  -7 249.395 27.0442   5
   1   7  -6 606.396 29.8592   3
   1  -7  -6 596.513 30.9893   5
   1  -7  -6 568.273 28.7785   3
   1  -7  -5 1413.73 36.0803   2
   1  -7  -5 1453.29 36.7161   3
   1  -7  -5 1510.54 40.0320   5
   1   7  -5 1476.68 37.0787   3
  -1  -7   4 290.554 15.9300   4
   1  -7  -4 323.238 21.2981   0
   1  -7  -4 302.475 18.7923   3
   1  -7  -4 344.441 21.7830   5
   1  -7  -4 341.585 22.0294   2
   1   7  -4 328.173 19.2007   3
   1   7  -3 5664.67 52.1273   3
   1  -7  -3 5916.01 54.0980   3
   1  -7  -3 5765.67 54.4846   0
  -1  -7   3 5736.74 44.0603   4
   1  -7  -3 5966.95 59.8532   5
   1  -7  -3 5841.01 54.3485   2
  -1  -7   2 739.479 10.8898   2
   1   7  -2 757.184 16.6906   1
   1  -7  -2 781.823 21.9792   2
   1  -7  -2 751.531 19.2757   3
   1  -7  -2 736.101 21.3951   5
   1  -7  -2 732.582 22.0591   0
  -1   7   2 823.959 23.0691   0
   1   7  -2 749.660 19.7210   3
   1  -7  -1 7225.04 52.6950   2
  -1   7   1 7316.17 54.0531   0
   1  -7  -1 7230.89 49.6814   5
   1   7  -1 7107.13 50.2391   3
   1   7  -1 7125.06 41.3371   1
   1   7   0 9048.17 49.0614   1
  -1   7   0 8977.11 43.2792   3
   1  -7   0 8911.93 61.6698   4
   1  -7   0 9121.05 57.3129   2
   1  -7   0 8917.47 43.8953   5
   1   7   0 9067.83 54.9893   3
   1  -7   0 8813.31 33.4308   1
  -1   7  -1 4112.83 30.2939   3
   1  -7   1 4206.48 24.2276   1
   1  -7   1 4147.86 40.4902   2
   1   7   1 4116.44 39.2211   1
   1  -7   1 4132.63 45.9841   4
   1  -7   2 4887.50 46.0354   2
   1  -7   2 4846.21 54.1298   4
   1   7   2 4818.14 49.3762   1
   1  -7   2 4869.48 34.6081   1
  -1   7  -2 4281.56 35.2381   3
  -1   7  -3 1788.15 29.0434   3
   1  -7   3 1762.67 31.3985   2
   1   7   3 1832.10 37.2184   1
  -1  -7  -3 1729.52 32.7207   3
   1  -7   3 1679.26 38.1440   4
   1  -7   3 1783.63 27.5011   1
   1   7   4 3224.32 53.0038   1
  -1   7  -4 3125.49 42.5885   3
  -1  -7  -4 3148.08 47.5580   3
   1  -7   4 3132.88 41.8822   1
   1  -7   4 3250.62 55.7577   4
   1   7   5 1404.91 42.6869   1
  -1  -7  -5 1414.42 37.4040   3
   1  -7   5 1416.30 43.4473   4
  -1   7  -5 1320.98 32.3351   3
   1  -7   6 295.937 31.4572   4
  -1  -7  -6 315.747 24.7880   3
   1   7   6 269.303 29.7655   1
   1   7   7 66.5256 28.3718   1
  -1  -7  -7 50.3333 19.7506   3
  -1  -7  -8 189.297 24.4127   3
   1  -8  -8 94.5123 26.3967   3
   1   8  -8 67.6300 19.9863   3
   1  -8  -8 8.19067 20.9555   5
   1   8  -7 1773.34 48.0499   3
   1  -8  -7 1748.72 51.2036   5
   1  -8  -7 1732.68 49.0426   3
   1  -8  -6 302.391 24.1312   5
   1  -8  -6 269.006 24.3777   3
   1   8  -6 277.592 24.1951   3
   1  -8  -5 931.753 33.3634   5
   1  -8  -5 860.978 30.6836   3
   1   8  -5 919.711 29.7963   3
   1  -8  -5 901.228 31.8941   2
  -1  -8   4 340.356 17.7403   4
   1  -8  -4 323.707 23.9705   2
   1   8  -4 323.042 19.6446   3
   1  -8  -4 306.985 19.2831   3
   1  -8  -4 323.839 21.0850   5
   1  -8  -3 862.885 23.7187   3
   1   8  -3 893.410 24.3615   3
   1  -8  -3 833.893 25.9563   5
   1  -8  -3 887.459 26.6423   0
   1  -8  -3 892.765 26.6578   2
   1  -8  -2 19317.1 94.7599   0
   1   8  -2 18735.8 89.9831   3
   1  -8  -2 19091.2 93.6889   2
  -1  -8   2 19347.9 57.6530   2
   1   8  -2 19288.9 73.3865   1
   1  -8  -2 19147.7 87.7693   3
  -1   8   2 19730.2 98.1542   0
   1  -8  -2 19499.0 96.7867   5
   1   8  -1 12554.8 55.1913   1
   1   8  -1 12863.5 70.0355   3
  -1  -8   1 12238.8 58.7312   0
   1  -8  -1 12460.0 67.1236   5
   1  -8  -1 12323.6 71.2387   2
  -1   8   1 13078.8 74.8757   0
  -1  -8   1 12311.3 58.4696   2
  -1   8   0 1569.45 20.4775   3
   1   8   0 1522.78 25.1897   3
   1  -8   0 1567.60 29.2959   4
   1  -8   0 1581.58 20.4215   5
   1   8   0 1583.06 22.6781   1
   1  -8   0 1527.15 27.0372   2
   1  -8   1 3805.95 21.3704   1
   1   8   1 3992.98 39.1980   1
   1  -8   1 3788.53 46.1053   4
  -1   8  -1 3971.62 32.1549   3
   1   8   1 3952.06 40.9813   3
   1  -8   1 3865.27 40.3890   2
   1   8   2 6017.45 55.2226   1
   1  -8   2 6079.04 36.7466   1
  -1   8  -2 5746.08 42.9449   3
   1  -8   2 6126.25 52.6104   2
   1  -8   2 6070.42 61.6997   4
  -1   8  -3 766.006 20.4155   3
   1  -8   3 768.371 23.0618   2
   1  -8   3 756.939 18.5578   1
   1   8   3 844.392 28.5515   1
   1  -8   3 716.939 29.4518   4
  -1   8  -4 2168.83 37.0334   3
   1  -8   4 2061.36 47.2919   4
   1   8   4 2289.44 46.8418   1
  -1  -8  -4 2223.05 42.1410   3
  -1   8  -5 20.1746 13.7432   3
   1  -8   5 21.5111 24.0368   4
  -1  -8  -5 42.7301 17.0410   3
   1   8   5 48.7965 24.8558   1
  -1  -8  -6 244.309 22.6571   3
   1   8   6 237.497 27.8727   1
   1  -8   6 185.567 28.9632   4
  -1  -8  -7 118.503 20.2411   3
  -1  -8  -7 82.7587 19.7473   5
   1   8   7 97.4590 25.8387   1
   1  -9  -8 100.138 24.5587   5
   1   9  -8 159.272 26.4810   3
   1  -9  -8 142.711 23.9923   3
   1  -9  -7 195.083 26.7894   5
   1   9  -7 214.656 25.2486   3
   1  -9  -7 211.390 26.0657   3
   1   9  -6 614.698 30.9655   3
   1  -9  -6 589.043 31.0133   3
   1  -9  -6 400.692 25.3397   2
   1  -9  -6 585.689 32.0751   5
   1   9  -5 1352.48 36.5032   3
   1  -9  -5 1290.85 36.5605   3
   1  -9  -5 1314.31 37.2457   2
   1  -9  -5 1306.48 39.5968   5
   1  -9  -4 3419.08 51.0292   2
   1   9  -4 3336.03 48.4111   3
  -1  -9   4 3269.72 41.8051   4
   1  -9  -4 3635.82 55.6265   5
   1  -9  -4 3387.02 49.7002   3
   1   9  -3 333.066 18.5057   3
   1  -9  -3 305.940 21.1431   0
   1  -9  -3 318.340 17.6043   3
   1  -9  -3 357.068 20.2519   5
   1  -9  -3 332.520 21.9684   2
   1  -9  -2 421.853 21.1563   2
   1  -9  -2 430.159 19.1847   5
   1   9  -2 379.953 13.2464   1
   1   9  -2 404.609 17.4109   3
  -1   9   2 441.705 22.4743   0
  -1  -9   2 394.384 11.2276   2
   1  -9  -1 9360.60 60.5934   5
   1   9  -1 9490.12 49.0944   1
   1   9  -1 9383.68 63.5580   3
  -1   9   1 9772.68 68.7429   0
  -1  -9   1 9569.09 55.6253   0
  -1  -9   1 9459.74 54.3984   2
   1  -9  -1 9355.97 65.2228   2
   1   9   0 1428.60 21.8300   1
  -1   9   0 1440.29 21.3350   3
   1  -9   0 1407.62 26.5502   2
   1  -9   0 1398.94 20.4790   5
   1   9   0 1435.20 26.4555   3
   1   9   1 4379.62 41.5481   1
   1   9   1 4230.97 44.8496   3
   1  -9   1 4420.49 44.5127   2
   1  -9   1 4287.71 51.0419   4
  -1   9  -1 4312.76 35.8577   3
   1  -9   2 623.594 12.6089   1
   1  -9   2 652.320 20.9121   2
   1   9   2 667.394 22.9537   1
   1  -9   2 593.358 25.6498   4
  -1   9  -2 622.744 16.9814   3
   1   9   3 83.5584 19.6029   1
  -1   9  -3 87.8230 11.4252   3
   1  -9   3 120.059 21.4503   4
   1  -9   3 92.8644 13.6637   2
   1   9   4 8.74910 20.2885   1
   1  -9   4 7.55443 21.6240   4
  -1   9  -4 4.21986 11.6703   3
   1   9   5 568.113 32.4399   1
   1  -9   5 476.269 32.1508   4
  -1  -9  -5 560.693 27.7528   3
  -1   9  -5 476.247 22.7838   3
  -1  -9  -6 365.652 25.3389   3
   1   9   6 369.301 32.8753   1
   1  -9   6 438.684 34.1118   4
   1   9   7 154.676 30.2490   1
  -1  -9  -7 165.115 22.0833   3
  -1  -9  -7 142.290 24.0103   5
   1 -10  -8 197.603 25.1769   3
   1  10  -8 200.203 26.4336   3
   1 -10  -8 217.995 26.1503   5
   1 -10  -7 147.156 25.2438   3
   1  10  -7 155.028 24.0571   3
   1 -10  -7 133.264 26.3260   5
   1  10  -6 892.118 35.2557   3
   1 -10  -6 852.069 36.8661   5
   1 -10  -6 626.964 31.3231   2
   1 -10  -6 829.771 34.8770   3
   1 -10  -5 320.043 27.1573   2
   1  10  -5 330.813 22.5241   3
   1 -10  -5 328.812 23.9904   3
   1 -10  -5 310.515 26.6439   5
   1 -10  -4 199.047 21.7795   5
   1 -10  -4 165.741 17.2534   3
   1  10  -4 189.254 18.4042   3
   1 -10  -4 180.240 22.9174   2
   1  10  -3 4973.54 55.4964   3
   1 -10  -3 4910.91 58.8046   5
   1 -10  -3 4840.31 53.5891   3
   1 -10  -3 4683.50 56.3603   2
   1  10  -2 4740.62 36.8538   1
   1  10  -2 4909.42 50.5148   3
  -1  10   2 4957.84 54.9603   0
  -1 -10   2 4761.28 35.6265   2
   1 -10  -2 5015.56 53.0627   5
   1 -10  -2 4797.98 53.1102   2
  -1  10   1 1456.29 31.7863   0
   1  10  -1 1446.68 20.5371   1
   1 -10  -1 1425.66 29.2511   2
  -1 -10   1 1428.54 24.9516   2
   1 -10  -1 1440.21 26.3486   5
   1  10  -1 1460.19 28.1147   3
  -1 -10   1 1404.04 24.6908   0
   1  10   0 7671.36 48.5416   1
   1  10   0 7550.14 59.3717   3
   1 -10   0 7489.43 59.8092   2
  -1  10   0 7649.28 50.7412   3
   1 -10   0 7429.47 46.9962   5
  -1  10  -1 3892.00 36.5157   3
   1  10   1 4021.90 40.8042   1
   1 -10   1 3910.75 43.7025   2
   1 -10   1 3906.68 50.8173   4
   1  10   1 3893.06 45.0178   3
   1 -10   2 6303.40 56.7660   2
  -1  10  -2 6303.74 49.7021   3
   1  10   2 6370.38 58.4116   1
   1 -10   2 6223.34 67.0001   4
  -1  10  -3 637.872 19.8307   3
   1 -10   3 647.333 22.2895   2
   1  10   3 717.524 27.7796   1
   1 -10   3 614.599 30.4580   4
   1 -10   4 730.354 34.2667   4
  -1  10  -4 766.625 24.7715   3
   1 -10   4 754.116 25.5510   2
   1  10   4 817.311 32.6961   1
  -1  10  -5 812.186 27.5228   3
   1 -10   5 756.437 35.5144   4
   1  10   5 804.135 36.0189   1
   1 -10   6 305.480 32.0363   4
  -1 -10  -6 315.145 26.2066   3
   1  10   6 293.311 30.5804   1
  -1 -10  -7 36.5992 19.8115   3
   1  10   7 33.1862 27.5407   1
  -1 -10  -7 28.4453 18.6282   5
   1 -11  -8 136.099 27.5644   5
   1  11  -8 163.834 28.2826   3
   1 -11  -8 68.7717 25.8482   3
   1  11  -7 6.21373 18.3084   3
   1 -11  -7 16.2081 22.3813   3
   1 -11  -7 23.4757 21.4880   5
   1  11  -6 156.213 21.1609   3
   1 -11  -6 182.150 26.4675   2
   1 -11  -6 182.335 22.6007   3
   1 -11  -6 214.628 25.9535   5
   1 -11  -5 1831.12 43.5173   3
   1  11  -5 1732.21 41.7179   3
   1 -11  -5 1761.54 46.6307   5
   1 -11  -5 1822.87 44.8666   2
   1 -11  -4 1546.50 36.3730   3
   1 -11  -4 1713.49 41.7198   5
   1 -11  -4 1572.18 40.2866   2
   1  11  -4 1308.22 29.8259   3
   1  11  -3 2338.61 40.1049   3
   1 -11  -3 2280.42 43.2473   2
   1 -11  -3 2307.79 43.0184   5
   1  11  -2 4906.23 52.6283   3
   1 -11  -2 4962.12 54.6131   5
   1 -11  -2 4955.31 56.3876   2
  -1 -11   2 4976.49 38.8465   2
   1  11  -2 4886.61 37.4646   1
  -1  11   1 2389.42 40.3110   0
  -1 -11   1 2325.36 32.9838   0
   1  11  -1 2360.77 36.0150   3
   1  11  -1 2290.12 25.4054   1
  -1  11   1 2439.79 32.5997   3
  -1 -11   1 2259.37 31.7483   2
   1 -11  -1 2230.40 33.0602   5
   1 -11  -1 2348.94 37.8821   2
   1 -11   0 2219.31 35.5061   2
   1  11   0 1876.21 25.6468   1
   1  11   0 1850.12 32.6701   3
  -1  11   0 1975.94 28.2414   3
  -1  11   0 1832.19 33.2917   0
   1 -11   0 1912.38 25.8581   5
   1  11   1 2769.60 40.1859   3
   1 -11   1 2786.70 46.3290   4
  -1  11  -1 2604.43 31.9342   3
   1  11   1 2752.49 35.2274   1
   1 -11   1 2785.68 38.9674   2
  -1  11  -2 1468.18 26.3577   3
   1 -11   2 1441.30 37.5507   4
   1  11   2 1591.37 31.9347   1
   1 -11   2 1494.67 30.4517   2
   1  11   3 518.916 25.4492   1
   1 -11   3 499.856 21.1609   2
   1 -11   3 510.562 30.0521   4
  -1  11  -3 417.395 16.9289   3
   1 -11   4 262.572 27.1104   4
   1  11   4 258.683 24.8473   1
  -1  11  -4 253.635 17.2043   3
   1  11   5 461.075 30.2325   1
   1 -11   5 394.530 30.0357   4
   1  11   6 416.744 32.3009   1
   1 -11   6 457.307 33.2292   4
   1  11   7 23.1069 24.4737   1
  -1 -11  -7-38.6416 20.8333   5
   1  12  -8 177.641 25.1978   3
   1 -12  -8 167.027 28.3392   5
   1  12  -7 207.247 25.6335   3
   1 -12  -7 175.656 24.2646   3
   1 -12  -7 268.956 28.2974   5
   1 -12  -6 53.4840 20.9367   5
   1 -12  -6 53.8343 24.4990   2
   1  12  -6 39.4111 19.7658   3
   1 -12  -6 35.6477 21.1326   3
   1  12  -5 848.530 31.8394   3
   1 -12  -5 839.478 31.5825   3
   1 -12  -5 849.010 35.7926   2
   1 -12  -5 936.664 36.7566   5
   1  12  -4 2008.96 40.7451   3
   1 -12  -4 2243.40 43.9073   3
   1 -12  -4 2117.18 47.4568   5
   1 -12  -4 2169.87 47.8229   2
   1  12  -3 185.821 17.7334   3
   1 -12  -3 135.362 22.7895   2
   1 -12  -3 182.738 19.5262   5
   1  12  -2 224.416 17.7125   3
   1 -12  -2 205.488 17.3763   5
   1  12  -2 213.740 10.7597   1
   1 -12  -2 214.873 21.8945   2
  -1 -12   2 202.756 11.8972   2
  -1 -12   1 4486.03 45.1001   2
   1  12  -1 4570.46 50.8531   3
   1 -12  -1 4536.23 53.2455   2
  -1 -12   1 4370.62 44.6215   0
   1  12  -1 4347.09 35.1048   1
  -1  12   1 4495.30 46.2883   3
   1 -12  -1 4403.56 46.9371   5
  -1  12   0 1317.91 25.0842   3
   1  12   0 1276.42 21.8853   1
   1  12   0 1318.70 29.7655   3
  -1 -12   0 1355.28 31.3806   2
  -1 -12   0 1374.10 31.8601   0
  -1  12   0 1329.74 31.8066   0
   1 -12   0 1327.29 29.9307   2
   1 -12   0 1253.77 22.2644   5
   1  12   1 4751.64 46.2662   1
  -1  12  -1 4682.13 44.7378   3
   1 -12   1 4607.42 59.4533   4
   1 -12   1 4646.07 51.1504   2
   1  12   1 4584.42 53.1285   3
  -1  12  -2 2308.00 33.3357   3
   1 -12   2 2367.42 38.5784   2
   1 -12   2 2304.68 47.4152   4
   1  12   2 2361.47 38.5480   1
   1  12   3 197.460 20.4320   1
  -1  12  -3 169.341 12.8018   3
   1 -12   3 206.585 25.8419   4
   1 -12   3 190.878 16.8137   2
  -1  12  -4 414.729 20.0417   3
   1  12   4 435.399 26.8477   1
   1 -12   4 382.217 29.7117   4
   1  12   5 358.057 28.6105   1
   1 -12   5 313.066 29.0204   4
   1  12   6 537.716 33.8588   1
   1 -12   6 501.255 33.8206   4
   1  12   7 106.359 28.8188   1
  -1 -12  -7 44.5408 22.9425   5
   1 -13  -7 21.4916 24.1660   3
   1  13  -7 41.4386 18.5859   3
   1 -13  -7 92.6208 24.1599   5
   1  13  -6 274.098 25.7192   3
   1 -13  -6 222.515 22.6373   3
   1 -13  -6 236.456 28.6655   2
   1 -13  -6 281.323 27.1556   5
   1 -13  -5 8.33908 17.0241   3
   1 -13  -5-3.91770 18.5932   5
   1 -13  -5 0.11904 23.9621   2
   1  13  -5-3.39198 17.1067   3
   1  13  -4 5979.80 69.1685   3
   1 -13  -4 6118.98 77.4117   5
   1 -13  -4 5980.53 74.2268   2
   1 -13  -3 155.755 22.8145   2
   1 -13  -3 185.431 19.9592   5
   1  13  -3 154.245 18.3811   3
  -1 -13   2 2092.38 29.7197   2
   1 -13  -2 2077.07 38.9510   5
   1  13  -2 2209.52 39.0002   3
   1 -13  -2 2052.59 42.3194   2
   1  13  -1 2434.59 27.1418   1
   1 -13  -1 2655.62 43.4503   2
  -1 -13   1 2469.00 36.0865   0
   1  13  -1 2533.18 40.8162   3
  -1 -13   1 2512.96 36.6772   2
   1 -13  -1 2470.79 37.2423   5
  -1  13   1 2558.93 37.0737   3
   1  13   0 3153.24 45.4684   3
  -1  13   0 3199.52 39.3255   3
   1 -13   0 3230.67 45.2498   2
  -1 -13   0 3252.98 44.9557   2
   1 -13   0 3149.75 35.4664   5
  -1 -13   0 3241.70 45.9404   0
   1  13   0 3160.41 33.9654   1
   1 -13   1 4198.23 50.6213   2
   1  13   1 4215.86 44.0658   1
  -1  13  -1 4083.71 44.0023   3
   1  13   1 4134.82 52.9863   3
   1  13   2 1806.10 37.8371   3
   1 -13   2 1859.05 35.5354   2
   1 -13   2 1808.77 44.6028   4
  -1  13  -2 1819.83 31.3401   3
   1  13   2 1798.85 34.7050   1
   1 -13   3 465.697 21.3265   2
  -1  13  -3 413.458 18.4384   3
   1 -13   3 456.158 30.4102   4
   1  13   3 455.315 25.3761   1
  -1  13  -4 656.124 24.4884   3
   1  13   4 664.900 32.2463   1
   1 -13   4 603.299 33.1048   4
   1 -13   5 256.855 28.0060   4
   1  13   5 279.710 27.2787   1
   1  13   6 34.2136 22.7249   1
   1 -13   6 48.9526 23.2952   4
  -1 -13  -7 523.822 36.1195   5
   1  13   7 643.992 42.7204   1
   1 -14  -7 32.9331 20.4432   3
   1 -14  -7 84.4087 23.4365   5
   1  14  -7 87.9437 22.3917   3
   1 -14  -6 250.226 28.5146   2
   1  14  -6 176.369 24.7389   3
   1 -14  -6 291.150 26.7361   3
   1 -14  -6 268.244 29.3136   5
   1 -14  -5 169.215 28.0184   2
   1  14  -5 126.933 19.8561   3
   1 -14  -5 210.351 24.9841   5
   1  14  -4 2383.36 46.6997   3
   1 -14  -4 2528.88 53.3694   5
   1 -14  -4 2401.69 51.1485   2
   1 -14  -3 38.7587 17.0922   5
   1 -14  -3 17.6340 22.7855   2
   1  14  -3 25.1906 16.7945   3
  -1 -14   2 697.683 19.9829   2
   1 -14  -2 663.183 30.5082   2
   1 -14  -2 621.760 24.6512   5
   1  14  -2 666.504 25.0543   3
   1 -14  -1 78.4159 12.7762   5
   1 -14  -1 88.1327 19.6545   2
  -1 -14   1 62.7124 15.8954   2
  -1  14   1 61.4104 12.5435   3
   1  14  -1 82.9408 15.6822   3
  -1 -14   1 67.6832 14.5162   0
  -1 -14   0 1702.68 36.3837   2
   1  14   0 1741.62 35.9697   3
  -1  14   0 1684.42 31.0522   3
   1 -14   0 1730.67 36.7287   2
   1 -14   0 1339.34 24.9003   5
   1  14   0 1722.17 26.5906   1
   1  14   1 1190.95 32.0507   3
   1 -14   1 1228.51 31.0106   2
  -1  14  -1 1237.87 26.7189   3
  -1 -14  -1 1243.97 36.9272   2
   1  14   1 1242.82 26.3508   1
   1 -14   2 1359.42 32.3539   2
  -1  14  -2 1277.38 28.2582   3
   1  14   2 1329.98 31.0068   1
   1  14   2 1316.21 34.5559   3
   1 -14   2 1313.87 40.5296   4
   1 -14   3 2264.12 51.7719   4
   1 -14   3 2259.14 40.9237   2
  -1  14  -3 2215.00 37.5701   3
   1  14   3 2488.17 45.9734   1
   1  14   4 87.2283 22.6005   1
   1 -14   4 45.6690 23.4852   4
   1  14   5 124.567 24.8786   1
   1 -14   5 110.127 28.6904   4
   1  14   6 59.5983 23.9129   1
   1 -14   6 38.9676 24.2707   4
  -1 -14  -7 24.8358 25.5065   5
   1  15  -7 1.43112 22.0034   3
   1 -15  -7 49.8149 25.9591   5
   1 -15  -6 4.69955 23.9023   2
   1 -15  -6 71.8609 23.3431   5
   1  15  -6 36.1991 20.1790   3
   1  15  -5 1271.41 37.6424   3
   1 -15  -5 1474.19 46.6883   5
   1 -15  -5 1474.34 45.6883   2
   1 -15  -4 175.555 23.0501   5
   1 -15  -4 150.576 25.0784   2
   1  15  -4 144.002 18.6508   3
   1 -15  -3 2963.97 53.2073   5
   1 -15  -3 2984.93 55.6016   2
   1  15  -3 3066.75 51.1017   3
  -1  15   2 189.228 17.0706   3
   1  15  -2 152.535 17.9849   3
   1 -15  -2 200.753 18.6880   5
   1 -15  -2 198.036 23.5264   2
  -1  15   1 263.844 16.4393   3
   1  15  -1 310.043 19.8696   3
  -1 -15   1 286.299 19.8336   2
   1 -15  -1 274.995 17.0068   5
   1 -15  -1 309.681 23.0003   2
  -1 -15   1 261.130 19.6110   0
  -1  15   0 1611.73 31.5736   3
   1  15   0 1639.37 36.8965   3
  -1 -15   0 1693.75 38.0020   2
   1 -15   0 1724.74 38.1410   2
  -1  15  -1 1650.32 31.7084   3
  -1 -15  -1 1872.20 43.8990   2
   1 -15   1 1730.06 36.9736   2
   1  15   1 1718.10 30.7051   1
   1  15   1 1772.87 39.1944   3
   1  15   2 449.625 25.3791   3
   1 -15   2 488.366 22.7780   2
  -1  15  -2 417.578 19.2021   3
   1  15   2 460.721 21.7370   1
   1 -15   2 439.538 30.6575   4
   1 -15   3 3842.73 53.0420   2
  -1  15  -3 3666.10 49.3376   3
   1 -15   3 3873.36 66.5577   4
   1  15   3 3913.45 56.2685   1
   1  15   4 79.9572 20.5605   1
   1 -15   4 85.8023 26.7748   4
   1  15   5 146.658 25.1226   1
   1 -15   5 112.118 29.4945   4
   1  15   6 192.900 27.0217   1
   1 -15   6 107.632 24.6128   4
   1  16  -7 332.356 29.2871   3
   1 -16  -7 237.896 28.9092   2
   1 -16  -7 312.951 30.0105   5
   1 -16  -6 30.1612 23.3864   2
   1  16  -6 31.4709 17.6889   3
   1 -16  -6 24.9231 21.0916   5
   1 -16  -5 206.756 29.1253   2
   1  16  -5 199.777 21.5372   3
   1 -16  -5 242.674 27.1979   5
   1  16  -4 130.606 19.5805   3
   1 -16  -4 128.789 26.6086   2
   1 -16  -4 179.903 22.6986   5
   1 -16  -3 1015.28 35.0574   5
   1  16  -3 964.678 31.5753   3
   1 -16  -3 922.188 38.1445   2
  -1  16   2 2606.81 44.8205   3
   1 -16  -2 2476.67 46.2198   5
   1  16  -2 2602.22 46.8204   3
   1 -16  -2 2617.68 50.8208   2
  -1  16   1 706.559 24.3598   3
   1  16  -1 674.145 26.2051   3
   1 -16  -1 758.018 30.5132   2
   1 -16  -1 708.281 23.9189   5
  -1 -16   1 700.751 26.1999   2
  -1  16   0 810.670 24.8598   3
   1 -16   0 898.075 31.2275   2
  -1 -16   0 864.157 31.3347   2
   1  16   0 836.360 28.5573   3
   1  16   1 3567.24 54.0356   3
  -1  16  -1 3755.26 48.1352   3
  -1 -16  -1 3842.48 59.3993   2
   1 -16   1 3742.29 53.0360   2
   1  16   2 791.695 31.5237   3
   1 -16   2 783.968 27.3644   2
  -1 -16  -2 924.225 39.1681   2
   1  16   2 765.739 26.1429   1
  -1  16  -2 740.662 24.5203   3
   1 -16   3 47.7316 26.6052   4
   1  16   3 26.0579 19.0967   3
   1  16   3 20.4097 18.5984   1
   1 -16   3 16.8834 16.1985   2
  -1  16  -3 19.1279 13.7291   3
   1  16   4 942.366 36.0211   1
   1 -16   4 974.737 42.4490   4
   1 -16   5 107.129 24.6420   4
   1  16   5 109.572 33.0677   1
   1  16   6-13.8914 23.6331   1
   1 -16   6-10.5070 19.8033   4
   1  17  -7 82.8799 24.2609   3
   1 -17  -7 23.0136 21.6600   2
   1  17  -6 94.0009 19.0616   3
   1 -17  -6 55.9187 21.8990   5
   1 -17  -6 62.1878 26.3641   2
   1 -17  -5 34.8163 25.0207   2
   1  17  -5 37.8253 14.7375   3
   1 -17  -5 77.8401 19.6690   5
   1  17  -4 678.602 30.5328   3
   1 -17  -4 710.142 34.1385   5
   1 -17  -4 671.091 34.8715   2
   1  17  -3 537.158 26.3773   3
   1 -17  -3 539.714 28.2364   5
   1 -17  -3 461.756 31.8963   2
   1  17  -2 1689.58 39.6552   3
  -1  17   2 1611.71 37.6018   3
   1 -17  -2 1767.81 44.3118   2
   1 -17  -2 1598.11 38.9097   5
  -1  17   1 101.609 15.3174   3
  -1 -17   1 58.6782 17.7522   2
   1 -17  -1 96.3282 21.1551   2
   1  17  -1 97.6870 17.7094   3
   1 -17  -1 93.6120 14.6435   5
  -1  17   0 180.114 16.4042   3
   1  17   0 140.197 19.2168   3
  -1 -17   0 170.487 22.8287   2
   1 -17   0 165.486 21.7419   2
   1 -17   1 505.370 25.2543   2
   1  17   1 459.899 24.6502   3
  -1  17  -1 474.032 21.0645   3
  -1 -17  -1 494.507 31.5937   2
   1  17   2 1168.14 36.6260   3
   1 -17   2 1086.36 31.9124   2
  -1 -17  -2 1155.79 41.5921   2
  -1  17  -2 1043.24 28.8613   3
   1  17   3 1513.48 41.9576   3
  -1 -17  -3 1614.92 51.1710   2
   1  17   3 1559.21 38.7883   1
   1 -17   3 1540.76 48.4266   4
   1 -17   4 304.654 30.3464   4
   1  17   4 264.754 26.4616   1
  -1 -17  -4 415.918 38.6734   2
  -1 -17  -5 216.798 36.0694   2
   1 -17   5 121.023 30.1001   4
   1  17   5 132.876 23.7172   1
   1  17   6 44.7585 26.4795   1
  -1 -17  -6 63.5896 33.2743   2
   1 -18  -7-4.52472 24.0302   2
   1 -18  -6 54.4425 29.2425   2
   1  18  -6 80.7525 18.8972   3
   1 -18  -6 99.3434 23.7890   5
   1 -18  -5-8.66752 25.9278   2
   1  18  -5-28.9262 11.9875   3
   1 -18  -5 35.6482 25.0138   5
   1 -18  -4 173.008 24.8355   5
   1 -18  -4 155.028 26.7015   2
   1  18  -4 158.439 21.4935   3
   1 -18  -3 198.519 28.6652   2
   1  18  -3 181.602 21.4659   3
   1 -18  -3 178.299 22.0928   5
  -1  18   2 1191.16 34.3806   3
   1  18  -2 1139.65 34.6599   3
   1 -18  -2 1285.62 40.7418   2
   1 -18  -2 1235.32 35.8239   5
  -1  18   1 520.748 23.3020   3
   1  18  -1 480.500 25.8276   3
  -1 -18   1 497.446 26.0973   2
   1 -18  -1 388.557 18.9445   5
   1 -18  -1 513.593 29.8798   2
  -1  18   0 977.435 29.0600   3
   1  18   0 961.326 33.3567   3
  -1 -18   0 924.950 33.3289   2
   1 -18   0 911.878 32.2356   2
   1  18   1 1247.02 36.5085   3
  -1  18  -1 1193.13 31.3545   3
  -1 -18  -1 1239.28 40.6035   2
   1 -18   1 1184.43 34.7845   2
   1  18   2 1334.43 39.2843   3
  -1  18  -2 1308.66 32.9938   3
   1 -18   2 1330.74 35.6073   2
  -1 -18  -2 1381.12 44.9641   2
   1  18   3 201.659 23.0813   3
  -1 -18  -3 208.642 34.3546   2
   1 -18   4 604.634 39.5265   4
  -1 -18  -4 610.150 41.5701   2
   1  18   4 514.661 29.3579   1
   1  18   5 131.180 23.5886   1
  -1 -18  -5 129.837 30.3910   2
   1 -18   5 127.676 27.9149   4
   1  18   6 96.8704 29.1841   1
  -1 -18  -6 189.199 39.3213   2
   1 -19  -6 16.8071 30.5649   2
   1 -19  -6 29.5446 21.2305   5
   1  19  -6 17.6270 21.2106   3
   1  19  -5 239.416 22.9697   3
   1 -19  -5 259.380 30.4965   5
   1 -19  -5 302.302 34.8095   2
   1 -19  -4 190.025 29.3695   2
   1  19  -4 169.325 22.5526   3
   1 -19  -4 187.091 25.5422   5
   1  19  -3 947.380 34.4996   3
  -1  19   3 883.698 32.6655   3
   1 -19  -3 1070.87 37.5224   5
   1 -19  -3 973.974 40.1570   2
  -1  19   2 593.634 27.7840   3
   1  19  -2 593.678 28.4914   3
   1 -19  -2 627.344 28.8322   5
   1 -19  -2 630.220 32.6645   2
  -1  19   1 165.904 18.1061   3
   1  19  -1 181.714 20.6634   3
   1 -19  -1 182.559 22.9252   2
  -1 -19   1 161.771 21.1014   2
   1  19   0 661.674 30.6021   3
   1 -19   0 678.851 30.7376   2
  -1 -19   0 687.285 31.2502   2
  -1  19   0 732.554 27.0520   3
   1 -19   1 753.805 30.3943   2
   1  19   1 698.094 30.7121   3
  -1  19  -1 689.288 26.2613   3
  -1 -19  -1 802.627 36.3418   2
   1 -19   2 1603.08 39.3403   2
   1  19   2 1547.51 43.7983   3
  -1 -19  -2 1669.76 48.8319   2
  -1  19  -2 1515.29 36.3159   3
  -1 -19  -3 156.263 31.2657   2
   1  19   3 123.340 23.3843   3
   1 -19   4 135.221 28.9513   4
  -1 -19  -4 111.707 30.4516   2
   1  19   4 64.2319 20.7056   3
  -1 -19  -5 60.3675 32.1057   2
   1 -19   5 57.7355 29.2982   4
   1  19   5-0.07387 22.5881   1
   1  19   6 227.847 30.1935   1
   1 -20  -6 40.5637 33.0286   2
   1  20  -6 47.6976 23.4337   3
   1 -20  -6 112.482 28.3142   5
   1  20  -5 216.338 21.9540   3
   1 -20  -5 270.232 30.0195   5
   1 -20  -5 256.649 34.6926   2
   1 -20  -4 155.877 24.1821   5
   1  20  -4 98.8488 18.3546   3
   1 -20  -4 126.550 30.8638   2
  -1  20   3 70.3135 16.5814   3
   1 -20  -3 93.1701 21.6402   5
   1 -20  -3 165.386 26.3719   2
   1  20  -3 89.8969 18.7981   3
  -1  20   2 219.592 22.1847   3
   1  20  -2 188.581 20.7435   3
   1 -20  -2 225.178 21.6823   5
   1 -20  -2 192.791 27.5904   2
   1  20  -1 447.747 27.0067   3
  -1  20   1 472.313 24.3591   3
   1 -20  -1 430.503 27.8745   2
  -1 -20   1 444.491 24.8500   2
   1  20   0 697.020 31.4492   3
  -1  20   0 690.048 26.7500   3
   1 -20   0 681.829 32.1931   2
  -1 -20   0 667.436 31.9513   2
   1 -20   1 288.804 24.2745   2
   1  20   1 302.483 23.4558   3
  -1  20  -1 276.518 21.6069   3
  -1 -20  -1 257.650 27.3314   2
  -1 -20  -2 1222.55 44.2775   2
   1  20   2 1164.70 39.8601   3
   1  20   3 272.824 26.1734   3
  -1 -20  -3 262.738 34.2006   2
  -1 -20  -4 186.463 31.9887   2
   1  20   4 171.282 25.9699   3
   1 -20   5 95.1957 30.1801   4
  -1 -20  -5 78.9006 35.3406   2
   1  20   5 48.4775 26.2146   3
   1 -21  -6-3.91257 31.2743   2
   1  21  -6-47.4279 17.9356   3
   1 -21  -5 40.9467 30.6633   2
   1  21  -5 51.6458 16.4104   3
   1 -21  -5 33.1358 23.4888   5
  -1  21   4 907.182 36.7570   3
   1 -21  -4 945.551 45.7037   2
   1 -21  -4 997.809 42.7567   5
   1  21  -4 861.054 37.6703   3
   1 -21  -3 46.0832 24.7953   2
  -1  21   3 33.6581 17.8084   3
   1  21  -3 53.6179 17.3201   3
   1 -21  -3 13.8992 17.7901   5
   1  21  -2 302.364 24.1868   3
   1 -21  -2 350.385 24.7580   5
  -1  21   2 322.432 24.1473   3
   1 -21  -2 295.537 29.3956   2
   1 -21  -1 34.4289 23.3982   2
  -1  21   1 34.2997 15.8467   3
   1  21  -1 20.2237 16.7983   3
   1  21   0 269.653 25.7540   3
   1 -21   0 271.944 25.5788   2
  -1  21   0 250.450 19.5848   3
  -1 -21   0 234.079 27.2346   2
   1 -21   1 426.632 26.6935   2
   1  21   1 477.720 29.7956   3
  -1  21  -1 455.503 23.6686   3
  -1 -21  -1 468.960 32.6614   2
   1 -21   2 389.800 25.7098   2
  -1 -21  -2 417.205 34.8347   2
   1  21   2 369.598 28.7250   3
  -1 -21  -3 138.653 31.1946   2
   1  21   3 86.6303 22.0633   3
   1  21   4 729.745 38.1884   3
  -1 -21  -4 745.910 46.1097   2
  -1 -21  -5 85.8346 34.8802   2
   1  21   5 30.0082 22.6647   3
   1 -22  -5 176.755 34.0194   2
   1  22  -5 129.107 23.8908   3
   1 -22  -5 147.881 29.9876   5
   1 -22  -4 117.289 26.1701   5
   1 -22  -4 109.027 31.2144   2
  -1  22   4 78.2801 22.0406   3
   1  22  -4 49.2749 23.2517   3
  -1  22   3 261.051 26.8237   3
   1  22  -3 223.988 22.8911   3
   1 -22  -3 245.824 25.6793   5
   1 -22  -3 241.015 29.4549   2
  -1  22   2 159.153 19.6036   3
   1 -22  -2 176.367 27.1236   2
   1  22  -2 98.4257 21.6478   3
  -1  22   1 744.737 31.8394   3
   1  22  -1 777.472 33.9457   3
   1 -22  -1 708.691 35.6836   2
  -1  22   0 126.830 17.8763   3
   1  22   0 175.602 23.6895   3
  -1 -22   0 156.579 25.3360   2
   1 -22   0 173.326 24.1111   2
   1 -22   1 317.488 24.7675   2
  -1  22  -1 274.508 22.0804   3
   1  22   1 276.636 26.7465   3
  -1 -22  -1 274.891 30.8120   2
   1 -22   2 283.624 25.0419   2
   1  22   2 293.281 26.5296   3
  -1 -22  -2 334.628 34.3127   2
  -1 -22  -3 11.5572 25.6378   2
   1  22   3 20.2070 23.0534   3
  -1 -22  -4 24.7781 34.7192   2
   1  22   4 20.1077 23.6897   3
  -1  23   5 495.713 33.3818   3
   1  23  -5 601.517 35.4903   3
   1 -23  -5 499.770 41.2272   2
   1 -23  -5 592.341 37.9356   5
   1 -23  -4 14.5145 27.1369   2
  -1  23   4 101.820 20.2628   3
   1  23  -4 19.8980 20.3851   3
   1 -23  -4 38.2662 23.2898   5
  -1  23   3 375.958 27.9397   3
   1  23  -3 343.940 24.6004   3
   1 -23  -3 403.260 29.6344   5
   1 -23  -3 297.013 34.0057   2
   1 -23  -2 82.6953 26.1119   2
  -1  23   2 66.4584 18.8178   3
   1  23  -2 87.2418 21.5096   3
   1  23  -1 612.930 30.7666   3
  -1  23   1 555.435 28.3067   3
   1 -23  -1 562.399 32.6027   2
   1  23   0 245.812 25.9621   3
  -1  23   0 211.695 20.5828   3
  -1 -23   0 193.821 28.0135   2
   1 -23   0 217.638 25.7286   2
   1  23   1 922.192 36.8893   3
   1 -23   1 1006.24 36.5379   2
  -1 -23  -1 947.614 40.8704   2
  -1 -23  -2 1.92173 30.8685   2
   1  23   2 17.9719 20.7886   3
  -1 -23  -3 148.639 33.3299   2
   1  23   3 122.359 25.8405   3
  -1 -23  -4 115.055 35.8873   2
   1  23   4 106.481 22.6007   3
   1 -24  -4 51.0373 27.9183   2
  -1  24   4 83.1558 22.1540   3
   1  24  -4 68.4845 25.0737   3
   1 -24  -4 64.2715 23.2040   5
   1  24  -3 185.301 22.3150   3
   1 -24  -3 201.150 29.3132   2
  -1  24   3 121.475 22.1625   3
   1  24  -2 174.079 21.8954   3
  -1  24   2 125.062 22.5506   3
   1 -24  -2 223.252 28.2562   2
   1 -24  -1 36.8833 20.1383   2
  -1  24   1 81.7797 19.5928   3
   1  24  -1 69.1487 20.0336   3
   1 -24   0 305.613 28.0439   2
   1  24   0 332.484 28.3921   3
  -1  24   0 316.596 22.7611   3
  -1 -24   0 324.053 29.1613   2
  -1 -24  -1 65.6813 25.1653   2
   1 -24   1 112.237 22.4655   2
   1  24   1 93.3497 24.3905   3
  -1 -24  -2 68.6236 27.2611   2
   1  24   2 53.8587 19.7080   3
  -1 -24  -3 3.82680 32.6644   2
   1  24   3-10.5092 19.3823   3
  -1  25   4 253.330 28.1751   3
   1  25  -4 218.619 28.5980   3
   1 -25  -4 261.507 30.5172   5
   1 -25  -3 73.7291 28.5380   2
  -1  25   3-10.2078 19.0678   3
   1  25  -3 43.8901 20.0439   3
   1 -25  -2 162.122 27.6329   2
  -1  25   2 147.471 22.5491   3
   1  25  -2 183.501 26.8550   3
   1 -25  -1 96.0359 24.2389   2
  -1  25   1 73.6516 21.1846   3
   1  25  -1 78.8544 22.0484   3
  -1 -25   0 74.1111 23.6897   2
   1 -25   0 18.7257 23.7798   2
   1  25   0 40.5854 21.2580   3
  -1 -25  -1 54.4429 27.8545   2
   1 -25   1 98.9570 21.8609   2
   1  25   1 73.1481 22.7655   3
  -1 -25  -2 119.474 28.6433   2
   1  25   2 103.173 25.6996   3
  -1 -25  -3-40.7075 30.3981   2
   1  25   3-16.5108 22.3163   3
   1 -26  -4 118.611 22.7109   5
   1 -26  -3 12.4911 28.5272   2
  -1  26   3 12.5136 22.8146   3
   1  26  -3 10.0388 20.0803   3
   1 -26  -2 120.557 29.0477   2
  -1  26   2 136.900 23.7228   3
   1  26  -2 140.240 22.8832   3
   1 -26  -1 52.0811 26.2411   2
  -1  26   1 50.7177 20.0812   3
   1  26  -1 82.6789 19.2298   3
   1 -26   0 30.0830 22.3772   2
   1  26   0 51.2332 22.6349   3
  -1 -26  -1 52.6070 25.6112   2
   1 -26   1 88.0549 22.6330   2
   1  26   1 52.0670 20.6683   3
  -1 -26  -2 44.8103 33.4160   2
   1  26   2 20.6859 20.0616   3
  -1  27   3 96.2397 29.4428   3
   1 -27  -2 37.3662 25.0840   2
  -1  27   2 35.7995 21.4561   3
   1  27  -2 28.0579 23.0750   3
   1 -27  -1 37.8400 28.4072   2
  -1  27   1 64.0109 22.0799   3
   1  27  -1 35.1468 20.2516   3
   1 -27   0 264.095 27.1296   2
   1  27   0 324.783 29.3618   3
  -1 -27  -1 20.8649 26.2296   2
   1  27   1 58.0638 18.2920   3
  -1 -27  -2 64.4563 29.7193   2
  -1  28   2 65.1771 21.0651   3
   1 -28  -1 75.8750 29.9368   2
   1 -28   0 63.6946 23.8917   2
  -1 -28  -1 102.739 32.1906   2
   2   0  -8 208.040 27.8255   3
   2   0  -7-5.44222 17.0591   3
   2   0  -7 16.0544 13.1296   5
   2   0  -6 842.328 32.1739   3
   2   0  -6 819.155 30.8696   5
   2   0  -5 450.804 22.8502   3
   2   0  -5 436.566 22.5327   5
   2   0  -4 1707.41 33.4744   3
   2   0  -4 1760.42 35.7114   5
   2   0  -3 335.091 17.7618   5
   2   0  -3 313.807 10.2515   2
   2   0  -3 310.470 15.0831   3
  -2   0   3 315.038 11.3042   0
   2   0  -2 90.8910 8.41968   2
   2   0  -2 90.3929 9.48066   3
   2   0  -2 92.0808 12.4379   1
   2   0  -1 1169.45 15.2569   3
   2   0  -1 1155.65 20.9910   2
   2   0  -1 1201.81 23.3364   1
   2   0   0 7842.86 55.2234   1
   2   0   0 7810.09 55.3102   2
   2   0   1 4368.73 44.1761   1
  -2   0  -2 594.393 13.8331   3
   2   0   2 610.880 22.1651   1
  -2   0  -3 4601.82 43.4609   3
   2   0   3 4564.88 55.7652   1
   2   0   4 265.529 23.6959   1
   2   0   5 398.968 26.0837   1
   2   0   6 61.7676 24.0951   1
   2   0   7 111.257 24.9536   1
   2   1  -8 255.658 30.4970   3
   2  -1  -8 197.224 24.0613   3
   2   1  -7 28.3575 20.4744   3
   2  -1  -7 38.1053 17.0341   5
   2  -1  -7 23.5208 20.1421   3
   2   1  -7 17.0255 16.7059   5
   2   1  -6-6.49771 14.8289   5
   2   1  -6 2.65663 17.3516   3
   2  -1  -6-6.06849 16.1446   5
   2  -1  -6 19.7253 17.4247   3
   2   1  -5 48.3405 14.1566   5
   2  -1  -5 40.8665 16.2924   3
   2  -1  -5 42.6382 15.5220   5
   2   1  -5 63.7022 16.9033   3
   2   1  -4 1751.82 35.9137   5
   2  -1  -4 1696.92 35.6847   5
   2   1  -4 1663.19 33.3714   3
   2  -1  -4 1660.69 33.3661   3
   2  -1  -3 523.367 13.5251   2
   2   1  -3 501.840 10.9554   2
  -2   1   3 473.580 14.2486   0
   2  -1  -3 552.759 18.0034   3
   2   1  -3 535.547 19.8285   5
   2  -1  -3 545.622 20.8047   5
  -2  -1   3 525.182 11.8310   0
   2   1  -3 510.713 18.1776   3
   2  -1  -2 3398.46 31.9104   3
   2  -1  -2 3445.79 41.6211   5
   2  -1  -2 3370.34 31.3991   2
   2   1  -2 3308.14 28.2538   2
   2  -1  -2 3344.96 38.5778   1
   2   1  -2 3309.16 32.8008   3
   2  -1  -2 3348.33 22.5936   4
   2   1  -2 3349.12 38.6902   1
   2   1  -1 5502.74 33.3448   3
   2  -1  -1 5339.53 42.3473   2
   2   1  -1 5512.51 41.0054   2
   2  -1  -1 5459.89 29.8351   3
   2   1  -1 5372.32 45.9990   1
   2  -1  -1 5255.24 44.7892   1
   2  -1  -1 5907.69 41.0420   4
   2  -1   0 5161.31 45.7150   2
   2   1   0 4868.54 27.2848   3
   2   1   0 4916.99 44.4457   1
   2  -1   0 5083.27 44.4914   1
   2   1   1 2258.32 33.2859   1
   2  -1   1 2327.69 32.7901   1
   2   1   2 1840.22 33.8729   1
  -2   1  -2 1890.71 22.3260   3
  -2  -1  -2 1936.43 24.2795   3
   2  -1   2 2025.04 33.8521   1
  -2   1  -3 583.282 17.0873   3
  -2  -1  -3 551.067 17.3881   3
   2   1   3 604.219 26.1959   1
   2  -1   3 576.544 24.1967   1
   2  -1   4 1863.70 41.1994   1
   2   1   4 1965.24 44.2143   1
   2   1   5 366.804 27.6058   1
   2  -1   5 408.409 28.0269   1
   2   1   6 514.139 31.2105   1
   2  -1   6 553.668 31.9229   1
   2   1   7 70.6502 26.2972   1
   2  -1   7 82.1847 22.5640   1
   2  -2  -8 182.172 26.1479   3
   2   2  -8 176.008 28.3067   3
   2  -2  -8 107.113 21.8361   5
   2   2  -7 358.760 26.4335   3
   2  -2  -7 396.955 26.4266   3
   2  -2  -7 398.670 27.0158   5
   2   2  -6 101.065 19.4359   3
   2   2  -6 108.523 17.2980   5
   2  -2  -6 87.8107 18.1775   5
   2  -2  -6 94.5426 19.7307   3
   2   2  -5 2137.02 42.1909   3
   2  -2  -5 2166.59 42.0142   3
   2   2  -5 2235.89 42.8651   5
   2  -2  -5 2214.18 44.3332   5
   2   2  -4 4068.70 50.4319   3
   2   2  -4 3918.96 51.3651   5
   2  -2  -4 3920.63 48.9551   3
   2  -2  -4 3897.12 53.2684   5
   2  -2  -4 3728.92 35.4939   2
  -2  -2   3 387.664 9.41903   0
   2  -2  -3 395.528 13.6172   2
   2   2  -3 365.088 8.47174   2
   2   2  -3 434.729 17.4123   3
   2  -2  -3 365.859 16.6198   3
  -2   2   3 394.775 14.5730   0
   2  -2  -3 408.251 19.9594   5
   2  -2  -2 2828.25 30.3996   2
   2   2  -2 3066.59 37.5477   1
   2   2  -2 2900.79 31.3745   3
   2   2  -2 2959.52 25.6872   2
   2  -2  -2 2939.94 29.8158   3
   2  -2  -2 2862.08 38.1667   5
   2  -2  -2 2934.92 36.8415   1
   2   2  -1 5691.09 36.5770   3
   2  -2  -1 5538.76 44.2681   2
   2  -2  -1 5574.96 29.2520   3
   2   2  -1 5794.32 47.7875   1
   2  -2  -1 5404.72 44.7719   1
   2  -2  -1 5748.70 40.9330   4
   2   2   0 898.415 14.0184   3
   2   2   0 878.856 21.7188   1
   2  -2   0 895.713 21.7232   2
   2  -2   0 907.380 20.2481   1
   2  -2   0 931.148 22.6962   4
   2   2   1 7478.77 58.8086   1
   2  -2   1 7568.18 60.8574   2
   2  -2   1 7442.61 54.6279   1
   2   2   1 7576.85 41.6262   3
  -2   2  -2 5788.88 36.3030   3
   2  -2   2 5670.06 53.1027   1
   2   2   2 5884.15 57.8907   1
  -2  -2  -3 769.631 20.2582   3
   2   2   3 755.204 28.1355   1
   2  -2   3 780.851 26.0277   1
   2  -2   4 6341.26 69.9094   1
  -2  -2  -4 6297.50 61.5440   3
   2   2   4 6444.08 73.7497   1
   2   2   5 518.658 31.0123   1
   2  -2   5 523.516 28.7266   1
   2   2   6 266.547 27.5751   1
   2  -2   6 250.137 25.1077   1
   2   2   7 57.9555 27.0948   1
   2  -2   7 23.9068 22.9076   1
   2   3  -8-18.8840 22.1072   3
   2  -3  -8-4.56627 23.9751   3
   2  -3  -8 35.1386 18.7146   5
   2   3  -7 9.59138 19.0495   3
   2  -3  -7 50.1151 18.0613   5
   2  -3  -7 33.0466 20.1069   3
   2   3  -6 238.317 18.7517   5
   2   3  -6 251.190 23.2878   3
   2  -3  -6 258.630 22.7592   3
   2  -3  -6 249.139 21.9310   5
   2   3  -5 110.566 15.5534   5
   2  -3  -5 90.0114 16.9288   3
   2  -3  -5 100.459 17.0127   5
   2   3  -5 113.534 16.7622   3
   2   3  -4 67.2397 14.6996   3
   2  -3  -4 84.7779 10.8101   2
   2   3  -4 96.2961 14.4556   5
   2  -3  -4 86.9424 15.0323   5
   2  -3  -4 74.0931 14.3922   3
   2  -3  -3 3567.11 35.7534   2
  -2  -3   3 3425.58 19.7875   0
   2   3  -3 3566.97 43.7896   1
   2   3  -3 3639.40 41.9933   3
   2  -3  -3 3446.06 39.9701   3
  -2   3   3 3617.20 37.4672   0
   2  -3  -3 3665.20 47.9344   5
   2  -3  -2 1099.76 24.1702   1
   2   3  -2 971.744 18.9349   3
   2  -3  -2 1090.93 25.5990   5
   2  -3  -2 1142.95 19.8842   3
   2   3  -2 1147.76 25.6012   1
   2  -3  -2 1121.05 20.9157   2
   2   3  -1 301.530 11.4139   3
   2  -3  -1 219.958 7.29862   3
   2  -3  -1 237.768 13.5681   2
   2   3  -1 294.958 15.8116   1
   2  -3  -1 219.380 13.3151   1
   2  -3  -1 219.905 13.1819   4
   2  -3   0 1824.83 29.5240   2
   2   3   0 1847.99 29.5320   1
   2  -3   0 1879.33 27.3547   1
   2   3   0 1848.47 21.5574   3
   2  -3   0 2165.71 35.5368   4
   2   3   1 1336.01 28.0618   1
   2  -3   1 1413.73 25.4423   1
   2  -3   1 1417.60 29.2762   2
   2   3   1 1363.98 20.2790   3
   2   3   2 26.7681 14.9716   1
   2  -3   2 23.0095 12.2607   1
  -2   3  -2 20.9173 6.08071   3
   2   3   3 47.4923 18.0897   1
   2  -3   3 24.7328 15.3960   1
  -2  -3  -3 63.2760 10.7923   3
  -2  -3  -4 1172.40 29.5862   3
   2  -3   4 1213.93 34.2705   1
   2   3   4 1173.65 37.0592   1
   2  -3   5 462.879 25.8192   1
   2   3   5 451.485 30.7619   1
   2   3   6 74.6908 24.2703   1
   2  -3   6 61.8429 21.7330   1
   2   3   7 15.3648 26.7659   1
   2  -3   7 1.98500 31.0210   4
   2   4  -8 261.017 28.9865   3
   2  -4  -8 271.131 27.7705   3
   2  -4  -8 240.804 26.2683   5
   2   4  -7 719.068 34.2602   3
   2  -4  -7 720.465 32.4137   3
   2  -4  -7 781.221 35.1530   5
   2   4  -6 534.590 28.5545   3
   2  -4  -6 493.859 27.0980   3
   2  -4  -6 480.053 28.4875   5
   2   4  -6 511.644 24.0613   5
   2   4  -5 283.053 21.0989   3
   2  -4  -5 280.205 20.3877   3
   2   4  -5 288.402 18.5728   5
   2  -4  -5 340.332 23.3163   5
   2   4  -4 658.887 24.0916   3
   2  -4  -4 713.442 20.3344   2
   2  -4  -4 661.785 22.6079   3
   2  -4  -4 645.942 25.8259   5
   2  -4  -3 6381.70 49.7493   2
   2   4  -3 6576.59 58.4610   1
   2   4  -3 6592.63 57.3908   3
  -2   4   3 6662.32 53.0583   0
   2  -4  -3 6379.91 53.7939   3
   2  -4  -3 6496.58 62.9786   5
   2  -4  -2 2846.67 36.0640   1
   2   4  -2 2913.60 34.2924   3
   2  -4  -2 2828.96 38.6376   5
   2  -4  -2 2859.21 29.4063   3
   2   4  -2 3008.80 37.5843   1
   2  -4  -2 2886.87 33.6116   2
   2  -4  -1 14691.0 75.9021   2
   2   4  -1 14705.3 65.7279   3
   2  -4  -1 14786.1 71.4834   4
   2  -4  -1 14478.9 46.8573   3
   2  -4  -1 14265.5 71.0950   1
   2   4  -1 14584.0 76.3628   1
   2  -4  -1 14511.9 77.4948   5
   2   4   0 2789.29 28.3695   3
   2  -4   0 2843.26 37.7998   4
   2  -4   0 2732.28 36.1949   2
   2   4   0 2811.38 36.0899   1
   2  -4   0 2726.32 31.3615   1
   2  -4   1 2605.20 32.6003   1
   2  -4   1 2813.82 44.2825   4
   2  -4   1 2737.16 38.9870   2
   2   4   1 2670.53 29.3207   3
   2   4   1 2654.87 37.7580   1
   2  -4   2 1303.56 31.0378   2
   2  -4   2 1290.66 26.2785   1
   2  -4   2 1316.97 35.4085   4
   2   4   2 1182.46 29.4758   1
   2  -4   3 3816.56 48.0541   1
   2   4   3 3884.86 55.1016   1
  -2  -4  -4 258.068 17.4560   3
   2   4   4 259.736 25.9571   1
   2  -4   4 269.889 21.7734   1
   2   4   5 853.946 35.8489   1
   2  -4   5 883.050 31.5039   1
   2  -4   6 17.6927 16.4717   1
   2  -4   6 52.7507 29.6892   4
   2   4   6 27.8315 23.4504   1
   2   4   7 68.4933 28.5625   1
   2  -4   7 51.9731 28.9213   4
   2   5  -8 20.2779 21.7245   3
   2  -5  -8-28.5867 19.1548   3
   2  -5  -8-27.8623 19.4531   5
   2  -5  -7 109.632 20.5075   5
   2   5  -7 187.218 24.8298   3
   2  -5  -7 190.243 23.6702   3
   2   5  -6 404.064 23.1347   5
   2   5  -6 430.394 26.5837   3
   2  -5  -6 383.755 24.4939   3
   2  -5  -6 384.246 27.7934   5
   2   5  -5 738.709 28.7422   3
   2  -5  -5 729.561 27.5636   3
   2  -5  -5 761.702 30.2948   5
   2  -5  -4 27.3277 12.4088   2
   2  -5  -4 22.1684 13.0468   3
   2   5  -4 22.2315 13.1756   3
   2  -5  -4 43.9788 15.5075   5
  -2   5   3 5415.27 50.7796   0
   2   5  -3 4760.35 48.3773   3
   2  -5  -3 5155.74 48.4421   3
   2   5  -3 5151.70 52.1693   1
   2  -5  -3 5151.16 57.4302   5
   2  -5  -3 5081.86 47.0605   2
   2  -5  -2 210.166 14.3485   2
   2   5  -2 158.190 13.1843   3
   2  -5  -2 197.005 11.1787   3
   2  -5  -2 200.597 15.0710   5
   2   5  -2 203.630 15.1715   1
   2  -5  -1 6365.90 52.4139   2
   2   5  -1 6365.54 46.8994   3
   2   5  -1 6349.44 51.9137   1
   2  -5  -1 6319.65 32.4411   3
   2  -5  -1 6357.77 51.9000   5
   2  -5  -1 6432.02 48.0155   1
   2  -5  -1 6428.90 51.1343   4
   2   5   0 2102.50 26.9447   3
   2  -5   0 2139.02 33.6800   2
   2   5   0 2058.89 32.5569   1
   2  -5   0 2169.50 27.8608   1
   2  -5   0 2140.04 34.4332   4
   2   5   1 4540.77 40.2000   3
   2  -5   1 4415.30 40.5607   1
   2  -5   1 4449.84 49.5930   2
   2   5   1 4642.76 49.4357   1
   2  -5   1 4724.30 55.6942   4
   2  -5   2 3421.45 39.7668   1
   2  -5   2 3479.39 47.5300   2
   2   5   2 3349.18 47.0785   1
   2  -5   2 3631.39 56.0253   4
   2  -5   3 1935.59 34.8022   1
   2  -5   3 1840.21 46.5733   4
   2   5   3 1842.59 40.7016   1
   2   5   4 210.874 25.3568   1
  -2  -5  -4 203.898 17.3455   3
   2  -5   4 221.034 20.6618   1
   2  -5   4 167.034 29.4387   4
  -2  -5  -5 1175.92 33.6893   3
   2  -5   5 850.769 30.2095   1
   2   5   5 1113.00 39.6474   1
   2  -5   5 1095.22 43.7463   4
   2  -5   6 347.373 35.5103   4
   2   5   6 372.957 32.8946   1
   2   5   7 109.883 31.1971   1
   2  -5   7 95.8029 31.6625   4
   2   6  -8 103.128 21.8782   3
   2  -6  -8 32.6286 21.5845   3
   2  -6  -8 44.7956 21.7854   5
   2  -6  -7 1062.73 40.9986   5
   2   6  -7 1065.42 40.7386   3
   2  -6  -7 1031.77 39.2565   3
   2   6  -6 395.288 27.7017   3
   2  -6  -6 371.022 23.7212   3
   2  -6  -6 373.622 26.9660   5
   2   6  -5 110.768 18.3624   3
   2  -6  -5 99.7977 16.0315   3
   2  -6  -5 90.4931 18.4056   5
   2  -6  -4 899.470 29.8074   5
   2   6  -4 980.686 28.4764   3
   2  -6  -4 988.855 27.2861   3
   2  -6  -4 986.279 25.5946   2
   2   6  -3 103.939 15.8368   1
   2  -6  -3 83.9762 13.8592   2
   2  -6  -3 91.6382 15.3813   5
   2   6  -3 72.7021 11.9232   3
   2  -6  -3 90.8235 12.4461   3
  -2   6   3 94.2110 15.2435   0
   2  -6  -2 16579.6 86.1109   2
   2   6  -2 16743.5 85.1674   3
   2  -6  -2 16575.9 93.3016   5
   2  -6  -2 16410.8 72.1155   3
   2   6  -2 17054.2 86.5554   1
   2  -6  -1 12278.8 74.2401   2
   2   6  -1 12507.8 67.7966   3
   2   6  -1 12562.0 72.8312   1
   2  -6  -1 11950.8 71.4536   5
   2  -6  -1 12064.4 64.8889   1
   2  -6  -1 12241.4 73.0168   4
   2   6   0 177.418 11.6325   3
   2  -6   0 172.157 14.6333   2
   2   6   0 177.107 14.4864   1
   2  -6   0 182.905 11.7320   1
   2  -6   0 184.222 17.0103   4
   2   6   1 5.48353 9.14421   3
   2   6   1 12.9251 15.2683   1
   2  -6   1 5.17053 13.0563   2
   2  -6   1 4.98040 9.37514   1
   2  -6   1-0.11414 16.7277   4
   2  -6   2 4321.82 52.8414   2
   2  -6   2 4365.67 61.9401   4
   2   6   2 4189.72 52.5041   1
   2  -6   2 4127.28 42.1495   1
   2   6   3 890.371 32.2643   1
   2  -6   3 897.176 39.3292   4
   2  -6   3 812.771 24.3447   1
   2  -6   4 3279.64 65.6223   4
   2   6   4 2947.63 54.6306   1
   2  -6   4 3075.30 46.9970   1
   2   6   5 53.5258 23.4354   1
  -2  -6  -5 75.1536 16.0364   3
   2  -6   5 57.7367 28.2998   4
   2   6   6 3.94101 24.8622   1
   2  -6   6 49.8056 28.4654   4
   2  -6   7 15.6681 23.4300   4
   2   6   7 47.1739 26.4569   1
   2  -7  -8 164.946 27.3409   3
   2  -7  -8 201.550 27.6829   5
   2   7  -8 190.318 26.7140   3
   2   7  -7 610.300 33.9550   3
   2  -7  -7 594.652 31.9083   3
   2  -7  -7 611.619 33.5933   5
   2   7  -6 669.115 31.7042   3
   2  -7  -6 670.207 29.8977   3
   2  -7  -6 698.137 32.7829   5
   2   7  -5 348.621 22.7687   3
   2  -7  -5 280.732 21.3678   3
   2  -7  -5 277.796 22.3138   5
   2  -7  -5 268.725 19.4772   2
   2   7  -4 1544.08 35.1329   3
   2  -7  -4 1548.04 32.9080   3
   2  -7  -4 1619.99 38.1256   5
   2  -7  -4 1611.08 32.6030   2
   2   7  -3 297.162 18.5773   1
   2   7  -3 301.519 18.1567   3
   2  -7  -3 315.350 16.3414   3
   2  -7  -3 292.045 19.2275   5
  -2   7   3 331.450 19.5990   0
   2  -7  -3 299.934 18.0997   2
   2  -7  -2 3228.89 40.9086   2
   2   7  -2 3414.97 41.2131   3
   2   7  -2 3353.35 39.8894   1
   2  -7  -2 3327.15 34.4660   3
   2  -7  -2 3309.48 43.4415   5
   2   7  -1 977.093 22.3091   3
   2  -7  -1 985.162 20.8125   1
   2   7  -1 982.035 23.5564   1
   2  -7  -1 918.413 24.1758   2
   2  -7  -1 969.790 25.1613   4
   2  -7  -1 933.368 22.1868   5
   2   7   0 2344.42 31.8705   3
  -2   7   0 2338.30 17.6513   3
   2  -7   0 2311.52 36.3284   2
   2   7   0 2385.98 34.9151   1
   2  -7   0 2290.48 27.5685   1
   2  -7   0 2438.30 39.5545   4
   2   7   1 1036.26 27.1848   1
   2   7   1 1043.37 23.0664   3
   2  -7   1 1074.62 20.6164   1
   2  -7   1 1066.17 30.5716   4
   2  -7   1 1021.27 27.1617   2
   2  -7   2 853.461 20.6702   1
   2  -7   2 912.863 28.2471   2
   2  -7   2 865.328 33.7018   4
   2   7   2 810.255 28.0269   1
   2   7   3 101.527 21.1496   1
   2  -7   3 79.6767 14.3638   1
   2  -7   3 99.8457 18.6160   2
   2  -7   3 77.2146 25.8383   4
   2   7   4 58.2872 23.6250   1
   2  -7   4 11.7657 25.9962   4
   2   7   5 148.021 26.6325   1
   2  -7   5 98.5678 29.8830   4
   2   7   6 99.6161 24.3230   1
   2  -7   6 118.874 33.9488   4
   2   7   7 545.680 40.7526   1
   2  -7   7 593.256 37.0862   4
   2   8  -8 174.755 29.2865   3
   2  -8  -8 169.129 24.6729   3
   2  -8  -8 195.764 26.7301   5
   2   8  -7 217.426 26.0059   3
   2  -8  -7 195.501 23.9024   5
   2  -8  -7 134.144 24.5764   3
   2   8  -6 1433.02 42.3049   3
   2  -8  -6 1402.13 39.7617   3
   2  -8  -6 1405.93 43.3310   5
   2   8  -5 822.741 31.0858   3
   2  -8  -5 821.221 29.6346   3
   2  -8  -5 901.125 33.4865   5
   2  -8  -5 935.427 29.3850   2
   2   8  -4 562.649 24.5218   3
   2  -8  -4 536.119 22.6198   3
   2  -8  -4 610.513 26.3131   5
   2  -8  -4 574.899 23.4830   2
   2   8  -3 3121.29 41.5576   1
   2   8  -3 3099.22 44.2899   3
   2  -8  -3 3046.44 40.2715   3
   2  -8  -3 3089.92 43.1398   2
   2  -8  -3 3069.32 47.2278   5
  -2   8   3 3160.66 45.3273   0
   2   8  -2 8934.71 66.9716   3
   2  -8  -2 9218.63 72.1347   5
   2  -8  -2 9285.22 57.9936   3
  -2   8   2 9464.30 71.9702   0
   2  -8  -2 9312.41 70.2293   2
   2   8  -2 9050.36 64.4542   1
   2  -8  -1 3265.97 34.5903   1
   2  -8  -1 3260.74 42.6262   2
   2   8  -1 3296.45 39.9826   3
   2   8  -1 3498.64 40.5064   1
   2  -8  -1 3213.94 38.8301   5
   2  -8  -1 3516.58 44.7553   4
   2   8   0 631.569 19.5071   3
  -2   8   0 657.108 11.3807   3
   2  -8   0 666.673 23.0623   2
   2   8   0 659.571 21.6956   1
   2  -8   0 671.518 17.0210   5
   2  -8   0 615.314 15.3895   1
   2  -8   0 679.366 25.6231   4
   2   8   1 2783.67 41.2353   1
   2  -8   1 2783.07 42.4156   2
   2  -8   1 2767.63 30.2890   1
   2   8   1 2770.29 37.6679   3
   2  -8   1 2815.27 46.8618   4
   2  -8   2 837.055 20.0262   1
   2  -8   2 884.452 28.6932   2
   2   8   2 875.704 28.3806   1
   2  -8   2 847.923 33.1507   4
   2  -8   3 2451.17 44.4517   2
   2  -8   3 2331.11 51.9072   4
   2   8   3 2402.97 47.1442   1
   2   8   4 554.591 30.8954   1
   2  -8   4 561.936 34.9046   4
   2  -8   5 503.320 36.3815   4
   2   8   5 508.729 30.7635   1
   2   8   6 127.614 27.4650   1
   2  -8   6 167.914 30.5750   4
   2  -8   7 70.5171 28.0452   4
   2  -9  -8 69.3196 23.7875   5
   2   9  -8 70.0973 21.1676   3
   2  -9  -8 94.5744 20.3168   3
   2  -9  -7 190.650 24.1999   3
   2   9  -7 157.347 22.3798   3
   2  -9  -7 178.257 24.1814   5
   2   9  -6 81.6453 21.7229   3
   2  -9  -6 76.4132 20.4986   3
   2  -9  -6 82.5098 23.7671   5
   2   9  -5 1460.75 39.1263   3
   2  -9  -5 1571.90 43.4527   5
   2  -9  -5 1433.51 37.9890   3
   2  -9  -5 1409.82 35.6738   2
   2   9  -4 639.703 24.2847   3
   2  -9  -4 763.065 26.2458   3
   2  -9  -4 739.923 28.9861   5
   2  -9  -4 794.524 26.8140   2
   2   9  -3 4549.40 54.7200   3
   2  -9  -3 4613.19 50.0878   3
   2  -9  -3 4745.22 54.6263   2
   2  -9  -3 4860.91 59.0964   5
   2   9  -3 4786.80 50.6671   1
   2  -9  -2 9359.40 73.4040   2
   2   9  -2 9083.08 70.1562   3
   2   9  -2 9109.90 65.0277   1
  -2   9   2 9489.75 74.9373   0
   2  -9  -2 9295.13 73.9240   5
   2  -9  -1 457.514 20.6737   2
   2   9  -1 404.974 17.9377   3
   2   9  -1 372.178 17.3477   1
   2  -9  -1 467.828 17.6884   5
   2   9   0 3826.94 44.3879   3
   2  -9   0 3662.61 33.4907   1
  -2   9   0 3792.17 28.8318   3
   2  -9   0 3890.22 48.4209   2
   2   9   0 3890.18 45.1222   1
   2  -9   0 3695.72 36.9242   5
   2  -9   0 3854.20 51.7344   4
   2   9   1 2408.45 39.3085   1
   2   9   1 2407.60 36.7840   3
   2  -9   1 2514.25 41.7206   2
   2  -9   1 2434.85 27.6883   1
   2  -9   1 2561.93 46.4435   4
   2  -9   2 2687.29 44.9438   2
   2   9   2 2550.37 40.0428   3
   2  -9   2 2595.02 51.1380   4
   2   9   2 2672.93 44.9554   1
   2   9   3 76.7789 21.5607   1
   2  -9   3 79.5801 18.2209   2
   2  -9   3 75.6773 24.7154   4
   2   9   4 518.973 30.7950   1
   2  -9   4 466.884 32.6519   4
   2  -9   5 13.6320 28.6312   4
   2   9   5-2.83877 24.1767   1
   2   9   6 571.397 35.6465   1
   2  -9   6 507.496 38.0167   4
   2  -9   7 15.3110 19.8557   4
   2 -10  -8 235.112 30.1091   3
   2  10  -8 212.824 29.4661   3
   2 -10  -8 223.685 30.6104   5
   2  10  -7 376.281 30.4008   3
   2 -10  -7 366.503 29.1587   3
   2 -10  -7 421.161 31.8757   5
   2  10  -6 9.63398 19.2488   3
   2 -10  -6-23.3458 21.2390   5
   2 -10  -6 20.4571 19.0257   3
   2  10  -5 1133.11 35.3455   3
   2 -10  -5 1115.89 33.7770   2
   2 -10  -5 1135.20 34.6845   3
   2 -10  -5 1141.85 38.2442   5
   2  10  -4 914.940 28.3278   3
   2 -10  -4 1071.72 30.4752   3
   2 -10  -4 1080.74 34.6215   5
   2 -10  -4 1049.11 31.6521   2
   2  10  -3 1041.44 29.4386   3
   2 -10  -3 1066.33 26.1711   3
   2 -10  -3 1063.40 30.9913   5
   2 -10  -3 1093.49 31.2681   2
   2  10  -3 1142.47 27.2397   1
   2  10  -2 3837.83 48.0838   3
   2  10  -2 3794.23 43.2095   1
   2 -10  -2 3759.06 49.4199   5
   2 -10  -2 3720.29 49.6813   2
  -2  10   1 752.951 16.7308   3
   2  10  -1 702.874 22.5971   3
   2 -10  -1 732.132 23.9862   2
   2  10  -1 744.077 21.7589   1
   2 -10  -1 727.533 20.9473   5
  -2  10   0 729.096 14.4257   3
   2 -10   0 738.057 25.6682   2
   2  10   0 722.779 22.5173   1
   2 -10   0 652.682 17.3790   5
   2 -10   0 655.600 15.2206   1
   2  10   0 698.770 22.4021   3
   2 -10   0 703.196 27.8139   4
   2  10   1 183.336 18.4470   1
   2  10   1 175.385 15.6294   3
   2 -10   1 157.383 18.7004   2
   2 -10   1 201.789 23.8101   4
   2  10   2 3718.98 49.5980   3
   2 -10   2 3909.70 53.6586   2
   2 -10   2 3780.72 61.0039   4
   2  10   2 3845.39 53.1618   1
   2 -10   3 540.645 25.9053   2
   2 -10   3 527.192 33.6150   4
   2  10   3 483.225 27.8080   1
   2  10   4 2481.60 52.6435   1
   2 -10   4 2282.14 55.7692   4
   2  10   5 83.7271 23.6837   1
   2 -10   5 86.8853 28.6298   4
   2  10   6-10.9015 27.8389   1
   2 -10   6 2.19643 29.3022   4
   2 -10   7 22.3221 24.8372   4
   2  11  -8 42.7197 21.8094   3
   2 -11  -8 65.8705 23.1750   3
   2 -11  -8 43.3014 25.9039   5
   2  11  -7 140.399 23.1447   3
   2 -11  -7 141.492 22.8811   3
   2 -11  -7 120.237 25.8978   5
   2  11  -6 264.103 24.1891   3
   2 -11  -6 244.041 23.3787   3
   2 -11  -6 263.538 26.3701   5
   2  11  -5 1154.63 36.4074   3
   2 -11  -5 1281.25 36.9375   3
   2 -11  -5 1290.68 41.0719   5
   2 -11  -5 1379.88 37.8751   2
   2  11  -4 1698.47 38.9784   3
   2 -11  -4 1727.50 37.5994   3
   2 -11  -4 1789.72 43.6928   5
   2 -11  -4 1698.98 39.4828   2
   2  11  -3 1085.40 30.8150   3
   2 -11  -3 1082.16 27.4297   3
   2 -11  -3 1107.89 31.9597   5
   2 -11  -3 1131.54 32.4631   2
   2  11  -3 1106.83 27.1399   1
   2 -11  -2 1443.51 34.9122   2
   2  11  -2 1314.27 30.8865   3
   2  11  -2 1314.00 27.5146   1
   2 -11  -2 1357.44 31.3847   5
  -2  11   1 1807.10 26.3728   3
   2  11  -1 1818.89 34.6108   3
   2  11  -1 1746.72 31.0331   1
   2 -11  -1 1830.55 36.9838   2
   2 -11  -1 1709.23 31.0119   5
   2  11   0 1004.65 27.1624   3
   2 -11   0 805.344 18.8763   5
   2  11   0 1006.60 26.2015   1
   2 -11   0 1020.73 29.5354   2
   2 -11   0 999.673 32.8071   4
   2  11   1 4326.58 52.4641   1
   2  11   1 4173.69 51.7163   3
   2 -11   1 4426.86 56.4518   2
   2 -11   1 4630.98 64.2850   4
   2 -11   2 1573.91 36.8492   2
   2  11   2 1526.26 34.6071   3
   2 -11   2 1541.55 45.1014   4
   2  11   2 1521.18 37.1078   1
   2  11   3 78.0771 21.5902   1
   2 -11   3 104.190 20.0353   2
   2 -11   3 79.9749 27.6144   4
   2 -11   4 362.080 23.8066   2
   2  11   4 353.377 30.3796   1
   2 -11   4 326.388 31.3830   4
   2  11   5 279.840 29.2860   1
   2 -11   5 245.192 30.2217   4
   2 -11   6 150.123 27.4853   4
   2  11   6 149.295 27.3004   1
   2 -11   7 145.777 26.3130   4
   2  12  -7-14.8464 22.6029   3
   2 -12  -7-10.0708 19.8092   3
   2 -12  -7-2.83920 23.8604   5
   2  12  -6 214.870 25.0111   3
   2 -12  -6 189.300 23.2111   3
   2 -12  -6 240.173 24.8276   5
   2  12  -5 602.513 29.8559   3
   2 -12  -5 591.484 27.8782   3
   2 -12  -5 546.300 30.7268   5
   2 -12  -5 637.982 29.7401   2
   2  12  -4 310.303 22.7343   3
   2 -12  -4 362.921 21.6885   3
   2 -12  -4 375.648 24.9561   2
   2 -12  -4 351.592 25.9353   5
   2  12  -3 3135.31 42.2136   1
   2  12  -3 2887.45 48.4135   3
   2 -12  -3 3000.15 50.5648   5
   2 -12  -3 3017.52 50.4960   2
   2  12  -2 1256.75 31.4505   3
   2  12  -2 1259.48 27.1222   1
   2 -12  -2 1261.36 30.9508   5
   2 -12  -2 1261.54 33.7881   2
  -2  12   1 1307.63 23.9205   3
   2 -12  -1 1310.50 33.5168   2
   2  12  -1 1350.86 31.3855   3
   2  12  -1 1327.35 27.4817   1
   2 -12  -1 1279.57 27.5545   5
   2 -12   0 2505.93 44.0161   2
   2  12   0 2608.92 42.3610   3
   2  12   0 2597.96 39.0108   1
   2 -12   0 2578.04 49.3133   4
   2  12   1 980.014 28.5601   1
   2  12   1 938.740 28.1940   3
   2 -12   1 941.439 30.7509   2
   2 -12   1 965.677 37.5076   4
   2  12   2 5.02097 18.2221   1
   2  12   2 15.3251 14.9873   3
   2 -12   2-4.80838 17.1603   2
   2 -12   2 6.07200 26.6104   4
   2 -12   3 2810.79 50.5158   2
   2  12   3 2727.98 50.9515   1
   2 -12   3 2715.57 59.3044   4
   2 -12   4 351.161 25.0070   2
   2  12   4 331.668 29.4301   1
   2 -12   4 319.174 31.3451   4
   2  12   5 217.677 28.7372   1
   2 -12   5 234.454 31.9598   4
   2  12   6 31.7675 29.4257   1
   2 -12   6 36.1233 29.9762   4
   2 -13  -7 52.1065 22.5637   3
   2  13  -7 20.1113 15.1522   3
   2  13  -6 242.620 23.5471   3
   2 -13  -6 136.018 21.6693   5
   2 -13  -6 151.210 20.9195   2
   2 -13  -6 204.341 22.0324   3
   2  13  -5 248.695 23.0481   3
   2 -13  -5 238.000 21.5599   3
   2 -13  -5 281.497 25.5144   2
   2 -13  -5 234.829 26.1533   5
   2  13  -4 355.324 24.0265   3
   2 -13  -4 389.116 25.9421   5
   2 -13  -4 407.435 26.9375   2
   2 -13  -3 2688.13 49.3465   2
   2  13  -3 2702.05 47.6740   3
   2 -13  -3 2619.02 49.0361   5
   2  13  -2 572.782 24.6210   3
   2  13  -2 589.737 20.4113   1
   2 -13  -2 566.640 23.2788   5
   2 -13  -2 588.559 27.5970   2
   2 -13  -1 705.636 28.7469   2
  -2  13   1 753.445 20.3811   3
   2  13  -1 752.223 22.3653   1
   2 -13  -1 747.632 22.7577   5
   2  13  -1 765.979 26.6481   3
   2 -13   0 4653.96 59.4003   2
   2  13   0 4471.82 56.2217   3
   2  13   0 4590.01 51.5983   1
   2 -13   0 4654.11 64.9912   4
   2  13   1 950.441 28.9609   3
   2 -13   1 955.040 32.0563   2
   2  13   1 917.536 28.1892   1
   2 -13   1 993.797 38.7025   4
   2 -13   2 1832.00 41.2104   2
   2  13   2 1897.45 40.3886   3
   2 -13   2 1874.11 50.1165   4
   2  13   2 1937.79 41.2107   1
   2  13   3 168.677 19.7932   3
   2  13   3 154.673 24.0489   1
   2 -13   3 132.500 21.1084   2
   2 -13   3 127.082 29.5913   4
   2  13   4 79.8296 22.5205   1
   2 -13   4 69.4008 20.0259   2
   2 -13   4 35.3225 28.5481   4
   2  13   5 12.9872 22.4912   1
   2 -13   5 12.2736 30.9217   4
   2  13   6 250.069 34.7435   1
   2 -13   6 232.691 31.7003   4
   2 -14  -7 230.112 28.5625   3
   2 -14  -7 185.582 29.5431   5
   2  14  -7 172.784 26.7059   3
   2  14  -6 147.641 24.0600   3
   2 -14  -6 71.1268 18.6555   2
   2 -14  -6 116.899 21.3474   3
   2 -14  -6 89.4206 22.8635   5
   2 -14  -5 110.779 21.3903   2
   2  14  -5 40.6171 16.3444   3
   2 -14  -5 41.5954 21.7436   5
   2 -14  -5 73.6322 17.1169   3
   2  14  -4 586.736 28.3561   3
   2 -14  -4 616.921 30.7891   5
   2 -14  -4 619.896 30.2332   2
   2  14  -3 720.592 29.0503   3
   2 -14  -3 688.782 30.6541   2
   2 -14  -3 646.180 28.9307   5
   2  14  -2 624.427 26.0051   3
   2 -14  -2 627.987 24.6506   5
   2 -14  -2 624.334 29.2167   2
   2  14  -1 26.2167 12.2872   1
  -2  14   1 14.0368 8.51177   3
   2 -14  -1-3.53676 20.1611   2
   2  14  -1 14.0236 14.7846   3
   2 -14  -1-0.82535 9.74199   5
   2 -14   0 856.988 31.0947   2
   2  14   0 770.516 27.8249   3
   2  14   0 770.656 25.1687   1
   2  14   1 2160.63 42.5652   3
   2  14   1 2263.74 40.9159   1
   2 -14   1 2216.84 45.0237   2
   2 -14   1 2187.11 51.6752   4
   2  14   2 565.637 26.8733   3
   2 -14   2 474.952 26.0031   2
   2  14   2 527.743 25.7610   1
   2 -14   2 430.801 33.7843   4
   2  14   3 1514.35 40.2453   3
   2 -14   3 1487.14 40.4792   2
   2 -14   3 1510.29 48.5911   4
   2  14   3 1570.04 42.2946   1
   2 -14   4 535.346 28.3221   2
   2 -14   4 514.996 39.1433   4
   2  14   4 527.523 31.2222   1
   2  14   5-12.6383 21.4132   1
   2 -14   5 9.80727 26.0136   4
   2  14   6 67.7706 28.0585   1
   2 -14   6 66.7138 33.7580   4
   2  15  -7 119.863 25.3460   3
   2 -15  -7 111.416 22.0070   3
   2 -15  -7 146.159 28.1687   5
   2 -15  -6 219.104 24.8227   3
   2  15  -6 155.553 26.5305   3
   2 -15  -6 131.175 26.2501   5
   2 -15  -6 258.774 28.7079   2
   2  15  -5 786.268 31.2057   3
   2 -15  -5 906.124 39.8754   5
   2 -15  -5 837.930 35.6844   2
   2  15  -4 486.483 27.6478   3
   2 -15  -4 514.633 28.7896   5
   2 -15  -4 478.894 28.7808   2
   2  15  -3 1980.18 43.7689   3
   2 -15  -3 1991.37 45.5667   5
   2 -15  -3 2032.53 46.7467   2
  -2  15   2 647.653 22.6424   3
   2  15  -2 584.694 25.5924   3
   2 -15  -2 663.802 25.8041   5
   2 -15  -2 640.740 31.0236   2
   2 -15  -1 1469.16 38.9347   2
   2  15  -1 1520.09 36.8812   3
   2 -15  -1 1010.02 25.7040   5
  -2 -15   1 1470.17 35.0047   2
   2 -15   0 8.45613 17.1294   2
   2  15   0 6.46998 16.5697   3
   2  15   0-1.26028 14.0017   1
   2  15   1 3728.30 56.3439   3
   2  15   1 3937.91 52.3738   1
   2 -15   1 4013.29 59.6669   2
   2 -15   1 4197.47 69.3396   4
   2 -15   2 172.569 28.2115   4
   2  15   2 169.088 19.5591   3
   2 -15   2 158.750 21.5987   2
   2  15   2 185.999 19.8580   1
   2  15   3 419.007 27.0345   3
   2 -15   3 384.345 25.8120   2
   2 -15   3 381.436 35.7297   4
   2  15   3 398.555 28.3634   1
   2  15   4 32.9955 21.2041   1
   2 -15   4 38.2138 26.3712   4
   2  15   5 389.404 31.3214   1
   2 -15   5 394.737 38.6909   4
   2  15   6 2.67865 23.6538   1
   2 -15   6 45.1692 27.4986   4
   2  16  -7 24.4460 24.6895   3
   2 -16  -7 76.5175 22.5680   5
   2 -16  -6 131.928 24.6570   2
   2  16  -6 145.238 28.1508   3
   2 -16  -6 120.323 25.4810   5
   2  16  -5 134.503 19.0104   3
   2 -16  -5 155.348 23.9008   5
   2 -16  -5 195.992 24.7751   2
   2 -16  -4 41.0858 22.4030   2
   2  16  -4 14.6831 18.1157   3
   2 -16  -4 37.9347 20.8052   5
   2  16  -3 665.359 29.1545   3
   2 -16  -3 678.616 30.4050   5
   2 -16  -3 654.023 32.7371   2
  -2  16   2 642.318 23.4962   3
   2  16  -2 630.223 28.3881   3
   2 -16  -2 604.086 25.7202   5
   2 -16  -2 596.162 31.8615   2
   2 -16  -1 709.586 32.1040   2
   2  16  -1 719.409 28.7194   3
  -2 -16   1 757.356 28.2619   2
   2 -16   0 240.297 23.5024   2
   2  16   0 241.584 21.2345   3
   2  16   1 263.703 21.6530   3
   2  16   1 307.838 20.8527   1
   2 -16   1 296.710 24.8467   2
   2 -16   1 316.188 31.6288   4
   2 -16   2 5.61051 29.0044   4
   2  16   2 24.6953 16.9501   1
   2  16   2 15.6660 16.7984   3
   2 -16   2 12.3771 19.8377   2
   2  16   3 1942.57 47.5804   3
   2 -16   3 1925.97 45.7340   2
   2 -16   3 1895.54 56.3500   4
   2  16   3 1974.68 47.5853   1
   2  16   4 246.891 25.2299   3
   2  16   4 267.941 29.8844   1
   2 -16   4 254.200 36.2629   4
   2  16   5 218.540 28.7828   1
   2 -16   5 236.754 32.0778   4
   2 -16   6 26.7475 26.6950   4
   2  17  -6 277.293 27.9521   3
   2 -17  -6 197.980 27.1577   5
   2 -17  -6 285.539 28.2055   2
   2  17  -5 501.253 27.0221   3
   2 -17  -5 558.043 34.6898   5
   2 -17  -5 666.599 36.5794   2
   2 -17  -4 11.9802 20.5147   2
   2  17  -4-4.40458 17.4805   3
   2 -17  -4-3.22697 19.7403   5
   2  17  -3 480.596 27.2540   3
   2 -17  -3 460.008 27.1613   5
   2 -17  -3 455.093 29.8309   2
  -2  17   2 564.672 23.5314   3
   2  17  -2 580.345 28.5648   3
   2 -17  -2 565.674 24.9206   5
   2 -17  -2 572.676 30.9133   2
   2 -17  -1 197.220 24.5218   2
   2  17  -1 184.767 20.7210   3
   2  17   0 1515.59 40.0988   3
   2 -17   0 1536.28 40.9100   2
  -2 -17   0 1606.02 42.6095   2
   2  17   1 85.4207 18.7075   3
   2 -17   1 94.6948 19.6965   2
   2  17   1 81.0180 16.6383   1
   2  17   2 933.352 31.8641   1
   2  17   2 909.553 33.6749   3
   2 -17   2 967.388 34.9793   2
   2 -17   2 846.736 41.1904   4
   2  17   3 836.866 34.6475   3
   2 -17   3 888.258 35.2953   2
   2 -17   3 853.307 42.8320   4
   2  17   3 1003.93 36.7318   1
   2  17   4 171.620 24.7379   3
   2  17   4 196.931 24.6086   1
   2 -17   4 208.427 30.8320   4
   2  17   5 48.4729 19.9299   3
   2  17   5 86.8731 22.1884   1
   2 -17   5 27.5222 33.3363   4
   2 -18  -6 131.559 28.0732   2
   2  18  -6 73.2639 23.0058   3
   2 -18  -6 58.8455 25.6274   5
   2  18  -5 218.659 22.9856   3
   2 -18  -5 316.187 32.4829   5
   2 -18  -5 258.057 30.6187   2
   2 -18  -4 115.213 25.6442   2
   2  18  -4 111.815 20.6573   3
   2 -18  -4 125.937 22.6966   5
   2 -18  -3 9.22444 20.9535   2
   2  18  -3 39.4516 18.0732   3
   2 -18  -3 33.9886 17.1992   5
   2  18  -2 1135.48 36.5346   3
   2 -18  -2 1113.32 33.6223   5
   2 -18  -2 1144.27 39.6620   2
   2 -18  -1 190.257 24.2757   2
   2  18  -1 150.025 19.7591   3
   2 -18   0 248.365 24.5730   2
   2  18   0 167.128 22.0386   3
  -2 -18   0 174.369 24.0724   2
   2  18   1 362.151 26.2862   3
   2 -18   1 319.101 25.1451   2
   2 -18   2 167.333 22.7913   2
   2  18   2 139.849 22.3445   3
   2  18   2 127.725 20.0605   1
   2 -18   2 173.816 31.7537   4
   2 -18   3 33.9190 29.4137   4
   2  18   3 26.7699 18.9111   1
   2  18   3 21.8231 20.0004   3
   2 -18   3 10.5669 19.9161   2
   2 -18   4 186.174 35.4708   4
   2  18   4 168.860 25.0437   1
   2  18   4 152.827 23.5696   3
   2 -18   5 107.127 36.5022   4
   2  18   5 129.842 24.2157   1
   2  18   5 107.621 21.3197   3
   2  19  -6 196.345 24.9226   3
   2 -19  -6 173.935 30.4647   2
   2 -19  -6 198.364 31.6693   5
   2  19  -5 220.140 28.1679   3
   2 -19  -5 209.547 29.0415   2
   2 -19  -5 203.644 30.4523   5
   2  19  -4 355.739 28.9935   3
   2 -19  -4 387.829 29.2882   5
   2 -19  -4 392.632 30.5654   2
   2 -19  -3 121.048 25.3716   2
  -2  19   3 105.993 18.7290   3
   2  19  -3 153.055 19.6124   3
   2 -19  -3 128.773 21.5949   5
   2 -19  -2 980.052 37.9172   2
   2  19  -2 929.882 34.6934   3
   2 -19  -1 487.844 30.0599   2
   2  19  -1 517.852 27.7276   3
   2 -19   0 745.920 33.1059   2
   2  19   0 699.349 31.2269   3
  -2 -19   0 785.600 34.9536   2
   2  19   1 760.089 32.9453   3
   2 -19   1 740.117 33.1586   2
  -2 -19  -1 829.923 38.2376   2
   2  19   2 451.550 28.3706   3
   2 -19   2 492.787 28.4798   2
   2 -19   3 111.147 34.0310   4
   2  19   3 87.5918 19.6478   3
   2 -19   3 56.8167 20.4750   2
   2 -19   4 97.5293 32.4498   4
   2  19   4 61.1501 24.8144   1
   2  19   4 102.851 23.1464   3
   2 -19   5 212.343 34.2187   4
   2  19   5 188.174 28.2742   1
   2  19   5 186.169 27.7724   3
   2 -20  -6 490.672 31.3299   5
   2 -20  -6 265.846 29.2733   2
   2 -20  -5 31.0115 25.1689   2
   2  20  -5 55.2243 20.9674   3
   2 -20  -5 42.5278 26.0260   5
   2 -20  -4 108.550 26.1372   2
   2  20  -4 94.8427 21.4492   3
   2 -20  -4 112.001 24.9053   5
  -2  20   3 562.005 27.4590   3
   2  20  -3 597.028 31.9026   3
   2 -20  -3 586.770 30.7587   5
   2 -20  -3 638.190 33.3679   2
   2 -20  -2 35.3892 24.3080   2
   2  20  -2 21.9975 18.5070   3
   2 -20  -1 210.005 25.1371   2
   2  20  -1 228.445 23.7652   3
   2  20   0 154.107 22.9525   3
   2 -20   0 144.258 23.6114   2
  -2 -20   0 207.531 26.9468   2
   2  20   1 219.496 25.7553   3
   2 -20   1 229.472 25.3386   2
  -2 -20  -1 204.177 28.5216   2
  -2 -20  -2 46.0493 28.8167   2
   2  20   2 18.8641 18.8567   3
   2 -20   2-3.93474 19.1958   2
   2  20   3 276.360 27.1896   3
   2 -20   3 304.009 35.1363   4
   2 -20   4 165.608 31.4955   4
   2  20   4 152.792 26.1228   3
   2  20   5 161.387 29.3335   1
   2 -21  -6-5.43566 20.8957   2
   2  21  -5 240.411 28.1762   3
   2 -21  -5 224.201 29.4234   5
   2 -21  -5 246.469 30.4617   2
  -2  21   4 510.831 29.9519   3
   2  21  -4 485.261 32.5623   3
   2 -21  -4 549.587 36.4629   5
   2 -21  -4 499.905 36.3639   2
   2  21  -3 243.000 26.0617   3
   2 -21  -3 231.194 23.6681   5
   2 -21  -3 239.486 29.7305   2
   2 -21  -2 119.136 24.5054   2
   2  21  -2 131.578 22.4634   3
   2 -21  -1 19.0352 22.0416   2
   2  21  -1 59.9670 19.9846   3
   2 -21   0 2196.46 53.3926   2
   2  21   0 2223.68 53.3549   3
  -2 -21   0 2100.12 51.5151   2
  -2 -21  -1 100.730 27.2351   2
   2  21   1 90.2958 22.6708   3
   2 -21   1 87.5075 22.9170   2
  -2 -21  -2 268.875 35.4959   2
   2  21   2 187.794 24.9073   3
   2 -21   2 172.045 23.6958   2
  -2 -21  -3 63.6542 33.6886   2
   2  21   3 15.1262 21.0081   3
   2 -21   4 7.62514 33.2537   4
   2  21   4 23.1067 18.2224   3
  -2 -21  -4 76.7268 32.7869   2
   2 -22  -5 20.3033 24.5628   2
   2  22  -5 8.10178 17.1231   3
   2 -22  -5 7.57030 22.7253   5
   2 -22  -4 126.765 26.2068   2
  -2  22   4 127.723 22.8869   3
   2  22  -4 124.823 25.7221   3
   2 -22  -4 147.365 27.2780   5
   2 -22  -3 117.076 27.1018   2
   2  22  -3 92.8959 23.1217   3
   2 -22  -2 96.6300 26.7144   2
   2  22  -2 111.078 23.0012   3
   2  22  -1 200.370 24.5408   3
   2 -22  -1 192.176 27.9987   2
   2 -22   0 196.302 27.0015   2
   2  22   0 146.497 24.5582   3
  -2 -22   0 179.995 26.7597   2
  -2 -22  -1 55.7829 29.0017   2
   2  22   1 55.1475 23.1021   3
   2 -22   1 58.1945 22.9586   2
   2 -22   2 341.361 26.9222   2
   2  22   2 276.177 28.5306   3
  -2 -22  -2 359.437 35.7436   2
  -2 -22  -3 66.3553 32.3742   2
   2  22   3 37.3875 22.9841   3
  -2  23   5 499.444 35.0459   3
   2 -23  -5 486.978 35.1619   5
   2  23  -4 162.317 25.9594   3
   2 -23  -4 296.016 28.0148   5
   2 -23  -4 215.245 29.6055   2
   2 -23  -3 45.8185 24.7504   2
   2  23  -3 56.2882 21.0154   3
   2 -23  -2 32.4430 23.6993   2
   2  23  -2 19.1469 19.4322   3
   2 -23  -1 341.152 28.6439   2
   2  23  -1 382.108 29.1404   3
   2 -23   0 40.5239 22.9408   2
   2  23   0 11.3469 21.4959   3
   2  23   1 1282.52 46.6609   3
   2 -23   1 1226.50 44.3892   2
  -2 -23  -1 1308.31 48.9873   2
  -2 -23  -2-12.9345 31.4513   2
   2  23   2 6.03782 19.6554   3
   2 -23   2 1.60425 20.6487   2
  -2 -23  -3 95.4942 34.6920   2
   2  23   3 90.1681 20.6807   3
   2 -24  -4 58.1985 30.3173   2
   2  24  -4 17.0049 20.9033   3
   2 -24  -3 157.015 28.5965   2
   2  24  -3 168.808 23.9605   3
   2  24  -2 192.565 24.7931   3
   2 -24  -2 179.760 31.9930   2
   2  24  -1 180.550 23.7718   3
   2 -24  -1 180.323 29.0002   2
   2 -24   0 81.7396 21.5271   2
   2  24   0 95.7947 20.6659   3
   2  24   1 214.472 26.5584   3
   2 -24   1 222.237 28.4853   2
  -2 -24  -1 248.611 34.8028   2
   2  24   2 189.770 27.5138   3
  -2 -24  -2 154.529 32.7622   2
   2 -24   2 162.453 23.9764   2
   2 -25  -3 16.2386 33.2590   2
   2  25  -3 55.5358 20.9467   3
   2 -25  -2-11.6879 22.6913   2
   2  25  -2 10.8839 20.2145   3
   2 -25  -1 128.846 26.7125   2
   2  25  -1 104.664 24.7113   3
   2 -25   0 339.758 31.7276   2
   2  25   0 352.911 28.8209   3
  -2 -25  -1 66.7358 29.8277   2
   2  25   1 53.7837 21.8885   3
   2 -25   1 51.1577 23.0140   2
  -2 -25  -2 76.5876 33.8493   2
   2  25   2 67.5605 26.6265   3
   2  26  -2 229.587 25.7485   3
   2 -26  -2 227.396 31.4203   2
   2 -26  -1 22.9356 26.2791   2
   2  26  -1 46.6706 22.0931   3
   2 -26   0 41.1699 24.9150   2
   2  26   0 57.0182 22.5528   3
  -2 -26  -1 20.5042 30.3684   2
   2 -26   1-0.17363 22.1100   2
   2 -27   1 71.9307 22.8761   2
   3   0  -8 356.625 29.4568   3
   3   0  -8 304.863 26.2152   5
   3   0  -7 242.099 27.4469   3
   3   0  -7 243.093 25.9323   5
   3   0  -6 8.50088 18.3815   3
   3   0  -6 12.1605 16.8354   5
   3   0  -5-0.29126 15.7928   3
   3   0  -5 4.40586 17.1428   5
   3   0  -4 8383.60 72.6581   3
   3   0  -3 143.299 12.5188   2
   3   0  -3 182.168 13.1117   3
   3   0  -3 187.634 20.7896   1
   3   0  -2 11500.6 62.0364   3
   3   0  -2 11243.5 71.1722   2
   3   0  -2 11222.2 83.4260   1
   3   0  -1 1101.00 26.9272   2
   3   0  -1 1068.13 28.6117   1
   3   0   0 1831.30 36.0840   1
   3   0   1 612.878 25.0337   1
   3   0   2 1790.52 39.3010   1
   3   0   3 274.369 22.7247   1
   3   0   4 3384.68 59.3852   1
   3   0   5 1.94790 22.9980   1
   3   0   6 83.6382 25.8498   1
   3   1  -8 8.99617 19.9216   3
   3  -1  -8 49.7012 22.9662   3
   3   1  -8 13.1690 17.7424   5
   3  -1  -7 211.735 25.0717   5
   3   1  -7 193.088 27.7546   3
   3  -1  -7 159.407 22.1290   3
   3   1  -7 160.223 21.6198   5
   3  -1  -6 248.708 23.2835   5
   3   1  -6 293.070 23.2101   3
   3  -1  -6 256.842 22.5645   3
   3   1  -6 277.812 24.0671   5
   3   1  -5 849.394 29.8441   3
   3  -1  -5 881.404 29.9649   3
   3  -1  -5 850.843 31.9649   5
   3   1  -5 844.001 32.0935   5
   3   1  -4 56.0081 14.8993   3
   3  -1  -4 71.8536 14.4506   3
   3  -1  -4 90.1534 18.4789   5
   3  -1  -3 133.368 18.8588   1
   3  -1  -3 122.516 12.7195   2
   3   1  -3 131.298 13.3723   3
   3  -1  -3 125.573 12.1808   3
   3   1  -3 122.940 20.3511   1
   3  -1  -2 353.940 18.1745   2
   3   1  -2 399.902 15.3902   3
   3  -1  -2 355.247 13.6221   3
   3   1  -2 399.142 17.5567   2
   3   1  -2 441.546 22.7951   1
   3  -1  -2 404.471 22.1074   1
   3  -1  -1 2445.01 37.5006   2
   3   1  -1 2412.38 40.2535   1
   3  -1  -1 2402.90 39.3137   1
   3  -1  -1 2570.58 37.6858   4
   3   1   0 1839.03 36.6268   1
   3  -1   0 1720.60 35.5955   2
   3  -1   0 1847.64 35.8046   1
   3   1   1 1816.67 37.5907   1
   3  -1   1 1734.48 36.2182   1
   3   1   2 387.596 23.9536   1
   3  -1   2 373.419 22.9267   1
   3   1   3 150.797 22.9004   1
   3  -1   3 159.364 20.8136   1
   3   1   4 735.273 33.9524   1
   3  -1   4 731.687 32.5593   1
   3   1   5 132.141 24.1870   1
   3  -1   5 142.332 22.5051   1
   3   1   6 140.969 25.5976   1
   3  -1   6 178.737 26.9017   1
   3   2  -8 245.097 25.7567   3
   3  -2  -8 252.505 28.8680   3
   3  -2  -8 278.163 28.7099   5
   3  -2  -7 215.852 24.8064   5
   3   2  -7 183.008 24.6991   3
   3  -2  -7 184.621 25.1305   3
   3   2  -7 177.264 22.8474   5
   3   2  -6 169.608 20.2733   3
   3  -2  -6 164.398 21.9490   3
   3  -2  -6 186.022 23.2976   5
   3   2  -6 202.829 22.0993   5
   3   2  -5 831.216 29.5955   3
   3  -2  -5 855.230 28.7681   3
   3  -2  -5 884.039 32.9241   5
   3   2  -4 584.998 23.8863   3
   3  -2  -4 556.795 22.2897   3
   3  -2  -4 506.378 25.8548   5
   3  -2  -3 5419.92 61.1381   1
   3  -2  -3 5428.21 49.7231   2
   3   2  -3 5440.93 53.0139   3
   3  -2  -3 5511.23 50.2368   3
   3   2  -3 5425.60 62.1836   1
   3  -2  -2 4610.08 48.4128   2
   3   2  -2 4705.44 42.5903   3
   3  -2  -2 4757.54 38.1137   3
   3   2  -2 4731.60 55.5359   1
   3  -2  -2 4679.58 54.5344   1
   3   2  -1 1123.24 18.7788   3
   3  -2  -1 1137.49 28.4750   2
   3   2  -1 1115.36 29.2492   1
   3  -2  -1 1117.34 28.3537   1
   3  -2  -1 1215.47 27.4334   4
   3   2   0 324.988 22.1432   1
   3  -2   0 280.293 20.4466   2
   3  -2   0 257.369 19.0730   1
   3  -2   0 304.421 22.2904   4
   3   2   1 1512.36 35.6056   1
   3  -2   1 1548.50 34.1832   1
   3   2   2 134.448 20.5353   1
   3  -2   2 119.255 19.0468   1
   3   2   3 2005.38 45.1493   1
   3  -2   3 2034.38 43.5578   1
   3   2   4 387.228 28.1597   1
   3  -2   4 350.768 25.5233   1
   3   2   5 416.337 29.0590   1
   3  -2   5 461.008 29.7410   1
   3   2   6 172.734 28.8774   1
   3  -2   6 127.930 24.4223   1
   3   3  -8 149.442 22.1449   3
   3  -3  -8 166.714 24.1702   3
   3  -3  -8 117.673 25.4953   5
   3   3  -7 237.294 26.2032   3
   3  -3  -7 259.934 25.2038   3
   3  -3  -7 277.386 26.9353   5
   3  -3  -6 423.247 29.1575   5
   3   3  -6 439.248 27.2875   3
   3  -3  -6 444.599 26.9351   3
   3   3  -5 1613.31 39.0941   3
   3  -3  -5 1574.51 37.5451   3
   3  -3  -5 1651.51 43.3886   5
   3   3  -4 185.711 17.0324   3
   3  -3  -4 209.880 16.5488   3
   3  -3  -4 219.633 20.9392   5
   3  -3  -3 381.564 23.2830   1
   3  -3  -3 329.863 16.8803   2
   3  -3  -3 362.876 21.8675   5
   3   3  -3 345.657 17.6401   3
   3  -3  -3 365.185 16.2879   3
   3   3  -3 412.125 23.6753   1
   3  -3  -2 620.006 21.5955   2
   3   3  -2 488.988 15.4868   3
   3   3  -2 587.775 24.3763   1
   3  -3  -2 616.242 24.3855   1
   3  -3  -2 622.607 19.0444   4
   3   3  -1 2394.91 28.3670   3
   3  -3  -1 2368.44 39.0368   2
   3   3  -1 2409.22 40.6184   1
   3  -3  -1 2348.58 38.1403   1
   3  -3  -1 2370.96 36.5518   4
   3  -3   0 6227.12 64.1941   2
   3   3   0 6400.08 64.7757   1
   3  -3   0 6327.36 60.2597   1
   3  -3   0 7307.57 72.8876   4
   3   3   1 435.559 24.8744   1
   3  -3   1 425.591 21.5878   1
   3  -3   1 446.200 25.8906   2
   3  -3   1 468.406 27.4185   4
   3   3   2 1693.51 40.0105   1
   3  -3   2 1761.18 37.9088   1
   3   3   3 755.708 32.2104   1
   3  -3   3 859.054 30.2942   1
   3   3   4 657.262 32.1164   1
   3  -3   4 691.599 29.8276   1
   3   3   5 101.999 26.4315   1
   3  -3   5 110.842 22.0274   1
   3  -3   6 481.009 43.3423   4
   3   3   6 552.636 38.0391   1
   3   4  -8 116.413 23.9492   3
   3  -4  -8 141.774 24.5435   3
   3  -4  -8 135.022 23.1174   5
   3   4  -7 1037.19 39.4085   3
   3  -4  -7 1054.27 39.3392   3
   3  -4  -7 1017.23 41.4777   5
   3   4  -6 77.3090 20.1229   3
   3  -4  -6 70.5612 19.7357   3
   3  -4  -6 89.5060 20.1901   5
   3   4  -5 234.888 21.0758   3
   3  -4  -5 204.527 20.2976   3
   3  -4  -5 227.475 22.9766   5
   3   4  -4 1877.23 38.4338   3
   3  -4  -4 1904.35 43.2984   5
   3  -4  -4 1918.38 35.8736   3
   3  -4  -3 1342.78 28.7374   2
   3   4  -3 1378.86 29.5741   3
   3  -4  -3 1399.12 26.8140   3
   3  -4  -3 1409.93 35.4770   5
   3   4  -3 1368.77 34.3410   1
   3  -4  -2 3055.00 42.2299   2
   3   4  -2 2950.35 36.3854   3
   3   4  -2 3043.58 45.7703   1
   3  -4  -2 3010.78 44.3606   1
   3  -4  -2 3108.38 37.2362   4
   3   4  -1 1859.74 26.7183   3
   3  -4  -1 1889.78 36.1864   2
   3   4  -1 1856.15 36.7425   1
   3  -4  -1 1837.60 33.8197   1
   3  -4  -1 1863.36 33.9179   4
   3  -4   0 84.7821 14.5443   1
   3   4   0 79.7684 9.39520   3
   3  -4   0 87.1308 17.4243   2
   3   4   0 82.4868 18.0916   1
   3  -4   0 82.5299 20.6389   4
   3  -4   1 2683.77 52.3103   4
   3   4   1 2346.32 43.8350   1
   3  -4   1 2406.80 39.1533   1
   3  -4   1 2553.40 46.2710   2
   3   4   2 2494.30 47.4058   1
   3  -4   2 2676.69 44.4165   1
   3  -4   2 2711.48 56.0824   4
   3   4   3 1844.68 44.8917   1
   3  -4   3 1742.51 39.6609   1
   3  -4   3 1891.64 54.1341   4
   3  -4   4 641.498 28.4608   1
   3  -4   4 634.990 39.9964   4
   3   4   4 650.189 32.9754   1
   3  -4   5 265.551 35.1125   4
   3   4   5 266.784 30.1473   1
   3   4   6 62.4633 28.9248   1
   3  -4   6 20.2190 34.2019   4
   3   5  -8 18.9343 19.9458   3
   3  -5  -8-14.0847 21.9814   3
   3  -5  -8-35.1796 21.6289   5
   3  -5  -7 252.816 24.8190   5
   3   5  -7 230.044 24.9397   3
   3  -5  -7 250.931 24.8432   3
   3   5  -6 526.524 30.0821   3
   3  -5  -6 494.177 27.5499   3
   3  -5  -6 495.142 30.5279   5
   3   5  -5 1211.63 35.9080   3
   3  -5  -5 1138.62 32.7054   3
   3  -5  -5 1124.94 38.4649   5
   3  -5  -4 292.945 17.4514   2
   3   5  -4 332.984 20.3444   3
   3  -5  -4 327.474 18.7053   3
   3  -5  -4 315.892 23.4783   5
   3  -5  -3 510.053 20.5060   2
   3   5  -3 450.775 19.5276   3
   3  -5  -3 493.927 17.1427   3
   3  -5  -3 474.155 23.7512   5
   3   5  -3 503.040 24.2879   1
   3  -5  -2 253.303 17.5023   2
   3   5  -2 268.537 14.9607   3
   3   5  -2 265.672 20.6387   1
   3  -5  -2 244.803 19.5487   1
   3  -5  -2 282.939 16.8417   4
   3   5  -1 1948.16 28.8096   3
   3  -5  -1 1828.82 36.3502   2
   3   5  -1 2022.84 38.5994   1
   3  -5  -1 1907.93 35.8621   4
   3  -5  -1 1862.79 34.3476   1
   3   5   0 1227.82 22.6998   3
   3  -5   0 1154.04 32.2771   2
   3   5   0 1245.75 32.9801   1
   3  -5   0 1174.37 27.8625   1
   3  -5   0 1195.86 33.4785   4
   3   5   1 2957.36 48.9508   1
   3  -5   1 2964.19 43.1718   1
   3  -5   1 2946.07 50.0978   2
   3  -5   1 3255.21 57.5061   4
   3   5   2 734.546 30.1813   1
   3  -5   2 747.719 26.7974   1
   3  -5   2 716.441 36.9990   4
   3   5   3 1023.96 37.3993   1
   3  -5   3 1040.96 31.7701   1
   3  -5   3 1088.07 46.9373   4
   3   5   4 120.112 24.4113   1
   3  -5   4 80.4487 17.1010   1
   3  -5   4 117.225 28.2210   4
   3  -5   5 441.866 41.1258   4
   3   5   5 371.078 33.0738   1
   3   5   6-21.4854 32.7708   1
   3  -5   6-7.07111 30.6218   4
   3   6  -8 310.029 30.5229   3
   3  -6  -8 230.706 26.1190   3
   3  -6  -8 168.883 28.4965   5
   3  -6  -7 99.1860 25.3149   5
   3  -6  -7 109.951 20.7153   3
   3   6  -7 89.6948 20.7263   3
   3   6  -6 448.309 28.9207   3
   3  -6  -6 428.435 25.8674   3
   3  -6  -6 469.414 31.3646   5
   3   6  -5 712.577 29.3324   3
   3  -6  -5 693.113 27.4716   3
   3  -6  -5 621.032 31.6123   5
   3  -6  -4 304.849 18.6540   2
   3   6  -4 351.245 24.6195   1
   3   6  -4 270.214 20.1272   3
   3  -6  -4 290.241 17.7020   3
   3  -6  -4 324.036 24.9375   5
   3  -6  -3 4306.71 51.0582   2
   3  -6  -3 4288.89 44.4041   3
   3  -6  -3 4397.78 59.9388   5
   3   6  -3 4316.04 56.2793   1
   3  -6  -2 3367.11 46.6030   2
   3   6  -2 3411.69 42.3573   3
   3  -6  -2 3366.64 49.6941   5
   3   6  -2 3554.86 49.4518   1
   3  -6  -2 3369.92 42.4329   4
   3  -6  -2 3425.51 46.8462   1
   3   6  -1 2944.57 37.0115   3
   3  -6  -1 2846.29 45.3669   2
   3   6  -1 2988.40 45.4952   1
   3  -6  -1 2921.43 40.8786   1
   3  -6  -1 2937.80 44.2090   4
   3   6   0 88.8488 11.0691   3
   3  -6   0 82.9489 14.1744   1
   3  -6   0 95.9045 18.4867   2
   3   6   0 107.895 18.6538   1
   3  -6   0 110.085 20.2558   4
   3   6   1 4754.31 46.5668   3
   3   6   1 4853.10 61.2124   1
   3  -6   1 4592.34 61.8450   2
   3  -6   1 4697.22 52.9538   1
   3  -6   1 4682.03 65.5934   4
   3   6   2 221.562 23.7154   1
   3  -6   2 216.011 19.2433   1
   3  -6   2 244.012 25.2590   2
   3  -6   2 222.807 31.5843   4
   3   6   3 2958.31 55.9996   1
   3  -6   3 3339.46 71.8922   4
   3   6   4 93.8077 23.6173   1
   3  -6   4 75.4479 30.8267   4
   3  -6   5 539.450 44.3420   4
   3   6   5 498.027 35.7641   1
   3   6   6 235.567 32.9567   1
   3  -6   6 227.458 43.0154   4
   3  -7  -8 38.2377 22.7137   3
   3  -7  -8 26.6565 22.8888   5
   3   7  -8-9.75570 22.6829   3
   3   7  -7 113.952 19.1760   3
   3  -7  -7 177.414 23.6448   3
   3  -7  -7 100.929 24.3497   5
   3   7  -6 1633.44 45.9008   3
   3  -7  -6 1668.04 42.7045   3
   3  -7  -6 1706.77 49.5123   5
   3   7  -5 483.724 26.6961   3
   3  -7  -5 413.321 22.2276   3
   3  -7  -5 394.851 26.9221   5
   3  -7  -4 1390.77 32.5321   2
   3   7  -4 1422.87 36.9271   1
   3   7  -4 1385.84 35.3279   3
   3  -7  -4 1416.51 32.3281   3
   3  -7  -4 1508.92 40.3757   5
   3  -7  -3 414.829 20.9696   2
   3   7  -3 339.135 18.9561   3
   3  -7  -3 355.592 21.7482   5
   3   7  -3 365.061 22.8808   1
   3  -7  -2 1106.55 29.2090   1
   3  -7  -2 1186.95 31.6128   2
   3   7  -2 1098.02 26.7825   3
   3   7  -2 1100.86 30.9019   1
   3  -7  -2 1148.74 31.0379   5
   3  -7  -2 1226.10 29.4281   4
   3   7  -1 724.856 21.2925   3
   3  -7  -1 723.397 27.4806   2
   3   7  -1 736.823 26.7504   1
   3  -7  -1 730.683 23.7134   1
   3  -7  -1 772.905 27.6841   4
   3   7   0 4670.24 47.1766   3
   3  -7   0 4658.27 59.0188   2
   3   7   0 4733.67 58.2906   1
   3  -7   0 4697.77 50.2288   1
   3  -7   0 4785.18 61.4454   4
   3   7   1 1087.56 25.4079   3
   3   7   1 1158.07 34.4464   1
   3  -7   1 1153.55 35.7762   2
   3  -7   1 1138.72 28.5450   1
   3  -7   1 1170.19 39.2827   4
   3   7   2 1525.80 40.6160   1
   3  -7   2 1479.28 33.0254   1
   3  -7   2 1487.98 40.8509   2
   3  -7   2 1642.24 47.9621   4
   3   7   3 1364.67 41.5583   1
   3  -7   3 1302.83 48.2961   4
   3  -7   4 488.238 41.1927   4
   3   7   4 415.724 29.3413   1
   3   7   5 151.542 27.2780   1
   3  -7   5 168.801 36.6111   4
   3   7   6 173.590 32.1432   1
   3  -7   6 140.629 38.7964   4
   3   8  -8 285.723 27.9146   3
   3  -8  -8 322.093 30.3555   3
   3  -8  -8 252.489 28.0664   5
   3  -8  -7 198.703 25.9634   5
   3   8  -7 204.746 26.0105   3
   3  -8  -7 210.055 25.3634   3
   3  -8  -6 146.984 20.0097   3
   3   8  -6 135.822 25.5435   3
   3  -8  -6 144.622 22.1400   5
   3   8  -5 86.2018 19.3016   3
   3  -8  -5 47.5069 16.5775   3
   3  -8  -5 82.6964 20.4305   5
   3  -8  -4 5487.80 61.2732   2
   3   8  -4 5647.39 67.1405   1
   3   8  -4 5367.18 65.2606   3
   3  -8  -4 5349.34 59.1261   3
   3  -8  -4 5437.35 72.7628   5
   3  -8  -3 543.466 23.8265   2
   3   8  -3 588.226 23.4706   3
   3  -8  -3 550.262 25.9832   5
   3   8  -3 646.679 27.3247   1
   3  -8  -2 6734.16 63.7165   1
   3  -8  -2 6666.77 67.7224   2
   3   8  -2 6625.98 62.3856   3
   3   8  -2 6602.29 66.4062   1
   3  -8  -2 6576.84 68.5466   5
   3   8  -1 425.118 18.5992   3
   3  -8  -1 480.440 24.6932   2
   3   8  -1 435.545 23.3618   1
   3  -8  -1 431.438 19.6216   1
   3  -8  -1 464.648 25.1120   4
   3   8   0 235.393 15.6255   3
   3  -8   0 218.169 22.0555   2
   3   8   0 251.582 22.4858   1
   3  -8   0 229.025 16.4204   1
   3  -8   0 232.684 25.2066   4
   3   8   1 640.103 21.2034   3
   3   8   1 633.853 28.8935   1
   3  -8   1 624.764 30.5050   2
   3  -8   1 645.336 22.0744   1
   3  -8   1 629.768 32.4345   4
   3   8   2 4621.20 64.9289   1
   3  -8   2 4658.64 66.2891   2
   3  -8   2 4662.70 72.6325   4
   3   8   3 241.364 26.9919   1
   3  -8   3 215.381 33.2815   4
   3  -8   4 640.836 41.1899   4
   3   8   4 538.584 32.6907   1
   3   8   5-3.55818 23.0327   1
   3  -8   5 45.0909 28.7023   4
   3  -8   6-12.2513 31.8897   4
   3  -9  -8-15.2495 20.0323   3
   3  -9  -8-25.1231 23.2386   5
   3   9  -7 297.652 29.0884   3
   3  -9  -7 246.039 23.8955   3
   3  -9  -7 269.881 28.5303   5
   3  -9  -6 218.877 25.4696   5
   3  -9  -6 188.587 20.5404   3
   3   9  -6 169.640 24.6607   3
   3   9  -5 417.591 26.4384   3
   3  -9  -5 437.948 23.4247   3
   3  -9  -5 439.792 28.5991   5
   3  -9  -4 2064.33 41.2521   2
   3   9  -4 2097.77 43.1598   1
   3   9  -4 1872.57 38.7642   3
   3  -9  -4 2098.65 39.5145   3
   3  -9  -4 2154.80 48.3000   5
   3  -9  -3 641.003 25.9859   2
   3   9  -3 667.873 25.3126   3
   3  -9  -3 656.905 27.3145   5
   3   9  -3 721.801 27.2771   1
   3  -9  -2 525.774 25.1378   2
   3   9  -2 476.442 20.9471   3
   3   9  -2 518.081 24.6722   1
   3  -9  -2 530.500 23.1270   5
   3   9  -1 4845.66 52.8928   3
   3  -9  -1 5066.78 62.3740   2
   3   9  -1 5085.31 60.0255   1
   3  -9  -1 4987.17 51.4305   1
   3  -9  -1 5263.57 63.0909   4
   3   9   0 795.885 23.6020   3
   3  -9   0 767.495 30.3031   2
   3   9   0 832.811 30.1406   1
   3  -9   0 727.682 22.5414   1
   3  -9   0 773.332 32.8047   4
   3   9   1 4061.31 50.3813   3
   3   9   1 4153.12 58.9323   1
   3  -9   1 4039.96 60.7213   2
   3  -9   1 4124.15 64.9707   4
   3   9   2 1661.43 35.1896   3
   3   9   2 2058.26 46.7820   1
   3  -9   2 1999.92 46.8236   2
   3  -9   2 2014.55 52.4495   4
   3   9   3 26.4413 21.7572   1
   3  -9   3 41.2253 21.8960   2
   3  -9   3 40.3874 28.7020   4
   3   9   4 136.901 26.8281   1
   3  -9   4 86.8383 27.5301   4
   3   9   5 212.511 30.4587   1
   3  -9   5 303.112 37.5666   4
   3 -10  -8 215.223 27.9145   3
   3  10  -7 76.9751 22.3422   3
   3 -10  -7 101.937 23.6933   3
   3 -10  -7 82.8596 22.2441   5
   3  10  -6 8.94724 20.7108   3
   3 -10  -6-6.44985 15.3673   3
   3 -10  -6-15.6084 15.1348   5
   3 -10  -5 151.929 19.1109   3
   3  10  -5 135.519 21.2978   3
   3 -10  -5 137.989 22.3775   5
   3 -10  -4 347.304 24.3374   2
   3  10  -4 405.191 24.5849   1
   3  10  -4 343.121 22.4440   3
   3 -10  -4 282.376 18.6302   3
   3 -10  -4 344.594 25.8972   5
   3 -10  -3 3124.25 50.6990   2
   3  10  -3 3141.08 50.0319   3
   3 -10  -3 3235.46 54.5227   5
   3  10  -3 3240.68 49.4849   1
   3 -10  -2 170.963 18.6764   2
   3  10  -2 183.685 16.7115   3
   3  10  -2 191.280 18.5284   1
   3 -10  -2 173.206 16.2981   5
   3 -10  -1 1538.42 33.0672   5
   3  10  -1 1537.08 33.0630   3
   3 -10  -1 1607.23 39.5211   2
   3  10  -1 1581.93 36.3593   1
   3 -10  -1 1612.59 31.2827   1
   3 -10  -1 1618.20 40.0669   4
   3  10   0 726.401 24.1889   3
   3 -10   0 703.924 30.1461   2
   3  10   0 748.543 28.6530   1
   3 -10   0 744.310 32.9944   4
   3  10   1 211.668 17.3762   3
   3  10   1 211.934 23.3509   1
   3 -10   1 203.285 23.7354   2
   3 -10   1 249.479 29.7039   4
   3  10   2 2578.04 43.7954   3
   3  10   2 2857.05 54.0416   1
   3 -10   2 2711.57 53.7590   2
   3 -10   2 2726.82 60.1371   4
   3  10   3 1079.68 38.7588   1
   3 -10   3 1042.78 38.8428   2
   3 -10   3 1042.58 43.7516   4
   3  10   4 105.054 25.4760   1
   3 -10   4 101.559 31.8734   4
   3  10   5 197.356 30.8680   1
   3 -10   5 226.233 32.4330   4
   3 -11  -8 80.9569 20.3166   3
   3  11  -7 87.3631 23.1205   3
   3 -11  -7 113.066 23.8988   3
   3 -11  -7 177.940 27.3139   5
   3  11  -6 503.477 30.1446   3
   3 -11  -6 546.291 28.9330   3
   3 -11  -6 537.911 32.5149   5
   3 -11  -5 834.945 30.0030   2
   3  11  -5 1147.64 37.2972   3
   3 -11  -5 1105.65 33.6667   3
   3 -11  -5 1147.63 40.8521   5
   3 -11  -4 1363.24 37.1420   2
   3  11  -4 1441.59 36.5006   1
   3  11  -4 1342.27 36.8232   3
   3 -11  -4 1358.17 40.7342   5
   3 -11  -3 243.654 22.5689   2
   3  11  -3 207.781 20.5395   3
   3 -11  -3 229.944 21.1998   5
   3  11  -3 254.616 21.5406   1
   3 -11  -2 2349.00 45.7794   2
   3  11  -2 2401.89 42.2230   3
   3  11  -2 2431.10 43.1973   1
   3 -11  -2 2376.51 43.7835   5
   3 -11  -1 112.285 24.2673   4
   3  11  -1 71.6680 17.5893   1
   3  11  -1 65.8351 14.1163   3
   3 -11  -1 92.6703 20.8926   2
   3 -11  -1 76.3413 13.1071   5
   3  11   0 4472.18 55.1579   3
   3 -11   0 4566.08 63.7371   2
   3  11   0 4450.92 59.0822   1
   3 -11   0 4614.15 67.5219   4
   3  11   1 335.152 20.2886   3
   3  11   1 373.819 26.0045   1
   3 -11   1 325.226 26.3084   2
   3 -11   1 340.054 29.7468   4
   3  11   2 1834.56 39.0744   3
   3  11   2 2008.36 46.8123   1
   3 -11   2 1887.16 46.7645   2
   3 -11   2 2020.57 54.7597   4
   3  11   3 523.401 32.7365   1
   3 -11   3 537.023 31.6821   2
   3 -11   3 587.238 38.6615   4
   3 -11   4 169.799 29.6734   4
   3  11   4 199.724 27.7785   1
   3  11   5 151.659 27.0039   1
   3 -11   5 185.331 36.7600   4
   3  12  -7 37.5800 19.1822   3
   3 -12  -7 17.9864 17.2804   3
   3 -12  -7 51.3052 24.7324   5
   3  12  -6 211.998 26.4979   3
   3 -12  -6 237.899 21.0596   3
   3 -12  -6 179.096 23.3855   5
   3 -12  -5 30.1703 16.5715   2
   3  12  -5-3.40787 18.3899   3
   3 -12  -5 0.54641 12.3502   3
   3 -12  -5 13.9247 20.0249   5
   3 -12  -4 225.038 23.7590   2
   3  12  -4 271.651 21.6197   1
   3  12  -4 252.437 22.9949   3
   3 -12  -4 252.806 23.3838   5
   3 -12  -3 2355.53 47.1168   2
   3  12  -3 2372.59 47.0163   3
   3 -12  -3 2421.45 49.2686   5
   3  12  -3 2358.85 43.1764   1
   3 -12  -2 491.911 26.4499   2
   3  12  -2 517.107 24.6012   3
   3  12  -2 503.230 24.4643   1
   3 -12  -2 517.009 23.8338   5
   3 -12  -1 254.105 23.6901   2
   3  12  -1 271.721 19.4858   3
   3  12  -1 266.218 20.9340   1
   3 -12  -1 192.320 14.2126   5
   3 -12  -1 320.098 26.1726   4
   3  12   0 500.791 22.6150   3
   3 -12   0 490.323 28.0218   2
   3  12   0 522.628 26.3267   1
   3 -12   0 498.662 32.1466   4
   3  12   1 526.865 24.5318   3
   3  12   1 530.393 27.3503   1
   3 -12   1 534.328 30.5743   2
   3 -12   1 567.104 33.9025   4
   3  12   2 1077.39 32.0978   3
   3  12   2 1094.77 37.5071   1
   3 -12   2 1130.11 38.9890   2
   3 -12   2 1174.20 46.5513   4
   3  12   3 92.9117 14.3129   3
   3  12   3 164.242 24.0449   1
   3 -12   3 133.363 22.8609   2
   3 -12   3 134.424 33.1934   4
   3 -12   4 324.753 36.2874   4
   3  12   4 362.063 31.9339   1
   3  12   5 142.488 32.4207   1
   3 -12   5 76.8871 30.3187   4
   3  13  -7 347.999 30.5578   3
   3 -13  -7 304.580 29.1987   3
   3 -13  -7 299.913 30.8608   5
   3  13  -6 224.514 24.6983   3
   3 -13  -6 266.213 24.5377   3
   3 -13  -6 303.692 29.0392   5
   3 -13  -5 356.100 26.1751   2
   3  13  -5 340.262 23.8055   3
   3 -13  -5 277.313 20.3542   3
   3 -13  -5 341.152 28.4671   5
   3 -13  -4 397.668 26.4781   2
   3  13  -4 388.558 23.0651   1
   3  13  -4 363.734 24.1475   3
   3 -13  -4 421.304 27.4200   5
   3 -13  -3 265.439 24.2526   2
   3  13  -3 227.878 22.0058   3
   3 -13  -3 225.770 22.4298   5
   3  13  -3 232.247 20.0226   1
   3 -13  -2 502.520 27.5309   2
   3  13  -2 518.408 24.7451   3
   3  13  -2 528.514 24.7580   1
   3 -13  -2 480.424 23.7332   5
   3 -13  -1 2129.64 46.5628   2
   3  13  -1 2139.64 42.3620   3
   3  13  -1 2115.34 41.8194   1
   3  13   0 1628.52 37.2931   3
   3 -13   0 1825.74 45.2632   2
   3  13   0 1774.89 40.5624   1
   3 -13   0 1754.45 48.1666   4
   3  13   1 731.002 28.0479   3
   3  13   1 778.507 32.4351   1
   3 -13   1 740.439 33.5190   2
   3 -13   1 751.924 38.9033   4
   3  13   2 461.356 23.4431   3
   3  13   2 504.088 29.1849   1
   3 -13   2 525.922 30.1238   2
   3 -13   2 553.808 36.2437   4
   3  13   3 373.578 30.7593   1
   3  13   3 270.572 21.2533   3
   3 -13   3 349.401 29.9846   2
   3 -13   3 347.503 33.3506   4
   3  13   4 46.7793 25.6724   1
   3 -13   4 84.4924 30.9970   4
   3  13   5 247.886 31.1852   1
   3 -13   5 259.867 38.6686   4
   3  14  -7 90.2957 25.6414   3
   3 -14  -7 119.504 24.8303   5
   3  14  -6-3.81351 18.2345   3
   3 -14  -6 44.0686 17.5468   3
   3 -14  -6 55.9846 23.7074   5
   3 -14  -5 205.422 25.0101   2
   3  14  -5 156.564 22.6576   3
   3 -14  -5 211.246 24.6706   5
   3 -14  -4 587.072 30.9273   2
   3  14  -4 579.557 28.5999   3
   3 -14  -4 577.336 31.0416   5
   3 -14  -3 3246.53 56.9260   2
   3  14  -3 3245.81 56.4161   3
   3 -14  -3 3239.09 57.4858   5
   3  14  -3 3236.43 50.4982   1
   3 -14  -2 100.870 20.9207   2
   3  14  -2 77.6333 17.0497   3
   3  14  -2 117.380 17.7021   1
   3 -14  -2 97.9548 15.4179   5
   3 -14  -1 418.869 27.7567   2
   3  14  -1 415.473 24.3601   3
   3  14  -1 411.422 24.0108   1
   3  14   0 688.323 27.2400   3
   3 -14   0 744.700 33.0483   2
   3  14   0 830.791 30.1250   1
   3 -14   0 760.675 38.2304   4
   3  14   1 279.041 21.6750   3
   3  14   1 258.328 23.1009   1
   3 -14   1 294.033 26.3500   2
   3 -14   1 277.074 30.7484   4
   3  14   2 104.489 17.8536   3
   3  14   2 104.398 23.1457   1
   3 -14   2 63.0622 22.3198   2
   3 -14   2 110.106 32.4980   4
   3  14   3 633.427 34.3750   1
   3  14   3 469.826 25.5369   3
   3 -14   3 535.505 32.6027   2
   3 -14   3 648.392 43.0182   4
   3 -14   4 455.305 29.6739   2
   3 -14   4 491.301 42.6737   4
   3  14   4 489.965 34.2098   1
   3  14   5 46.2573 28.0252   1
   3 -14   5 44.2813 36.1315   4
   3 -15  -7 127.153 19.8673   3
   3  15  -6 370.151 28.9135   3
   3 -15  -6 282.647 22.9088   3
   3 -15  -6 426.371 31.9193   5
   3 -15  -5 307.439 25.9338   2
   3  15  -5 212.515 22.0670   3
   3 -15  -5 332.688 29.4213   5
   3 -15  -4 373.679 27.8495   2
   3  15  -4 357.322 26.8957   3
   3 -15  -4 392.839 27.3264   5
   3 -15  -3 86.8785 22.4111   2
   3  15  -3 27.9224 19.2704   3
   3 -15  -3 57.6780 17.1193   5
   3 -15  -2 395.858 26.7687   2
   3  15  -2 352.533 24.3506   3
   3  15  -2 354.944 21.5237   1
   3 -15  -2 325.355 20.4646   5
   3 -15  -1 530.732 30.0044   2
   3  15  -1 520.736 26.5382   3
   3  15  -1 524.621 24.8871   1
   3  15   0 1168.32 35.2691   3
   3 -15   0 1148.37 38.8754   2
   3  15   0 1162.95 35.0716   1
   3 -15   0 1220.55 43.8310   4
   3 -15   1 86.3074 28.9305   4
   3  15   1 70.4655 17.1803   3
   3 -15   1 82.1357 21.4897   2
   3  15   1 68.3099 19.0506   1
   3  15   2 416.559 23.8183   3
   3  15   2 456.576 28.3482   1
   3 -15   2 437.004 30.5883   2
   3 -15   2 471.036 35.8910   4
   3  15   3 366.223 28.2346   1
   3  15   3 393.616 25.0636   3
   3 -15   3 392.848 33.5925   2
   3 -15   3 392.709 35.3281   4
   3  15   4 65.8892 27.4653   1
   3 -15   4 41.3073 20.7279   2
   3 -15   4 89.0743 28.6386   4
   3  16  -6 60.3243 24.0636   3
   3 -16  -6 41.2979 23.9119   5
   3 -16  -5 222.877 26.7840   2
   3  16  -5 199.208 24.9919   3
   3 -16  -5 212.276 24.0958   5
   3 -16  -4 264.745 26.0907   2
   3  16  -4 282.104 24.7006   3
   3 -16  -4 320.471 26.3097   5
   3 -16  -3 43.2145 20.6652   2
   3  16  -3 51.8624 18.7867   3
   3 -16  -3 36.5382 17.9636   5
   3 -16  -2 238.879 24.7165   2
   3  16  -2 221.883 21.4595   3
   3 -16  -1 611.626 31.7221   2
   3  16  -1 596.871 28.1121   3
   3  16  -1 596.378 26.3238   1
   3  16   0 169.395 20.4692   3
   3  16   0 135.557 19.6999   1
   3 -16   0 144.709 24.2798   2
   3  16   1 193.327 21.9242   3
   3 -16   1 211.378 25.1876   2
   3  16   1 165.736 22.6561   1
   3 -16   1 225.223 30.7025   4
   3  16   2 525.091 27.5169   3
   3  16   2 530.726 29.2633   1
   3 -16   2 543.106 33.4202   2
   3 -16   2 584.571 40.6161   4
   3  16   3 49.8668 20.3508   3
   3  16   3 61.3726 21.0661   1
   3 -16   3 78.0325 20.0146   2
   3 -16   3 93.8442 35.1616   4
   3  16   4 129.821 30.6699   1
   3 -16   4 122.579 24.9334   2
   3 -16   4 170.327 36.4153   4
   3  17  -6 237.068 26.7880   3
   3 -17  -6 271.260 32.9719   5
   3 -17  -5 418.649 29.8463   2
   3  17  -5 353.303 25.2219   3
   3 -17  -5 403.209 31.5491   5
   3 -17  -4 152.018 23.7182   2
   3  17  -4 116.146 21.6093   3
   3 -17  -4 151.943 24.4756   5
   3 -17  -3 413.534 29.8148   2
   3  17  -3 388.751 25.8270   3
   3 -17  -3 421.786 26.0084   5
   3 -17  -2 48.8559 21.8866   2
   3  17  -2 55.9464 19.1010   3
   3 -17  -1 1273.30 40.7357   2
   3  17  -1 1161.83 37.5102   3
   3  17   0 70.5288 17.5096   3
   3 -17   0 74.2639 23.6069   2
   3  17   0 72.4033 18.2165   1
   3  17   1 456.308 28.3881   3
   3 -17   1 534.392 32.6032   2
   3  17   1 510.686 27.9483   1
   3 -17   1 570.380 39.7267   4
   3 -17   2 16.2228 26.3657   4
   3  17   2 17.4166 16.7162   3
   3 -17   2 36.3413 23.5511   2
   3  17   2 29.3902 20.5203   1
   3  17   3 207.631 25.9775   3
   3  17   3 215.517 26.5998   1
   3 -17   3 219.149 26.3853   2
   3 -17   3 199.477 35.5862   4
   3  17   4 19.1803 18.4118   3
   3  17   4 42.0229 25.2878   1
   3 -17   4 37.4568 22.8867   2
   3 -17   4 42.6222 35.8738   4
   3 -18  -6 0.08353 20.3623   2
   3  18  -6 0.08912 17.4912   3
   3 -18  -6 28.9207 22.0161   5
   3 -18  -5 108.238 26.6950   2
   3  18  -5 97.1535 18.7727   3
   3 -18  -5 127.032 24.6919   5
   3 -18  -4 155.977 25.2110   2
   3  18  -4 119.275 22.7427   3
   3 -18  -4 145.693 20.1806   5
   3  18  -3 226.895 24.2703   3
   3 -18  -3 159.863 25.3264   2
   3 -18  -3 225.228 23.3671   5
   3 -18  -2 271.105 27.3107   2
   3  18  -2 280.541 25.5681   3
   3 -18  -1 73.8914 23.3137   2
   3  18  -1 84.6512 21.7051   3
   3  18   0 305.987 24.6097   3
   3 -18   0 266.598 27.4733   2
   3  18   1 361.934 26.2325   3
   3 -18   1 347.814 30.4976   2
   3  18   1 324.144 25.5911   1
   3 -18   1 328.513 36.9117   4
   3 -18   2 195.042 33.7927   4
   3  18   2 181.168 21.9803   3
   3  18   2 169.553 23.8776   1
   3 -18   2 176.874 27.9583   2
   3 -18   3 105.565 29.6104   4
   3  18   3 76.0325 19.8929   3
   3  18   3 110.178 24.7697   1
   3 -18   3 78.7392 22.6631   2
   3  18   4 38.0903 19.4788   3
   3  18   4 26.2306 22.0373   1
   3 -18   4 78.5054 31.7720   4
   3 -19  -6 305.129 28.5040   2
   3 -19  -5 37.2444 26.9919   2
   3  19  -5 71.0211 23.6406   3
   3 -19  -5 60.6510 19.4909   5
   3 -19  -4 7.39083 22.8664   2
   3  19  -4 41.6634 16.5859   3
   3 -19  -4 8.45042 16.0745   5
   3 -19  -3 58.0798 23.0949   2
   3  19  -3 57.3537 19.3667   3
   3 -19  -2 228.036 26.5388   2
   3  19  -2 319.667 26.4419   3
   3 -19  -1 42.0488 23.4606   2
   3  19  -1-6.38801 18.7740   3
   3  19   0 1355.75 41.5175   3
   3 -19   0 1390.28 45.9249   2
   3  19   1 16.5585 17.3440   3
   3 -19   1 8.77812 19.2951   2
   3 -19   2 129.336 36.3483   4
   3  19   2 104.852 22.3804   3
   3 -19   2 75.4761 22.3710   2
   3  19   2 72.9288 22.9464   1
   3 -19   3 5.84928 33.1957   4
   3 -19   3 62.4681 24.8999   2
   3  19   3 48.8465 20.2909   3
   3  19   3 62.7331 23.3383   1
   3  19   4 14.8432 18.3411   3
   3  19   4 27.5814 22.0855   1
   3 -20  -6 25.1959 18.5465   2
   3 -20  -5 61.0530 24.6827   2
   3  20  -5 85.9511 23.1685   3
   3 -20  -5 61.6808 22.0791   5
   3 -20  -4 317.984 32.9749   2
   3  20  -4 302.643 29.6777   3
   3 -20  -4 252.663 26.6090   5
   3  20  -3 190.474 22.1607   3
   3 -20  -3 151.831 25.9571   2
   3 -20  -2 34.8703 20.7877   2
   3  20  -2 11.8052 20.0785   3
   3 -20  -1 0.98831 21.5301   2
   3  20  -1 6.94120 16.6992   3
   3  20   0 70.2372 22.1665   3
   3 -20   0 34.7725 21.7320   2
   3  20   1 200.020 22.5206   3
   3 -20   1 155.685 26.6828   2
   3 -20   2 196.509 35.3284   4
   3  20   2 198.308 24.2035   3
   3 -20   2 270.083 30.1669   2
   3  20   3 378.682 30.8709   3
   3 -20   3 442.376 33.7646   2
   3 -20   3 380.423 43.6339   4
   3 -21  -5 82.2103 26.0240   2
   3 -21  -5 99.4512 26.7491   5
   3 -21  -4-5.20399 24.4891   2
   3  21  -4 22.8646 20.0340   3
   3 -21  -4-8.15003 20.3652   5
   3 -21  -3 68.3983 23.1750   2
   3  21  -3-3.22030 18.2620   3
   3 -21  -2 74.3483 24.8383   2
   3  21  -2 63.3993 21.9657   3
   3 -21  -1 305.049 28.9303   2
   3  21  -1 360.300 27.2241   3
   3  21   0 282.713 27.0584   3
   3 -21   0 300.690 29.6236   2
   3  21   1 203.563 22.3951   3
   3 -21   1 187.106 24.7382   2
   3  21   2 31.9635 21.4687   3
   3 -21   2 41.6037 23.5225   2
   3  21   3 68.0659 20.9227   3
   3 -21   3 62.3118 23.9737   2
   3 -22  -5 3.73655 23.1520   5
   3 -22  -4 103.606 25.4635   2
   3  22  -4 125.745 22.6451   3
   3  22  -3 168.163 24.4934   3
   3 -22  -3 167.367 26.5760   2
   3 -22  -2 71.2901 24.5281   2
   3  22  -2 90.7764 22.5901   3
   3 -22  -1 246.052 27.8598   2
   3  22  -1 212.219 27.2627   3
   3  22   0 142.853 21.9932   3
   3 -22   0 155.538 28.8460   2
  -3 -22  -1 127.200 32.9966   2
   3  22   1 102.900 24.1230   3
   3 -22   1 93.7190 24.3802   2
   3  22   2 59.8484 20.8984   3
   3 -22   2 89.4928 27.8785   2
   3 -22   3 107.867 28.4436   2
   3 -23  -3 79.0763 28.0112   2
   3  23  -3 27.2692 20.7857   3
   3 -23  -2 106.995 28.4397   2
   3  23  -2 174.059 20.3403   3
   3 -23  -1 106.231 23.8802   2
   3  23  -1 93.1871 19.9582   3
   3 -23   0 281.185 32.4768   2
   3  23   0 214.444 27.8876   3
  -3 -23  -1 83.3968 28.7496   2
   3  23   1 79.7805 22.2286   3
   3 -23   1 56.2880 27.7718   2
  -3 -23  -2 77.7845 35.9243   2
   3  23   2 24.7514 22.1058   3
   3 -23   2 37.4722 24.0020   2
   3 -24  -2 200.791 25.3514   2
   3  24  -2 142.593 23.7095   3
   3 -24  -1 73.9374 25.9058   2
   3  24  -1 63.6925 24.8340   3
   3  24   0 15.3605 21.7878   3
   3 -24   0 21.1138 26.7845   2
   3  24   1 118.617 26.8619   3
   3 -24   1 39.5340 28.7657   2
   4   0  -8 73.8449 19.3402   3
   4   0  -7 87.8035 23.9321   3
   4   0  -6 117.640 19.6602   3
   4   0  -4 1863.34 46.2700   1
   4   0  -3 664.941 29.7549   1
   4   0  -2 21.5960 19.9730   1
   4   0  -1 8.42482 18.3536   1
   4   0   0 5641.69 71.0114   1
   4   0   1 392.213 26.5924   1
   4   0   2 463.259 29.8724   1
   4   0   3 166.993 24.9589   1
   4   0   4 159.429 25.6530   1
   4   0   5 116.597 27.4512   1
   4   1  -8 210.900 24.8914   3
   4  -1  -8 192.054 25.1367   3
   4   1  -7 304.485 28.0835   3
   4  -1  -7 329.831 27.7129   3
   4   1  -6 749.800 32.3641   3
   4  -1  -6 478.865 25.2119   3
   4   1  -5 30.0425 14.9602   3
   4   1  -4 471.455 29.9075   1
   4  -1  -4 462.914 29.5603   1
   4   1  -3 1116.42 37.1308   1
   4  -1  -3 1119.74 35.8590   1
   4  -1  -2 965.506 30.1630   2
   4   1  -2 972.825 33.8720   1
   4  -1  -2 993.799 33.7561   1
   4   1  -1 626.637 29.2553   1
   4  -1  -1 578.681 28.4968   1
   4   1   0 861.474 33.6248   1
   4  -1   0 810.368 32.2288   1
   4  -1   0 808.270 33.3813   4
   4   1   1 1083.99 37.0284   1
   4  -1   1 992.183 35.5359   1
   4   1   2 90.8135 21.2892   1
   4  -1   2 61.3484 22.3329   1
   4   1   3 251.614 25.4810   1
   4  -1   3 249.580 27.4307   1
   4   1   4 432.508 33.2073   1
   4  -1   4 416.785 30.8223   1
   4   1   5 261.401 30.4607   1
   4  -1   5 155.767 21.2109   1
   4   2  -8 78.4312 19.8588   3
   4  -2  -8 55.7461 20.3878   3
   4  -2  -8 65.4228 26.8031   5
   4  -2  -7 76.7450 20.1224   5
   4   2  -7 55.8354 20.2908   3
   4  -2  -7 29.6803 18.3375   3
   4   2  -6 308.873 24.0251   3
   4   2  -5 1502.92 37.3871   3
   4   2  -4 2756.26 54.9677   1
   4   2  -3 251.514 25.1345   1
   4  -2  -3 244.502 24.5595   1
   4  -2  -2 1248.64 33.5851   2
   4   2  -2 1397.70 38.2080   1
   4  -2  -2 1238.19 37.4987   1
   4  -2  -1 1051.67 33.5037   2
   4   2  -1 1026.29 34.3391   1
   4  -2  -1 1065.31 34.3660   1
   4   2   0 1824.79 44.0836   1
   4  -2   0 1598.47 40.2463   1
   4  -2   0 1789.73 45.3872   4
   4   2   1 1854.72 45.0288   1
   4  -2   1 1921.30 44.4059   1
   4  -2   1 1973.59 49.5095   4
   4   2   2 626.296 32.1022   1
   4  -2   2 554.099 30.3341   1
   4   2   3 193.310 25.5318   1
   4  -2   3 147.099 23.4251   1
   4   2   4 191.146 27.1708   1
   4  -2   4 170.755 25.5565   1
   4   2   5 206.494 31.1331   1
   4  -2   5 142.712 26.0729   1
   4  -2   5 231.365 37.7201   4
   4   3  -8 59.8486 18.1334   3
   4  -3  -8 81.2877 17.5598   3
   4  -3  -8 121.805 27.0118   5
   4   3  -7 394.249 30.3540   3
   4  -3  -7 272.891 23.0567   3
   4  -3  -7 403.105 32.5316   5
   4  -3  -6 270.947 26.5593   5
   4   3  -6 246.376 22.6967   3
   4   3  -5 495.502 26.0725   3
   4   3  -4 296.882 28.6882   1
   4  -3  -3 652.411 24.5851   2
   4   3  -3 821.760 33.7175   1
   4  -3  -3 776.449 32.2774   1
   4  -3  -2 1492.76 36.6524   2
   4   3  -2 1459.84 39.6495   1
   4  -3  -2 1462.57 38.9000   1
   4  -3  -1 834.526 31.4071   2
   4   3  -1 859.609 33.1274   1
   4  -3  -1 841.185 30.7717   1
   4  -3   0 678.125 31.2905   2
   4   3   0 644.485 30.6446   1
   4  -3   0 646.963 28.6850   1
   4  -3   0 667.400 33.5337   4
   4   3   1 565.422 30.3049   1
   4  -3   1 589.782 29.0704   1
   4  -3   1 707.089 37.0591   4
   4   3   2 707.606 34.1031   1
   4  -3   2 741.297 32.2209   1
   4  -3   2 738.111 38.5544   4
   4   3   3 116.970 23.2460   1
   4  -3   3 137.054 22.3906   1
   4  -3   3 96.2043 31.1109   4
   4   3   4 155.925 28.8238   1
   4  -3   4 100.041 18.6724   1
   4  -3   4 115.789 34.8412   4
   4   3   5 71.9977 25.5565   1
   4   4  -8 59.3542 18.5376   3
   4  -4  -8 15.0176 21.0591   3
   4   4  -7 50.1447 21.1835   3
   4  -4  -7 20.5650 15.6904   3
   4  -4  -7-0.46833 20.6334   5
   4   4  -6 231.954 24.0000   3
   4  -4  -6 238.498 25.3048   5
   4   4  -5 3157.74 55.6708   3
   4  -4  -5 2864.50 61.4982   5
   4   4  -4 461.559 28.4390   1
   4  -4  -3 2496.52 44.2235   2
   4   4  -3 2676.33 52.7154   1
   4  -4  -3 2658.66 50.9281   1
   4  -4  -2 565.444 27.1433   2
   4   4  -2 519.460 28.2715   1
   4  -4  -2 532.798 28.9811   1
   4  -4  -1 160.550 21.1839   2
   4   4  -1 202.199 23.0550   1
   4  -4  -1 218.779 22.2383   1
   4  -4   0 841.153 33.2533   2
   4   4   0 872.126 33.6699   1
   4  -4   0 870.776 31.0915   1
   4  -4   0 862.057 34.5272   4
   4   4   1 1815.43 46.5500   1
   4  -4   1 1793.68 42.6971   1
   4  -4   1 2089.03 56.8067   4
   4   4   2 873.347 37.0249   1
   4  -4   2 810.950 31.6496   1
   4  -4   2 867.036 41.7987   4
   4   4   3 1367.86 44.7133   1
   4  -4   3 1325.76 41.2420   1
   4  -4   3 1493.05 54.9302   4
   4   4   4 52.9850 24.3627   1
   4  -4   4 21.6314 33.3289   4
   4   4   5 13.7725 21.5686   1
   4   5  -8 207.191 25.2031   3
   4  -5  -8 171.601 21.5618   3
   4   5  -7 125.560 22.2128   3
   4  -5  -7 200.388 28.3035   5
   4   5  -6 374.719 25.2768   3
   4  -5  -6 415.561 32.8655   5
   4  -5  -5 173.365 24.8407   5
   4   5  -5 140.027 21.1477   3
   4   5  -4 116.753 14.6729   3
   4   5  -4 176.419 23.4984   1
   4  -5  -3 993.054 34.5786   1
   4  -5  -3 916.604 30.2180   2
   4   5  -3 995.526 36.1338   1
   4  -5  -2 2304.90 45.4727   2
   4   5  -2 2278.77 47.7590   1
   4  -5  -2 2275.65 45.7749   1
   4  -5  -1 366.361 25.3450   2
   4   5  -1 397.195 27.5301   1
   4  -5  -1 307.572 23.9993   1
   4  -5  -1 367.427 24.3381   4
   4  -5   0 467.014 28.6131   2
   4   5   0 511.057 29.9822   1
   4  -5   0 444.843 24.2051   1
   4  -5   0 476.824 28.5776   4
   4   5   1 192.345 25.0612   1
   4  -5   1 171.215 20.6614   1
   4  -5   1 154.205 29.8556   4
   4   5   2 5.34663 19.7723   1
   4  -5   2 23.8825 18.1044   1
   4  -5   2 36.9413 32.9564   4
   4   5   3 631.582 36.4141   1
   4  -5   3 675.378 45.7943   4
   4   5   4 185.085 26.8403   1
   4  -5   4 232.782 35.4958   4
   4   5   5 182.873 31.7816   1
   4  -6  -8 70.6248 19.2167   3
   4   6  -7-7.86142 20.0076   3
   4  -6  -7-4.04197 23.0383   5
   4   6  -6 307.089 25.1114   3
   4  -6  -6 368.066 29.8380   5
   4   6  -5 360.204 24.7520   3
   4  -6  -5 363.398 26.9669   5
   4   6  -4 858.280 28.9907   3
   4  -6  -4 1101.84 39.4456   5
   4   6  -4 1159.75 39.1912   1
   4  -6  -3 825.167 32.6584   1
   4  -6  -3 831.031 29.8579   2
   4   6  -3 835.111 33.6839   1
   4  -6  -2 1260.60 35.9710   2
   4   6  -2 1367.75 39.3233   1
   4  -6  -2 1217.02 35.3421   1
   4  -6  -1 1117.39 36.6922   2
   4   6  -1 1131.26 36.6648   1
   4  -6  -1 1082.72 33.6820   1
   4  -6  -1 1123.91 35.4387   4
   4  -6   0 317.741 25.7178   2
   4   6   0 376.792 28.5087   1
   4  -6   0 305.064 22.3687   1
   4  -6   0 328.656 26.2192   4
   4   6   1 2897.85 56.5849   1
   4  -6   1 2737.19 56.1115   2
   4  -6   1 2948.84 51.1160   1
   4  -6   1 3071.47 62.1007   4
   4   6   2 420.837 29.6489   1
   4  -6   2 271.940 20.3628   1
   4  -6   2 441.851 35.8711   4
   4   6   3 44.7862 24.1231   1
   4  -6   3 20.8606 30.6918   4
   4   6   4 49.3422 23.0675   1
   4  -6   4 57.7586 35.2044   4
   4   7  -7 328.809 29.5111   3
   4  -7  -7 330.992 29.4436   5
   4   7  -6 228.352 22.4847   3
   4  -7  -6 242.934 22.3398   5
   4   7  -5 194.074 21.8607   3
   4  -7  -5 191.605 23.5018   5
   4   7  -4 50.8671 16.9230   3
   4  -7  -4 40.8788 18.3081   5
   4   7  -4 46.2526 21.5792   1
   4  -7  -3 756.852 31.4753   1
   4  -7  -3 708.009 29.0501   2
   4   7  -3 735.608 32.3690   1
   4  -7  -2 400.067 24.9269   2
   4   7  -2 403.379 28.1141   1
   4  -7  -2 354.576 23.9849   1
   4  -7  -1 2445.95 50.3486   2
   4   7  -1 2480.03 50.7959   1
   4  -7  -1 2391.97 45.3154   1
   4  -7  -1 2449.17 48.3337   4
   4  -7   0 409.731 27.6256   2
   4   7   0 456.179 28.9355   1
   4  -7   0 409.939 24.6216   1
   4  -7   0 402.049 28.0733   4
   4   7   1 1939.25 48.7765   1
   4  -7   1 1779.32 47.8221   2
   4  -7   1 1797.63 49.8206   4
   4   7   2 336.528 30.3893   1
   4  -7   2 303.131 31.2218   4
   4   7   3 662.996 35.6753   1
   4  -7   3 787.286 44.7985   4
   4   7   4 337.374 31.1904   1
   4  -7   4 315.393 36.8442   4
   4   8  -7 27.2578 22.3060   3
   4  -8  -7-18.7421 19.3095   5
   4   8  -6 255.064 23.4787   3
   4  -8  -6 251.340 27.7402   5
   4   8  -5 38.6639 16.8604   3
   4  -8  -5 65.4738 18.7740   5
   4   8  -4 905.203 30.8704   3
   4  -8  -4 864.785 36.2207   5
   4   8  -4 960.662 36.5302   1
   4  -8  -3 1176.99 35.0412   2
   4   8  -3 1257.43 39.5320   1
   4  -8  -2 172.791 21.1143   2
   4   8  -2 191.643 22.8397   1
   4  -8  -2 225.009 22.2518   1
   4  -8  -1 854.104 34.3539   2
   4   8  -1 833.631 34.4881   1
   4  -8  -1 753.358 28.7707   1
   4  -8  -1 736.551 32.9255   4
   4  -8   0 803.164 33.9538   2
   4   8   0 868.459 34.2304   1
   4  -8   0 551.615 23.7060   1
   4  -8   0 894.195 36.1023   4
   4   8   1 360.076 30.0374   1
   4  -8   1 341.321 28.4133   2
   4  -8   1 317.669 30.4344   4
   4   8   2 1445.16 45.9984   1
   4  -8   2 1541.40 52.6202   4
   4   8   3 276.393 28.7123   1
   4  -8   3 302.770 35.8801   4
   4   8   4 39.7158 23.3628   1
   4  -8   4 36.8027 23.8089   4
   4   9  -7 97.8857 20.2149   3
   4  -9  -7 104.656 30.2795   5
   4   9  -6 81.3719 20.5447   3
   4  -9  -6 90.0667 24.0485   5
   4   9  -5 78.6297 19.2884   3
   4  -9  -5 78.9282 20.7901   5
   4  -9  -4 135.499 17.0084   2
   4   9  -4 246.134 21.9987   3
   4  -9  -4 223.448 24.5546   5
   4   9  -4 250.133 25.3066   1
   4   9  -3 105.026 22.6053   1
   4  -9  -3 91.1205 18.4682   2
   4   9  -3 91.9798 13.7819   3
   4  -9  -3 106.203 19.6423   5
   4  -9  -2 1573.76 41.6638   2
   4   9  -2 1610.80 42.5393   1
   4  -9  -2 1667.63 39.0889   1
   4  -9  -1 1496.44 41.9037   2
   4   9  -1 1532.15 42.1425   1
   4  -9  -1 1058.97 30.9738   1
   4  -9  -1 1572.43 42.8238   4
   4  -9   0 314.712 27.3101   2
   4   9   0 327.195 27.6322   1
   4  -9   0 335.210 28.0990   4
   4   9   1 437.723 29.9949   1
   4  -9   1 437.589 30.2942   2
   4  -9   1 449.691 33.8239   4
   4   9   2 512.685 33.2832   1
   4  -9   2 580.127 34.7108   2
   4  -9   2 521.421 38.2299   4
   4   9   3 496.472 33.6560   1
   4  -9   3 482.264 39.4160   4
   4   9   4 193.812 28.0260   1
   4  -9   4 136.789 35.0683   4
   4  10  -7 23.4880 21.0558   3
   4 -10  -7-8.21764 20.2784   5
   4  10  -6 291.505 27.9412   3
   4 -10  -6 297.191 30.7151   5
   4  10  -5 74.8135 18.6165   3
   4 -10  -5 48.6627 21.4595   5
   4 -10  -4 927.419 33.0129   2
   4  10  -4 1134.49 34.2811   3
   4 -10  -4 1327.40 43.4168   5
   4  10  -4 1336.02 40.9994   1
   4  10  -3 157.632 17.7758   3
   4  10  -3 143.720 21.9729   1
   4 -10  -3 133.775 21.8276   2
   4 -10  -3 122.062 22.0144   5
   4 -10  -2 194.476 18.4009   1
   4 -10  -2 264.262 25.0243   2
   4  10  -2 327.665 26.4814   1
   4 -10  -1 5.43838 20.7351   4
   4  10  -1 52.0532 21.1569   1
   4 -10  -1 34.3783 20.6986   2
   4 -10   0 134.405 25.7933   2
   4  10   0 152.262 23.7620   1
   4 -10   0 156.300 27.0747   4
   4  10   1 720.566 36.3108   1
   4 -10   1 723.107 36.2210   2
   4 -10   1 699.491 38.5803   4
   4  10   2 886.039 38.2935   1
   4 -10   2 879.315 39.9969   2
   4 -10   2 891.921 42.9167   4
   4  10   3 392.762 33.1737   1
   4 -10   3 327.710 38.2045   4
   4  10   4 77.0261 28.0848   1
   4 -10   4 68.4948 34.0415   4
   4  11  -7 304.856 28.8475   3
   4  11  -6 23.1315 20.2065   3
   4 -11  -6-26.1336 19.8636   5
   4  11  -5 249.006 23.7285   3
   4 -11  -5 285.017 27.6336   5
   4 -11  -4 208.555 21.7821   2
   4  11  -4 146.731 16.4416   3
   4 -11  -4 220.647 23.2716   5
   4  11  -4 225.617 25.5367   1
   4 -11  -3 370.237 25.5200   2
   4  11  -3 330.210 22.3653   3
   4 -11  -3 359.243 26.0299   5
   4  11  -3 317.398 26.4806   1
   4 -11  -2 687.399 31.6280   2
   4  11  -2 485.921 22.5909   3
   4  11  -2 656.290 31.4605   1
   4 -11  -1 531.194 30.8677   2
   4  11  -1 550.019 29.5790   1
   4 -11  -1 613.260 32.7246   4
   4 -11   0 126.365 23.6209   2
   4  11   0 145.158 23.5203   1
   4 -11   0 138.608 26.2021   4
   4  11   1 921.191 38.5227   1
   4 -11   1 882.486 38.3308   2
   4 -11   1 865.035 40.0904   4
   4  11   2 434.217 30.7019   1
   4 -11   2 472.750 32.1150   2
   4 -11   2 433.298 38.9623   4
   4  11   3 22.7439 24.8468   1
   4 -11   3 9.13395 26.3965   4
   4  11   4 728.747 42.4315   1
   4 -11   4 624.047 42.4334   4
   4  12  -7 3.99012 22.6261   3
   4  12  -6 40.8915 21.3600   3
   4 -12  -6 50.1139 23.8331   5
   4  12  -5 279.829 25.2944   3
   4 -12  -5 295.605 29.0305   5
   4 -12  -4 133.798 21.8889   2
   4  12  -4 85.8174 16.9235   3
   4 -12  -4 171.874 21.9564   5
   4  12  -4 139.952 23.9279   1
   4 -12  -3 697.607 32.4738   2
   4  12  -3 708.921 29.1122   3
   4 -12  -3 757.872 31.9830   5
   4  12  -3 715.624 32.5518   1
   4  12  -2 136.606 21.8614   1
   4 -12  -2 95.5676 23.1966   2
   4  12  -2 86.7399 14.2693   3
   4 -12  -1 211.382 25.3143   2
   4  12  -1 190.640 23.3466   1
   4 -12  -1 199.317 26.5208   4
   4 -12   0 117.694 26.1609   2
   4  12   0 113.931 22.3480   1
   4 -12   0 128.808 28.0739   4
   4  12   1 707.942 34.5903   1
   4 -12   1 729.073 38.0478   2
   4 -12   1 775.338 41.8303   4
   4 -12   2 184.983 27.2071   2
   4  12   2 187.144 28.1656   1
   4 -12   2 165.272 30.5568   4
   4  12   3 106.103 24.6216   1
   4 -12   3 70.9530 34.4134   4
   4  13  -6 212.680 23.6649   3
   4 -13  -6 242.578 27.7938   5
   4  13  -5-2.06784 19.4875   3
   4 -13  -5 16.9589 18.7482   5
   4 -13  -4 140.327 19.7719   2
   4  13  -4 127.868 19.6060   3
   4 -13  -4 67.3803 19.2159   5
   4  13  -4 112.621 23.8809   1
   4 -13  -3 828.612 34.3144   2
   4  13  -3 730.319 31.6036   3
   4 -13  -3 757.324 32.3214   5
   4  13  -3 813.193 34.2674   1
   4 -13  -2 518.741 30.9309   2
   4  13  -2 480.778 24.5343   3
   4  13  -2 549.180 29.0444   1
   4 -13  -1 434.955 29.8261   2
   4  13  -1 324.283 27.7886   1
   4 -13  -1 404.687 29.7195   4
   4 -13   0 1490.59 45.7905   2
   4  13   0 1633.71 46.6774   1
   4 -13   0 1527.35 48.5468   4
   4 -13   1 7.27404 23.2493   2
   4  13   1 35.4025 23.0391   1
   4 -13   1-0.66108 26.3910   4
   4 -13   2 7.80362 26.4729   2
   4  13   2-18.2618 22.9828   1
   4 -13   2-7.39892 28.8727   4
   4 -13   3 232.017 29.0124   2
   4  13   3 195.381 28.1797   1
   4 -13   3 149.210 34.4989   4
   4  14  -6 68.6691 21.2026   3
   4 -14  -6 22.3479 25.5296   5
   4  14  -5 91.7189 20.3052   3
   4 -14  -5 83.4211 24.8434   5
   4 -14  -4 352.805 25.6824   2
   4  14  -4 351.189 23.8407   3
   4 -14  -4 399.876 29.2621   5
   4  14  -4 358.193 27.5730   1
   4  14  -3 33.3472 17.1170   1
   4 -14  -3 29.5843 19.6075   2
   4  14  -3 18.3441 17.1191   3
   4 -14  -3 33.9238 18.2766   5
   4 -14  -2 254.210 27.8063   2
   4  14  -2 239.301 22.8987   3
   4  14  -2 238.164 23.5672   1
   4  14  -1 497.281 24.7942   3
   4 -14  -1 801.166 36.9075   2
   4  14  -1 762.472 32.8531   1
   4 -14  -1 902.370 38.4097   4
   4 -14   0 17.7741 27.8151   4
   4 -14   0 7.20912 22.3795   2
   4  14   0 3.25022 22.1867   1
   4 -14   1 224.606 28.6212   2
   4  14   1 362.288 27.9696   1
   4 -14   1 272.032 34.7704   4
   4 -14   2 110.156 26.5325   2
   4  14   2 68.0583 25.1189   1
   4 -14   2 80.2778 34.6430   4
   4  14   3-26.2275 19.0648   1
   4 -14   3 0.79819 26.0777   2
   4 -14   3-14.0274 28.2655   4
   4  15  -6 80.9669 24.9894   3
   4 -15  -6 82.0696 25.6648   5
   4  15  -5 110.502 18.7660   3
   4 -15  -5 141.887 24.7749   5
   4 -15  -4 41.0974 21.8834   2
   4  15  -4 27.9148 17.1635   3
   4 -15  -4 19.4023 20.4791   5
   4 -15  -3 370.428 27.1472   2
   4  15  -3 352.633 26.3139   3
   4 -15  -3 311.444 24.2226   5
   4  15  -3 344.270 25.5457   1
   4 -15  -2 295.751 29.0224   2
   4  15  -2 223.737 21.5935   3
   4  15  -2 230.818 23.6763   1
   4  15  -1 707.881 29.2421   3
   4 -15  -1 1020.68 41.1459   2
   4  15  -1 1002.38 36.8579   1
   4 -15   0 56.7614 28.3506   4
   4 -15   0 42.6600 20.9278   2
   4  15   0 46.0415 21.0026   1
   4 -15   1 164.464 33.6000   4
   4 -15   1 273.699 28.3066   2
   4  15   1 189.890 25.7376   1
   4  15   2 409.276 34.8168   1
   4 -15   2 395.393 32.8222   2
   4 -15   2 369.180 35.9498   4
   4  15   3 8.76512 27.6568   1
   4 -15   3-0.81533 25.8934   2
   4 -15   3-7.14658 33.2669   4
   4  16  -6 90.2026 25.6110   3
   4 -16  -5 78.4822 16.9956   2
   4  16  -5 111.249 19.4463   3
   4 -16  -5 166.975 28.3481   5
   4 -16  -4 331.108 27.7387   2
   4  16  -4 334.247 25.8855   3
   4 -16  -4 349.942 27.9670   5
   4 -16  -3 22.4433 24.0539   2
   4  16  -3 54.2118 18.2687   3
   4  16  -2 22.5680 18.5385   1
   4 -16  -2 16.1928 20.1901   2
   4  16  -2 64.4585 17.8486   3
   4  16  -1 35.9608 21.1993   1
   4  16  -1 33.7596 17.0273   3
   4 -16  -1 31.9447 23.3615   2
   4 -16   0 497.992 29.9153   2
   4  16   0 434.947 29.4906   1
   4 -16   0 415.339 34.7850   4
   4 -16   1 42.4146 27.3888   4
   4 -16   1-9.93128 22.5677   2
   4  16   1 14.8976 22.0424   1
   4  16   2 553.535 36.8254   1
   4 -16   2 443.580 36.1829   2
   4 -16   2 417.212 38.4536   4
   4  16   3 37.0392 23.1716   1
   4 -16   3-26.6051 25.8658   2
   4 -17  -5-4.39810 18.2810   2
   4  17  -5-18.6808 16.3401   3
   4 -17  -5-17.7466 20.9578   5
   4 -17  -4 78.0114 25.6237   2
   4  17  -4 60.3562 22.1551   3
   4 -17  -4-10.7265 20.3320   5
   4 -17  -3 255.302 26.0715   2
   4  17  -3 226.779 23.8019   3
   4 -17  -2 280.355 28.5145   2
   4  17  -2 299.006 24.1756   3
   4  17  -1 229.056 22.5995   3
   4 -17  -1 247.938 26.8377   2
   4  17  -1 231.342 24.4343   1
   4  17   0 77.6416 21.7916   1
   4 -17   0 117.434 27.8133   4
   4 -17   0 104.612 27.1793   2
   4 -17   1 109.707 28.4245   4
   4 -17   1 115.674 26.2925   2
   4  17   1 83.8386 25.4898   1
   4 -17   2 76.6551 35.1982   4
   4 -17   2 105.987 29.7404   2
   4  17   2 72.3692 23.2461   1
   4 -18  -5 149.194 24.1664   2
   4  18  -5 144.705 23.9273   3
   4 -18  -5 216.798 30.2766   5
   4 -18  -4 200.012 24.9124   2
   4  18  -4 221.496 26.0628   3
   4 -18  -4 219.940 25.8724   5
   4 -18  -3 109.467 26.8160   2
   4  18  -3 106.390 23.0823   3
   4 -18  -2 139.250 26.8388   2
   4  18  -2 104.689 21.8479   3
   4  18  -1 116.436 20.0597   3
   4 -18  -1 29.0070 25.6336   2
   4  18   0 139.963 21.7570   1
   4  18   0 117.356 16.6924   3
   4 -18   0 145.156 26.7527   2
   4 -18   1 8.24424 29.5473   4
   4 -18   1 54.0263 28.2630   2
   4  18   1 45.0593 20.7590   1
   4 -18   2 49.9688 36.3284   4
   4 -18   2 46.1962 26.8370   2
   4  18   2 108.327 27.7231   1
   4 -19  -5 47.0737 20.2772   2
   4 -19  -5 26.1901 26.7935   5
   4 -19  -4 161.106 25.2892   2
   4  19  -4 166.680 24.5414   3
   4 -19  -3 46.8904 23.2548   2
   4  19  -3 88.2661 21.5402   3
   4 -19  -2 252.373 27.9648   2
   4  19  -2 191.313 22.7329   3
   4  19  -1 198.939 23.1467   3
   4 -19  -1 161.080 25.7991   2
   4  19   0 3.16920 17.7587   3
   4 -19   0 38.2656 24.1216   2
   4 -19   1 121.246 33.4820   4
   4 -19   1 113.108 28.8745   2
   4  19   1 174.343 24.4284   1
   4  19   2 183.588 29.9399   1
   4 -20  -4-7.94403 24.7524   2
   4  20  -4 37.3436 21.3456   3
   4 -20  -3 83.7600 24.0258   2
   4  20  -3 94.4335 20.3360   3
   4 -20  -2 101.572 21.1996   2
   4  20  -2 70.9855 19.1082   3
   4  20  -1 68.1211 22.8254   3
   4 -20  -1 102.834 28.4035   2
   4  20   0 7.73638 15.5849   3
   4 -20   0 31.0701 26.5605   2
   4 -20   1 30.4524 27.1919   2
   4 -21  -3 23.7904 23.4558   2
   4  21  -3 23.7832 20.6217   3
   4 -21  -2 88.6672 26.9302   2
   4  21  -2 62.3403 20.5856   3
   4  21  -1 171.468 24.1801   3
   4 -21  -1 191.254 29.4254   2
   4  21   0 163.844 22.1240   3
   4  22  -2 17.3640 16.9701   3
   4  22  -1 22.5192 20.2460   3
   4  22   0 2.77359 20.0879   3
   5   0  -4 665.852 37.2225   1
   5   0  -3 111.101 25.7736   1
   5   0  -2 15.8552 21.9775   1
   5   0  -1 178.076 26.9568   1
   5   0   0 2004.10 51.1535   1
   5   0   1 269.527 26.9530   1
   5   0   1 292.807 29.7282   4
   5   0   2 11.4290 24.2869   1
   5   0   3 20.8096 25.8350   1
   5  -1  -4 281.685 30.2319   1
   5   1  -4 255.440 28.6142   1
   5   1  -3 288.864 29.9360   1
   5  -1  -3 378.956 30.5816   1
   5   1  -2 56.0137 24.1910   1
   5  -1  -2 70.1063 23.4609   1
   5   1  -1 163.659 27.3636   1
   5  -1  -1 203.051 27.0464   1
   5   1   0 237.415 28.9051   1
   5  -1   0 189.800 26.0533   1
   5  -1   1 228.529 25.4379   1
   5  -1   1 197.667 33.3350   4
   5   1   1 162.433 24.5697   1
   5   1   2 230.554 25.7053   1
   5  -1   2 241.009 29.4172   1
   5  -1   2 262.068 35.1838   4
   5   1   3 64.2106 25.1554   1
   5  -1   3 50.7183 22.1736   1
   5  -1   3 36.1289 32.5799   4
   5  -2  -4 207.906 28.2683   1
   5   2  -4 232.657 29.0024   1
   5   2  -3 198.687 28.9291   1
   5  -2  -3 184.804 27.5956   1
   5   2  -2 386.269 31.6180   1
   5  -2  -2 335.411 29.6058   1
   5   2  -1 156.940 27.0028   1
   5  -2  -1 115.230 25.1041   1
   5   2   0 2277.70 54.6123   1
   5  -2   0 2296.77 53.7663   1
   5  -2   1 42.1882 22.1713   1
   5  -2   1 73.9070 27.7040   4
   5   2   1 53.3096 23.6428   1
   5   2   2 56.6339 25.6696   1
   5  -2   2 52.6949 22.6310   1
   5  -2   2 82.3768 30.4247   4
   5   2   3-7.32236 23.6033   1
   5  -2   3 19.9707 17.5699   1
   5  -2   3 6.06198 35.3976   4
   5  -3  -4 208.221 28.0041   1
   5   3  -4 166.359 26.6042   1
   5   3  -3 697.449 36.0221   1
   5  -3  -3 820.303 37.2519   1
   5  -3  -2 247.732 24.2390   2
   5   3  -2 287.146 28.2661   1
   5  -3  -2 289.721 28.6334   1
   5   3  -1 290.340 27.1703   1
   5  -3  -1 271.317 25.8361   1
   5   3   0 155.024 25.3263   1
   5  -3   0 201.477 26.8013   1
   5   3   1 311.461 30.1710   1
   5  -3   1 318.107 26.1462   1
   5  -3   1 370.411 34.3563   4
   5   3   2 113.232 26.3292   1
   5  -3   2 168.625 36.8784   4
   5  -3   2 122.159 25.5408   1
   5   3   3 169.764 30.0448   1
   5  -3   3 111.423 20.7539   1
   5  -3   3 197.463 40.4894   4
   5  -4  -4 127.463 24.3795   1
   5   4  -4 156.784 27.5635   1
   5   4  -3 50.7069 23.2530   1
   5  -4  -3 43.8054 21.8062   1
   5   4  -2 102.073 22.9080   1
   5  -4  -2 127.080 22.8239   1
   5  -4  -2 124.913 21.5542   2
   5   4  -1 891.896 39.0076   1
   5  -4  -1 874.593 35.6610   1
   5   4   0 68.8351 24.3015   1
   5  -4   0 80.8481 21.7292   1
   5   4   1 392.782 32.5018   1
   5  -4   1 456.181 29.5133   1
   5  -4   1 435.635 33.4025   4
   5   4   2 112.113 28.4592   1
   5  -4   2 86.7900 28.0715   4
   5  -4   2 93.9816 21.1765   1
   5   4   3 118.552 29.8038   1
   5  -4   3 172.015 34.4081   4
   5   5  -4 150.379 25.6418   1
   5   5  -3 253.035 29.3485   1
   5  -5  -3 235.666 27.0384   1
   5  -5  -2 405.649 27.7471   2
   5   5  -2 418.177 32.0340   1
   5  -5  -2 401.161 29.8366   1
   5  -5  -1 229.027 26.4585   2
   5  -5  -1 166.805 24.8863   1
   5   5  -1 237.325 26.8201   1
   5   5   0 16.7585 20.3957   1
   5  -5   0 11.2218 19.3692   1
   5  -5   1 42.3424 20.5030   1
   5   5   1 44.4557 22.7701   1
   5  -5   1 115.790 29.0293   4
   5   5   2 199.532 26.4385   1
   5  -5   2 233.038 31.6478   4
   5   5   3 119.255 23.7865   1
   5  -5   3 46.1683 29.7407   4
   5   6  -5 293.102 32.3227   1
   5   6  -4-5.91729 24.3119   1
   5   6  -3 167.230 25.7552   1
   5  -6  -3 178.794 25.1180   1
   5   6  -2 27.7384 21.0809   1
   5  -6  -2 30.0987 20.2302   1
   5  -6  -2 23.0717 20.4971   2
   5  -6  -1 237.836 27.6091   2
   5   6  -1 308.378 27.8986   1
   5  -6  -1 261.092 25.0106   1
   5   6   0 363.622 31.9291   1
   5  -6   0 334.008 26.1178   1
   5   6   1 138.916 29.3502   1
   5  -6   1 148.841 25.6871   4
   5   6   2 448.949 35.8298   1
   5  -6   2 504.853 42.2000   4
   5  -6   3 37.5094 30.9075   4
   5   7  -5 92.6724 25.4124   1
   5   7  -4 3.01805 21.5913   1
   5  -7  -3 488.218 31.5551   1
   5  -7  -3 350.384 23.9986   2
   5   7  -3 563.090 34.6331   1
   5   7  -2 56.4212 24.3029   1
   5  -7  -2 82.5627 23.1415   2
   5  -7  -2 75.8010 22.1440   1
   5   7  -1 11.2322 20.4681   1
   5  -7  -1 16.1752 16.7456   1
   5  -7  -1 6.36605 21.3978   2
   5   7   0 32.6908 22.7366   1
   5  -7   0 35.1679 22.1032   2
   5   7   1 24.6467 24.1919   1
   5  -7   1 26.4856 24.7463   4
   5   7   2 9.50594 26.8274   1
   5  -7   2 38.6264 27.3149   4
   5   8  -5 60.4594 21.7932   1
   5   8  -4 316.174 30.9390   1
   5  -8  -3 22.4239 18.7576   1
   5   8  -3 31.8828 25.5172   1
   5  -8  -3 10.7266 16.5729   2
   5   8  -2-6.18265 22.4261   1
   5  -8  -2 44.8890 23.3512   2
   5  -8  -2 34.0639 19.0299   1
   5   8  -1 178.920 26.5784   1
   5  -8  -1 211.241 25.6798   2
   5   8   0 150.066 25.1657   1
   5  -8   0 117.883 27.0232   2
   5   8   1 348.463 31.8011   1
   5  -8   1 371.576 33.0380   4
   5   8   2 213.989 32.1204   1
   5  -8   2 204.039 30.4650   4
   5   9  -5 64.2587 26.3452   1
   5   9  -4 155.458 27.0202   1
   5  -9  -3 189.728 22.8908   2
   5   9  -3 184.348 25.4176   1
   5  -9  -2 289.312 27.2559   2
   5   9  -2 363.076 29.7745   1
   5   9  -1 134.984 27.2684   1
   5  -9  -1 129.297 23.1418   2
   5   9   0 53.2364 21.9514   1
   5  -9   0 101.166 26.5043   2
   5  -9   1 39.9025 26.1051   2
   5   9   1 12.2623 23.4335   1
   5  -9   1-6.40759 27.9054   4
   5   9   2 133.734 28.6295   1
   5  -9   2 151.852 33.9278   4
   5  10  -5 212.320 29.4225   1
   5  10  -4 209.726 28.3276   1
   5  10  -3 153.037 23.8298   1
   5 -10  -3 143.776 25.7746   2
   5 -10  -2 227.682 28.2543   2
   5  10  -2 227.387 25.6272   1
   5  10  -1 28.6078 25.5950   1
   5 -10  -1 24.7598 22.6262   2
   5 -10   0 374.569 31.3574   2
   5  10   0 354.775 30.4912   1
   5 -10   1 100.267 26.7407   2
   5  10   1 87.5163 26.2835   1
   5 -10   1 45.5508 32.0104   4
   5  10   2 119.391 29.0933   1
   5 -10   2 171.868 36.7285   4
   5  11  -5-30.8107 23.8726   1
   5  11  -4 182.363 25.1679   1
   5  11  -3 139.323 23.9623   1
   5 -11  -3 160.789 22.6405   2
   5 -11  -2 386.814 32.1098   2
   5  11  -2 380.504 28.9956   1
   5  11  -1 63.4037 26.4105   1
   5 -11  -1 35.9407 22.5602   2
   5  11   0 187.779 26.3046   1
   5 -11   0 191.570 28.0101   2
   5 -11   0 185.097 30.6486   4
   5 -11   1 107.109 30.4498   2
   5  11   1 83.3889 27.1397   1
   5 -11   1 15.7755 27.4517   4
   5 -11   2 65.7703 30.1770   4
   5  12  -5 261.927 30.9162   1
   5  12  -4 154.452 26.2284   1
   5  12  -3-8.19425 21.0172   1
   5 -12  -3-4.19929 21.2789   2
   5  12  -2-0.15151 18.2982   1
   5 -12  -2 21.9436 23.6435   2
   5 -12  -1 424.142 34.3724   2
   5  12  -1 428.001 33.9542   1
   5  12   0-8.63731 20.9995   1
   5 -12   0 19.0799 25.7429   2
   5 -12   0 11.0219 29.1262   4
   5 -12   1 883.243 44.6707   2
   5  12   1 848.848 44.3892   1
   5 -12   1 861.866 45.2798   4
   5 -12   2-1.40943 27.9452   4
   5  13  -5 39.9081 27.0009   1
   5 -13  -5 10.4676 24.5734   5
   5  13  -4 147.090 25.3144   1
   5  13  -3 134.827 23.4379   1
   5 -13  -3 104.198 27.2260   2
   5 -13  -2 332.539 30.1791   2
   5  13  -2 341.910 28.6526   1
   5  13  -1 66.6808 26.1435   1
   5 -13  -1 64.0946 25.9677   2
   5  13   0 61.1199 26.6375   1
   5 -13   0 16.8232 25.8300   2
   5 -13   0 62.7406 23.3715   4
   5 -13   1 43.1510 28.0137   2
   5  13   1 55.3193 29.9794   1
   5 -13   1 19.0170 32.2049   4
   5 -14  -5 23.7471 22.1496   5
   5 -14  -4 92.9628 21.2809   2
   5  14  -4 165.310 28.1248   1
   5  14  -3 78.9658 23.0180   1
   5 -14  -3 67.1488 25.2771   2
   5  14  -2 13.1587 21.7055   1
   5 -14  -2 11.7535 22.5098   2
   5  14  -1 151.600 24.9389   1
   5 -14  -1 163.238 30.6694   2
   5 -14   0 348.425 33.1813   2
   5  14   0 312.419 33.5590   1
   5 -14   0 344.373 36.7588   4
   5  14   1 111.250 23.6609   1
   5 -14   1 94.9514 33.8057   4
   5 -15  -4 26.1921 18.7472   2
   5  15  -4 36.8988 24.6830   1
   5 -15  -3 296.016 32.2062   2
   5  15  -3 288.416 30.4951   1
   5 -15  -2 293.732 30.9771   2
   5  15  -2 384.562 30.2001   1
   5  15  -1 73.9311 25.5386   1
   5 -15  -1 70.2136 28.2212   2
   5 -15   0 41.5760 27.8337   4
   5  15   0 55.0577 24.8285   1
   5 -15   0 6.58997 22.9919   2
   5 -15   1 51.7937 34.2942   4
   5 -16  -4 108.974 24.8471   2
   5  16  -3 45.3349 21.8098   1
   5 -16  -3 63.6001 27.1171   2
   5  16  -2 68.2524 20.3012   1
   5 -16  -2 49.9442 26.7086   2
   5  16  -1 198.437 28.9550   1
   5 -16  -1 107.615 31.6014   2
   5 -16   0 138.543 29.1889   4
   5  16   0 175.648 30.7867   1
   5 -17  -3 111.792 25.7802   2
   5 -17  -2 380.988 36.0721   2
   5  17  -2 427.039 33.8013   1
   5  17  -1 150.690 26.6285   1
   5 -17   0 28.7261 25.8200   4
   5  17   0-21.2778 25.8351   1
   5  18  -1 95.7176 25.0608   1
   6   0  -4 152.514 31.6176   1
   6   0  -3 6.58873 24.2348   1
   6   0  -2 31.5552 25.3342   1
   6   0  -1 104.019 26.2108   1
   6   0   0 631.615 36.5381   1
   6  -1  -4 173.139 31.5452   1
   6   1  -4 201.934 29.7773   1
   6   1  -3 168.321 27.2068   1
   6  -1  -3 232.795 32.2607   1
   6   1  -2 78.3930 27.5045   1
   6  -1  -2 32.6357 22.1568   1
   6  -1  -1 187.801 29.7577   1
   6   1  -1 221.757 27.2828   1
   6   1   0 45.1798 26.7688   1
   6  -1   0 24.7195 21.9174   1
   6  -2  -4 197.025 32.4229   1
   6   2  -4 163.677 30.4088   1
   6   2  -3 48.9945 27.9629   1
   6  -2  -3 52.0144 24.9502   1
   6   2  -2-23.7629 27.2866   1
   6  -2  -2-8.23553 22.3996   1
   6   2  -1 516.900 37.0937   1
   6  -2  -1 484.387 35.0442   1
   6   2   0 186.009 32.9205   1
   6  -2   0 158.621 27.2855   1
   6  -2   1 184.644 25.8886   1
   6  -3  -4 185.641 30.2889   1
   6   3  -3 160.226 29.6686   1
   6  -3  -3 78.7183 27.5653   1
   6   3  -2 220.222 28.3367   1
   6  -3  -2 211.186 28.8611   1
   6  -3  -1 104.065 25.1546   1
   6   3  -1 208.468 31.4810   1
   6   3   0 80.7907 23.6809   1
   6  -3   0 49.3031 19.9880   1
   6  -3   1 33.2731 20.4297   1
   6  -4  -4 132.406 28.8910   1
   6   4  -3 20.4123 24.5568   1
   6  -4  -3 28.2150 22.6952   1
   6   4  -2 3.21744 26.5978   1
   6  -4  -2 38.7617 24.5137   1
   6   4  -1 516.604 38.2235   1
   6  -4  -1 483.112 33.5271   1
   6  -4   0 132.469 22.0627   1
   6  -5  -4 56.9701 28.1582   1
   6   5  -3 225.539 34.6226   1
   6  -5  -3 177.733 25.9771   1
   6   5  -2 164.732 27.6358   1
   6  -5  -2 198.956 30.3379   1
   6   5  -1 22.1310 26.8146   1
   6  -5  -1-9.97864 18.6404   1
   6   6  -3 57.5225 27.6853   1
   6  -6  -3 57.2662 27.3037   1
   6   6  -2 3.34483 38.8537   1
   6  -6  -2 25.8422 17.0463   1
   6  -7  -3 119.647 20.7409   1
   6  -7  -2 155.603 23.2413   2
   6  -7  -2 100.433 22.5064   1
   6  -8  -3 26.5688 19.6229   1
   6  -8  -2 150.122 23.7785   2
   6  -9  -2 42.1062 20.6563   2
   6 -10  -2 103.509 24.8277   2
;
_shelx_hkl_checksum              26202
_shelx_res_file
;
TITL N2CB4NBSH P21
CELL  0.71073  4.94980 22.34000  7.00030 90.00000 104.40000 90.00000
ZERR 2  0.00060  0.00300  0.00090  0.00000  0.01000  0.00000
LATT -1
SYMM -X, Y+ 0.50000, -Z
SFAC C H CL N O S
UNIT 26 20 2 6 8 2
PLAN 30
FMAP 2
SHEL 23 0.83
SIZE 0.24 0.24 0.12
OMIT 0 -2 1
L.S. 14
BOND $H
DFIX 0.86 0.02 N1 H1N
HTAB N1 O1_$1
HTAB C3 O2_$2
EQIV $1 x-1, y, z
EQIV $2 x+1, y, z+1
CONF
ACTA
WGHT    0.048900    0.054400
FVAR       3.11617
CL1   3    0.089709   -0.108429    0.441883    11.00000    0.07655    0.06776 =
         0.06751    0.00456    0.00024   -0.01913
S1    6    0.591627    0.129683    0.087960    11.00000    0.03397    0.05341 =
         0.04301    0.00632    0.01285    0.00579
O1    5    0.869060    0.112328    0.089999    11.00000    0.03682    0.08015 =
         0.06834   -0.00136    0.02134    0.00892
O2    5    0.416879    0.155819   -0.084492    11.00000    0.05194    0.06376 =
         0.03951    0.01425    0.01033    0.00672
O3    5    0.811714    0.273927    0.940153    11.00000    0.08425    0.08274 =
         0.05888   -0.00936   -0.00230   -0.00048
O4    5    0.414715    0.309621    0.792546    11.00000    0.10970    0.12752 =
         0.07559   -0.02696    0.01121    0.05506
N1    4    0.423933    0.070045    0.128764    11.00000    0.03615    0.05002 =
         0.04433    0.00785    0.00409    0.00639
H1N   2    0.247724    0.075031    0.109278    11.00000   -1.20000
N2    4    0.551884    0.040069    0.304205    11.00000    0.04663    0.04366 =
         0.04720    0.00606    0.00393    0.00879
N3    4    0.615891    0.278873    0.796808    11.00000    0.07229    0.05955 =
         0.05298   -0.00503    0.01418    0.00302
C1    1    0.609339    0.177292    0.292895    11.00000    0.03496    0.04561 =
         0.04328    0.00772    0.01100    0.00222
C2    1    0.818791    0.168080    0.464153    11.00000    0.03552    0.05376 =
         0.05221    0.00402    0.00592    0.00974
AFIX  43
H2    2    0.955637    0.139318    0.467225    11.00000   -1.20000
AFIX   0
C3    1    0.821644    0.201886    0.628836    11.00000    0.04013    0.05864 =
         0.04843    0.00393    0.00056    0.00281
AFIX  43
H3    2    0.958972    0.196283    0.745093    11.00000   -1.20000
AFIX   0
C4    1    0.617526    0.243938    0.617357    11.00000    0.04763    0.04670 =
         0.04473    0.00161    0.00959   -0.00129
C5    1    0.410886    0.254428    0.448119    11.00000    0.04810    0.04967 =
         0.05590    0.00568    0.00996    0.01082
AFIX  43
H5    2    0.276167    0.283636    0.445594    11.00000   -1.20000
AFIX   0
C6    1    0.408277    0.220712    0.282856    11.00000    0.04447    0.05151 =
         0.04433    0.00816    0.00477    0.01180
AFIX  43
H6    2    0.272824    0.227148    0.166183    11.00000   -1.20000
AFIX   0
C7    1    0.393688    0.005769    0.371934    11.00000    0.05689    0.04594 =
         0.04298   -0.00164    0.00592    0.00168
AFIX  43
H7    2    0.207220    0.001286    0.305442    11.00000   -1.20000
AFIX   0
C8    1    0.508507   -0.026768    0.556554    11.00000    0.06478    0.04302 =
         0.03944   -0.00166    0.00527    0.00241
C9    1    0.383550   -0.078558    0.604909    11.00000    0.06980    0.04738 =
         0.04418   -0.00090    0.00546   -0.00124
C10   1    0.490093   -0.108732    0.778132    11.00000    0.10078    0.05775 =
         0.05063    0.00689    0.00650   -0.00668
AFIX  43
H10   2    0.401379   -0.142850    0.808396    11.00000   -1.20000
AFIX   0
C11   1    0.728250   -0.088158    0.906066    11.00000    0.13158    0.06762 =
         0.04597    0.01105   -0.01069   -0.00532
AFIX  43
H11   2    0.800701   -0.108422    1.023713    11.00000   -1.20000
AFIX   0
C12   1    0.861648   -0.037661    0.862044    11.00000    0.11099    0.07443 =
         0.05117    0.00035   -0.02059   -0.01498
AFIX  43
H12   2    1.026840   -0.024691    0.947100    11.00000   -1.20000
AFIX   0
C13   1    0.747615   -0.006649    0.690785    11.00000    0.09541    0.05432 =
         0.05215    0.00270   -0.00567   -0.01782
AFIX  43
H13   2    0.832433    0.028488    0.664452    11.00000   -1.20000
AFIX   0
HKLF 4
REM  N2CB4NBSH P21
REM R1 =  0.0304 for    2457 Fo > 4sig(Fo)  and  0.0355 for all    2696 data
REM    202 parameters refined using      2 restraints
END
WGHT      0.0436      0.0651
REM Highest difference peak  0.140,  deepest hole -0.199,  1-sigma level  0.033
Q1    1   0.1590 -0.1078  0.3360  11.00000  0.05    0.14
Q2    1   0.6576  0.2130  0.6316  11.00000  0.05    0.12
Q3    1   0.8928 -0.1258  1.0006  11.00000  0.05    0.12
Q4    1   0.5267  0.3472  0.7927  11.00000  0.05    0.12
Q5    1   0.6390  0.1605  0.3977  11.00000  0.05    0.12
Q6    1   0.3388  0.3092  0.8208  11.00000  0.05    0.12
Q7    1   0.4941  0.1829  0.3154  11.00000  0.05    0.11
Q8    1   0.3223 -0.0907  0.8953  11.00000  0.05    0.11
Q9    1   0.9515 -0.1557  1.0355  11.00000  0.05    0.11
Q10   1   0.7234 -0.0232  0.8908  11.00000  0.05    0.11
Q11   1   0.7505  0.0376  0.3382  11.00000  0.05    0.11
Q12   1   0.7988  0.1589  0.3531  11.00000  0.05    0.10
Q13   1   0.6181  0.2067  0.2778  11.00000  0.05    0.10
Q14   1   0.8291  0.0280  0.1968  11.00000  0.05    0.10
Q15   1   0.0219 -0.1061  0.5939  11.00000  0.05    0.10
Q16   1   0.8050  0.1494  0.5017  11.00000  0.05    0.10
Q17   1   0.8670  0.1236  0.4812  11.00000  0.05    0.10
Q18   1   0.8545  0.1121  0.4130  11.00000  0.05    0.09
Q19   1   0.7657 -0.1081  1.0685  11.00000  0.05    0.09
Q20   1   1.1484  0.1627  0.3999  11.00000  0.05    0.09
Q21   1   0.9162  0.0384  0.6264  11.00000  0.05    0.09
Q22   1   1.0682  0.2322  0.6754  11.00000  0.05    0.09
Q23   1   0.6722  0.1003  0.4905  11.00000  0.05    0.09
Q24   1   1.1431 -0.0479  0.9309  11.00000  0.05    0.09
Q25   1   0.0831 -0.0686  0.4988  11.00000  0.05    0.09
Q26   1   0.5755  0.1450  0.2309  11.00000  0.05    0.09
Q27   1   0.4780  0.2403  0.5822  11.00000  0.05    0.09
Q28   1   0.5041 -0.0859  0.8861  11.00000  0.05    0.09
Q29   1   1.1745 -0.0207  0.9091  11.00000  0.05    0.09
Q30   1  -0.0396 -0.0785  0.4152  11.00000  0.05    0.08
;
_shelx_res_checksum              9677
_shelxl_version_number           2014/6
loop_
_space_group_symop_operation_xyz
'x, y, z'
'-x, y+1/2, -z'
loop_
_atom_site_type_symbol
_atom_site_label
_atom_site_fract_x
_atom_site_fract_y
_atom_site_fract_z
_atom_site_U_iso_or_equiv
_atom_site_adp_type
_atom_site_calc_flag
_atom_site_occupancy
Cl Cl1 0.0897(2) -0.10843(5) 0.44188(16) 0.0737(3) Uani d 1
S S1 0.59163(16) 0.12968(4) 0.08796(12) 0.0429(2) Uani d 1
O O1 0.8691(5) 0.11233(13) 0.0900(4) 0.0603(7) Uani d 1
O O2 0.4169(5) 0.15582(12) -0.0845(3) 0.0519(6) Uani d 1
O O3 0.8117(8) 0.27393(16) 0.9402(5) 0.0788(9) Uani d 1
O O4 0.4147(8) 0.3096(2) 0.7925(5) 0.1064(14) Uani d 1
N N1 0.4239(6) 0.07005(13) 0.1288(4) 0.0445(7) Uani d 1
H H1N 0.248(5) 0.0750(18) 0.109(5) 0.053 Uiso d 1
N N2 0.5519(6) 0.04007(13) 0.3042(4) 0.0472(7) Uani d 1
N N3 0.6159(8) 0.27887(16) 0.7968(5) 0.0619(9) Uani d 1
C C1 0.6093(7) 0.17729(15) 0.2929(5) 0.0411(7) Uani d 1
C C2 0.8188(7) 0.16808(16) 0.4642(5) 0.0480(8) Uani d 1
H H2 0.9556 0.1393 0.4672 0.058 Uiso calc 1
C C3 0.8216(7) 0.20189(17) 0.6288(5) 0.0509(9) Uani d 1
H H3 0.9590 0.1963 0.7451 0.061 Uiso calc 1
C C4 0.6175(8) 0.24394(16) 0.6174(5) 0.0467(8) Uani d 1
C C5 0.4109(8) 0.25443(17) 0.4481(6) 0.0517(9) Uani d 1
H H5 0.2762 0.2836 0.4456 0.062 Uiso calc 1
C C6 0.4083(8) 0.22071(16) 0.2829(5) 0.0479(8) Uani d 1
H H6 0.2728 0.2271 0.1662 0.057 Uiso calc 1
C C7 0.3937(8) 0.00577(16) 0.3719(6) 0.0498(9) Uani d 1
H H7 0.2072 0.0013 0.3054 0.060 Uiso calc 1
C C8 0.5085(8) -0.02677(16) 0.5566(5) 0.0504(9) Uani d 1
C C9 0.3835(9) -0.07856(17) 0.6049(6) 0.0553(9) Uani d 1
C C10 0.4901(10) -0.1087(2) 0.7781(6) 0.0719(11) Uani d 1
H H10 0.4014 -0.1428 0.8084 0.086 Uiso calc 1
C C11 0.7282(13) -0.0882(2) 0.9061(7) 0.0875(17) Uani d 1
H H11 0.8007 -0.1084 1.0237 0.105 Uiso calc 1
C C12 0.8616(12) -0.0377(2) 0.8620(7) 0.0861(16) Uani d 1
H H12 1.0268 -0.0247 0.9471 0.103 Uiso calc 1
C C13 0.7476(11) -0.00665(19) 0.6908(6) 0.0715(13) Uani d 1
H H13 0.8324 0.0285 0.6645 0.086 Uiso calc 1
loop_
_atom_site_aniso_label
_atom_site_aniso_U_11
_atom_site_aniso_U_22
_atom_site_aniso_U_33
_atom_site_aniso_U_12
_atom_site_aniso_U_13
_atom_site_aniso_U_23
Cl1 0.0766(7) 0.0678(6) 0.0675(6) -0.0191(6) 0.0002(5) 0.0046(6)
S1 0.0340(4) 0.0534(5) 0.0430(4) 0.0058(4) 0.0128(3) 0.0063(4)
O1 0.0368(13) 0.080(2) 0.0683(16) 0.0089(12) 0.0213(12) -0.0014(14)
O2 0.0519(14) 0.0638(15) 0.0395(13) 0.0067(12) 0.0103(11) 0.0142(12)
O3 0.084(2) 0.083(2) 0.0589(18) -0.0005(18) -0.0023(17) -0.0094(17)
O4 0.110(3) 0.128(3) 0.076(2) 0.055(3) 0.011(2) -0.027(2)
N1 0.0362(15) 0.0500(16) 0.0443(16) 0.0064(13) 0.0041(13) 0.0079(12)
N2 0.0466(17) 0.0437(16) 0.0472(17) 0.0088(14) 0.0039(14) 0.0061(13)
N3 0.072(2) 0.0595(19) 0.053(2) 0.0030(18) 0.0142(19) -0.0050(17)
C1 0.0350(17) 0.0456(17) 0.0433(18) 0.0022(14) 0.0110(14) 0.0077(14)
C2 0.0355(18) 0.054(2) 0.052(2) 0.0097(15) 0.0059(16) 0.0040(16)
C3 0.0401(19) 0.059(2) 0.048(2) 0.0028(16) 0.0006(16) 0.0039(17)
C4 0.048(2) 0.047(2) 0.045(2) -0.0013(16) 0.0096(17) 0.0016(16)
C5 0.048(2) 0.050(2) 0.056(2) 0.0108(16) 0.0100(19) 0.0057(18)
C6 0.044(2) 0.052(2) 0.0443(19) 0.0118(16) 0.0048(16) 0.0082(16)
C7 0.057(2) 0.046(2) 0.043(2) 0.0017(16) 0.0059(17) -0.0016(16)
C8 0.065(2) 0.0430(19) 0.0394(18) 0.0024(18) 0.0053(17) -0.0017(15)
C9 0.070(3) 0.0474(19) 0.0442(19) -0.0012(18) 0.0055(18) -0.0009(16)
C10 0.101(3) 0.058(2) 0.051(2) -0.007(3) 0.007(2) 0.007(2)
C11 0.132(5) 0.068(3) 0.046(2) -0.005(3) -0.011(3) 0.011(2)
C12 0.111(4) 0.074(3) 0.051(2) -0.015(3) -0.021(2) 0.000(2)
C13 0.095(4) 0.054(2) 0.052(3) -0.018(2) -0.006(2) 0.003(2)
loop_
_atom_type_symbol
_atom_type_description
_atom_type_scat_dispersion_real
_atom_type_scat_dispersion_imag
_atom_type_scat_source
C C 0.0033 0.0016 'International Tables Vol C Tables 4.2.6.8 and 6.1.1.4'
H H 0.0000 0.0000 'International Tables Vol C Tables 4.2.6.8 and 6.1.1.4'
Cl Cl 0.1484 0.1585 'International Tables Vol C Tables 4.2.6.8 and 6.1.1.4'
N N 0.0061 0.0033 'International Tables Vol C Tables 4.2.6.8 and 6.1.1.4'
O O 0.0106 0.0060 'International Tables Vol C Tables 4.2.6.8 and 6.1.1.4'
S S 0.1246 0.1234 'International Tables Vol C Tables 4.2.6.8 and 6.1.1.4'
loop_
_geom_angle_atom_site_label_1
_geom_angle_atom_site_label_2
_geom_angle_atom_site_label_3
_geom_angle
O1 S1 O2 120.09(15)
O1 S1 N1 107.89(16)
O2 S1 N1 104.77(15)
O1 S1 C1 107.59(16)
O2 S1 C1 109.75(16)
N1 S1 C1 105.87(15)
N2 N1 S1 113.8(2)
N2 N1 H1N 115(3)
S1 N1 H1N 114(3)
C7 N2 N1 115.4(3)
O4 N3 O3 123.9(4)
O4 N3 C4 117.3(4)
O3 N3 C4 118.8(4)
C6 C1 C2 121.4(3)
C6 C1 S1 119.4(3)
C2 C1 S1 119.0(3)
C3 C2 C1 119.4(3)
C3 C2 H2 120.3
C1 C2 H2 120.3
C4 C3 C2 118.3(3)
C4 C3 H3 120.8
C2 C3 H3 120.8
C3 C4 C5 123.1(3)
C3 C4 N3 118.2(3)
C5 C4 N3 118.7(3)
C6 C5 C4 118.6(3)
C6 C5 H5 120.7
C4 C5 H5 120.7
C1 C6 C5 119.1(3)
C1 C6 H6 120.5
C5 C6 H6 120.5
N2 C7 C8 119.2(3)
N2 C7 H7 120.4
C8 C7 H7 120.4
C13 C8 C9 117.3(3)
C13 C8 C7 120.9(4)
C9 C8 C7 121.8(3)
C10 C9 C8 121.8(4)
C10 C9 Cl1 117.7(3)
C8 C9 Cl1 120.5(3)
C11 C10 C9 119.4(4)
C11 C10 H10 120.3
C9 C10 H10 120.3
C10 C11 C12 120.7(4)
C10 C11 H11 119.7
C12 C11 H11 119.7
C11 C12 C13 119.3(5)
C11 C12 H12 120.3
C13 C12 H12 120.3
C12 C13 C8 121.4(4)
C12 C13 H13 119.3
C8 C13 H13 119.3
loop_
_geom_bond_atom_site_label_1
_geom_bond_atom_site_label_2
_geom_bond_distance
Cl1 C9 1.743(4)
S1 O1 1.424(3)
S1 O2 1.424(2)
S1 N1 1.632(3)
S1 C1 1.770(3)
O3 N3 1.214(4)
O4 N3 1.204(4)
N1 N2 1.404(4)
N1 H1N 0.86(2)
N2 C7 1.269(5)
N3 C4 1.481(5)
C1 C6 1.379(5)
C1 C2 1.391(5)
C2 C3 1.375(5)
C2 H2 0.9300
C3 C4 1.367(5)
C3 H3 0.9300
C4 C5 1.379(5)
C5 C6 1.378(5)
C5 H5 0.9300
C6 H6 0.9300
C7 C8 1.468(5)
C7 H7 0.9300
C8 C13 1.390(6)
C8 C9 1.393(5)
C9 C10 1.373(6)
C10 C11 1.370(7)
C10 H10 0.9300
C11 C12 1.380(7)
C11 H11 0.9300
C12 C13 1.378(6)
C12 H12 0.9300
C13 H13 0.9300
loop_
_geom_hbond_atom_site_label_D
_geom_hbond_atom_site_label_H
_geom_hbond_atom_site_label_A
_geom_hbond_site_symmetry_A
_geom_hbond_distance_DH
_geom_hbond_distance_HA
_geom_hbond_distance_DA
_geom_hbond_angle_DHA
N1 H1N O1 1_455 0.86(2) 2.02(3) 2.853(4) 163(4)
C3 H3 O2 1_656 0.93 2.46 3.290(4) 149
loop_
_geom_torsion_atom_site_label_1
_geom_torsion_atom_site_label_2
_geom_torsion_atom_site_label_3
_geom_torsion_atom_site_label_4
_geom_torsion
O1 S1 N1 N2 56.0(3)
O2 S1 N1 N2 -175.0(2)
C1 S1 N1 N2 -59.0(3)
S1 N1 N2 C7 159.3(3)
O1 S1 C1 C6 151.0(3)
O2 S1 C1 C6 18.7(3)
N1 S1 C1 C6 -93.9(3)
O1 S1 C1 C2 -32.1(3)
O2 S1 C1 C2 -164.4(3)
N1 S1 C1 C2 83.0(3)
C6 C1 C2 C3 1.7(5)
S1 C1 C2 C3 -175.1(3)
C1 C2 C3 C4 -0.4(5)
C2 C3 C4 C5 -0.7(6)
C2 C3 C4 N3 178.0(3)
O4 N3 C4 C3 -170.0(4)
O3 N3 C4 C3 8.2(5)
O4 N3 C4 C5 8.7(6)
O3 N3 C4 C5 -173.0(4)
C3 C4 C5 C6 0.5(6)
N3 C4 C5 C6 -178.2(3)
C2 C1 C6 C5 -1.9(5)
S1 C1 C6 C5 174.9(3)
C4 C5 C6 C1 0.8(5)
N1 N2 C7 C8 -179.1(3)
N2 C7 C8 C13 22.2(5)
N2 C7 C8 C9 -158.0(4)
C13 C8 C9 C10 0.2(6)
C7 C8 C9 C10 -179.6(4)
C13 C8 C9 Cl1 -177.9(3)
C7 C8 C9 Cl1 2.3(5)
C8 C9 C10 C11 -1.1(7)
Cl1 C9 C10 C11 177.1(4)
C9 C10 C11 C12 -0.2(8)
C10 C11 C12 C13 2.3(9)
C11 C12 C13 C8 -3.2(9)
C9 C8 C13 C12 2.0(7)
C7 C8 C13 C12 -178.2(5)

_cod_database_fobs_code 2242707
