#------------------------------------------------------------------------------
#$Date: 2017-07-25 12:30:33 +0300 (Tue, 25 Jul 2017) $
#$Revision: 199132 $
#$URL: file:///home/coder/svn-repositories/cod/cif/2/24/21/2242159.cif $
#------------------------------------------------------------------------------
#
# This file is available in the Crystallography Open Database (COD),
# http://www.crystallography.net/. The original data for this entry
# were provided by IUCr Journals, http://journals.iucr.org/.
#
# The file may be used within the scientific community so long as
# proper attribution is given to the journal article from which the
# data were obtained.
#
data_2242159
loop_
_publ_author_name
'Amenta, Donna S.'
'Liebing, Phil'
'Biero, Julia E.'
'Sherman, Robert J.'
'Gilje, John W.'
'Edelmann, Frank T.'
_publ_section_title
;
 Synthesis and crystal structures of three new benzotriazolylpropanamides
;
_journal_coeditor_code           ZL2702
_journal_issue                   6
_journal_name_full               'Acta Crystallographica Section E'
_journal_page_first              880
_journal_page_last               885
_journal_paper_doi               10.1107/S2056989017007472
_journal_volume                  73
_journal_year                    2017
_chemical_formula_iupac          'C10 H12 N4 O'
_chemical_formula_moiety         'C10 H12 N4 O'
_chemical_formula_sum            'C10 H12 N4 O'
_chemical_formula_weight         204.24
_chemical_name_systematic
;
3-(1<i>H</i>-Benzotriazol-1-yl)-2-methylpropanamide
;
_space_group_crystal_system      triclinic
_space_group_IT_number           2
_space_group_name_Hall           '-P 1'
_space_group_name_H-M_alt        'P -1'
_symmetry_space_group_name_Hall  '-P 1'
_symmetry_space_group_name_H-M   'P -1'
_atom_sites_solution_hydrogens   geom
_atom_sites_solution_primary     direct
_atom_sites_solution_secondary   difmap
_audit_creation_method           SHELXL-2016/4
_cell_angle_alpha                69.039(12)
_cell_angle_beta                 89.498(10)
_cell_angle_gamma                75.915(10)
_cell_formula_units_Z            2
_cell_length_a                   7.3885(9)
_cell_length_b                   8.0720(10)
_cell_length_c                   9.2976(13)
_cell_measurement_reflns_used    21215
_cell_measurement_temperature    100(2)
_cell_measurement_theta_max      76.095
_cell_measurement_theta_min      5.096
_cell_volume                     500.37(12)
_computing_cell_refinement
;
CrysAlis PRO (Agilent, 2003)
;
_computing_data_collection
;
CrysAlis PRO (Agilent, 2003)
;
_computing_data_reduction
;
CrysAlis PRO (Agilent, 2003)
;
_computing_molecular_graphics
;
DIAMOND (Brandenburg, 1999)
;
_computing_publication_material
;
SHELXL2016 (Sheldrick, 2015)
;
_computing_structure_refinement
;
SHELXL2016 (Sheldrick, 2015)
;
_computing_structure_solution
;
SHELXS97 (Sheldrick, 2008)
;
_diffrn_ambient_temperature      100(2)
_diffrn_detector_area_resol_mean 10.3543
_diffrn_measured_fraction_theta_full 1.000
_diffrn_measured_fraction_theta_max 1.000
_diffrn_measurement_device_type  'Agilent Xcalibur, Atlas, Nova'
_diffrn_measurement_method       'omega scans'
_diffrn_radiation_type           CuK\a
_diffrn_radiation_wavelength     1.54184
_diffrn_reflns_av_R_equivalents  0.0257
_diffrn_reflns_limit_h_max       9
_diffrn_reflns_limit_h_min       -9
_diffrn_reflns_limit_k_max       10
_diffrn_reflns_limit_k_min       -10
_diffrn_reflns_limit_l_max       11
_diffrn_reflns_limit_l_min       -9
_diffrn_reflns_number            28193
_diffrn_reflns_theta_full        67.684
_diffrn_reflns_theta_max         74.975
_diffrn_reflns_theta_min         5.113
_exptl_absorpt_coefficient_mu    0.761
_exptl_absorpt_correction_T_max  1.00000
_exptl_absorpt_correction_T_min  0.91913
_exptl_absorpt_correction_type   multi-scan
_exptl_absorpt_process_details
;
(CrysAlis PRO, Agilent, 2003)
;
_exptl_crystal_colour            colorless
_exptl_crystal_density_diffrn    1.356
_exptl_crystal_description       prism
_exptl_crystal_F_000             216
_exptl_crystal_size_max          0.150
_exptl_crystal_size_mid          0.100
_exptl_crystal_size_min          0.080
_refine_diff_density_max         0.333
_refine_diff_density_min         -0.208
_refine_ls_extinction_coef       0.0117(12)
_refine_ls_extinction_expression Fc^*^=kFc[1+0.001xFc^2^\l^3^/sin(2\q)]^-1/4^
_refine_ls_extinction_method
;
SHELXL2016 (Sheldrick, 2015)
;
_refine_ls_goodness_of_fit_ref   1.106
_refine_ls_hydrogen_treatment    constr
_refine_ls_matrix_type           full
_refine_ls_number_parameters     138
_refine_ls_number_reflns         2053
_refine_ls_number_restraints     0
_refine_ls_restrained_S_all      1.106
_refine_ls_R_factor_all          0.0325
_refine_ls_R_factor_gt           0.0320
_refine_ls_shift/su_max          0.000
_refine_ls_shift/su_mean         0.000
_refine_ls_structure_factor_coef Fsqd
_refine_ls_weighting_details
'w=1/[\s^2^(Fo^2^)+(0.0349P)^2^+0.1806P] where P=(Fo^2^+2Fc^2^)/3'
_refine_ls_weighting_scheme      calc
_refine_ls_wR_factor_gt          0.0803
_refine_ls_wR_factor_ref         0.0807
_reflns_number_gt                2012
_reflns_number_total             2053
_reflns_threshold_expression     'I > 2\s(I)'
_cod_data_source_file            zl2702sup1.cif
_cod_data_source_block           1
_cod_database_code               2242159
_shelx_space_group_comment
;
The symmetry employed for this shelxl refinement is uniquely defined
by the following loop, which should always be used as a source of
symmetry information in preference to the above space-group names.
They are only intended as comments.
;
_shelx_estimated_absorpt_t_min   0.894
_shelx_estimated_absorpt_t_max   0.942
_shelx_hkl_file
;
   0   0   1 151235. 583.248  67
   0   0  -1 148679. 413.090  90
   0   0   1 146979. 405.899  93
   0   0   1 147580. 408.083  91
   0   0  -1 148337. 411.786  94
   0   0   1 148448. 408.292  95
   0   0   1 149243. 407.495  96
   0   0   1 149753. 408.350  92
   0   0   2 148319. 843.388  68
   0   0   2 157740. 584.546  96
   0   0  -2 150377. 591.623  94
   0   0   2 158670. 589.508  91
   0   0   2 158414. 589.461  93
   0   0   2 157980. 589.435  95
   0   0   2 158560. 590.749  90
   0   0   2 159321. 591.353  92
   0   0   2 154723. 858.619  67
   0   0   2 145819. 813.442   2
   0   0   2 149465. 784.678  40
   0   0   2 149730. 809.156   4
   0   0   3 54320.3 618.453   4
   0   0   3 58308.0 434.379  96
   0   0   3 58121.5 432.996  92
   0   0   3 55303.2 649.323  67
   0   0   3 54210.7 592.654  40
   0   0   3 57238.9 435.714  91
   0   0  -3 53726.5 526.925  65
   0   0   3 58391.7 432.561  95
   0   0   3 53576.4 618.974   2
   0   0   3 56870.6 430.946  90
   0   0  -3 53676.1 428.796  63
   0   0  -3 54207.5 593.919  37
   0   0  -3 56622.8 432.958  94
   0   0   3 55776.3 653.617  68
   0   0   3 58029.7 437.361  93
   0   0  -4 72814.6 555.230  63
   0   0   4 72085.0 860.416   2
   0   0  -4 74674.5 826.255  37
   0   0   4 80284.0 549.467  95
   0   0   4 71193.5 820.301  40
   0   0   4 72934.9 855.471   4
   0   0  -4 73580.0 726.600  65
   0   0  -4 69990.9 897.948  38
   0   0   4 75410.4 537.801  91
   0   0   4 76680.7 541.211  93
   0   0   4 76970.7 541.331  92
   0   0   4 79838.3 551.103  90
   0   0   4 72600.1 898.766  68
   0   0   5 11015.4 366.654  40
   0   0  -5 11065.2 412.209  38
   0   0  -5 11696.6 325.590  65
   0   0   5 10593.5 399.862  68
   0   0   5 12036.2 411.233   2
   0   0  -5 12226.6 385.849  37
   0   0  -6 22951.5 590.136  37
   0   0  -6 21557.6 657.421  38
   0   0   6 21229.2 624.585   2
   0   0   7 5535.62 215.324  29
   0   0   7 5049.50 208.893  48
   0   0   7 4867.59 196.990  74
   0   0   7 5660.23 216.852  82
   0   0   7 5163.66 223.102  31
   0   0   7 5192.28 207.545  88
   0   0   7 5170.34 214.206  59
   0   0   7 5785.31 361.822   2
   0   0   7 5164.88 205.740  24
   0   0  -7 5983.30 385.095  34
   0   0   7 5463.45 213.320  57
   0   0   7 4945.60 342.870  68
   0   0   7 5585.10 206.852  11
   0   0  -7 5698.78 377.154  38
   0   0   7 5245.48 210.054  54
   0   0   8 12107.8 327.670  54
   0   0   8 12265.7 327.627  57
   0   0   8 12554.9 328.335  82
   0   0   8 12146.6 319.276  74
   0   0   8 12907.4 336.337  29
   0   0   8 12390.3 335.569  13
   0   0   8 11672.9 347.341  31
   0   0   8 11540.8 330.628  59
   0   0   8 12430.7 327.628  24
   0   0   9 5587.42 202.358  22
   0   0   9 5511.83 224.289  31
   0   0   9 5490.61 211.844  13
   0   0   9 5971.11 211.308  82
   0   0   9 5445.62 215.119  59
   0   0   9 5471.14 207.209  54
   0   0  10 1438.29 91.8975  13
   0   0  10 1491.71 90.3664  54
   0   0  10 1528.79 98.1685  31
   0   0  10 1507.46 92.8425  59
   0  -1  10 957.499 60.9818  31
   0  -1  10 979.807 59.0972  59
   0  -1  10 904.228 59.0429  54
   0  -1  10 909.002 61.9886  13
   0  -1   9 11661.3 290.712  13
   0  -1   9 12183.6 287.361  54
   0  -1   9 11972.3 282.049  59
   0  -1   9 12039.7 289.078  22
   0  -1   9 12190.4 297.880  31
   0  -1   8 3558.78 177.326  54
   0  -1   8 3775.42 190.308  31
   0  -1   8 3743.15 177.542  74
   0  -1   8 3602.22 178.182  59
   0  -1   8 3803.64 187.661  22
   0  -1   8 3679.97 166.574  24
   0  -1   8 3582.70 178.234  88
   0  -1   7 11179.6 303.577  49
   0  -1   7 12624.1 320.200  29
   0  -1   7 12331.1 318.350  24
   0  -1   7 13365.8 563.251   2
   0  -1   7 11360.3 331.118  88
   0  -1   7 12248.0 313.429  82
   0  -1   7 11622.5 320.050  57
   0   1  -7 12561.0 581.773  38
   0  -1   7 11525.0 333.823  31
   0  -1   7 11282.5 316.933  54
   0  -1   7 10414.8 512.998  68
   0  -1   7 10997.3 310.408  74
   0  -1   7 11083.4 319.057  48
   0   1  -7 12612.4 591.876  34
   0  -1   7 11598.2 321.297  59
   0  -1   6 1781.90 114.997  49
   0  -1   6 1719.11 114.684  82
   0  -1   6 1610.53 115.515  48
   0  -1   6 1798.91 116.892  29
   0   1  -6 1875.85 182.924  37
   0  -1   6 1611.35 118.390  31
   0  -1   6 1383.56 171.969  68
   0  -1   6 1717.94 117.716  54
   0  -1   6 1799.55 120.764  57
   0   1  -6 1468.05 180.981  38
   0  -1   6 1560.40 118.859  88
   0  -1   6 1589.59 113.941  59
   0  -1   6 1693.21 116.042  74
   0  -1   6 1747.14 189.136   2
   0  -1   5 1452.13 149.240   4
   0  -1   5 1710.18 167.300   2
   0  -1   5 1532.74 164.078  68
   0   1  -5 1597.26 170.736  38
   0   1  -4 6083.40 290.261  38
   0  -1   4 4670.38 232.304   4
   0  -1   4 6308.15 225.107  95
   0   1  -4 5948.89 224.449  94
   0  -1   4 6086.53 224.152  91
   0  -1   4 4732.07 247.978  68
   0  -1   4 6455.39 228.700  90
   0  -1   4 5996.94 279.140  40
   0  -1   4 6491.25 279.942   2
   0  -1   4 6199.07 226.162  96
   0  -1   4 6097.46 222.770  92
   0   1  -4 6150.75 233.828  65
   0  -1   4 6238.80 225.256  93
   0   1  -4 5921.78 263.723  37
   0   1  -3 2431.59 120.143  63
   0  -1   3 2484.71 150.342  68
   0  -1   3 2628.90 147.125   4
   0  -1   3 2732.63 136.888  96
   0  -1   3 2792.35 137.616  92
   0  -1   3 2815.61 139.701  91
   0  -1   3 2720.03 136.034  90
   0   1  -3 2726.65 136.553  65
   0  -1   3 2826.26 138.096  95
   0   1  -3 2741.01 165.801  38
   0   1  -3 2732.77 156.210  37
   0   1  -3 2700.11 137.984  94
   0  -1   3 2764.46 165.228  40
   0  -1   3 2825.51 138.743  93
   0  -1   2 115803. 515.554   1
   0  -1   2 113699. 841.021  68
   0  -1   2 117790. 795.546  92
   0  -1   2 115815. 801.821   4
   0  -1   2 116063. 790.055  96
   0   1  -2 115719. 812.857  94
   0  -1   2 115427. 819.426   2
   0   1  -2 114546. 858.117  37
   0   1  -2 115933. 809.410  90
   0   1  -2 114534. 886.511  38
   0  -1   2 115635. 901.470  40
   0   1  -2 111835. 726.906  63
   0  -1   2 112726. 909.137  39
   0  -1   2 117714. 796.740  91
   0  -1   2 116954. 795.443  95
   0  -1   2 117212. 793.787  93
   0   1  -2 114715. 768.023  65
   0  -1   1 119226. 698.944  95
   0  -1   1 119689. 698.730  91
   0   1  -1 114445. 705.844  37
   0   1  -1 114371. 651.200  65
   0  -1   1 119202. 697.861  93
   0   1  -1 114778. 560.139   3
   0  -1   1 116873. 374.701  35
   0  -1   1 115071. 743.482  39
   0  -1   1 119749. 695.908  96
   0   1  -1 114820. 704.901  38
   0  -1   1 113634. 732.993  40
   0   1  -1 118761. 710.675  94
   0  -1   1 120990. 676.263  68
   0   1  -1 112345. 647.224  63
   0  -1   1 119350. 697.099  92
   0   1  -1 120229. 715.243  90
   0  -1   0 98798.3 535.350  91
   0   1   0 94372.6 524.001  37
   0   1   0 100412. 549.203  90
   0  -1   0 98568.5 531.499  96
   0  -1   0 91770.3 524.826  39
   0  -1   0 95162.5 454.301  66
   0  -1   0 97440.3 533.057  95
   0  -1   0 98306.3 534.582  92
   0   1   0 94474.5 493.126   3
   0   1   0 100020. 547.601  94
   0   1   0 93107.1 520.742  65
   0  -1   0 92208.5 512.066  62
   0  -1   0 95751.1 450.650  35
   0  -1   0 93865.0 512.881  64
   0   1   0 93079.4 469.454  38
   0  -1   0 98585.5 533.773  93
   0  -1   0 97321.6 502.133  40
   0   1   1 30776.4 297.531  36
   0  -1  -1 29399.4 263.858  39
   0  -1  -1 33323.2 243.393  92
   0   1   1 32560.6 245.938  90
   0  -1  -1 31198.3 204.426  64
   0   1   1 32914.5 246.048  94
   0   1   1 30930.4 274.145   3
   0   1   1 30644.1 256.545  38
   0   1   1 31973.9 275.335   2
   0  -1  -1 32181.5 228.988  66
   0  -1  -1 29816.2 229.219  62
   0  -1  -1 33135.3 241.669  96
   0  -1  -1 32959.5 242.826  93
   0  -1  -1 33378.1 243.990  91
   0  -1  -1 33215.6 243.307  95
   0   1   1 32978.7 309.224  68
   0   1   1 31814.7 308.774  67
   0  -1  -2 442964. 808.087  64
   0   1   2 454322. 1418.04   5
   0   1   2 451860. 1454.01  67
   0   1   2 453747. 1372.98   2
   0   1   2 453938. 1480.80  68
   0   1   2 460324. 804.411  40
   0   1   3 135056. 938.551   2
   0  -1  -3 129237. 675.578  63
   0   1   3 126985. 977.869  68
   0   1   3 140688. 692.917  40
   0   1   3 136227. 532.711   3
   0   1   3 131618. 990.773  67
   0  -1  -3 130634. 537.076   1
   0   1   3 130442. 865.360  36
   0   1   4 5478.56 234.075  67
   0  -1  -4 6258.20 219.332  37
   0   1   4 5954.99 250.368  68
   0   1   4 5394.13 178.467  40
   0   1   4 5289.13 201.668  36
   0   1   4 5691.38 230.708   2
   0  -1  -4 5398.42 195.436  65
   0  -1  -4 5282.08 146.613  63
   0  -1  -5 68316.9 774.449  65
   0  -1  -5 68057.6 848.457  37
   0   1   5 66921.9 943.601  67
   0   1   5 67129.0 931.717   2
   0  -1  -6 28216.7 706.550  38
   0  -1  -6 29931.7 635.412  37
   0   1   6 28133.2 693.499   2
   0   1   7 1816.55 121.361  54
   0   1   7 1772.70 115.308  74
   0   1   7 1733.64 126.432  31
   0   1   7 1767.75 122.651  59
   0  -1  -7 1842.84 199.575  34
   0   1   7 1963.04 127.459  82
   0   1   7 1861.05 121.911  13
   0   1   7 1706.69 119.318  24
   0  -1  -7 2008.91 207.272  38
   0   1   7 1750.53 204.853  68
   0   1   7 1995.19 207.527   2
   0   1   7 1830.43 120.259  57
   0   1   7 2078.06 123.849  11
   0   1   7 1823.17 122.875  29
   0   1   8 7627.28 261.644  82
   0   1   8 7551.90 266.425  59
   0   1   8 7660.71 256.022  57
   0   1   8 8226.13 256.310  11
   0   1   8 7648.64 261.221  13
   0   1   8 7535.02 277.914  31
   0   1   8 7883.24 267.086  29
   0   1   8 7645.42 259.300  54
   0   1   9 1487.28 124.088  31
   0   1   9 1509.49 114.947  82
   0   1   9 1632.99 120.082  13
   0   1   9 1564.92 114.198  57
   0   1   9 1621.12 119.136  54
   0   1   9 1619.46 124.259  59
   0   1   9 1589.40 119.204  29
   0   1  10 64.9165 28.4049  59
   0   1  10 83.4679 30.0421  54
   0   1  10 64.6903 30.4568  31
   0   1  10 59.7323 28.7095  13
   0   1  11 90.0969 21.2117  59
   0   1  11 107.109 21.1823  54
   0  -2   9 617.875 49.7042  59
   0  -2   9 708.652 61.7094  54
   0  -2   9 733.829 65.0151  13
   0   2  -9 692.465 54.2960  41
   0  -2   9 633.605 60.7275  22
   0  -2   9 706.755 55.9155  31
   0  -2   8 3411.11 162.326  54
   0  -2   8 3502.20 174.149  22
   0  -2   8 3590.40 162.901  31
   0  -2   8 3139.97 162.504  88
   0  -2   8 3435.06 160.049  74
   0  -2   8 3509.19 153.464  59
   0  -2   7 8455.92 269.054  49
   0  -2   7 8233.42 276.698  48
   0  -2   7 8564.11 277.461  31
   0  -2   7 8547.94 266.047  59
   0  -2   7 8641.30 278.008  54
   0  -2   7 8583.82 275.673  74
   0  -2   7 8581.06 295.598  88
   0  -2   7 8847.64 263.322  30
   0  -2   7 8411.36 267.706  18
   0  -2   6 76408.9 777.894  59
   0  -2   6 78084.5 830.268  18
   0  -2   6 73806.9 830.507  89
   0  -2   6 76954.1 876.352  88
   0  -2   6 76553.4 811.070  31
   0   2  -6 83196.9 1494.48  34
   0  -2   6 73582.9 802.000  74
   0  -2   6 72791.7 1297.26  68
   0  -2   6 79863.3 1323.14   2
   0  -2   6 75997.5 762.722  24
   0  -2   6 73396.1 805.173  48
   0   2  -6 85193.3 1479.39  38
   0   2  -6 81657.1 1332.50  37
   0  -2   6 73459.1 782.537  49
   0  -2   6 75634.4 808.590  54
   0  -2   6 76016.8 743.157  42
   0  -2   6 82044.1 767.671  82
   0  -2   5 2908.52 228.296   4
   0  -2   5 3028.59 241.133   2
   0  -2   5 2832.22 229.233  68
   0   2  -5 2957.59 236.388  37
   0   2  -5 2996.70 256.033  38
   0   2  -4 52436.0 781.463  65
   0  -2   4 49627.1 781.871  96
   0  -2   4 47618.1 850.623  68
   0   2  -4 48536.7 796.041  94
   0  -2   4 49835.0 786.464  95
   0   2  -4 49363.0 875.612  37
   0  -2   4 49402.1 783.189  91
   0  -2   4 49480.3 782.393  93
   0  -2   4 48628.0 818.410   4
   0  -2   4 49693.9 786.440  92
   0   2  -4 50010.2 922.865  38
   0  -2   4 49476.8 845.926   2
   0  -2   4 49424.9 787.090  90
   0  -2   3 385.358 74.6280  40
   0  -2   3 369.323 67.2720  92
   0  -2   3 361.043 65.6383  90
   0   2  -3 305.935 58.5301  94
   0  -2   3 336.067 61.0058   2
   0  -2   3 445.416 72.9080  96
   0  -2   3 1368.80 121.568   4
   0  -2   3 324.475 61.8551  93
   0  -2   3 353.455 64.7549  91
   0   2  -3 378.698 73.0993  38
   0   2  -3 324.257 55.3121  65
   0  -2   3 1261.46 122.501  68
   0   2  -3 341.615 66.7762  37
   0  -2   3 323.333 61.4356  95
   0  -2   2 23405.9 355.641   1
   0  -2   2 24948.0 444.802   2
   0  -2   2 24598.5 469.149  93
   0   2  -2 24102.4 474.500  90
   0  -2   2 23171.2 493.221  40
   0  -2   2 24692.7 458.940  68
   0  -2   2 24758.9 469.501  92
   0   2  -2 24071.1 474.028  94
   0  -2   2 24602.3 509.788  39
   0  -2   2 24421.7 469.074  91
   0  -2   2 24470.4 468.705  95
   0   2  -2 24830.9 484.866  38
   0   2  -2 24474.3 445.854  65
   0   2  -2 24071.8 481.978  37
   0  -2   2 24262.3 464.955  96
   0   2  -1 26693.8 459.049  90
   0  -2   1 26261.4 286.722  35
   0   2  -1 26449.0 383.644   3
   0  -2   1 27836.3 453.314  93
   0  -2   1 27832.5 452.937  91
   0  -2   1 27185.5 446.135  96
   0   2  -1 26443.5 447.039  37
   0   2  -1 26885.5 427.645  38
   0   2  -1 27037.7 430.607  65
   0  -2   1 27357.6 449.561  92
   0  -2   1 27081.2 448.675  95
   0  -2   1 27406.5 468.238  39
   0   2  -1 27470.8 464.353  94
   0  -2   0 73789.3 562.771  35
   0   2   0 75336.9 691.564  94
   0   2   0 73361.7 603.360  38
   0   2   0 73488.4 625.206   3
   0  -2   0 74888.1 677.870  95
   0   2   0 74299.1 671.385  37
   0   2   0 75483.5 693.973  90
   0  -2   0 73775.4 671.654  93
   0   2   0 74019.7 668.216  65
   0  -2   0 71597.9 648.218  62
   0  -2   0 74806.0 672.954  96
   0  -2   0 74755.2 676.825  91
   0  -2   0 73403.1 669.245  39
   0  -2   0 75073.7 638.134  40
   0  -2   0 71866.5 568.469  66
   0  -2   0 74382.7 673.291  92
   0   2   1 6944.57 187.111  94
   0  -2  -1 6870.78 182.573  95
   0  -2  -1 6842.90 183.316  91
   0  -2  -1 6464.23 163.436  64
   0  -2  -1 6896.50 182.855  96
   0   2   1 6772.99 166.098  38
   0   2   1 6787.91 187.382   3
   0   2   1 7180.98 198.573  67
   0  -2  -1 6490.16 167.594  62
   0  -2  -1 6315.21 137.411  66
   0  -2  -1 6377.65 179.437  39
   0  -2  -1 6495.15 178.692  93
   0   2   1 6613.87 188.252  37
   0  -2  -1 6675.63 180.649  92
   0   2   1 6631.01 93.6485  34
   0   2   1 6908.73 186.365  90
   0  -2  -2 695.412 59.4997  39
   0  -2  -2 762.579 53.7438  95
   0  -2  -2 706.521 50.5795  92
   0  -2  -2 647.610 40.9711  64
   0   2   2 777.154 57.2520  90
   0  -2  -2 673.686 49.8354  91
   0  -2  -2 950.720 58.9019  62
   0   2   2 751.663 63.0613   3
   0   2   2 771.406 71.0241  67
   0  -2  -2 719.826 51.1063  96
   0   2   2 772.741 63.3521   2
   0   2   2 732.163 54.3898  94
   0   2   2 684.524 65.9626  36
   0  -2  -2 684.628 49.4453  93
   0  -2  -2 719.793 49.3639  66
   0  -2  -3 165962. 939.102  66
   0   2   3 171176. 1081.39   2
   0  -2  -3 167419. 544.476  95
   0   2   3 165648. 1069.76  36
   0  -2  -3 163531. 823.173  62
   0  -2  -3 167018. 539.971  91
   0  -2  -3 165649. 540.446  92
   0   2   3 170452. 1165.90  67
   0  -2  -3 167163. 544.876  90
   0   2   3 170921. 1187.42  68
   0  -2  -3 158926. 935.695   1
   0  -2  -3 169324. 537.921  96
   0   2   3 172077. 562.923  94
   0  -2  -3 169207. 543.972  93
   0   2   3 173860. 1139.92   5
   0   2   3 167533. 922.908   3
   0  -2  -3 165868. 1002.56  39
   0  -2  -4 19318.4 325.705  62
   0   2   4 18930.3 432.701   5
   0   2   4 19075.6 397.039  36
   0  -2  -4 18803.7 310.197   1
   0   2   4 18970.8 458.052  68
   0   2   4 19496.1 454.005  67
   0   2   4 19438.2 427.018   2
   0   2   4 19218.4 306.289   3
   0   2   5 13028.8 419.429  67
   0   2   5 13746.4 375.498  36
   0   2   5 13822.7 416.496   2
   0  -2  -5 13206.1 314.397  62
   0   2   5 12548.5 426.778  68
   0  -2  -5 13391.1 368.356  65
   0  -2  -6 9290.81 341.348  37
   0   2   6 8382.82 383.251  67
   0   2   6 10149.7 354.196  36
   0   2   6 9750.53 399.612   2
   0  -2  -6 9808.33 366.664  35
   0   2   6 8468.00 398.597  68
   0   2   7 18921.2 364.951  11
   0   2   7 19562.1 393.615  29
   0   2   7 17390.4 609.402  67
   0   2   7 19107.8 368.315  15
   0   2   7 19268.3 628.155   2
   0   2   7 18785.2 359.976  26
   0   2   7 19429.2 392.545  59
   0   2   7 19013.3 381.261  54
   0   2   7 18891.8 364.954  57
   0   2   7 19641.5 388.156  13
   0   2   7 17752.0 638.352  68
   0   2   7 18897.7 401.935  31
   0   2   7 19327.9 360.269  51
   0  -2  -7 17878.5 603.938  38
   0   2   7 19712.4 392.064  82
   0   2   8 15992.6 340.907  51
   0   2   8 15934.2 341.962  26
   0  -2  -8 15871.0 616.415  38
   0   2   8 15694.7 389.846  31
   0   2   8 16309.6 354.715  15
   0   2   8 14866.0 632.053  68
   0   2   8 16027.6 368.779  13
   0   2   8 15692.8 374.128  82
   0   2   8 16046.8 377.944  29
   0   2   8 15538.5 371.718  59
   0   2   8 16308.3 354.477  11
   0   2   8 16323.7 373.209  54
   0   2   8 15797.9 354.082  57
   0   2   9 6216.82 233.650  82
   0   2   9 5509.94 233.581  31
   0   2   9 5732.77 222.149  54
   0   2   9 5929.80 200.251  26
   0   2   9 5563.16 224.185  59
   0   2   9 6220.77 208.069  15
   0   2   9 6034.38 199.993  51
   0   2   9 6115.58 215.694  11
   0   2   9 5549.58 219.083  13
   0   2   9 5741.33 225.909  29
   0   2   9 5966.35 215.021  57
   0   2  10 9781.54 244.302  12
   0   2  10 9453.34 259.013  13
   0   2  10 9854.68 282.884  31
   0   2  10 10084.3 273.118  59
   0   2  10 10568.7 277.235  29
   0   2  10 10472.7 271.541  82
   0   2  10 9986.28 265.246  54
   0   2  11 66.9817 21.6045  54
   0   2  11 69.5767 23.2863  59
   0   2  11 77.5915 24.7307  31
   0  -3   9 1659.22 69.2247  13
   0   3  -9 1536.32 63.1617  69
   0  -3   9 1715.92 65.1185  54
   0   3  -8 17477.2 281.632  55
   0  -3   8 17763.3 345.732  22
   0  -3   8 18071.1 318.766  74
   0  -3   8 17931.0 319.427  54
   0  -3   8 17904.1 331.566  13
   0  -3   7 9227.39 268.912  49
   0  -3   7 9329.97 295.125  22
   0  -3   7 8917.67 268.037  18
   0  -3   7 9764.43 269.843  30
   0   3  -7 9400.99 256.110  55
   0  -3   7 9185.97 295.402  88
   0  -3   7 9150.60 274.618  74
   0  -3   7 9256.23 274.608  54
   0   3  -7 9365.43 241.613  77
   0  -3   6 2400.00 146.463  49
   0  -3   6 2423.97 134.777  42
   0  -3   6 2489.77 151.604  48
   0  -3   6 2464.61 154.805  18
   0  -3   6 2195.56 152.769  22
   0  -3   6 2318.90 158.576  88
   0  -3   6 2506.56 151.178  54
   0   3  -6 2923.77 144.833  75
   0  -3   6 2388.64 149.969  74
   0   3  -5 8999.28 256.469  75
   0  -3   5 8528.16 431.398  68
   0  -3   5 8961.11 280.677  74
   0   3  -5 9739.89 507.423  34
   0  -3   5 9438.00 268.762  42
   0  -3   5 9369.06 296.488  18
   0  -3   5 8804.85 275.355  48
   0  -3   5 8763.67 299.691  88
   0   3  -5 10267.9 508.614  38
   0  -3   5 9371.34 261.047  76
   0  -3   5 8850.33 273.983  49
   0  -3   5 9533.66 270.614  81
   0   3  -5 9513.70 469.527  37
   0   3  -5 9182.24 256.086  61
   0  -3   5 9191.15 291.456  89
   0  -3   5 8607.66 414.146   4
   0  -3   5 9748.27 450.438   2
   0   3  -4 24159.8 699.023  37
   0  -3   4 22034.7 636.005  68
   0  -3   4 22702.0 630.367  93
   0   3  -4 22122.9 638.364  94
   0   3  -4 24792.0 718.989  38
   0  -3   4 22886.2 635.755  90
   0  -3   4 22464.7 626.767  92
   0  -3   4 22663.8 631.043  91
   0  -3   4 22970.2 633.429  95
   0  -3   4 21057.6 596.865   4
   0  -3   4 22448.2 625.871  96
   0  -3   4 23905.2 644.442   2
   0  -3   3 24597.8 616.764  96
   0   3  -3 26660.6 665.044  38
   0  -3   3 27039.2 608.783   2
   0   3  -3 27053.6 614.115  65
   0  -3   3 23640.4 658.567  40
   0   3  -3 26064.9 660.865  37
   0  -3   3 25159.3 626.961  95
   0  -3   3 23846.2 610.638  93
   0  -3   3 25392.7 629.513  92
   0   3  -3 24745.9 631.624  94
   0  -3   3 25023.7 624.595  91
   0  -3   3 25370.1 631.960  90
   0  -3   3 24918.5 574.978   4
   0  -3   3 24285.9 599.301  68
   0  -3   2 36733.7 655.190  68
   0   3  -2 35398.0 706.569  94
   0  -3   2 38528.1 641.629   2
   0  -3   2 35384.8 691.944  93
   0  -3   2 36391.6 699.265  96
   0   3  -2 38396.7 684.040  65
   0  -3   2 35777.1 695.785  95
   0  -3   2 36239.1 697.174  92
   0  -3   2 35655.9 694.508  91
   0  -3   2 33901.8 709.800  40
   0   3  -2 37733.7 698.384  38
   0  -3   2 38123.3 573.076   1
   0   3  -2 36819.4 722.313  37
   0  -3   2 39153.4 756.427  39
   0  -3   1 267996. 1517.18   1
   0  -3   1 261555. 1732.47  92
   0   3  -1 264692. 1621.17  38
   0  -3   1 271862. 1789.38  39
   0   3  -1 258445. 1751.82  94
   0  -3   1 266451. 1158.71  35
   0  -3   1 261347. 1726.29  96
   0  -3   1 261353. 1737.61  95
   0  -3   1 253490. 1706.29  40
   0  -3   1 263524. 1740.68  91
   0   3  -1 258912. 1755.70  90
   0   3  -1 262986. 1734.50  37
   0  -3   1 260816. 1730.55  93
   0  -3   0 2471.24 131.905  66
   0  -3   0 2594.82 159.845  96
   0  -3   0 2537.20 158.479  95
   0   3   0 2587.52 164.453  90
   0   3   0 2582.90 160.414  37
   0  -3   0 2488.69 153.173  62
   0   3   0 2625.39 150.851   3
   0  -3   0 2610.64 152.035  40
   0   3   0 2592.01 143.280  38
   0   3   0 2696.49 167.060  94
   0  -3   0 2642.44 162.036  93
   0  -3   0 2710.88 163.888  91
   0  -3   0 2535.09 158.432  92
   0  -3   0 2746.94 162.752  39
   0  -3   0 2559.94 132.626  35
   0  -3  -1 3220.66 164.397  93
   0  -3  -1 3126.85 124.481  66
   0   3   1 3198.24 168.582  37
   0  -3  -1 3209.48 164.504  92
   0  -3  -1 3193.64 160.607  35
   0  -3  -1 3085.88 160.769  96
   0   3   1 3461.40 174.481  94
   0  -3  -1 3096.62 160.886  91
   0  -3  -1 3063.17 161.546  39
   0   3   1 3159.10 164.371   3
   0  -3  -1 3155.08 155.425  62
   0   3   1 3236.00 146.830  38
   0  -3  -1 3270.93 166.383  95
   0   3   1 3397.31 173.087  90
   0   3   1 3210.43 100.868  34
   0  -3  -2 6736.64 218.276  93
   0   3   2 6833.24 224.075  94
   0  -3  -2 6762.23 219.222  91
   0   3   2 6635.03 247.103  67
   0   3   2 6472.71 202.475  38
   0  -3  -2 6355.57 160.585  66
   0   3   2 6836.55 225.027  90
   0  -3  -2 6581.00 200.466  62
   0  -3  -2 6331.29 220.525  39
   0  -3  -2 6574.94 216.472  95
   0  -3  -2 6818.26 219.705  92
   0  -3  -2 6733.99 218.510  96
   0   3   3 44610.7 658.470  36
   0  -3  -3 43856.1 488.350  62
   0  -3  -3 45456.3 506.556  91
   0  -3  -3 46298.3 507.645  93
   0  -3  -3 43779.6 588.824  39
   0   3   3 47516.9 525.462  94
   0  -3  -3 46405.9 508.270  92
   0  -3  -3 45982.1 506.619  96
   0  -3  -3 44388.7 612.479   1
   0  -3  -3 46444.4 465.012  66
   0  -3  -3 45545.1 506.744  95
   0   3   3 47197.6 619.899   3
   0   3   3 43426.2 675.834  67
   0   3   4 567.972 82.0908   5
   0  -3  -4 559.875 53.9949  62
   0   3   4 438.019 78.7285  67
   0   3   4 492.130 72.4363  36
   0  -3  -4 558.010 69.4974   1
   0  -3  -4 530.391 60.6178  66
   0  -3  -4 481.003 64.3905  39
   0   3   4 528.060 66.8780   3
   0   3   4 489.234 81.8473  68
   0   3   4 554.708 76.5745   2
   0   3   5 44897.0 801.983   5
   0  -3  -5 49276.2 720.325  39
   0  -3  -5 46247.5 832.128  35
   0  -3  -5 50006.1 682.856  66
   0   3   5 47445.5 751.434  36
   0   3   5 43390.8 808.939  67
   0   3   5 48209.1 794.806   2
   0  -3  -5 46953.9 622.346   1
   0   3   5 43436.3 830.321  68
   0   3   6 152909. 1446.67  36
   0   3   6 154142. 1594.71   2
   0  -3  -6 153755. 1629.41  35
   0   3   6 136981. 1649.65  68
   0  -3  -6 160461. 1435.26  39
   0   3   6 138160. 1592.44  67
   0  -3  -6 151965. 1469.01  65
   0   3   7 5441.18 195.872  25
   0   3   7 5674.02 204.993  59
   0   3   7 4909.07 340.375  68
   0   3   7 5451.03 205.861  29
   0  -3  -7 5990.41 339.795  35
   0   3   7 5606.73 208.755  82
   0   3   7 5850.87 210.716  15
   0   3   7 6073.23 211.966  51
   0   3   7 6247.92 218.133  13
   0   3   7 4919.91 326.422  67
   0   3   7 6072.17 216.132  54
   0   3   7 5775.25 343.664   2
   0   3   7 5656.04 212.820  31
   0   3   7 5943.23 211.143  26
   0   3   8 16883.8 681.240  68
   0   3   8 17482.2 381.585  13
   0   3   8 17265.6 356.571  57
   0   3   8 16108.2 353.339  11
   0   3   8 16681.6 389.592  31
   0   3   8 17436.4 357.847  25
   0   3   8 16758.4 366.819  26
   0   3   8 16931.4 373.917  15
   0   3   8 16974.7 383.571  29
   0   3   8 17173.5 654.298  67
   0   3   8 17142.8 382.352  54
   0   3   8 17076.0 384.150  82
   0   3   8 16855.7 365.809  51
   0   3   8 17024.7 379.025  59
   0   3   8 16630.8 368.051  12
   0   3   9 21842.2 433.426  54
   0   3   9 21678.7 424.680  13
   0   3   9 22428.2 411.452  11
   0   3   9 22446.1 399.878  57
   0   3   9 22125.4 406.788  51
   0   3   9 21521.8 416.791  12
   0   3   9 22484.9 451.248  31
   0   3   9 22539.1 441.298  29
   0   3   9 22924.6 440.882  82
   0   3   9 21673.7 406.099  26
   0   3   9 21860.7 428.337  59
   0   3   9 21922.5 361.346  17
   0   3  10 6051.49 209.466  29
   0   3  10 5730.38 182.483  26
   0   3  10 5705.89 194.659  12
   0   3  10 5547.47 197.557  59
   0   3  10 5655.20 178.723  51
   0   3  10 5829.15 205.805  54
   0   3  10 5949.72 206.619  82
   0   3  10 6044.89 191.771  11
   0   3  10 5335.53 194.540  13
   0   3  10 5657.48 210.151  31
   0   3  11 152.828 32.3570  54
   0   3  11 146.549 27.7756  12
   0   4  -8 1256.54 60.7619  41
   0  -4   8 1360.78 67.8691  13
   0   4  -8 1298.83 61.3038  69
   0  -4   8 1316.76 62.9477  54
   0  -4   7 201.518 41.6221  22
   0  -4   7 183.999 38.4938  49
   0  -4   7 172.214 36.2595  54
   0   4  -7 187.195 36.3770  55
   0   4  -7 141.532 32.3913  87
   0   4  -7 156.131 32.7793  77
   0  -4   7 159.664 37.4166  74
   0   4  -7 160.840 36.8974  41
   0   4  -6 5504.32 201.289  55
   0  -4   6 5562.68 214.675  74
   0  -4   6 5690.54 208.529  48
   0  -4   6 5405.18 211.237  54
   0   4  -6 5543.91 185.529  61
   0  -4   6 5255.58 225.990  88
   0   4  -6 5681.29 191.380  75
   0  -4   6 5318.52 219.835  18
   0  -4   6 5301.90 207.520  49
   0   4  -6 5498.66 196.691  77
   0  -4   6 5515.26 226.883  22
   0  -4   5 31868.1 518.549  48
   0   4  -5 32556.2 519.928  55
   0  -4   5 33019.5 578.679  18
   0  -4   5 33761.0 517.766  81
   0   4  -5 33303.9 503.571  61
   0  -4   5 32008.4 548.296  89
   0   4  -5 33642.2 507.200  75
   0  -4   5 32847.5 551.538  74
   0  -4   5 34542.3 520.146  42
   0   4  -5 34465.7 491.802  79
   0  -4   5 33315.2 595.453  88
   0  -4   5 32908.2 574.686  22
   0  -4   5 34079.3 506.147  76
   0  -4   5 33166.2 547.050  49
   0  -4   4 42865.5 613.974  74
   0  -4   4 41584.6 609.313  89
   0  -4   4 41882.0 581.743  48
   0  -4   4 43287.3 662.091  88
   0  -4   4 42504.4 578.362 102
   0   4  -4 43145.7 562.997  79
   0  -4   4 42479.9 576.007 101
   0   4  -4 42429.3 571.377  97
   0  -4   4 43653.2 585.287  76
   0  -4   4 43429.4 593.705  19
   0  -4   4 43851.7 598.609  81
   0   4  -4 42973.5 585.361 104
   0  -4   4 40828.0 965.198  92
   0  -4   4 43422.1 642.742  22
   0  -4   4 40468.5 957.656  95
   0   4  -4 43363.9 576.430  98
   0   4  -4 42609.3 574.138  75
   0  -4   4 44971.9 668.855  18
   0  -4   4 41179.5 966.907  96
   0   4  -4 45944.1 1057.83  38
   0   4  -4 42936.3 583.677 105
   0  -4   4 42949.7 574.443 100
   0   4  -4 42489.1 579.778 103
   0  -4   4 42287.6 609.657  49
   0   4  -4 43487.4 578.980  61
   0  -4   4 44369.5 596.976  42
   0   4  -4 47465.0 1083.32  37
   0   4  -4 46205.4 1078.81  34
   0  -4   4 41315.8 970.205  93
   0  -4   4 42278.9 571.487 107
   0   4  -4 40280.7 974.664  94
   0  -4   4 41922.3 573.450  33
   0  -4   4 41319.9 969.483  90
   0  -4   4 40609.2 965.331  91
   0  -4   3 8217.33 255.849  86
   0  -4   3 7774.98 405.695  93
   0  -4   3 8059.45 384.218  68
   0   4  -3 8417.71 253.189  98
   0  -4   3 8816.86 383.966   2
   0  -4   3 8127.50 413.510  96
   0   4  -3 8903.22 252.566  75
   0  -4   3 8512.57 258.749  89
   0  -4   3 7910.06 409.220  95
   0  -4   3 7379.63 395.734  92
   0  -4   3 7571.78 399.324  91
   0  -4   3 9042.11 262.145  81
   0   4  -3 7836.34 415.708  94
   0  -4   3 8642.94 252.891  76
   0   4  -3 8892.91 434.939  34
   0  -4   3 8372.52 250.951 107
   0   4  -3 8761.61 248.952  79
   0  -4   3 8619.51 258.920  49
   0  -4   3 8604.03 255.135 101
   0   4  -3 8133.87 248.268  97
   0   4  -3 8576.82 436.741  37
   0  -4   3 7858.10 360.888   4
   0  -4   3 8538.42 249.298  33
   0  -4   3 7886.04 411.729  90
   0   4  -3 8053.90 248.048  99
   0  -4   3 8887.22 257.856  42
   0   4  -3 8609.49 420.367  38
   0  -4   3 8782.75 265.313  74
   0  -4   3 8840.43 279.117  88
   0  -4   3 8356.50 256.215  19
   0  -4   3 8248.67 250.867 102
   0   4  -3 8845.35 252.934  61
   0   4  -3 8251.10 254.130 105
   0   4  -3 8481.99 257.222 103
   0   4  -2 9251.56 393.780  38
   0  -4   2 7820.07 387.941  90
   0  -4   2 9802.19 369.142   2
   0   4  -2 8829.03 412.314  37
   0  -4   2 8099.20 392.728  92
   0  -4   2 8133.11 392.450  91
   0  -4   2 9220.62 336.270   1
   0  -4   2 9376.08 429.225  39
   0  -4   2 8222.87 359.486  68
   0  -4   2 8020.71 389.294  93
   0   4  -2 8109.18 399.312  94
   0  -4   2 8393.97 396.627  96
   0  -4   2 8023.86 389.875  95
   0  -4   1 20210.6 578.738  92
   0  -4   1 19793.3 573.596  91
   0  -4   1 20389.2 521.343  68
   0  -4   1 19734.4 570.076  96
   0   4  -1 21984.8 602.969  37
   0  -4   1 19945.9 576.185  93
   0  -4   1 20392.8 583.373  95
   0  -4   1 21030.8 518.861   1
   0   4  -1 21513.1 543.661  38
   0   4  -1 19369.7 576.588  94
   0  -4   1 21562.1 591.395  39
   0  -4   0 10761.8 396.735  95
   0  -4   0 11791.7 405.398  39
   0   4   0 11423.3 408.762  37
   0  -4   0 11266.7 373.173   1
   0  -4   0 11239.6 403.295  91
   0  -4   0 11148.2 400.062  96
   0  -4   0 11566.6 326.732  35
   0   4   0 11324.2 312.622  34
   0   4   0 10827.0 404.305  94
   0  -4   0 10780.5 394.999  93
   0   4   0 10458.8 398.916  90
   0   4   0 11527.5 362.660  38
   0  -4   0 10683.1 393.872  92
   0  -4  -1 81362.1 1023.38  95
   0   4   1 88854.1 1123.87  36
   0  -4  -1 82794.2 1027.94  92
   0   4   1 87321.4 926.976  38
   0   4   1 90608.8 1052.03   3
   0  -4  -1 83485.4 1026.63  96
   0  -4  -1 82093.0 1026.56  93
   0   4   1 84863.8 1058.77  94
   0   4   1 84614.4 1060.55  90
   0  -4  -1 83650.4 1035.02  91
   0  -4  -1 87124.0 1030.81   1
   0  -4  -1 90058.0 988.792  35
   0   4   1 88513.7 1076.89  37
   0  -4  -1 88581.7 989.983  62
   0  -4  -1 89431.8 1043.71  39
   0   4   2 9685.04 336.524  90
   0  -4  -2 9705.62 329.064  96
   0   4   2 9931.63 340.576  94
   0   4   2 10327.9 353.685   3
   0   4   2 10038.1 359.254  67
   0  -4  -2 10095.3 335.115  93
   0  -4  -2 9606.66 342.951   1
   0  -4  -2 10077.9 334.676  91
   0  -4  -2 10077.4 354.790  35
   0  -4  -2 9911.24 330.731  39
   0   4   2 9987.95 372.150  36
   0   4   2 9087.50 288.667  38
   0  -4  -2 9835.96 331.456  95
   0  -4  -2 9740.21 302.682  62
   0  -4  -2 9757.23 328.966  92
   0  -4  -3 26383.6 502.013  95
   0  -4  -3 25912.9 495.897  92
   0  -4  -3 27203.2 541.596  39
   0   4   3 26036.6 564.583   3
   0  -4  -3 26166.1 611.318  35
   0  -4  -3 25702.4 496.368  91
   0   4   3 24981.6 584.533  67
   0   4   3 26524.5 511.031  94
   0  -4  -3 25480.0 493.282  96
   0  -4  -3 25332.7 451.816  62
   0  -4  -3 25642.6 493.700  93
   0  -4  -3 25390.0 558.948   1
   0   4   3 26680.6 602.869  36
   0   4   4 79017.5 973.121   3
   0   4   4 80581.8 1065.05  36
   0  -4  -4 77864.8 1115.49  35
   0   4   4 73631.8 1065.29  67
   0   4   4 73887.2 1023.78   5
   0  -4  -4 76750.8 974.868   1
   0  -4  -4 77960.1 925.506  39
   0   4   5 41153.9 831.944   5
   0   4   5 46015.7 830.377  36
   0   4   5 41838.2 863.021  67
   0  -4  -5 44254.2 898.305  35
   0  -4  -5 48016.4 753.583  39
   0  -4  -5 45434.8 756.324   1
   0   4   6 12930.2 508.170   5
   0   4   6 14689.4 486.708  36
   0   4   6 12729.7 513.877  67
   0  -4  -6 14537.6 549.515  35
   0  -4  -7 33408.0 873.586  35
   0   4   7 31984.7 501.851  13
   0   4   7 31749.0 498.311  26
   0   4   7 32655.7 514.543  15
   0   4   7 32547.3 495.266   9
   0   4   7 30800.8 465.648  71
   0   4   7 33135.7 520.305  54
   0   4   7 31953.0 493.292  51
   0   4   7 30407.9 844.359  67
   0   4   7 31340.9 478.869  82
   0   4   7 31040.2 492.079  25
   0   4   7 31571.5 493.052  12
   0   4   7 30761.0 475.221  29
   0   4   8 100465. 914.274  51
   0   4   8 100517. 920.232  13
   0   4   8 99684.7 938.066  54
   0   4   8 99104.6 912.473  26
   0   4   8 99048.3 815.279  71
   0   4   8 98301.6 902.417  12
   0   4   8 101219. 897.806  82
   0   4   8 99794.0 892.938  29
   0   4   8 100747. 901.611  25
   0   4   9 12802.3 307.262  11
   0   4   9 12784.5 332.537  54
   0   4   9 13121.9 322.733  31
   0   4   9 13180.8 310.326  59
   0   4   9 13040.0 323.919  13
   0   4   9 13489.4 323.606  82
   0   4   9 13267.1 325.514  26
   0   4   9 13226.6 322.949  51
   0   4   9 12867.4 322.803  12
   0   4   9 13242.4 324.105  29
   0   4  10 12810.9 271.790  11
   0   4  10 12219.2 296.721  54
   0   4  10 13371.1 291.335  82
   0   4  10 12663.2 291.512  12
   0   4  10 13438.7 295.360  29
   0   4  10 12557.6 285.034  26
   0   4  10 12656.4 281.651  51
   0   4  11 499.732 51.4449  54
   0  -5   7 2580.92 91.0636  13
   0  -5   7 2627.50 87.7967  54
   0   5  -7 2723.55 83.6092  55
   0  -5   7 2685.88 92.1731  74
   0  -5   6 149.958 33.8876  54
   0  -5   6 155.534 36.1496  22
   0  -5   6 174.328 36.3452  30
   0   5  -6 182.708 35.2423  69
   0   5  -6 157.767 34.3088  77
   0   5  -6 171.512 35.1954  87
   0   5  -6 174.675 31.0908  61
   0   5  -6 175.404 31.6349  75
   0  -5   6 179.917 38.2779  74
   0   5  -6 163.236 36.5301  55
   0   5  -6 179.809 39.0400  41
   0  -5   6 180.668 38.2478  49
   0  -5   5 2959.50 158.060  22
   0  -5   5 3007.76 155.851  49
   0  -5   5 2820.31 160.704  88
   0  -5   5 2912.78 153.613  74
   0  -5   5 2913.04 138.150  76
   0   5  -5 3008.96 142.416  61
   0   5  -5 3080.75 149.996  77
   0   5  -5 2898.72 134.216  79
   0  -5   5 2945.80 140.232  81
   0  -5   5 2847.33 138.934  48
   0  -5   5 2939.82 163.666  18
   0   5  -5 3020.33 144.127  75
   0   5  -5 3002.00 148.670  55
   0   5  -4 1606.99 118.189  55
   0  -5   4 1649.09 125.576  74
   0  -5   4 1606.11 114.093  76
   0  -5   4 1602.21 114.081 100
   0   5  -4 1576.83 110.736  79
   0  -5   4 1639.10 115.669 107
   0   5  -4 1533.05 113.842 104
   0   5  -4 1621.82 116.958  75
   0  -5   4 1668.04 125.312  22
   0   5  -4 1660.06 117.221  97
   0   5  -4 1658.49 118.260 103
   0  -5   4 1526.90 118.752  49
   0   5  -4 1705.52 118.439  98
   0  -5   4 1544.40 116.386  81
   0   5  -4 1631.51 118.235  77
   0   5  -4 1712.97 119.079  61
   0   5  -4 1586.94 106.953  73
   0  -5   4 1590.09 110.480  48
   0  -5   4 1650.13 129.975  88
   0  -5   4 1710.02 117.190 102
   0  -5   4 1614.65 114.702  42
   0  -5   4 1602.01 120.757  89
   0  -5   4 1655.27 116.091 101
   0  -5   4 1766.44 121.490  19
   0  -5   4 1544.85 127.157  18
   0   5  -4 1675.50 119.203 105
   0   5  -3 1197.45 102.086  61
   0  -5   3 1214.65 110.945  88
   0  -5   3 932.295 145.110  90
   0   5  -3 1259.62 107.806 103
   0  -5   3 1168.70 110.158  18
   0  -5   3 1251.73 105.716  89
   0  -5   3 1180.39 101.735  33
   0  -5   3 1160.49 101.128  76
   0  -5   3 1203.95 101.778 101
   0  -5   3 1164.12 104.429  19
   0   5  -3 1140.93 103.289 105
   0  -5   3 1469.48 196.778  93
   0  -5   3 1153.70 101.585  42
   0  -5   3 1156.25 100.751 100
   0  -5   3 1333.74 183.584  96
   0  -5   3 1212.88 105.431  49
   0   5  -3 1130.92 98.0384  79
   0  -5   3 1252.94 108.698  22
   0   5  -3 1197.37 103.495  75
   0  -5   3 1108.21 100.625  81
   0  -5   3 1236.92 98.3575  48
   0  -5   3 1048.21 96.3789 102
   0   5  -3 1089.20 169.446  37
   0  -5   3 1402.17 196.896  91
   0   5  -3 1175.35 101.513  98
   0  -5   3 1103.44 102.336  74
   0   5  -3 1196.40 102.270  97
   0  -5   3 864.804 147.216  95
   0   5  -3 1284.98 101.134  73
   0  -5   3 1028.55 165.996  92
   0   5  -3 1150.71 105.016 104
   0   5  -3 1168.16 102.501  55
   0  -5   3 1160.83 100.053 107
   0   5  -3 797.008 148.825  38
   0   5  -2 26611.4 827.190  94
   0  -5   2 25752.6 454.528  86
   0   5  -2 27417.9 465.565  75
   0   5  -2 26841.4 481.158  98
   0  -5   2 26975.2 462.862  33
   0  -5   2 27749.8 484.638  74
   0  -5   2 27412.8 474.081  76
   0  -5   2 27533.0 486.140  88
   0  -5   2 26746.4 453.319  89
   0   5  -2 28234.1 470.796  61
   0   5  -2 27550.6 463.619  55
   0  -5   2 24797.5 780.364  96
   0  -5   2 27052.7 463.512  22
   0   5  -2 28990.7 845.512  37
   0   5  -2 27535.4 486.802  99
   0  -5   2 28946.2 488.421  42
   0   5  -2 26893.0 434.634  60
   0  -5   2 25249.7 793.693  91
   0  -5   2 25742.9 799.633  95
   0  -5   2 27142.2 492.468  19
   0   5  -2 27333.4 492.707 105
   0  -5   2 28614.4 511.548  18
   0  -5   2 27028.1 486.130 101
   0   5  -2 27103.9 488.703 103
   0  -5   2 26464.7 810.555  92
   0   5  -2 27711.8 447.856  73
   0   5  -2 27157.8 480.281  97
   0  -5   2 27005.1 481.224 107
   0  -5   2 27946.2 485.283  81
   0  -5   2 25676.5 796.526  93
   0   5  -2 27333.8 463.008  79
   0   5  -2 29000.4 772.968  38
   0  -5   2 27028.3 472.942  49
   0  -5   2 24355.1 778.669  90
   0  -5   2 26962.3 484.490 102
   0   5  -1 2862.36 143.172  55
   0  -5   1 2971.79 156.732  19
   0  -5   1 3000.84 154.858 102
   0   5  -1 2930.49 153.831  99
   0  -5   1 2938.29 224.443   1
   0  -5   1 2563.28 240.205  92
   0  -5   1 3279.52 267.814  39
   0  -5   1 2619.76 245.261  95
   0  -5   1 3076.25 156.981  81
   0   5  -1 2965.88 256.796  37
   0  -5   1 3116.43 154.209  76
   0   5  -1 2394.91 240.813  94
   0  -5   1 2704.52 250.159  90
   0   5  -1 2707.02 149.284 105
   0  -5   1 2598.57 242.599  93
   0  -5   1 2505.27 208.595  68
   0  -5   1 2981.74 149.311  49
   0  -5   1 2734.00 247.943  96
   0  -5   1 2976.76 154.635 101
   0   5  -1 3003.44 156.026 103
   0  -5   1 2577.00 241.070  91
   0  -5   1 3046.20 154.943 107
   0   5  -1 3119.97 150.554  61
   0  -5   1 2917.75 148.190  33
   0   5  -1 3010.06 154.077  97
   0  -5   1 2785.92 147.406  74
   0  -5   1 3198.02 158.977  42
   0   5  -1 3062.59 156.784  98
   0   5  -1 3397.81 249.517  38
   0   5  -1 2836.10 144.891  75
   0   5  -1 3053.89 149.947  79
   0  -5   0 6307.96 355.900  93
   0  -5   0 6154.29 351.727  91
   0  -5   0 5691.60 339.635  92
   0  -5   0 6434.94 333.890   1
   0  -5   0 6167.70 352.568  96
   0  -5   0 5863.40 344.479  95
   0   5   0 6717.30 322.524  38
   0   5   0 6299.15 363.217  94
   0  -5   0 6005.35 351.937  90
   0   5   0 6528.56 362.923  37
   0  -5   0 6904.97 361.172  39
   0  -5  -1 27573.5 626.003  35
   0   5   1 27413.9 603.946  38
   0  -5  -1 24263.1 662.981  93
   0  -5  -1 25323.8 672.702  96
   0  -5  -1 27147.9 676.443   1
   0  -5  -1 25266.9 674.301  92
   0  -5  -1 25286.7 677.271  95
   0  -5  -1 25243.2 675.113  91
   0   5   1 25505.6 689.936  37
   0  -5  -1 28381.8 689.243  39
   0   5   1 24712.8 671.134  67
   0   5   1 25503.4 691.076  94
   0   5   1 28026.9 745.888  36
   0  -5  -2 17950.0 535.452  96
   0  -5  -2 17877.1 536.125  91
   0  -5  -2 19794.9 551.133  39
   0  -5  -2 19591.0 505.475  62
   0   5   2 19844.5 616.110  36
   0  -5  -2 17637.8 534.871  92
   0   5   2 17930.5 565.195  67
   0  -5  -2 18490.9 556.715   1
   0   5   2 18205.9 550.136  94
   0  -5  -2 19679.7 561.515  35
   0  -5  -2 17760.6 535.412  93
   0  -5  -2 17181.0 529.596  95
   0  -5  -3 8197.63 345.040  39
   0  -5  -3 7872.18 361.778   1
   0  -5  -3 7543.70 328.906  90
   0   5   3 8079.18 342.949  94
   0  -5  -3 7685.29 327.688  96
   0  -5  -3 8384.29 390.868  35
   0  -5  -3 7894.17 333.132  92
   0  -5  -3 7849.89 333.266  95
   0  -5  -3 8046.96 336.657  91
   0  -5  -3 7694.12 329.288  93
   0   5   3 7522.05 371.844  67
   0   5   3 8438.91 397.031  36
   0   5   4 447.940 87.8723  36
   0  -5  -4 390.418 83.2209   1
   0  -5  -4 503.919 86.7405  39
   0   5   4 331.881 77.7759   5
   0  -5  -4 448.135 97.9537  35
   0   5   4 404.465 88.8779  67
   0  -5  -5 1648.77 189.914  35
   0   5   5 1578.42 187.450  67
   0   5   5 1396.69 165.543   5
   0   5   5 2071.77 198.171  36
   0  -5  -5 1574.80 168.117   1
   0   5   6 3916.90 181.487  58
   0   5   6 3793.21 170.087  73
   0   5   6 4122.18 172.201  26
   0   5   6 4671.32 196.723  54
   0   5   6 4385.77 181.149  12
   0   5   6 4590.27 330.806  67
   0   5   6 4193.07 178.543  25
   0   5   6 3882.11 172.924   9
   0   5   6 4227.78 172.923  51
   0   5   6 3990.68 176.067  71
   0   5   6 3519.78 278.701   5
   0  -5  -6 4055.57 318.158  35
   0   5   7 37459.7 557.722  25
   0  -5  -7 39751.6 1023.61  35
   0   5   7 38699.3 582.092  54
   0   5   7 36633.4 531.871  71
   0   5   7 35324.8 952.408  67
   0   5   7 36808.9 539.914  26
   0   5   7 37176.1 547.585   9
   0   5   7 36905.9 549.042  12
   0   5   7 36772.6 536.382  51
   0   5   8 16620.8 385.785  54
   0   5   8 16644.4 374.634  26
   0   5   8 17078.3 375.536  51
   0   5   8 16298.9 350.735  71
   0   5   8 16701.8 377.466  25
   0   5   8 17325.0 381.574  12
   0   5   9 153.259 43.1612  12
   0   5   9 149.981 34.4349  71
   0   5   9 246.434 48.9625  51
   0   5   9 214.916 38.3329  29
   0   5   9 204.446 42.0695  82
   0   5   9 140.639 36.2733  11
   0   5   9 189.776 43.6255  26
   0   5   9 160.457 47.0017  54
   0   5  10 4389.43 153.416  11
   0   5  10 4412.81 165.248  51
   0   5  10 4485.74 154.327  17
   0   5  10 4338.14 173.136  54
   0   5  10 4454.46 170.532  12
   0   5  10 4553.74 168.865  26
   0   5  11 282.424 34.8983  26
   0   5  11 273.791 33.6895  51
   0  -6   6 162.436 22.2226  74
   0   6  -5 1002.09 67.7261  75
   0   6  -5 1032.91 71.8250  41
   0  -6   5 906.031 69.7812  74
   0  -6   5 912.943 71.7026  54
   0  -6   5 1012.70 73.9413  49
   0   6  -5 1014.02 71.8464  55
   0   6  -5 924.742 69.9150  87
   0   6  -5 946.994 60.1554  79
   0   6  -5 902.075 66.9334  77
   0  -6   5 1070.05 79.4747  30
   0   6  -5 967.126 66.8478  61
   0  -6   4 3874.32 167.051  74
   0  -6   4 3873.01 178.022  18
   0   6  -4 4243.88 166.279  75
   0  -6   4 3778.69 157.037  81
   0  -6   4 3927.02 159.706  76
   0   6  -4 3881.56 156.736  97
   0   6  -4 3961.91 159.326 105
   0   6  -4 4058.65 164.297  61
   0   6  -4 4262.83 168.341  55
   0  -6   4 4131.11 161.807 101
   0   6  -4 3985.76 157.197  79
   0  -6   4 4032.07 169.906  49
   0   6  -4 3898.97 159.564  41
   0  -6   4 4075.97 160.451 107
   0   6  -4 3897.50 158.701 104
   0   6  -4 3985.11 159.354  98
   0  -6   4 4056.30 159.847 100
   0   6  -4 3908.13 162.406  77
   0   6  -4 4046.92 161.337 103
   0  -6   4 3961.74 170.679  88
   0  -6   4 4083.54 161.265 102
   0   6  -3 638.816 76.2580  98
   0  -6   3 666.696 77.3677  74
   0   6  -3 650.195 74.5018  79
   0  -6   3 640.431 74.8203  81
   0   6  -3 588.698 72.5082  55
   0  -6   3 716.319 80.0928  19
   0  -6   3 663.238 76.4080 101
   0   6  -3 671.184 77.8712  75
   0   6  -3 650.523 76.7198 103
   0  -6   3 634.699 75.9951  49
   0  -6   3 751.069 84.5559  88
   0   6  -3 647.232 74.6120  61
   0  -6   3 663.258 75.9252 102
   0  -6   3 656.780 80.9879  18
   0  -6   3 732.601 79.7329 100
   0   6  -3 799.200 82.2091  77
   0   6  -3 690.543 71.4981  73
   0   6  -3 646.027 77.8130 104
   0   6  -3 719.141 79.9162  97
   0   6  -3 676.294 76.7532 105
   0  -6   3 635.780 73.0417  33
   0  -6   3 795.559 79.0886  22
   0   6  -3 646.692 73.4146  41
   0  -6   3 713.651 77.6277  76
   0  -6   3 639.984 73.3877 107
   0  -6   3 648.570 73.3587  42
   0   6  -2 39691.7 570.830  55
   0   6  -2 38540.0 564.763  79
   0   6  -2 39098.5 538.645  41
   0   6  -2 38457.4 598.447 105
   0  -6   2 37516.9 563.260  33
   0  -6   2 38317.7 587.957  81
   0  -6   2 38776.3 589.556 107
   0   6  -2 37833.6 586.842  97
   0  -6   2 39321.3 587.100  42
   0  -6   2 37502.1 577.518  76
   0  -6   2 38576.9 579.739  74
   0   6  -2 39090.1 596.289  98
   0  -6   2 39965.8 574.975  88
   0   6  -2 38063.3 596.650 103
   0  -6   2 37914.1 585.384 100
   0   6  -2 39462.2 546.943  73
   0   6  -2 39486.1 540.375  60
   0   6  -2 38649.0 602.106 104
   0  -6   2 38084.3 603.287  19
   0  -6   2 38520.8 591.225 101
   0   6  -2 38664.6 566.907  75
   0  -6   2 40011.6 616.231  18
   0   6  -2 38233.4 564.998  61
   0  -6   2 37931.0 585.004 102
   0   6  -2 39193.1 559.179  77
   0  -6   2 37501.4 569.882  49
   0   6  -1 45766.2 648.240  98
   0   6  -1 45365.0 655.981 104
   0  -6   1 46200.9 650.545 102
   0   6  -1 45633.7 657.050 105
   0   6  -1 45125.9 651.203 103
   0   6  -1 45855.5 593.789  77
   0   6  -1 45487.0 602.740  55
   0   6  -1 49862.3 1166.55  37
   0   6  -1 46402.1 619.014  75
   0   6  -1 46061.5 571.228  41
   0   6  -1 44851.7 640.671  97
   0  -6   1 45875.6 649.871  81
   0  -6   1 45685.7 661.742  19
   0  -6   1 45789.2 625.290  74
   0  -6   1 47326.3 587.391  47
   0  -6   1 45643.8 644.533 100
   0   6  -1 46125.4 614.576  61
   0  -6   1 45333.7 617.445  49
   0  -6   1 45830.8 649.871 101
   0   6  -1 46068.7 604.260  73
   0  -6   1 46633.8 652.972  42
   0  -6   1 45933.1 644.018 107
   0  -6   1 45548.8 633.378  76
   0   6  -1 44734.2 595.235  60
   0  -6   1 44789.7 619.685  33
   0  -6   1 47524.9 650.234  18
   0   6  -1 44589.9 613.465  79
   0   6  -1 44922.7 644.023  99
   0  -6   0 11436.1 323.830  19
   0  -6   0 13031.5 554.148  39
   0  -6   0 11536.5 543.819  96
   0   6   0 11790.6 329.058 105
   0   6   0 11974.5 305.082  43
   0   6   0 11217.0 318.527 103
   0   6   0 11578.7 288.263  77
   0   6   0 11678.5 305.956  73
   0   6   0 11516.3 295.529  72
   0  -6   0 11826.9 500.984   1
   0  -6   0 11710.6 552.168  92
   0   6   0 11809.4 308.322  79
   0  -6   0 12445.7 331.468  42
   0   6   0 12545.7 586.028  36
   0   6   0 11946.8 322.716  98
   0   6   0 11627.1 306.586  75
   0  -6   0 11279.3 541.061  95
   0  -6   0 11941.7 304.297  49
   0  -6   0 11881.2 325.106 101
   0  -6   0 11505.3 309.877  74
   0   6   0 12108.4 303.397  55
   0  -6   0 12063.0 560.483  93
   0   6   0 11853.9 307.305  60
   0  -6   0 12153.4 323.361 107
   0  -6   0 11512.3 546.133  91
   0   6   0 11774.0 320.229  97
   0   6   0 12862.1 574.950  37
   0   6   0 11609.4 319.152  99
   0  -6   0 11620.8 312.370  33
   0  -6   0 12229.0 330.590  81
   0   6   0 11262.5 521.319  67
   0  -6   0 11546.5 554.208  90
   0   6   0 11872.0 563.443  94
   0  -6   0 11782.5 320.725 102
   0  -6   0 11936.8 318.381  76
   0   6   0 11974.8 303.229  61
   0   6   1 4615.18 188.087  75
   0  -6  -1 4677.40 201.285  81
   0   6   1 4779.77 351.785  36
   0  -6  -1 4826.43 185.448  49
   0   6   1 4372.87 328.489  94
   0   6   1 4714.97 185.960  55
   0  -6  -1 4902.65 329.848   1
   0   6   1 4644.62 179.084  58
   0   6   1 4662.56 184.990  56
   0   6   1 4716.65 200.472 103
   0  -6  -1 4337.48 324.276  90
   0   6   1 4714.45 196.658  98
   0  -6  -1 5008.65 212.280  42
   0  -6  -1 4669.24 195.567 107
   0   6   1 4532.68 324.325  67
   0  -6  -1 4724.86 337.203  96
   0  -6  -1 4213.43 319.797  91
   0  -6  -1 4831.82 199.992 102
   0  -6  -1 4712.13 201.952  19
   0  -6  -1 4553.82 331.008  92
   0   6   1 4914.62 202.548  99
   0   6   1 4703.14 196.453  97
   0  -6  -1 4722.48 192.892  74
   0  -6  -1 4053.89 314.275  93
   0   6   1 4575.55 188.942  79
   0  -6  -1 4544.16 194.337 101
   0  -6  -1 4784.29 200.227  76
   0  -6  -1 5053.56 330.285  39
   0   6   1 4723.46 193.799  43
   0  -6  -1 4364.54 325.229  95
   0   6   1 4819.50 186.391  61
   0   6   1 4476.30 186.341  72
   0   6   1 5096.75 200.482  60
   0  -6  -1 4589.06 192.835  33
   0   6   1 4583.36 197.845 105
   0   6   1 4830.83 196.739  73
   0   6   2 69158.0 710.562  79
   0   6   2 73191.2 763.640  43
   0  -6  -2 64304.2 1176.66  92
   0  -6  -2 64181.2 1178.78  95
   0   6   2 69953.2 733.193  99
   0   6   2 68906.6 690.447  55
   0   6   2 71311.7 731.321  56
   0  -6  -2 68220.0 718.446 107
   0   6   2 72855.1 1351.47  36
   0  -6  -2 68822.9 726.857 102
   0   6   2 65565.6 1221.76  67
   0  -6  -2 76859.6 1224.46  35
   0  -6  -2 68881.9 742.827  19
   0   6   2 70387.0 736.425  98
   0   6   2 66145.0 1212.57  94
   0  -6  -2 66072.8 1198.19  90
   0  -6  -2 64039.2 1169.30  96
   0   6   2 71243.4 748.574  60
   0  -6  -2 77667.9 1240.05  39
   0  -6  -2 72598.6 1257.75   1
   0  -6  -2 69550.0 736.693  33
   0   6   2 70866.5 739.864  72
   0   6   2 68179.6 733.473  73
   0   6   2 70959.5 746.348 105
   0  -6  -2 64873.3 1179.63  93
   0   6   2 70380.8 744.807 103
   0  -6  -2 70381.2 772.394  81
   0  -6  -2 69226.8 725.577 101
   0   6   2 70102.2 730.743  97
   0  -6  -2 65461.5 1189.38  91
   0   6   2 69556.4 710.197  58
   0  -6  -2 70707.3 747.147  76
   0   6   2 69976.4 708.434  75
   0  -6  -2 69542.5 718.276  74
   0  -6  -3 6429.41 351.956  92
   0   6   3 7577.87 386.138  94
   0   6   3 6968.17 398.941  67
   0  -6  -3 6927.20 365.923  93
   0   6   3 7375.90 242.114  60
   0   6   3 7650.52 243.044  56
   0  -6  -3 7002.55 368.651  96
   0   6   3 6931.82 216.533  71
   0   6   3 7505.74 238.625   6
   0   6   3 7959.06 232.876  79
   0  -6  -3 7601.57 233.955  76
   0  -6  -3 7187.22 227.925  74
   0  -6  -3 7117.43 372.736  90
   0  -6  -3 6820.53 362.677  91
   0  -6  -3 6527.15 355.378  95
   0   6   3 7648.00 246.363  73
   0   6   3 7624.97 248.779  43
   0  -6  -3 7181.11 397.956   1
   0   6   3 7379.84 422.088  36
   0   6   3 7281.25 237.443  72
   0   6   3 7519.23 239.217  58
   0  -6  -3 7271.18 401.434  35
   0   6   4 37200.8 941.293  36
   0   6   4 37995.3 542.396  72
   0  -6  -4 38588.8 510.937  76
   0  -6  -4 37524.4 900.296   1
   0   6   4 33246.9 835.540   5
   0   6   4 37579.5 546.703  60
   0   6   4 37689.4 547.686  43
   0   6   4 37741.8 548.810  73
   0   6   4 35671.8 511.871  71
   0   6   4 34414.6 912.853  67
   0  -6  -4 37882.0 956.040  35
   0   6   4 38062.0 553.684  56
   0   6   4 37903.4 549.415  58
   0   6   4 36231.3 483.660  25
   0   6   4 35467.9 510.733   6
   0   6   5 14541.0 337.619  60
   0   6   5 15399.8 358.380  58
   0   6   5 15180.3 355.610  56
   0   6   5 15216.4 600.271  36
   0   6   5 14231.0 335.564  71
   0   6   5 14675.8 339.628  43
   0   6   5 14881.4 344.306  73
   0   6   5 13919.0 595.661  67
   0  -6  -5 15334.1 572.154   1
   0   6   5 13541.5 335.023   9
   0   6   5 14057.8 561.499   5
   0   6   5 15009.9 331.951  25
   0  -6  -5 15820.8 646.763  35
   0   6   6 6524.76 228.593  60
   0   6   6 6414.90 230.990  71
   0   6   6 6977.04 239.549  73
   0   6   6 7065.08 221.318  51
   0   6   6 6930.48 245.393  58
   0  -6  -6 7857.22 471.825  35
   0   6   6 6607.75 235.775   9
   0   6   6 6861.33 234.773  25
   0   6   6 6867.32 406.603   5
   0   6   6 6131.54 411.155  67
   0   6   6 7025.17 221.866  26
   0   6   6 7124.76 229.456  43
   0   6   7 40.8052 30.0239  73
   0   6   7 20.2110 31.5044  51
   0   6   7 42.4960 33.0997  58
   0   6   7 45.7620 29.2204  25
   0   6   7 34.4924 28.2364   9
   0   6   7 32.2883 32.2882  71
   0   6   7 65.9209 31.4776  26
   0   6   8 484.443 66.1463  25
   0   6   8 453.858 60.8677  26
   0   6   8 488.400 63.5030  51
   0   6   8 459.347 62.7931  71
   0   6   9 1885.59 109.678  71
   0   6   9 1776.54 110.771  51
   0   6   9 1802.65 112.895  26
   0   6  10 526.030 55.6058  26
   0   6  10 485.436 51.6227  51
   0   6  10 482.835 51.4718  17
   0   6  11 3587.85 103.773  26
   0   6  11 3551.04 102.910  51
   0   7  -4 163.483 29.0872  55
   0   7  -4 91.5695 19.4297 105
   0   7  -4 76.1947 19.3478  79
   0   7  -4 88.7877 22.6306  75
   0  -7   4 97.0765 23.4409  54
   0   7  -4 75.7665 22.6659  87
   0  -7   4 83.6462 21.9201  30
   0  -7   4 103.936 22.8319  49
   0   7  -4 135.302 21.3913  97
   0  -7   4 84.3238 22.5583  74
   0   7  -4 73.3603 18.8051 106
   0   7  -4 102.585 19.3010 104
   0   7  -4 98.4489 18.1770 103
   0   7  -4 96.8256 24.2991  61
   0   7  -4 111.466 26.5474  77
   0  -7   3 725.232 65.8698  81
   0   7  -3 713.519 65.1891  55
   0   7  -3 805.384 70.5026 104
   0   7  -3 723.274 67.2716  61
   0  -7   3 813.328 69.8740 100
   0   7  -3 701.693 64.9574  87
   0   7  -3 690.910 64.5310  79
   0   7  -3 762.681 69.5287 105
   0  -7   3 786.049 67.8458 101
   0   7  -3 808.739 69.7567  97
   0   7  -3 685.260 64.6862  75
   0  -7   3 804.033 69.0038 107
   0   7  -3 752.677 58.0175  73
   0  -7   3 826.491 70.9389  49
   0  -7   3 720.243 66.0307  76
   0   7  -3 780.161 69.5041 103
   0   7  -3 750.848 67.3259  77
   0  -7   3 756.825 67.7164  74
   0  -7   3 808.987 68.9821 102
   0   7  -3 812.682 70.2557  98
   0   7  -2 1349.02 104.073 105
   0  -7   2 1178.20 95.6789 107
   0  -7   2 1342.43 100.314  18
   0  -7   2 1248.34 98.4623 100
   0  -7   2 1323.96 98.2177  42
   0   7  -2 1411.66 101.619  61
   0   7  -2 1280.78 96.9765  75
   0   7  -2 1225.69 98.6897  97
   0   7  -2 1268.27 90.5097  73
   0  -7   2 1284.94 100.585 102
   0  -7   2 1231.49 96.2030  74
   0  -7   2 1346.82 101.736  76
   0  -7   2 1323.23 104.563  19
   0   7  -2 1309.24 98.8767  79
   0  -7   2 1377.85 99.8079  33
   0   7  -2 1258.00 100.730 104
   0   7  -2 1354.39 103.611 103
   0   7  -2 1393.12 99.4754  55
   0  -7   2 1271.24 98.6091  81
   0   7  -2 1251.42 99.8410  98
   0   7  -2 1313.40 90.4055  60
   0  -7   2 1422.72 100.712  49
   0  -7   2 1468.05 106.337 101
   0   7  -2 1297.20 93.9577  77
   0  -7   1 227.263 42.5343  18
   0  -7   1 252.935 50.9172  19
   0   7  -1 197.162 47.9818  97
   0  -7   1 195.915 44.7973  42
   0   7  -1 256.307 53.0975  75
   0   7  -1 220.311 52.4954 103
   0   7  -1 427.981 59.7710  61
   0  -7   1 225.942 47.4988 107
   0  -7   1 190.130 46.9990 102
   0  -7   1 230.932 49.9293 101
   0  -7   1 159.493 43.7475  33
   0   7  -1 242.452 49.7247  55
   0   7  -1 161.061 47.3323 104
   0  -7   1 235.062 50.8677  76
   0  -7   1 162.465 41.4812  49
   0   7  -1 209.205 48.1630  60
   0   7  -1 206.530 46.5014  73
   0  -7   1 163.462 41.5356 100
   0   7  -1 176.795 40.7957  77
   0  -7   1 156.001 42.5863  81
   0   7  -1 174.533 46.4360  79
   0  -7   1 309.067 54.6269  74
   0   7  -1 223.756 52.2444 105
   0   7  -1 212.146 51.4203  98
   0   7   0 1259.53 104.042  73
   0  -7   0 1333.38 112.220 101
   0   7   0 1336.38 112.915 103
   0  -7   0 1074.93 103.487  42
   0  -7   0 1092.33 95.4446  47
   0  -7   0 1168.03 98.2962  49
   0  -7   0 1246.51 107.751 100
   0  -7   0 1127.62 98.5221  74
   0  -7   0 1192.65 104.528  76
   0   7   0 1301.83 110.959 105
   0   7   0 1112.69 89.7268  77
   0   7   0 1106.78 99.3810  79
   0   7   0 1240.46 106.980  98
   0  -7   0 1097.83 103.850  81
   0  -7   0 1147.73 102.141  33
   0   7   0 1099.98 99.6424  60
   0  -7   0 1285.12 110.025 102
   0   7   0 1161.62 96.6413  61
   0   7   0 1104.04 100.967  97
   0  -7   0 1240.48 106.581 107
   0   7   0 1113.38 93.4086  43
   0   7   0 1125.17 95.8178  55
   0   7   0 1215.74 101.330  75
   0   7   0 1158.06 105.763 104
   0  -7   0 1160.91 106.868  19
   0   7   1 2471.22 150.519  98
   0   7   1 2536.64 140.901  55
   0  -7  -1 2525.30 155.166  42
   0  -7  -1 2543.44 148.669  74
   0  -7  -1 2522.76 149.336  76
   0   7   1 2444.55 150.715 105
   0   7   1 2442.61 143.278  79
   0   7   1 2620.09 153.939  97
   0   7   1 2487.74 151.098  60
   0   7   1 2565.36 138.727  61
   0   7   1 2571.17 154.009 103
   0  -7  -1 2613.80 153.959 102
   0  -7  -1 2460.91 154.808  81
   0  -7  -1 2563.56 153.109 101
   0   7   1 2760.83 155.574  43
   0  -7  -1 2837.66 147.076  49
   0  -7  -1 2462.20 153.151  19
   0   7   1 2576.41 145.582  75
   0  -7  -1 2689.50 155.182 107
   0  -7  -1 2418.02 146.501  33
   0   7   1 2418.77 145.377  73
   0   7   1 2478.29 137.415  56
   0   7   1 2486.25 152.592 104
   0  -7  -1 2501.63 150.767 100
   0   7   2 27946.3 469.052  58
   0  -7  -2 27368.5 477.803 107
   0   7   2 28247.4 472.218  75
   0  -7  -2 28246.1 484.541 100
   0   7   2 28219.8 460.573  55
   0  -7  -2 28253.4 479.929  74
   0   7   2 26992.5 474.218  56
   0   7   2 28245.6 493.261 103
   0  -7  -2 27951.3 496.181  19
   0   7   2 28211.5 494.686 105
   0   7   2 27975.9 484.369  97
   0   7   2 27911.5 492.780  60
   0   7   2 27883.1 499.879  43
   0  -7  -2 28317.3 527.536  42
   0  -7  -2 28503.1 513.306  81
   0  -7  -2 28703.2 490.327 102
   0   7   2 27947.4 485.627  98
   0  -7  -2 28656.5 494.730  33
   0  -7  -2 28066.2 486.838 101
   0  -7  -2 27597.6 484.085  76
   0   7   2 28197.2 475.318  79
   0   7   2 27889.8 494.875  73
   0   7   2 28608.3 495.712 104
   0  -7  -3 37540.6 532.444 101
   0   7   3 37682.0 534.737  79
   0  -7  -3 38707.7 541.580  74
   0  -7  -3 38419.7 535.121 102
   0   7   3 39147.4 540.221  97
   0   7   3 37416.2 522.722  75
   0   7   3 37758.1 544.026 104
   0   7   3 38268.7 545.756 105
   0   7   3 36780.0 513.049  55
   0  -7  -3 37473.0 529.524 100
   0   7   3 36414.5 498.508  71
   0   7   3 37270.9 583.000  43
   0  -7  -3 38074.5 545.075  19
   0   7   3 37323.6 564.360  56
   0  -7  -3 35674.7 550.886  33
   0   7   3 36961.0 549.235  58
   0  -7  -3 38088.7 528.988 107
   0  -7  -3 36944.6 576.663  81
   0   7   3 38755.5 545.640 103
   0  -7  -3 36664.5 544.322  76
   0   7   3 36849.8 566.396  73
   0   7   3 38158.9 575.610  60
   0   7   3 39393.6 542.802  98
   0  -7  -4 76447.0 821.656  81
   0   7   4 78401.9 816.677  58
   0  -7  -4 75992.1 788.117  33
   0   7   4 77051.4 819.072  56
   0   7   4 75902.1 814.810  60
   0  -7  -4 79681.5 770.004  74
   0   7   4 75350.6 812.898  73
   0  -7  -4 79036.8 770.691  76
   0   7   4 75409.2 753.400  71
   0   7   4 77374.5 836.919  43
   0   7   5 11722.0 322.012  58
   0   7   5 11024.7 308.343   9
   0   7   5 11251.4 315.194  56
   0   7   5 12341.8 289.315  25
   0   7   5 11549.1 315.779  73
   0   7   5 11746.6 319.063  60
   0   7   5 11250.5 311.503  43
   0   7   5 10791.3 293.710  71
   0   7   6 16.6423 32.7091   9
   0   7   6 8.38317 21.4409  25
   0   7   6-11.0183 32.6173  73
   0   7   6 4.63510 22.6983  80
   0   7   6-3.18730 30.3471  60
   0   7   6 24.1677 22.2361  43
   0   7   6 99.4404 37.6226  71
   0   7   6 37.0524 35.8963  58
   0   7   7 58219.7 619.463  80
   0   7   7 61331.4 605.927  26
   0   7   7 57609.8 647.593  73
   0   7   7 62427.4 607.152  51
   0   7   7 55427.2 691.639  58
   0   7   7 60104.6 668.641  25
   0   7   7 57492.6 661.761   9
   0   7   7 56064.5 662.482  71
   0   7   8 13293.8 275.203  51
   0   7   8 13336.5 279.165  26
   0   7   8 13036.5 294.203   9
   0   7   8 13008.5 299.105  71
   0   7   9 8330.17 212.002  17
   0   7   9 8314.12 210.200  71
   0   7   9 8808.66 208.772  26
   0   7   9 8666.32 205.627  51
   0   7  10 2737.59 97.6233  51
   0   7  10 2686.14 97.5981  26
   0   7  10 2615.14 100.079  17
   0  -8   2 1013.23 66.4178 101
   0  -8   2 951.912 60.0710  30
   0  -8   2 980.725 65.5555 100
   0  -8   2 955.812 58.6534  49
   0   8  -2 986.233 63.6893  61
   0  -8   2 952.237 59.9287  74
   0  -8   2 977.895 63.8588  81
   0   8  -2 1027.47 67.5107  98
   0  -8   2 1011.58 64.5010  76
   0  -8   2 976.781 64.7559 102
   0   8  -2 1016.63 65.4428  75
   0   8  -2 925.862 59.4557  55
   0   8  -2 993.368 66.3626 105
   0   8  -2 961.656 64.6284 103
   0   8  -2 918.375 52.8547  73
   0  -8   2 1002.98 65.3043 107
   0   8  -2 997.494 65.3116  79
   0   8  -2 967.201 64.8048  97
   0   8  -2 1000.81 67.1458 104
   0  -8   1 407.956 50.4809  33
   0  -8   1 479.862 54.1753  76
   0  -8   1 462.139 53.0780 107
   0   8  -1 447.618 53.0779  79
   0   8  -1 449.415 51.0955  61
   0   8  -1 420.435 47.5969  60
   0  -8   1 414.820 50.9664  42
   0  -8   1 434.848 53.2544 100
   0  -8   1 465.333 54.2894  81
   0  -8   1 418.133 46.2156  30
   0   8  -1 425.751 53.0388 104
   0  -8   1 404.249 46.6863  74
   0   8  -1 450.130 54.3040  97
   0  -8   1 495.373 55.8273 101
   0   8  -1 434.895 53.5446  98
   0   8  -1 429.333 52.3855  75
   0   8  -1 473.711 55.5236 105
   0   8  -1 410.885 48.8511  73
   0   8  -1 444.981 49.3653  55
   0  -8   1 515.772 57.6384 102
   0  -8   1 415.685 47.0703  49
   0   8  -1 444.394 53.9684 103
   0  -8   0 859.497 70.4719  49
   0   8   0 842.331 67.4173  43
   0  -8   0 885.425 73.9141  74
   0   8   0 864.606 79.2755  98
   0  -8   0 993.104 83.2626  33
   0  -8   0 902.550 81.2509 101
   0   8   0 1053.49 88.2707 105
   0  -8   0 848.376 76.9597  76
   0   8   0 860.478 77.3137  60
   0  -8   0 1003.13 85.7473 100
   0   8   0 929.535 83.7207 103
   0   8   0 909.416 79.3847  73
   0  -8   0 939.909 82.5918  42
   0  -8   0 883.231 79.8233 102
   0   8   0 963.635 79.1930  75
   0  -8   0 905.782 80.1038 107
   0  -8   0 959.073 85.9051  81
   0   8   0 887.749 80.1102  97
   0  -8   0 896.273 81.7838  19
   0   8   0 895.711 72.5272  61
   0   8   0 882.478 82.9252 104
   0   8   0 935.953 80.5412  79
   0   8   0 961.477 75.4735  55
   0  -8  -1 1699.23 115.289  19
   0   8   1 1656.85 107.237  75
   0   8   1 1703.48 110.073  43
   0  -8  -1 1689.11 112.941 100
   0   8   1 1713.28 112.661  97
   0  -8  -1 1658.19 117.829  42
   0   8   1 1614.58 111.354 103
   0  -8  -1 1794.69 116.913  33
   0  -8  -1 1619.47 110.483  76
   0  -8  -1 1764.67 114.078 107
   0   8   1 1626.35 110.939  73
   0  -8  -1 1736.44 107.258  74
   0  -8  -1 1751.79 113.965 102
   0  -8  -1 1732.83 100.294  49
   0   8   1 1765.94 104.721  55
   0   8   1 1644.21 111.060  98
   0  -8  -1 1641.85 117.670  81
   0   8   1 1729.41 112.743  79
   0   8   1 1626.35 102.716  80
   0  -8  -1 1758.43 110.668  47
   0   8   1 1541.51 109.395  60
   0   8   1 1722.12 114.674 105
   0  -8  -1 1666.67 112.043 101
   0   8   1 1712.83 115.388 104
   0   8   2 54.9146 27.3902  43
   0   8   2 92.0226 30.5715  55
   0   8   2 40.6001 23.1286  58
   0   8   2 83.7665 38.5772  73
   0   8   2 75.6139 36.8058  60
   0  -8  -2 101.386 35.1492 102
   0  -8  -2 74.7847 34.4485  33
   0  -8  -2 67.5493 27.4777  19
   0   8   2 56.6828 28.5128 104
   0  -8  -2 68.0427 31.8299  81
   0  -8  -2 66.2440 28.1721  74
   0  -8  -2 72.8201 26.0959 101
   0  -8  -2 44.9435 26.2038  47
   0   8   2 87.5099 33.3168 105
   0   8   2 49.3735 23.2231  98
   0  -8  -2 92.3324 30.5015 107
   0   8   2 71.0241 31.8917  79
   0  -8  -2 93.5389 33.3310  76
   0  -8  -2 68.0782 32.9406  42
   0   8   2 72.2736 28.6210  97
   0   8   2 71.1929 33.0391 103
   0   8   2 93.4324 33.6880  75
   0  -8  -2 93.8388 31.0853 100
   0   8   3 408.528 55.3419  75
   0  -8  -3 221.824 44.1690  74
   0  -8  -3 257.889 48.5337  76
   0  -8  -3 276.109 45.4844 107
   0  -8  -3 214.248 48.1188  33
   0   8   3 280.689 48.6577  58
   0  -8  -3 262.927 46.0187 102
   0   8   3 388.070 59.8159  43
   0  -8  -3 245.966 44.8318 101
   0   8   3 243.635 52.6076  73
   0   8   3 264.651 49.4637  56
   0   8   3 255.778 52.8224  60
   0   8   3 248.592 44.7426  79
   0  -8  -3 242.775 42.8681  19
   0  -8  -3 292.131 58.2835  42
   0  -8  -3 230.887 49.9943  81
   0  -8  -3 256.503 44.8693 100
   0  -8  -4 30521.9 449.899  76
   0   8   4 30576.7 494.674  60
   0   8   4 29603.0 476.178   9
   0   8   4 29874.0 476.717  58
   0  -8  -4 30448.4 492.736  81
   0  -8  -4 31119.9 520.326  42
   0   8   4 29955.2 491.270  73
   0   8   4 30534.4 504.066  43
   0   8   4 31155.6 429.412  71
   0  -8  -4 30387.9 472.004  33
   0   8   5 1494.33 110.573  73
   0   8   5 1394.49 105.645  43
   0   8   5 1351.21 103.212   9
   0   8   5 1315.08 104.574  58
   0  -8  -5 1501.17 103.106  33
   0  -8  -5 1335.90 102.239  81
   0   8   5 1449.14 107.222  80
   0   8   5 1460.28 98.6891  71
   0   8   5 1437.80 108.429  60
   0   8   6 302.409 53.2969  60
   0   8   6 301.889 54.9339  58
   0   8   6 348.868 52.9894  80
   0   8   6 376.451 53.0972  71
   0   8   6 429.759 58.0739   9
   0   8   6 347.475 52.0633  43
   0  -8  -6 311.654 46.8488  33
   0  -8  -6 315.295 48.6947  81
   0   8   6 387.510 58.1111  73
   0   8   7 13.5172 20.4916  71
   0   8   7 11.6185 21.4405   9
   0   8   7-6.54218 21.0372  17
   0   8   8 236.820 35.7526  17
   0   8   8 322.638 43.6915  71
   0   8   9 295.063 33.8708  17
   0   8   9 325.313 37.4282  71
   0   8   9 324.396 36.3377  23
   0  -9   0 1615.70 71.9295 100
   0   9   0 1481.82 67.9361  79
   0  -9   0 1642.94 71.7445  76
   0   9   0 1766.73 75.8673 103
   0  -9   0 1422.98 65.7243  42
   0  -9   0 1710.51 73.2966 107
   0   9   0 1695.30 73.5661  97
   0  -9   0 1714.04 74.3779  99
   0   9   0 1746.12 75.2809 105
   0  -9   0 1670.52 72.4093  20
   0  -9   0 1668.44 72.5778 102
   0   9   0 1488.64 64.1799  73
   0   9   0 1393.02 61.9321  60
   0   9   0 1551.65 71.4794 106
   0  -9   0 1697.31 73.2725 101
   0   9   0 1699.24 74.2264 104
   0   9   0 1699.19 73.5274  98
   0  -9   0 1720.91 76.0414  81
   0  -9  -1 11979.4 214.552 102
   0  -9  -1 11910.5 212.930 107
   0  -9  -1 11832.7 217.896  76
   0   9   1 11987.1 216.112  98
   0   9   1 11790.8 219.138  60
   0  -9  -1 11996.4 214.364 100
   0   9   1 12133.9 219.597 104
   0   9   1 11029.1 170.475  80
   0   9   1 12228.1 217.447  97
   0  -9  -1 11953.1 222.746  33
   0   9   1 12644.1 223.631 103
   0  -9  -1 11816.9 213.376 101
   0   9   1 11684.8 219.534  73
   0  -9  -1 11837.2 229.780  81
   0  -9  -1 11586.9 228.044  42
   0   9   1 11340.1 210.969  79
   0   9   1 12054.6 218.951 105
   0   9   2 2334.15 100.796  80
   0  -9  -2 2419.69 110.784  81
   0  -9  -2 2251.47 95.5094 101
   0   9   2 2343.31 107.387  73
   0   9   2 2264.50 104.126  43
   0   9   2 2348.33 109.304  60
   0  -9  -2 2506.96 114.455  42
   0  -9  -2 2462.35 104.754  76
   0  -9  -2 2515.71 109.927  33
   0  -9  -2 2466.50 99.1886 107
   0  -9  -2 2417.75 98.5602 102
   0  -9  -2 2419.92 98.5375 100
   0   9   3 376.941 48.6335  43
   0   9   3 408.533 52.0866  60
   0   9   3 367.842 49.7481  73
   0   9   3 413.653 48.1422  80
   0  -9  -3 406.074 48.4863  33
   0   9   3 368.412 46.7853   9
   0  -9  -3 394.811 48.6426  81
   0  -9  -3 360.230 41.7186  76
   0  -9  -3 426.196 50.9785  42
   0  -9  -3 391.384 47.0049  47
   0  -9  -4 370.006 48.3239  47
   0  -9  -4 429.412 42.9504  76
   0  -9  -4 397.693 51.6329  42
   0  -9  -4 427.068 48.4993  81
   0   9   4 359.282 49.0953  60
   0   9   4 424.696 49.7990   9
   0   9   4 422.970 51.5069  43
   0  -9  -4 412.095 47.4452  33
   0   9   4 397.238 50.0934  80
   0   9   4 378.255 49.4757  73
   0  -9  -5 11087.2 225.987  81
   0   9   5 11227.6 245.579  43
   0  -9  -5 11160.3 251.918  42
   0  -9  -5 11542.1 221.135  33
   0   9   5 11494.2 238.864  60
   0   9   5 11594.5 244.852  80
   0   9   5 11349.2 189.854  71
   0   9   5 11261.7 245.918  73
   0   9   5 11155.5 228.873   9
   0  -9  -6 520.103 53.6258  42
   0  -9  -6 512.854 42.1052  33
   0  -9  -6 421.016 40.7268  81
   0   9   6 477.237 49.3377  73
   0   9   6 535.442 51.0359  80
   0   9   6 500.208 40.7961  23
   0   9   7 5548.26 135.708  71
   0   9   7 5558.30 130.442  23
   0   9   8 31.7286 11.1790  23
   0   9   8 39.0907 15.3019  71
   1  -9  -7 1853.44 77.2645  46
  -1   9   7 1851.24 71.9542   9
   1  -9  -6 2458.74 95.8575  47
  -1   9   6 2406.00 96.9542  73
   1  -9  -6 2582.78 99.2215  46
  -1   9   6 2582.96 95.8892  80
  -1   9   6 2614.66 96.9272   9
   1  -9  -5 5335.14 147.276  46
  -1   9   5 5224.84 150.513  73
  -1   9   5 5458.82 151.421  80
   1  -9  -5 5436.97 154.552  47
  -1   9   5 5347.61 148.368   9
   1  -9  -5 4978.90 144.049  42
  -1   9   4 1388.04 78.0498  80
  -1   9   4 1257.79 77.2169  60
  -1   9   4 1327.76 78.9464  73
   1  -9  -4 1404.46 80.7323  47
   1  -9  -4 1345.02 78.9367  42
   1  -9  -4 1233.55 62.7243  33
   1  -9  -4 1108.28 61.5469  81
  -1   9   4 1366.92 77.3780   9
   1  -9  -3 9756.50 187.538  81
  -1   9   3 10127.2 208.447  60
   1  -9  -3 10567.8 217.200  42
   1  -9  -3 10845.1 214.296  47
  -1   9   3 10864.5 203.873  80
   1  -9  -3 10493.4 189.295  33
  -1   9   3 10409.9 211.284  73
  -1   9   3 10308.4 206.331   9
  -1   9   2-4.40511 15.2688  73
   1  -9  -2 32.0831 16.7209  33
   1  -9  -2-7.52325 9.26643  76
  -1   9   2 9.99633 11.2255  80
   1  -9  -2 16.2128 15.1120  47
  -1   9   2 18.2372 18.6552   9
   1  -9  -2 12.1548 12.6809  81
   1  -9  -2 26.8825 18.1647  42
  -1   9   2 6.06803 15.0049  60
  -1   9   1 18.6525 13.0970   9
   1  -9  -1 12.3059 10.2687  81
  -1   9   1 4.86809 12.1825  79
   1  -9  -1 8.32799 12.8872  42
  -1   8   9 1927.20 75.3496  23
  -1   8   9 1746.83 65.6715  17
  -1   8   9 1912.95 75.0583  71
  -1   8   8 2098.26 84.6344  17
  -1   8   8 2212.81 97.5857  71
  -1   8   8 2179.67 96.7830  23
  -1   8   7 223.474 39.8491   9
  -1   8   7 198.980 29.8729  17
  -1   8   7 207.097 35.2209  23
   1  -8  -7 200.601 37.4074  42
  -1   8   7 237.296 37.9897  71
  -1   8   7 244.463 43.1342  73
  -1   8   6 65.4012 24.0918  23
  -1   8   6 105.855 34.0763  80
  -1   8   6 107.452 34.3317   9
  -1   8   6 73.4563 34.4383  73
  -1   8   6 173.151 35.8840  71
   1  -8  -6 121.487 35.5645  42
  -1   8   5 14506.0 327.275  73
  -1   8   5 14096.2 320.025  60
  -1   8   5 14835.3 322.575  80
  -1   8   5 14514.7 323.315  43
  -1   8   5 14238.8 276.288  23
   1  -8  -5 13903.0 278.826  81
  -1   8   5 14202.1 315.792   9
   1  -8  -5 14709.9 275.015  33
  -1   8   5 14580.6 275.994  71
   1  -8  -5 14771.5 326.786  42
  -1   8   4 1384.11 105.116  43
  -1   8   4 1613.69 112.209  60
   1  -8  -4 1384.26 106.325  42
   1  -8  -4 1453.94 99.8747  81
  -1   8   4 1453.90 105.955  80
   1  -8  -4 1567.55 98.8768  33
  -1   8   4 1523.54 109.352  73
  -1   8   4 1527.45 107.794   9
  -1   8   3 174.665 43.8019  73
  -1   8   3 102.930 38.8711  60
  -1   8   3 68.1826 29.5805  43
   1  -8  -3 262.094 45.9299  33
  -1   8   3 67.2536 28.0393  80
   1  -8  -3 117.547 29.7252  76
   1  -8  -3 62.5264 30.7340  47
   1  -8  -3 82.6740 33.6993  42
   1  -8  -3 87.6535 30.4420  46
  -1   8   3 78.4925 33.7827  79
  -1   8   3 104.273 37.1691  75
   1  -8  -3 257.810 47.2413  81
  -1   8   3 122.543 32.5915  55
  -1   8   2 9149.36 238.351  97
  -1   8   2 8830.32 238.561 105
   1  -8  -2 8953.45 236.284 102
   1  -8  -2 9046.64 236.581 107
  -1   8   2 8718.97 240.396  79
   1  -8  -2 8641.57 233.576 101
  -1   8   2 9092.31 242.883 104
   1  -8  -2 9012.49 261.153  42
  -1   8   2 8269.54 242.225  73
  -1   8   2 8180.22 247.276  60
   1  -8  -2 8498.94 229.046  76
  -1   8   2 7752.42 223.466  80
   1  -8  -2 8446.78 246.921  47
  -1   8   2 8219.36 234.637  75
  -1   8   2 8834.52 230.040  55
   1  -8  -2 8585.02 244.554  81
   1  -8  -2 8349.75 226.037  46
   1  -8  -2 8305.89 233.929  33
  -1   8   2 8387.89 243.562  43
  -1   8   2 9051.49 240.262 103
   1  -8  -2 8688.73 232.769 100
  -1   8   2 8905.79 236.989  98
  -1   8   1 18.0402 21.1913  75
  -1   8   1-7.49368 24.9994 105
  -1   8   1 22.0504 23.6144  60
  -1   8   1 16.7067 20.9319  97
   1  -8  -1 5.67745 18.3762  76
  -1   8   1 1.43022 18.1376  80
  -1   8   1 22.9808 20.6610 103
  -1   8   1 0.53135 21.8274  98
   1  -8  -1 14.7376 19.1092 101
   1  -8  -1 4.82234 20.9806  42
  -1   8   1 2.64250 22.6669  73
   1  -8  -1 0.60462 22.4764  33
   1  -8  -1-4.48044 20.1373  81
   1  -8  -1 21.4846 20.7488  47
   1  -8  -1 10.8302 18.9339 102
  -1   8   1-5.52072 24.5642 104
   1  -8  -1 22.6768 18.4387 107
  -1   8   1-18.8599 25.1762  55
   1  -8  -1 15.6998 19.2901 100
  -1   8   1 9.40412 23.8452  79
  -1   8   0 1492.50 94.8070 104
  -1   8   0 1278.04 80.9922  73
  -1   8   0 1454.23 86.4573  61
  -1   8   0 1520.44 95.3779 105
  -1   8   0 1412.03 90.6725  75
  -1   8   0 1501.97 95.4239  98
   1  -8   0 1506.18 95.4863  81
   1  -8   0 1424.28 91.7223 101
  -1   8   0 1378.83 84.7750  60
   1  -8   0 1479.14 93.9313  42
   1  -8   0 1493.95 92.6947 107
   1  -8   0 1407.97 89.7294  33
  -1   8   0 1335.52 84.1531  55
  -1   8   0 1437.96 91.6611  97
   1  -8   0 1475.13 93.4110 102
  -1   8   0 1364.38 90.3899  79
   1  -8   0 1494.18 91.8026  76
   1  -8   0 1485.25 93.7743 100
  -1   8   0 1514.67 95.8496 103
  -1   8  -1 44.7943 20.7208  98
   1  -8   1 81.6261 25.0091  42
   1  -8   1 43.6958 19.7043 102
   1  -8   1 50.2542 22.6102 101
   1  -8   1 28.1156 18.4853 107
   1  -8   1 55.8015 22.1831  76
   1  -8   1 40.5344 20.8668  20
  -1   8  -1 52.4694 20.2229 105
  -1   8  -1 52.3768 20.9109  97
  -1   8  -1 45.3306 20.1241 104
  -1   8  -1 79.0484 22.5862  61
   1  -8   1 44.8954 22.5854  99
   1  -8   1 51.9006 22.1875 100
  -1   8  -1 56.0121 23.1411  79
   1  -8   1 63.3244 22.1631  81
  -1   8  -1 60.3199 23.1116  55
  -1   8  -1 51.8654 23.1566  75
  -1   8  -1 40.2525 21.7329 103
  -1   8  -1 49.5589 21.9271 106
  -1   8  -1 36.6019 13.4792  73
  -1   8  -2 200.277 26.3218  55
   1  -8   2 204.541 26.8369  99
  -1   8  -2 193.181 25.5422 103
   1  -8   2 148.568 23.2637 102
  -1   8  -2 189.618 26.0495  61
  -1   8  -2 168.859 24.1299  97
   1  -8   2 175.702 24.1614 101
   1  -8   2 186.192 25.2108 107
  -1   8  -2 175.331 25.3783  75
  -1   8  -2 148.971 22.2332  79
   1  -8   2 177.979 24.6540  81
   1  -8   2 184.315 24.2873  76
  -1   8  -2 169.427 24.6944 106
   1  -8   2 158.945 23.6011  20
  -1   8  -2 179.176 23.9556 105
   1  -8   2 142.464 21.0343  42
  -1   8  -2 198.622 26.0052 104
   1  -8   2 181.901 24.8637 100
  -1   7  10 33.3762 15.4636  17
  -1   7   9 2622.56 112.545  71
  -1   7   9 2767.54 106.207  51
  -1   7   9 2594.34 112.033  23
  -1   7   9 2643.38 112.116  17
  -1   7   9 2810.57 107.767  26
  -1   7   8 58.3183 24.2049  17
  -1   7   8 60.2989 30.6916  71
  -1   7   8 79.8234 32.2105   9
  -1   7   8 62.6803 23.0331  51
  -1   7   8 75.2488 23.3706  26
  -1   7   7 3.93888 23.7389  71
  -1   7   7 17.9670 24.4524  73
  -1   7   7 40.7683 22.9012  17
  -1   7   7 18.9701 25.3797  80
  -1   7   6 810.357 80.4905  71
  -1   7   6 741.311 80.5197  80
  -1   7   6 718.129 82.4093  73
  -1   7   6 823.804 85.0991  60
  -1   7   6 741.149 77.3649  43
  -1   7   6 682.981 68.9261  17
  -1   7   6 832.369 88.9963   9
  -1   7   5 4520.63 200.572   9
   1  -7  -5 4891.49 182.420  33
   1  -7  -5 4441.40 187.797  81
  -1   7   5 4621.25 204.644  73
  -1   7   5 4864.91 204.808  43
  -1   7   5 4815.68 183.419  55
  -1   7   5 4842.44 203.718  80
  -1   7   5 4801.22 204.770  58
  -1   7   5 4922.13 191.556  71
  -1   7   5 5218.92 213.098  60
   1  -7  -4 52.1489 34.3459  42
  -1   7   4 34.7380 36.3520  80
  -1   7   4-4.52225 31.7290  73
  -1   7   4 64.2579 34.5789  58
   1  -7  -4 3.26678 25.3124  33
   1  -7  -4-37.6931 27.4646  81
  -1   7   4 11.2626 30.7189  79
  -1   7   4 4.64315 24.3731  75
  -1   7   4 27.0864 31.3281  55
  -1   7   4-7.30482 31.3167  60
   1  -7  -3 1567.70 112.631  33
  -1   7   3 1688.75 111.894  97
  -1   7   3 1464.32 117.023  60
  -1   7   3 1547.91 108.025  98
  -1   7   3 1458.08 119.314  73
   1  -7  -3 1477.46 120.797  42
   1  -7  -3 1592.64 109.190 100
   1  -7  -3 1597.41 110.678 102
  -1   7   3 1545.27 111.512  55
   1  -7  -3 1542.59 108.186 107
  -1   7   3 1515.44 113.506  75
  -1   7   3 1471.32 118.222  43
  -1   7   3 1568.69 110.291 105
  -1   7   3 1418.89 113.342  80
   1  -7  -3 1675.12 112.009  76
   1  -7  -3 1508.75 115.156  81
  -1   7   3 1565.11 114.378  58
  -1   7   3 1660.67 112.253 103
  -1   7   3 1604.66 111.793 104
   1  -7  -3 1556.39 109.432 101
  -1   7   3 1672.12 118.436  79
   1  -7  -2 1902.82 129.686  81
  -1   7   2 1917.26 116.777  61
   1  -7  -2 1790.84 123.107 100
  -1   7   2 1999.40 131.532 104
   1  -7  -2 2003.55 129.546 101
  -1   7   2 1688.46 126.744  60
   1  -7  -2 1925.34 124.728  76
   1  -7  -2 1984.24 139.086  42
  -1   7   2 2042.30 130.344  97
  -1   7   2 1934.06 132.782  43
  -1   7   2 1885.06 128.403  75
  -1   7   2 2020.43 130.200  98
  -1   7   2 1880.93 127.950  79
  -1   7   2 1843.77 124.977 103
  -1   7   2 1783.10 124.386  80
   1  -7  -2 1948.68 128.521 102
  -1   7   2 1921.25 126.632  55
  -1   7   2 2013.13 131.105 105
   1  -7  -2 1907.78 129.257  19
   1  -7  -2 1932.71 126.621  33
   1  -7  -2 1887.78 124.866 107
  -1   7   2 1795.76 129.144  73
   1  -7  -1 28467.3 504.086  19
   1  -7  -1 27796.0 484.199 107
  -1   7   1 28702.2 462.935  61
  -1   7   1 28555.7 490.309  79
  -1   7   1 27915.6 479.136  75
   1  -7  -1 26642.4 431.251  74
  -1   7   1 27851.4 481.667  43
   1  -7  -1 28424.7 492.081 100
   1  -7  -1 28393.6 491.674 102
  -1   7   1 28778.8 500.801 105
  -1   7   1 28205.2 469.477  55
   1  -7  -1 28644.0 483.697  76
  -1   7   1 28756.0 501.735 103
   1  -7  -1 27997.3 498.607  81
  -1   7   1 28719.2 465.985  80
   1  -7  -1 28634.8 495.572 101
  -1   7   1 28594.9 492.643  97
   1  -7  -1 27605.7 478.822  33
  -1   7   1 28101.1 491.834  98
  -1   7   1 27384.6 481.066  60
   1  -7  -1 28674.8 511.738  42
   1  -7  -1 28646.9 463.621  46
  -1   7   1 27912.6 474.454  73
  -1   7   1 28498.6 499.203 104
   1  -7  -1 27764.7 486.258  47
  -1   7   1 29004.5 441.221  77
  -1   7   0 4587.04 199.446  97
   1  -7   0 4640.29 188.929  47
  -1   7   0 4659.30 203.285 103
   1  -7   0 4695.68 202.905  81
  -1   7   0 4551.76 201.135 104
  -1   7   0 4707.66 204.129 105
  -1   7   0 4688.33 190.131  61
  -1   7   0 4708.08 190.969  55
   1  -7   0 4483.30 196.717 100
   1  -7   0 4617.95 194.255  76
  -1   7   0 4724.15 196.162  75
   1  -7   0 4762.58 181.430  74
   1  -7   0 4596.95 199.930 102
  -1   7   0 4643.14 200.868  98
  -1   7   0 4960.11 177.769  80
  -1   7   0 4729.99 174.949  87
  -1   7   0 4551.63 178.599  77
  -1   7   0 4591.41 187.469  60
   1  -7   0 4608.54 202.293  42
   1  -7   0 4662.65 195.760  33
  -1   7   0 4372.74 190.167  79
   1  -7   0 4843.28 205.118 101
   1  -7   0 4806.50 208.258  19
  -1   7   0 4366.17 183.751  73
   1  -7   0 4686.73 199.912 107
   1  -7   0 4589.33 170.950  49
  -1   7   0 4522.22 181.551  43
   1  -7   1 25813.9 450.146 107
   1  -7   1 24617.5 391.090  49
   1  -7   1 24994.2 396.667  47
  -1   7  -1 25302.8 455.342 103
  -1   7  -1 24658.0 406.218  77
  -1   7  -1 24515.0 442.376  97
  -1   7  -1 25750.5 429.215  61
  -1   7  -1 24200.5 442.183  98
   1  -7   1 25883.0 453.527 101
   1  -7   1 24972.2 401.384  74
   1  -7   1 25688.7 451.450 100
  -1   7  -1 25625.3 423.215  55
  -1   7  -1 25666.6 403.350  87
   1  -7   1 25123.0 432.292  33
   1  -7   1 24979.9 447.724  42
  -1   7  -1 24658.9 447.698 104
  -1   7  -1 25036.9 427.987  75
   1  -7   1 24307.6 444.701  81
  -1   7  -1 24420.7 389.669  73
  -1   7  -1 24704.1 393.192  60
   1  -7   1 25644.4 451.219 102
  -1   7  -1 25020.4 451.153 105
   1  -7   1 26088.6 424.517  30
  -1   7  -1 24943.2 426.716  79
   1  -7   1 24926.5 437.419  76
  -1   7  -2 242.331 43.5418 103
   1  -7   2 309.068 47.7173 107
  -1   7  -2 258.217 47.0694  75
   1  -7   2 284.190 47.6070  42
   1  -7   2 279.887 46.2189 102
   1  -7   2 292.303 46.8174  76
  -1   7  -2 294.920 49.9481  98
   1  -7   2 280.035 46.4328  81
  -1   7  -2 330.131 50.8766 104
  -1   7  -2 253.361 43.6389  79
  -1   7  -2 253.629 43.7865  61
  -1   7  -2 304.767 46.1412  77
  -1   7  -2 256.368 43.2256  87
   1  -7   2 201.335 37.3446  49
  -1   7  -2 275.607 46.9556 105
   1  -7   2 189.934 36.6539  74
  -1   7  -2 341.588 51.4103  55
   1  -7   2 301.163 49.1857 100
  -1   7  -2 271.141 47.2387  97
   1  -7   2 236.980 40.9958  30
   1  -7   2 294.025 47.3641 101
   1  -7   3 3.84835 16.3339  49
  -1   7  -3 8.40085 19.0017  79
   1  -7   3 1.53872 15.8207  20
   1  -7   3 16.8967 16.7645 101
   1  -7   3-5.32986 15.5553  76
   1  -7   3 9.92876 14.6501 107
   1  -7   3 3.65043 15.8153  99
  -1   7  -3 4.62682 16.4297 106
   1  -7   3 10.9171 15.7427 100
   1  -7   3 4.27970 14.0214  42
   1  -7   3 22.2593 16.3945  74
   1  -7   3 8.30092 14.4947 102
  -1   7  -3 1.70811 19.9633  55
  -1   7  -3 10.7195 17.6202  61
  -1   7  -3-0.39839 15.6488 104
  -1   7  -3 26.8926 21.4628  77
  -1   7  -3 28.7090 18.2774  97
  -1   7  -3 5.14988 19.7496  87
  -1   7  -3-3.05464 16.5794 105
   1  -7   3 15.6990 17.6080  30
  -1   7  -3 8.50457 15.5336 103
   1  -7   3 36.3268 19.5556  81
  -1   7  -3 23.5009 20.1423  75
  -1   7  -4 117.417 22.9589  55
   1  -7   4 91.2600 19.2960  85
   1  -7   4 115.265 22.2526  54
  -1   7  -4 113.809 20.2707  77
  -1   7  -4 160.559 22.3917  61
  -1   7  -4 143.745 22.4215  87
   1  -7   4 116.579 19.3394  30
  -1   6  10 905.267 65.1133  51
  -1   6  10 849.042 64.0852  26
  -1   6  10 786.418 62.0152  11
  -1   6  10 884.507 64.6265  17
  -1   6   9 4351.35 163.404  51
  -1   6   9 4454.21 165.914  26
  -1   6   9 4031.66 155.772  71
  -1   6   9 4150.42 163.017  17
  -1   6   8 2698.36 143.269  71
  -1   6   8 2845.80 142.585  26
  -1   6   8 2808.27 152.318   9
  -1   6   8 2824.48 140.933  51
  -1   6   7 38159.6 514.471  80
  -1   6   7 39761.8 532.520  26
  -1   6   7 37106.7 557.049  73
  -1   6   7 38923.0 520.320  51
  -1   6   7 36172.2 542.930  71
  -1   6   7 36214.9 558.633   9
  -1   6   6 173.347 52.1645  58
  -1   6   6 241.581 50.8897  80
  -1   6   6 232.517 50.1074  25
  -1   6   6 209.345 50.5335  60
  -1   6   6 194.515 44.9176  71
  -1   6   6 229.366 43.7574  51
  -1   6   6 219.619 40.4343  26
  -1   6   6 241.600 51.5448  73
  -1   6   6 169.972 37.6394  43
  -1   6   6 266.338 56.3274   9
  -1   6   5 67.1992 34.9815  55
  -1   6   5-138.959 67.6328   5
  -1   6   5 152.440 49.9119   9
  -1   6   5 154.498 43.6194  73
  -1   6   5 98.2793 37.6399  60
   1  -6  -5-11.0390 29.4394   1
   1  -6  -5 266.483 90.0309  35
  -1   6   5 60.2691 28.1773  71
  -1   6   5 119.976 40.8592  58
  -1   6   5 121.203 37.7243  25
  -1   6   5 143.963 77.8940  67
  -1   6   5 118.226 38.7789  80
  -1   6   5 95.2001 34.2597  43
   1  -6  -4-44.8490 47.3402   1
  -1   6   4 78.0734 36.1225  60
  -1   6   4 20.4916 23.5298  79
  -1   6   4-84.0418 58.1390  67
  -1   6   4 118.173 39.0259  43
  -1   6   4 80.0466 31.7273  56
   1  -6  -4 100.536 32.7119  33
  -1   6   4 111.574 35.1423  71
   1  -6  -4 84.7392 32.2144  81
  -1   6   4 51.3694 29.6356  58
  -1   6   4 65.8681 31.1666  75
  -1   6   4 101.721 39.2430  73
   1  -6  -4 63.6763 74.2058  35
  -1   6   4 110.165 40.2728  55
  -1   6   3 1789.85 121.585  55
  -1   6   3 1918.99 123.962  79
   1  -6  -3 1773.09 123.714  81
   1  -6  -3 1732.79 205.259   1
  -1   6   3 1674.10 117.291  58
  -1   6   3 1488.71 192.446  67
   1  -6  -3 1398.07 180.026  39
  -1   6   3 1767.57 109.388  71
  -1   6   3 1919.39 125.392  56
  -1   6   3 1752.03 125.424  60
   1  -6  -3 1812.41 118.374  33
  -1   6   3 1744.67 203.546  36
  -1   6   3 1735.64 123.409  43
  -1   6   3 1948.25 131.097  73
   1  -6  -3 1950.13 208.687  35
   1  -6  -3 1778.15 112.494  76
  -1   6   3 1761.95 120.178  75
   1  -6  -2 54.5691 26.3601 107
  -1   6   2 20.6277 21.9053  98
   1  -6  -2-2.41613 31.0386  42
   1  -6  -2 11.1112 25.9716  76
   1  -6  -2-67.9736 66.3815  96
   1  -6  -2 75.0969 28.0752 100
   1  -6  -2 65.8962 72.4862   1
   1  -6  -2 37.4472 31.1614 102
  -1   6   2 25.5312 24.6275  61
  -1   6   2 141.353 45.5546  73
  -1   6   2 10.0300 28.9796  60
   1  -6  -2 14.8534 54.2245  95
   1  -6  -2-166.630 79.4073  92
  -1   6   2-20.4286 50.3300  36
  -1   6   2-77.1488 60.9890  67
  -1   6   2 14.5061 23.1529  58
   1  -6  -2 40.5807 42.1318  39
  -1   6   2-103.703 52.9589  94
   1  -6  -2 25.2649 27.4247 101
   1  -6  -2-274.633 89.2632  91
   1  -6  -2 177.981 67.5322  90
   1  -6  -2-0.32484 74.0879  93
  -1   6   2 56.3672 30.5916 105
  -1   6   2 27.3544 22.0601  97
   1  -6  -2 11.5112 27.0842  81
  -1   6   2 25.6431 31.2948  55
  -1   6   2 17.9993 25.7691 103
  -1   6   2 128.621 40.0886  43
  -1   6   2 15.8281 27.1094  56
   1  -6  -2 27.3986 19.2723  19
   1  -6  -2 12.5190 26.5052  33
  -1   6   2 9.08816 27.1544  79
  -1   6   2 51.7105 42.2491  75
  -1   6   2 128.588 37.4947 104
   1  -6  -1 474.255 68.3817  33
  -1   6   1 494.777 68.5289  60
  -1   6   1 481.387 68.8483  75
   1  -6  -1 492.042 116.422  96
   1  -6  -1 420.215 101.779  90
  -1   6   1 520.347 71.0416  98
  -1   6   1 534.601 71.3787 105
  -1   6   1 441.975 63.5584  43
  -1   6   1 443.710 66.8751  79
   1  -6  -1 396.231 111.541   1
  -1   6   1 485.918 67.6686  55
  -1   6   1 578.767 74.0131  97
  -1   6   1 567.741 69.8151  77
   1  -6  -1 549.627 67.7879  74
   1  -6  -1 471.772 127.289  91
  -1   6   1 485.135 65.7032  61
   1  -6  -1 489.057 65.7635 107
  -1   6   1 457.588 67.7301 103
  -1   6   1 400.367 104.229  36
   1  -6  -1 504.123 68.4463  76
  -1   6   1 500.044 115.789  94
   1  -6  -1 482.787 116.349  93
   1  -6  -1 460.490 63.2341 100
   1  -6  -1 486.886 74.2042  42
  -1   6   1 575.433 75.6010 104
  -1   6   1 436.655 60.9103  56
   1  -6  -1 489.466 68.3018 101
   1  -6  -1 547.125 72.4978  19
   1  -6  -1 516.945 69.4695 102
   1  -6  -1 442.994 66.4920  81
   1  -6  -1 655.186 134.040  39
   1  -6  -1 464.138 114.502  95
  -1   6   1 499.668 69.3596  73
  -1   6   1 395.691 101.812  67
   1  -6  -1 535.887 121.460  92
  -1   6   0 7878.04 251.150  73
   1  -6   0 8584.97 444.492   1
   1  -6   0 9644.75 507.487  39
   1  -6   0 8084.03 472.089  93
   1  -6   0 7775.86 266.523 102
   1  -6   0 7944.77 266.207 107
  -1   6   0 8048.09 240.579  41
  -1   6   0 7919.25 473.996  94
  -1   6   0 8304.44 259.866  61
   1  -6   0 8215.89 251.666  74
   1  -6   0 8282.40 265.602  33
   1  -6   0 7768.17 266.482 101
   1  -6   0 8034.84 469.619  92
   1  -6   0 7696.17 459.706  95
   1  -6   0 8099.51 261.399  47
  -1   6   0 8735.18 476.449  37
   1  -6   0 8140.53 276.782  42
   1  -6   0 7621.00 457.056  90
  -1   6   0 8004.91 256.748  55
  -1   6   0 7922.53 274.175 104
   1  -6   0 8210.50 250.495  46
   1  -6   0 8240.24 266.888  76
  -1   6   0 8074.77 262.933  79
  -1   6   0 7902.03 272.298 103
  -1   6   0 7983.41 442.408  67
   1  -6   0 7942.97 276.106  19
   1  -6   0 7217.78 445.117  91
  -1   6   0 7950.77 256.258  60
   1  -6   0 8013.40 469.593  96
   1  -6   0 7756.12 266.086 100
   1  -6   0 7958.10 271.887  81
  -1   6   0 8376.68 276.466  98
  -1   6   0 8335.28 274.701  97
   1  -6   0 8457.82 249.097  49
  -1   6   0 9368.53 517.061  36
  -1   6   0 8151.20 250.652  77
  -1   6   0 8197.08 256.758  43
  -1   6   0 8392.90 265.862  75
  -1   6   0 7963.89 272.393 105
  -1   6  -1 4640.93 200.636  75
  -1   6  -1 4926.54 203.370  55
  -1   6  -1 4799.51 215.699 105
  -1   6  -1 4680.98 202.596  79
   1  -6   1 4959.35 199.547  47
   1  -6   1 4900.12 213.458 107
  -1   6  -1 4630.68 195.643  77
   1  -6   1 4860.20 197.288  49
   1  -6   1 4896.34 215.232 101
  -1   6  -1 4775.85 213.799  98
  -1   6  -1 4699.83 211.124  97
  -1   6  -1 4663.58 213.504 104
   1  -6   1 4888.40 215.789  42
   1  -6   1 4876.66 214.023  81
  -1   6  -1 4654.42 188.665  41
   1  -6   1 4925.55 201.668  74
   1  -6   1 5047.54 218.286 102
  -1   6  -1 4684.56 189.971  60
  -1   6  -1 4653.91 188.400  73
   1  -6   1 4765.15 216.649  19
  -1   6  -1 4650.86 212.603 103
   1  -6   1 4797.69 212.804 100
   1  -6   1 4662.31 203.377  18
   1  -6   1 4875.49 207.646  33
   1  -6   1 4992.56 211.901  76
  -1   6  -1 4831.77 202.747  61
  -1   6  -2 7018.21 230.586  41
   1  -6   2 7056.61 250.212 100
   1  -6   2 7117.47 251.904 102
   1  -6   2 6333.60 225.898  49
  -1   6  -2 7527.19 260.607  98
  -1   6  -2 7405.43 260.416 104
   1  -6   2 7129.48 250.552  76
  -1   6  -2 7036.68 241.698  61
  -1   6  -2 7704.75 264.189 103
  -1   6  -2 7208.54 222.652  73
   1  -6   2 7184.44 260.403  19
   1  -6   2 6238.00 224.776  74
  -1   6  -2 7508.60 261.471 105
   1  -6   2 5975.61 234.270  18
   1  -6   2 7169.96 247.793  33
  -1   6  -2 7232.15 240.579  77
   1  -6   2 7053.83 253.422  81
  -1   6  -2 7223.60 213.619  69
   1  -6   2 7211.03 251.559 107
   1  -6   2 7296.93 255.811 101
   1  -6   2 7461.09 226.642  47
  -1   6  -2 7565.19 247.708  79
  -1   6  -2 7566.44 258.414  97
  -1   6  -2 7530.72 249.704  75
   1  -6   2 7168.85 254.885  42
  -1   6  -2 7366.79 244.970  55
   1  -6   3 20576.6 396.208  76
  -1   6  -3 20330.6 396.716 103
   1  -6   3 20493.1 393.623 102
   1  -6   3 20478.1 391.869 107
  -1   6  -3 20114.3 386.103  61
  -1   6  -3 20415.9 392.184  97
  -1   6  -3 20135.4 394.864 105
   1  -6   3 20466.1 402.448  81
   1  -6   3 20789.3 398.028 101
  -1   6  -3 20154.0 386.033  87
  -1   6  -3 20167.2 395.485 104
  -1   6  -3 19963.1 379.768  77
  -1   6  -3 20486.3 376.780  41
  -1   6  -3 20293.2 376.551  79
   1  -6   3 19888.3 392.216  42
  -1   6  -3 19962.5 337.051  69
   1  -6   3 20248.3 384.113  74
  -1   6  -3 19922.7 379.940  55
  -1   6  -3 20384.1 379.436  75
   1  -6   3 18450.0 397.427  18
   1  -6   3 19714.0 379.271  49
   1  -6   3 20107.3 389.952 100
  -1   6  -3 19910.8 391.436  98
  -1   6  -4 768.374 68.8962  55
   1  -6   4 701.114 63.8272 102
  -1   6  -4 699.087 64.5110 106
  -1   6  -4 719.387 62.8598  79
  -1   6  -4 727.282 64.4440  75
   1  -6   4 786.333 67.1820 100
   1  -6   4 750.700 65.0193  20
   1  -6   4 828.039 68.9581 101
  -1   6  -4 807.625 67.7967 105
  -1   6  -4 706.555 67.7859  87
   1  -6   4 773.268 69.7995  74
   1  -6   4 790.992 67.4436 107
  -1   6  -4 760.673 68.7523  61
  -1   6  -4 733.402 64.3510  97
   1  -6   4 727.859 72.3778  30
   1  -6   4 751.611 67.7354  42
  -1   6  -4 735.552 64.9602 103
  -1   6  -4 788.381 67.4664 104
   1  -6   4 684.350 66.1476  76
   1  -6   4 707.682 63.6465  99
  -1   6  -4 776.015 69.7624  77
   1  -6   4 775.146 69.9655  81
  -1   6  -4 722.745 66.7282  41
  -1   6  -4 734.409 64.7961  98
   1  -6   4 729.739 69.2320  49
  -1   6  -5 3332.30 110.564  55
   1  -6   5 3234.38 122.175  30
  -1   6  -5 3152.37 102.482  61
   1  -6   5 3249.04 112.669  49
   1  -6   5 3097.83 113.442  54
   1  -6   5 3163.33 109.507  74
  -1   6  -5 3146.46 109.869  77
  -1   6  -5 3088.31 95.0143  75
  -1   6  -5 3084.30 110.160  87
  -1   6  -5 3300.42 111.651  41
  -1   5  11 217.742 29.8930  26
  -1   5  11 208.285 29.3231  51
  -1   5  10 1458.53 92.7925  51
  -1   5  10 1356.42 84.6068  17
  -1   5  10 1414.72 90.2130  11
  -1   5  10 1434.21 92.3372  26
  -1   5   9 7556.27 219.747  29
  -1   5   9 7554.32 218.815  82
  -1   5   9 7135.57 238.287  54
  -1   5   9 7183.74 225.754  17
  -1   5   9 7775.00 238.745  51
  -1   5   9 7337.46 215.147  71
  -1   5   9 7742.70 240.283  26
  -1   5   8 6719.25 232.374  51
  -1   5   8 6323.50 238.074  54
  -1   5   8 6444.87 215.188  82
  -1   5   8 6471.01 228.910  26
  -1   5   8 6271.35 220.307  71
  -1   5   8 6533.43 218.122  29
  -1   5   7 23398.6 427.102  51
  -1   5   7 22881.7 435.269  73
  -1   5   7 22602.3 424.345  71
  -1   5   7 23128.5 427.418  26
  -1   5   7 24207.0 450.541  25
  -1   5   7 23138.1 448.443   9
  -1   5   7 22723.2 451.164  54
  -1   5   6 13707.4 314.154  26
  -1   5   6 12760.4 567.297  67
  -1   5   6 13705.7 327.790  25
  -1   5   6 13911.5 314.572  51
  -1   5   6 14009.8 342.023  58
  -1   5   6 13304.7 306.000  80
  -1   5   6 13904.8 329.640  60
  -1   5   6 13328.5 337.431  54
  -1   5   6 13764.1 334.620  73
  -1   5   6 13766.1 339.835   9
  -1   5   6 13633.4 328.392  71
   1  -5  -6 13854.3 602.504  35
  -1   5   5 4585.63 188.824  73
  -1   5   5 4681.98 193.397   9
  -1   5   5 4960.96 185.678  25
  -1   5   5 4851.34 196.087  58
  -1   5   5 4236.74 312.723  67
   1  -5  -5 5443.14 323.637  39
  -1   5   5 4675.60 185.600  71
   1  -5  -5 4058.26 275.022   1
   1  -5  -5 4727.57 336.247  35
  -1   5   5 4133.21 283.070   5
  -1   5   5 4517.69 292.978   3
  -1   5   5 4687.25 181.395  43
  -1   5   5 4576.32 182.374  80
  -1   5   5 4769.82 193.199  60
  -1   5   4 593.891 111.280   3
   1  -5  -4 748.004 115.772  39
   1  -5  -4 950.273 142.362   1
   1  -5  -4 790.794 130.365  35
  -1   5   4 798.066 115.899   5
  -1   5   4 850.297 124.473  36
  -1   5   4 693.382 122.451  67
   1  -5  -3 6524.55 321.386  95
  -1   5   3 6926.67 360.115   3
   1  -5  -3 7118.21 368.482  35
  -1   5   3 6258.59 352.439  67
   1  -5  -3 7150.19 365.091  39
   1  -5  -3 6337.18 314.542  96
   1  -5  -3 6327.78 314.990  93
  -1   5   3 6775.53 321.858   5
   1  -5  -3 6117.36 313.430  90
  -1   5   3 7024.68 367.085  36
   1  -5  -3 6872.34 325.063  62
   1  -5  -3 6713.22 326.776  92
  -1   5   3 6560.24 327.050  94
   1  -5  -3 6478.85 320.731  91
   1  -5  -3 6516.29 351.879   1
   1  -5  -2 11.7691 24.6790  93
   1  -5  -2 74.7390 54.1419  95
  -1   5   2 56.6001 32.7464  94
   1  -5  -2 170.471 78.3961   1
   1  -5  -2 125.265 50.4640  92
   1  -5  -2 54.2960 40.8947  62
   1  -5  -2-6.07625 15.7668  90
   1  -5  -2 118.595 51.2148  96
   1  -5  -2 97.5938 43.0806  39
  -1   5   2 151.027 55.2508   3
   1  -5  -2 75.5206 48.9249  35
  -1   5   2 176.144 63.7104  67
  -1   5   2-37.9373 29.7747  36
   1  -5  -2 94.3815 45.9823  91
   1  -5  -1 1267.00 159.923  90
   1  -5  -1 1365.80 167.585  93
   1  -5  -1 1601.59 176.625  62
  -1   5   1 1716.96 177.925   3
  -1   5   1 1420.35 173.379  94
  -1   5   1 1521.44 177.465  36
   1  -5  -1 1561.86 175.207  92
   1  -5  -1 1605.07 179.187   1
  -1   5   1 1681.87 181.756  37
   1  -5  -1 1492.59 172.423  91
   1  -5  -1 1350.25 164.500  96
   1  -5  -1 1451.52 174.540  39
  -1   5   1 1294.45 163.813  67
   1  -5  -1 1319.76 165.229  95
   1  -5   0 7781.59 249.130 101
  -1   5   0 7706.57 236.584  55
  -1   5   0 7825.41 238.328  75
  -1   5   0 7844.82 253.361 105
  -1   5   0 7735.31 251.279 103
  -1   5   0 6983.59 378.509  67
   1  -5   0 7718.55 237.572  33
   1  -5   0 7942.37 247.948 107
   1  -5   0 6693.82 386.830  93
   1  -5   0 7023.84 395.683  95
  -1   5   0 6790.28 400.073  94
   1  -5   0 7834.19 248.486 100
  -1   5   0 7941.22 255.292 104
   1  -5   0 7053.39 396.036  91
  -1   5   0 7563.51 400.829  37
   1  -5   0 7931.43 243.317  76
   1  -5   0 8142.15 427.349  39
  -1   5   0 7587.87 245.936  98
  -1   5   0 7824.42 248.716  97
   1  -5   0 7951.76 389.112   1
   1  -5   0 7922.80 248.850  81
   1  -5   0 7124.11 400.351  92
  -1   5   0 7706.84 235.320  61
   1  -5   0 8222.13 257.827  42
   1  -5   0 7055.89 395.415  96
   1  -5   0 8001.12 255.236  19
   1  -5   0 7891.40 249.527 102
   1  -5   0 7080.14 398.994  90
  -1   5   0 7601.18 236.085  79
   1  -5   1 11860.6 317.220  81
   1  -5   1 11141.2 289.375  49
   1  -5   1 12430.0 329.461  19
   1  -5   1 12189.1 320.860 101
  -1   5  -1 11419.6 287.670  60
  -1   5  -1 12081.2 324.759 104
   1  -5   1 11431.2 306.910  76
  -1   5  -1 12098.1 320.120  98
  -1   5  -1 10710.7 526.302  94
  -1   5  -1 11859.7 294.383  41
  -1   5  -1 11936.0 317.910  97
   1  -5   1 10693.8 511.244  92
   1  -5   1 11068.4 521.546  91
  -1   5  -1 11647.9 272.586  69
  -1   5  -1 12069.1 301.101  77
   1  -5   1 10674.6 510.431  93
  -1   5  -1 12171.2 308.311  75
   1  -5   1 12160.8 320.673 102
   1  -5   1 12161.9 318.693 100
   1  -5   1 11227.6 523.859  95
   1  -5   1 11979.8 539.870  39
   1  -5   1 11648.3 313.169  18
  -1   5  -1 11939.0 289.002  73
  -1   5  -1 11910.8 322.118 103
   1  -5   1 11043.9 517.437  96
  -1   5  -1 11933.5 322.252 105
   1  -5   1 10951.1 521.170  90
  -1   5  -1 12013.6 303.890  55
   1  -5   1 11629.4 297.632  47
   1  -5   1 11617.9 296.234  74
  -1   5  -1 11913.3 304.446  61
   1  -5   1 12058.5 316.952 107
   1  -5   1 12622.8 480.688   1
  -1   5  -1 11773.1 304.164  79
  -1   5  -1 11964.0 535.691  37
   1  -5   1 11516.1 301.922  33
   1  -5   1 12661.0 329.303  42
  -1   5  -2 14077.2 353.091  97
  -1   5  -2 14627.6 345.086  55
   1  -5   2 17095.5 677.436  39
   1  -5   2 13958.0 326.078  47
  -1   5  -2 14812.3 345.566  77
  -1   5  -2 14099.2 315.864  73
  -1   5  -2 15443.6 635.535  37
  -1   5  -2 14175.4 358.954 103
   1  -5   2 14156.6 354.049  88
  -1   5  -2 14685.7 347.691  61
  -1   5  -2 14143.9 623.233  94
   1  -5   2 13630.0 598.552  96
  -1   5  -2 14473.4 363.028 105
   1  -5   2 13875.3 346.400  22
   1  -5   2 13125.5 588.300  91
  -1   5  -2 13923.4 352.350  98
  -1   5  -2 14218.9 336.729  41
   1  -5   2 14544.9 358.373 101
   1  -5   2 13927.8 340.179  74
   1  -5   2 14632.8 368.027  19
   1  -5   2 14329.2 351.010  76
   1  -5   2 14525.1 364.492  81
   1  -5   2 13844.7 343.874  33
   1  -5   2 14053.3 607.921  92
  -1   5  -2 14080.5 357.174 104
   1  -5   2 13677.9 600.254  93
   1  -5   2 13711.7 599.449  95
  -1   5  -2 14262.9 342.590  75
  -1   5  -2 14289.2 318.885  69
   1  -5   2 13756.5 602.606  90
   1  -5   2 14250.6 343.447  49
  -1   5  -2 14080.6 339.407  79
   1  -5   2 14879.2 363.064 102
   1  -5   2 14267.5 353.194 107
   1  -5   2 14500.6 371.284  18
   1  -5   2 14413.2 354.982 100
   1  -5   2 14560.2 362.235  42
  -1   5  -3 655.500 76.2603  69
  -1   5  -3 588.282 76.0861 103
   1  -5   3 677.399 80.7176  76
  -1   5  -3 511.193 69.8436 105
   1  -5   3 577.691 77.3268  88
   1  -5   3 532.360 70.4249 101
  -1   5  -3 555.880 72.1311  97
   1  -5   3 531.777 73.1005  22
  -1   5  -3 522.463 70.9760 104
   1  -5   3 594.596 75.4199  19
   1  -5   3 524.281 70.8795  49
  -1   5  -3 577.531 73.9312  79
  -1   5  -3 586.499 75.3691  41
   1  -5   3 583.060 78.9713  18
   1  -5   3 593.550 77.4565  81
   1  -5   3 571.658 74.0477  74
  -1   5  -3 545.342 72.7036  75
   1  -5   3 562.727 73.1450 100
  -1   5  -3 484.583 69.8901  55
  -1   5  -3 665.646 77.9589  77
   1  -5   3 494.112 71.7583  42
   1  -5   3 522.987 71.4637 102
   1  -5   3 494.415 67.2201  33
  -1   5  -3 609.689 78.0209  61
  -1   5  -3 639.609 79.5151  98
   1  -5   3 574.015 72.7490 107
  -1   5  -4 15027.4 325.336  79
  -1   5  -4 14584.0 338.782  77
  -1   5  -4 14718.4 339.030  55
   1  -5   4 14367.5 345.234  74
   1  -5   4 15301.9 343.693 102
  -1   5  -4 14891.1 344.333 104
  -1   5  -4 14800.7 341.378  98
   1  -5   4 15068.1 341.543 101
  -1   5  -4 15080.5 333.309  75
   1  -5   4 13927.6 363.422  88
   1  -5   4 14640.7 341.782  76
  -1   5  -4 14648.6 334.262  61
  -1   5  -4 14315.1 319.904  69
   1  -5   4 15031.4 339.126 100
   1  -5   4 14714.6 350.581  42
   1  -5   4 14731.6 351.602  81
  -1   5  -4 15143.0 348.883 103
   1  -5   4 15243.6 340.667 107
  -1   5  -4 14736.3 342.321  41
   1  -5   4 14387.2 347.343  49
   1  -5   4 13839.2 368.136  18
  -1   5  -4 15309.5 344.182  97
   1  -5   4 14808.0 366.355  22
  -1   5  -4 15045.4 346.292 105
  -1   5  -5 3046.27 144.474  41
  -1   5  -5 2999.83 131.956  75
   1  -5   5 3046.14 146.904  49
  -1   5  -5 3109.30 136.668  61
  -1   5  -5 3078.80 140.734  55
  -1   5  -5 2873.53 140.098  87
  -1   5  -5 3229.42 145.026  77
   1  -5   5 2980.74 139.489  42
   1  -5   5 2968.51 153.562  30
   1  -5   5 3362.88 154.153  74
   1  -5   5 2906.30 143.525  32
  -1   5  -5 3110.53 138.004  69
   1  -5   5 3064.10 142.907  81
   1  -5   5 3039.57 139.810  76
  -1   5  -6 4567.65 141.987  87
  -1   5  -6 4566.80 145.347  41
   1  -5   6 4585.18 150.611  54
  -1   5  -6 4426.78 136.008  69
  -1   5  -6 4483.64 136.431  77
   1  -5   6 4665.24 151.439  49
   1  -5   6 4692.73 157.264  30
  -1   5  -6 4541.01 135.522  55
   1  -5   6 4505.93 147.119  74
  -1   5  -6 4378.38 118.785  61
  -1   4  11 783.252 55.9608  11
  -1   4  11 786.827 56.0775  82
  -1   4  11 853.010 58.6170  29
  -1   4  10 11197.8 267.594  29
  -1   4  10 11146.1 264.670  82
  -1   4  10 11383.7 263.513  51
  -1   4  10 10595.6 263.637  54
  -1   4  10 10842.1 257.555  11
  -1   4  10 11345.2 265.467  26
  -1   4   9 93.5211 32.7067  17
  -1   4   9 157.578 42.2453  26
  -1   4   9 85.2221 36.1696  11
  -1   4   9 111.529 38.9280  54
  -1   4   9 112.956 34.5338  57
  -1   4   9 101.339 36.0470  12
  -1   4   9 100.571 36.4486  82
  -1   4   9 111.608 34.4381  29
  -1   4   9 118.431 36.9953  51
  -1   4   8 13295.8 334.347  29
  -1   4   8 13149.4 308.631  71
  -1   4   8 13557.8 314.854  57
  -1   4   8 13872.1 339.679  12
  -1   4   8 14059.8 347.724  54
  -1   4   8 13800.2 338.087  26
  -1   4   8 13679.5 334.807  51
  -1   4   8 13421.3 336.006  82
  -1   4   7 62.3013 30.6179  29
  -1   4   7 40.4686 34.7218  54
   1  -4  -7-150.946 66.2649  35
  -1   4   7-81.3210 34.9809  82
  -1   4   7 48.1193 31.4387  25
  -1   4   7 98.4091 40.6784  57
  -1   4   7 28.0623 22.3476  51
  -1   4   7-119.162 64.9933  67
  -1   4   7 25.0945 28.6084  71
  -1   4   7-8.34024 28.1698  12
  -1   4   7 49.9305 30.9973   9
  -1   4   7 61.6883 32.1532  26
  -1   4   6 9622.67 262.705  25
  -1   4   6 9232.04 253.001  71
  -1   4   6 9070.69 260.563   9
  -1   4   6 9697.63 268.505  54
  -1   4   6 9801.36 264.987  12
   1  -4  -6 9413.40 410.997  39
  -1   4   6 9786.15 260.599  51
  -1   4   6 9317.59 255.848  26
  -1   4   5 1879.88 178.274   5
   1  -4  -5 2083.59 181.759  39
  -1   4   5 2227.89 180.697   3
   1  -4  -5 2036.40 173.421   1
  -1   4   5 2099.85 203.668  67
   1  -4  -4 1328.86 126.089  62
   1  -4  -4 1476.15 150.048  39
  -1   4   4 1445.81 146.471   3
  -1   4   4 1457.90 137.625  36
  -1   4   4 1449.05 158.768  67
  -1   4   4 1201.51 132.568   5
  -1   4   3 15301.1 419.263  94
   1  -4  -3 14753.9 406.102  91
   1  -4  -3 15171.2 466.905  39
   1  -4  -3 15103.5 378.459  66
   1  -4  -3 14713.1 405.659  93
  -1   4   3 15027.0 425.612   5
   1  -4  -3 15048.2 410.741  90
   1  -4  -3 15537.5 431.517  62
   1  -4  -3 14814.9 407.227  96
   1  -4  -3 15534.5 398.497  64
   1  -4  -3 14384.5 400.929  92
  -1   4   3 14500.7 470.043  67
   1  -4  -3 14862.1 405.742  95
  -1   4   3 15420.1 465.286   3
  -1   4   3 16264.5 474.640  36
   1  -4  -2 31102.1 555.554  66
   1  -4  -2 30692.3 628.547  93
   1  -4  -2 30668.4 625.995  92
   1  -4  -2 30618.0 674.614  39
   1  -4  -2 30944.5 633.779  91
  -1   4   2 32762.8 688.770  36
   1  -4  -2 31056.2 632.151  90
  -1   4   2 29969.3 657.670  67
  -1   4   2 30932.8 629.083  37
   1  -4  -2 32154.5 613.457  64
   1  -4  -2 32439.6 641.832  62
  -1   4   2 30265.2 638.355  94
   1  -4  -2 29638.3 617.392  96
  -1   4   2 32460.3 670.646   3
   1  -4  -2 31361.3 631.402  95
   1  -4  -1 6690.41 307.973  62
   1  -4  -1 5982.45 294.409  95
   1  -4  -1 6818.96 281.097  35
   1  -4  -1 6387.38 303.426  96
   1  -4  -1 6480.81 308.761  92
   1  -4  -1 6098.36 297.971  91
   1  -4  -1 6638.74 323.939  39
  -1   4   1 6789.40 307.752   3
  -1   4   1 6255.44 309.213  94
  -1   4   1 6818.87 308.136  37
   1  -4  -1 6456.71 306.248  93
  -1   4   1 5815.02 291.121  67
   1  -4  -1 7119.88 278.332  66
   1  -4  -1 6118.11 303.168  90
   1  -4   0 138.664 51.2262  39
   1  -4   0 10.2729 24.9048  66
  -1   4   0-42.7070 30.0809  37
  -1   4   0-8.04047 23.7352  94
  -1   4   0 39.5560 24.0088   3
   1  -4   0 28.8311 22.8175  93
   1  -4   0 63.6629 32.2540  96
   1  -4   0 71.1748 33.9046  92
   1  -4   0 42.0705 26.7327  95
   1  -4   0-35.4659 23.6901  91
   1  -4   0 55.0173 36.8975  90
   1  -4   0-45.1594 43.6970  62
  -1   4   0-10.2666 15.2982  38
   1  -4   1 115462. 1477.12  91
  -1   4  -1 122798. 1515.73  65
  -1   4  -1 122119. 1492.73  37
  -1   4  -1 131128. 1288.92  38
   1  -4   1 113814. 1463.43  92
   1  -4   1 115109. 1467.43  96
   1  -4   1 116244. 1476.06  95
   1  -4   1 115321. 1480.69  90
   1  -4   1 126380. 1559.10  39
   1  -4   1 116918. 1481.25  93
   1  -4   1 126852. 1344.81   1
  -1   4  -1 114965. 1502.36  94
   1  -4   2 6054.90 357.096  93
   1  -4   2 6077.62 357.698  95
  -1   4  -2 6383.56 326.827  38
   1  -4   2 6853.02 389.436  39
   1  -4   2 5391.27 336.185  96
   1  -4   2 5718.76 348.337  92
   1  -4   2 6094.33 331.470   2
  -1   4  -2 6210.08 363.502  37
   1  -4   2 5469.92 341.972  90
   1  -4   2 5745.88 350.758  91
  -1   4  -2 6358.53 363.218  65
  -1   4  -2 5821.06 358.906  94
   1  -4   3 17.6354 23.5138  76
  -1   4  -3 10.9486 28.9279  79
   1  -4   3 291.629 77.6331   2
   1  -4   3 136.052 55.9358  96
   1  -4   3-11.0773 30.1338  92
  -1   4  -3-6.50649 56.8077  38
   1  -4   3-29.8992 23.3746 101
  -1   4  -3 21.6012 27.4329  61
   1  -4   3-1.88773 26.1460  33
   1  -4   3 2.21860 21.9065  42
   1  -4   3 55.9694 33.2093  22
  -1   4  -3 1.89801 22.1385  97
   1  -4   3-1.01819 29.2529  74
   1  -4   3 187.120 40.4306 107
   1  -4   3 40.3789 39.1926  89
  -1   4  -3-4.40289 29.8604  55
   1  -4   3 94.9078 34.0470  18
  -1   4  -3 27.4790 29.4077 105
   1  -4   3-12.5304 23.0801  81
  -1   4  -3-8.44164 32.1523 104
   1  -4   3 13.7424 40.0339  91
  -1   4  -3 15.0152 33.7156  75
   1  -4   3 120.484 55.3804  93
  -1   4  -3 50.2584 32.0084  77
   1  -4   3 15.7732 28.2770  49
  -1   4  -3 19.0158 23.1880 103
  -1   4  -3 55.3591 47.8998  37
  -1   4  -3 207.881 78.3060  65
   1  -4   3-80.7206 28.6716 100
   1  -4   3 54.1844 38.1911  95
   1  -4   3 18.3420 26.9440  88
   1  -4   3 61.3387 26.6303  19
   1  -4   3 100.432 55.6122  90
  -1   4  -3 96.6379 73.2921  94
  -1   4  -3 29.7595 29.7006  98
   1  -4   3 29.2424 23.0611 102
   1  -4   4 14196.0 354.442  42
   1  -4   4 14488.7 330.755  48
   1  -4   4 13327.4 329.495 100
  -1   4  -4 15446.4 599.534  38
   1  -4   4 12853.8 562.073  93
   1  -4   4 13626.5 333.405 101
   1  -4   4 12999.2 563.585  90
  -1   4  -4 13853.7 331.973  97
  -1   4  -4 13957.7 327.651  75
   1  -4   4 13733.5 350.294  49
   1  -4   4 13359.7 366.390  22
  -1   4  -4 13759.4 332.508  98
   1  -4   4 13818.0 335.767 102
   1  -4   4 14102.7 333.706 107
   1  -4   4 13700.4 374.800  18
   1  -4   4 13492.0 337.667  76
  -1   4  -4 13785.0 335.467  55
  -1   4  -4 13684.4 339.115 104
   1  -4   4 14478.4 569.474   2
   1  -4   4 12946.2 560.979  95
   1  -4   4 14298.1 345.747  19
   1  -4   4 13499.9 346.536  81
   1  -4   4 13646.9 571.506  91
  -1   4  -4 13685.3 336.624 105
   1  -4   4 13508.9 375.486  88
  -1   4  -4 14207.6 321.115  79
   1  -4   4 13286.8 573.765  92
  -1   4  -4 14148.6 338.439  77
  -1   4  -4 13547.9 334.796 103
   1  -4   4 13589.4 349.402  74
  -1   4  -4 13950.2 332.498  61
   1  -4   5 91.6717 31.4638  81
  -1   4  -5 36.0855 34.7454  77
   1  -4   5 75.2662 33.5905  76
   1  -4   5 66.3882 33.8453  88
   1  -4   5 98.0234 40.2716  49
  -1   4  -5 44.8446 35.2890  55
   1  -4   5 62.7569 30.0222  48
   1  -4   5 72.1717 35.9049  18
   1  -4   5 68.4112 35.0082  74
  -1   4  -5 75.3772 32.3546  61
   1  -4   5 65.2756 31.8682  42
   1  -4   6 93.5106 30.1814  32
  -1   4  -6 123.086 35.9255  77
   1  -4   6 144.952 40.6773  30
   1  -4   6 76.8676 32.9838  54
   1  -4   6 58.8722 29.7723  74
  -1   4  -6 125.185 40.4543  41
  -1   4  -6 95.1850 33.0248  55
   1  -4   6 137.786 32.6878  76
   1  -4   6 134.480 39.9443  49
   1  -4   6 99.6795 30.3168  42
  -1   4  -6 69.4413 25.2985  75
  -1   4  -6 136.404 32.4809  61
   1  -4   6 97.9002 36.4462  22
   1  -4   6 134.165 35.4073  81
  -1   4  -6 73.7302 31.7378  87
   1  -4   7 81.5431 27.2482  74
  -1   4  -7 102.787 29.6284  41
  -1   4  -7 84.3614 23.7152  87
  -1   4  -7 106.782 26.1189  55
   1  -4   7 70.2593 26.4786  85
  -1   4  -7 76.1669 28.9471  69
   1  -4   7 76.4403 23.0924  30
  -1   4  -7 93.5312 22.7625  77
   1  -4   7 136.674 29.5073  54
  -1   3  11 411.856 45.3344  82
  -1   3  11 480.476 49.5249  29
  -1   3  10 22248.2 375.547  11
  -1   3  10 21628.3 363.004  12
  -1   3  10 21901.9 373.111  59
  -1   3  10 22793.7 359.288  51
  -1   3  10 22443.9 398.437  29
  -1   3  10 22813.2 364.075  26
  -1   3  10 22216.7 393.325  82
  -1   3  10 22332.3 362.794  57
  -1   3  10 21735.6 389.599  31
  -1   3  10 21249.7 376.330  54
  -1   3   9 15100.0 339.095  26
  -1   3   9 14965.7 343.065  59
  -1   3   9 15353.0 341.974  57
  -1   3   9 14658.6 331.088  51
  -1   3   9 14741.9 349.144  54
  -1   3   9 14949.5 338.541  12
  -1   3   9 14993.0 359.608  29
  -1   3   9 14939.9 356.249  31
  -1   3   9 15124.0 361.374  82
  -1   3   9 15186.1 331.073  13
  -1   3   9 14648.7 306.207  17
  -1   3   9 14846.6 342.378  11
  -1   3   8 22028.4 420.595  12
  -1   3   8 22531.7 427.138  26
  -1   3   8 20878.8 412.898  11
  -1   3   8 22200.5 433.729  54
  -1   3   8 22796.7 443.792  31
  -1   3   8 22119.3 421.801  57
  -1   3   8 22932.5 427.367  51
  -1   3   8 22951.0 427.691  59
  -1   3   8 22021.4 445.049  82
  -1   3   8 21947.7 443.237  29
  -1   3   8 22767.6 416.731  13
  -1   3   7 22281.3 701.492   2
  -1   3   7 20978.2 394.012  25
   1  -3  -7 21456.4 675.408  35
  -1   3   7 18525.6 668.515  68
  -1   3   7 20566.8 405.958  29
  -1   3   7 18297.1 646.836  67
  -1   3   7 21466.9 397.484  12
  -1   3   7 21271.9 404.496  31
  -1   3   7 20268.8 404.833  82
   1  -3  -7 22479.1 652.838  39
  -1   3   7 20686.4 397.282  54
  -1   3   7 21466.6 403.860  26
  -1   3   7 21029.7 394.487  51
  -1   3   7 21601.7 391.971  59
  -1   3   7 20125.6 359.701  71
  -1   3   7 20524.2 381.527  13
  -1   3   7 19907.9 382.085  57
   1  -3  -6 1491.71 156.039  39
   1  -3  -6 1826.44 165.946  66
  -1   3   6 1344.10 167.658  67
  -1   3   6 1328.70 157.455   2
  -1   3   6 1293.49 161.487  68
  -1   3   5 5011.55 226.755   3
   1  -3  -5 5105.36 267.043  39
  -1   3   5 4664.67 278.497  67
   1  -3  -5 5102.36 231.551  62
   1  -3  -5 5167.71 250.866  66
   1  -3  -5 4871.58 220.160   1
  -1   3   5 5153.16 285.423  68
  -1   3   4 687.482 85.1072   3
  -1   3   4 732.298 104.836  67
   1  -3  -4 724.660 82.8711  62
   1  -3  -4 705.017 85.5890  66
   1  -3  -4 646.352 87.2685  39
  -1   3   4 693.606 93.4158   5
  -1   3   4 614.808 77.1803  36
   1  -3  -3 19699.3 372.559  91
   1  -3  -3 19595.8 370.651  95
   1  -3  -3 19513.2 369.372  92
   1  -3  -3 19699.0 425.905  62
   1  -3  -3 19046.7 374.806  90
  -1   3   3 19680.9 443.172   3
   1  -3  -3 19503.4 405.248  66
  -1   3   3 18829.2 430.009   5
  -1   3   3 20531.5 387.944  94
   1  -3  -3 20263.1 382.135  64
   1  -3  -3 19927.8 373.068  96
   1  -3  -3 20109.8 374.596  93
   1  -3  -3 19618.9 467.700  39
  -1   3   3 18581.3 462.011  67
  -1   3   3 19790.6 428.801  36
   1  -3  -2 25939.3 474.673  96
   1  -3  -2 25371.6 451.044  66
   1  -3  -2 26840.7 479.873  92
  -1   3   2 26668.1 508.009  36
   1  -3  -2 26484.5 476.938  95
   1  -3  -2 26694.0 479.452  93
   1  -3  -2 26488.0 528.739  39
   1  -3  -2 25845.4 475.118  90
   1  -3  -2 26417.7 478.024  91
   1  -3  -2 26385.3 466.392  64
  -1   3   2 26332.3 486.788  94
  -1   3   2 26647.6 520.185  67
  -1   3   2 25699.3 466.731  37
  -1   3   2 26923.4 519.417   3
   1  -3  -2 26875.2 498.765  62
   1  -3  -1 4122.38 204.105  95
   1  -3  -1 3949.67 199.910  92
   1  -3  -1 3868.79 182.503  66
   1  -3  -1 4118.83 202.899  64
   1  -3  -1 4070.49 202.662  96
  -1   3   1 3911.90 208.401  65
   1  -3  -1 4053.61 202.854  91
  -1   3   1 4172.05 203.760   3
   1  -3  -1 3837.16 199.946  90
   1  -3  -1 3920.48 210.189  39
   1  -3  -1 3827.20 198.637  62
  -1   3   1 4235.62 200.646  37
  -1   3   1 4011.72 206.064  94
   1  -3  -1 3825.32 195.704  93
  -1   3   1 4149.47 205.114  67
  -1   3   1 4365.87 146.503  38
   1  -3   0 155.249 46.0595  62
   1  -3   0 182.500 47.9609  92
  -1   3   0 145.356 45.0945  94
   1  -3   0 166.042 49.4173  64
   1  -3   0 140.871 39.5386  66
   1  -3   0 160.469 45.9222  93
   1  -3   0 291.615 51.2242  35
   1  -3   0 136.501 49.1400  39
  -1   3   0 221.912 51.8876   3
   1  -3   0 148.209 47.9626  95
   1  -3   0 171.809 43.3928  91
   1  -3   0 166.398 49.6621  96
  -1   3   0 149.024 33.8719  38
   1  -3   0 190.033 52.1315  90
  -1   3   0 156.751 44.2606  37
   1  -3   1 9498.39 356.473  92
   1  -3   1 9867.98 345.128  66
  -1   3  -1 9740.12 358.839  37
   1  -3   1 9517.93 358.096  95
   1  -3   1 9598.48 357.122  93
  -1   3  -1 9440.49 362.872  94
   1  -3   1 9944.63 280.931  68
   1  -3   1 9265.22 354.949  90
   1  -3   1 9422.06 353.928  96
   1  -3   1 9667.07 373.231  39
  -1   3  -1 10038.4 366.799  65
   1  -3   1 9466.10 356.264  91
  -1   3  -1 10040.3 321.153   3
   1  -3   1 9771.00 366.276  62
  -1   3  -1 9967.31 308.982  38
   1  -3   2 86379.2 1153.26  96
   1  -3   2 92871.6 1247.72  39
   1  -3   2 86825.8 1158.13  95
   1  -3   2 86260.8 1158.14  91
   1  -3   2 87915.7 946.976  68
  -1   3  -2 87872.4 1185.38  37
  -1   3  -2 92672.5 1088.72  38
  -1   3  -2 85855.5 1184.20  94
   1  -3   2 86427.3 1157.82  93
  -1   3  -2 92082.0 1188.58  65
   1  -3   2 90241.0 906.012   4
   1  -3   2 85648.3 1150.07  92
   1  -3   2 85628.1 1158.14  90
  -1   3  -3 4899.97 288.508  38
  -1   3  -3 4763.69 293.235  65
  -1   3  -3 4536.68 296.462  37
   1  -3   3 4543.74 284.479  96
  -1   3  -3 4238.56 283.712  94
   1  -3   3 4910.49 293.054   2
   1  -3   3 4994.65 316.051  39
   1  -3   3 4483.17 282.717  91
   1  -3   3 4452.03 281.345  93
   1  -3   3 4493.43 285.668  90
   1  -3   3 4539.51 284.959  92
   1  -3   3 4300.35 276.976  95
   1  -3   4 43051.8 556.279 102
   1  -3   4 39697.2 889.010  93
   1  -3   4 42882.8 581.836  81
   1  -3   4 42222.0 582.265  42
  -1   3  -4 45239.8 975.006  38
   1  -3   4 39389.9 886.954  91
   1  -3   4 41508.3 574.280  49
   1  -3   4 40316.8 576.637  89
   1  -3   4 42460.5 926.884   2
  -1   3  -4 42064.6 537.749  61
   1  -3   4 43008.0 632.385  88
   1  -3   4 39452.0 884.955  90
   1  -3   4 44191.8 632.335  22
   1  -3   4 43284.3 550.975 100
   1  -3   4 43530.1 553.971 107
   1  -3   4 40235.2 542.240  48
   1  -3   4 44501.7 630.890  18
   1  -3   4 44388.7 571.131  19
   1  -3   4 42145.9 583.100  74
   1  -3   4 41284.1 560.072  76
   1  -3   4 39614.6 887.298  96
   1  -3   4 43618.3 556.158 101
  -1   3  -4 43665.4 936.189  65
  -1   3  -4 42536.7 532.924  75
   1  -3   4 39899.6 888.510  95
  -1   3  -4 43769.3 1001.64  37
   1  -3   4 39684.5 888.013  92
  -1   3  -5 5084.06 188.706  75
   1  -3   5 4470.73 191.955  48
   1  -3   5 4662.50 204.320  74
  -1   3  -5 5778.24 383.022  38
   1  -3   5 4602.70 325.767   2
   1  -3   5 4638.72 217.561  22
  -1   3  -5 4843.01 194.067  77
  -1   3  -5 4816.53 187.148  61
   1  -3   5 5005.62 207.556  42
   1  -3   5 4654.16 216.103  18
   1  -3   5 4782.71 196.672  76
  -1   3  -5 6104.15 400.128  37
  -1   3  -5 4804.97 195.488  55
   1  -3   5 4764.25 201.719  81
   1  -3   5 4534.73 219.827  88
   1  -3   5 4688.66 206.051  49
  -1   3  -6 54892.6 627.943  77
   1  -3   6 53513.0 657.521  81
   1  -3   6 54057.1 659.897  24
   1  -3   6 52976.5 693.531  74
   1  -3   6 53643.3 663.348  42
   1  -3   6 55012.3 709.474  30
   1  -3   6 53387.6 739.067  22
  -1   3  -6 53483.4 629.424  55
   1  -3   6 50314.0 727.393  88
   1  -3   6 51873.1 686.585  54
   1  -3   6 54003.5 693.377  49
   1  -3   6 54021.6 676.121  32
   1  -3   6 51260.8 707.891  18
   1  -3   6 54718.4 639.917  76
  -1   3  -7 126.370 32.4113  87
   1  -3   7 160.572 38.4882  30
  -1   3  -7 199.628 38.0308  77
   1  -3   7 154.570 41.2673  74
   1  -3   7 173.990 38.5620  42
  -1   3  -7 154.028 37.0448  55
   1  -3   7 184.591 46.8924  22
   1  -3   7 200.142 46.2473  49
  -1   3  -7 149.627 41.9872  41
   1  -3   8 874.300 68.6933  13
   1  -3   8 890.388 68.2630  54
  -1   3  -8 794.622 59.8486  41
   1  -3   8 893.989 68.6287  74
  -1   3  -8 806.006 64.0448  69
  -1   2  11 9997.76 212.277  31
  -1   2  11 10080.0 203.423  59
  -1   2  10 1486.37 107.942  31
  -1   2  10 1400.00 95.9353  54
  -1   2  10 1611.59 103.018  57
  -1   2  10 1516.90 104.993  82
  -1   2  10 1533.29 101.125  11
  -1   2  10 1538.06 105.719  29
  -1   2  10 1532.94 105.300  59
  -1   2   9 15877.1 355.803  57
  -1   2   9 16163.2 377.080  29
  -1   2   9 15612.0 367.823  59
  -1   2   9 15949.5 356.134  11
  -1   2   9 15920.9 387.257  31
  -1   2   9 15984.3 350.905  13
  -1   2   9 15663.8 370.415  82
  -1   2   9 15665.5 359.099  54
  -1   2   9 16532.8 335.743  26
  -1   2   9 16556.5 332.670  51
  -1   2   9 16359.8 344.111  12
  -1   2   8 135.803 42.7375  82
  -1   2   8 87.2770 33.7009  29
  -1   2   8 95.2927 39.2546  31
  -1   2   8 212.534 44.5517  13
  -1   2   8 154.031 38.8050  26
  -1   2   8 122.310 38.6943  57
  -1   2   8 90.9010 32.3566  59
  -1   2   8 69.8020 34.8903  11
  -1   2   8 301.772 98.1309  68
  -1   2   8 122.466 29.1364  17
  -1   2   8 125.744 35.2985  51
  -1   2   8 97.6864 38.8445  54
  -1   2   8 123.894 37.7632  12
  -1   2   8-35.0756 40.2461   2
  -1   2   7 2871.97 144.510  26
  -1   2   7 2699.24 145.227  57
  -1   2   7 2723.62 143.559  54
  -1   2   7 2225.58 229.468  68
  -1   2   7 2778.59 141.591  13
  -1   2   7 2874.34 153.383  82
  -1   2   7 2627.59 141.479  11
  -1   2   7 2296.06 226.390  67
  -1   2   7 2870.39 154.422  29
   1  -2  -7 2726.81 241.284  66
   1  -2  -7 2861.78 242.151  39
  -1   2   7 2704.04 139.067  51
  -1   2   7 2703.68 237.275   2
  -1   2   7 2840.91 156.221  31
  -1   2   7 2844.69 150.696  59
   1  -2  -6 29981.7 705.838  66
  -1   2   6 27320.3 684.722   2
  -1   2   6 25804.8 702.639  68
   1  -2  -6 28594.7 631.334  38
  -1   2   6 25770.5 684.779  67
  -1   2   5 1393.57 137.013   2
  -1   2   5 1386.10 142.496  67
   1  -2  -5 1337.96 116.292  38
  -1   2   5 1279.79 136.724  68
   1  -2  -5 1430.43 138.012  66
   1  -2  -5 1435.51 127.127  62
  -1   2   4 15416.3 406.034   2
   1  -2  -4 15224.9 294.929  64
  -1   2   4 14635.3 325.428   3
  -1   2   4 14194.3 399.218  68
   1  -2  -4 14678.8 358.664  62
   1  -2  -4 14860.9 401.878  39
   1  -2  -4 15186.0 292.632  34
   1  -2  -4 15612.7 394.623  66
  -1   2   4 14899.1 412.291  67
  -1   2   4 14408.5 297.697  36
   1  -2  -3 58489.3 455.640  95
  -1   2   3 54868.9 700.426  67
  -1   2   3 54598.8 669.683   5
   1  -2  -3 58213.7 454.446  92
   1  -2  -3 56554.5 448.000  93
   1  -2  -3 58062.9 455.649  90
  -1   2   3 59188.3 459.246  40
   1  -2  -3 55093.2 552.977  64
  -1   2   3 59871.4 710.882   2
   1  -2  -3 58458.5 456.893  94
  -1   2   3 54137.9 675.222  68
   1  -2  -3 55840.5 658.312  66
   1  -2  -3 57472.6 431.132  34
   1  -2  -3 53198.1 638.382  62
  -1   2   3 54124.1 554.823  36
  -1   2   3 54827.2 618.041   3
   1  -2  -3 54447.5 694.451  39
  -1   2   3 58930.6 462.462  96
   1  -2  -3 56734.3 448.725  91
  -1   2   2 48948.8 536.824  68
   1  -2  -2 46546.3 496.734  90
   1  -2  -2 46321.0 491.931  96
   1  -2  -2 46753.0 494.837  91
   1  -2  -2 45703.7 489.420  95
  -1   2   2 48769.5 535.651   5
   1  -2  -2 46112.8 491.297  92
  -1   2   2 46386.5 578.146  67
   1  -2  -2 46086.7 543.163  66
   1  -2  -2 46632.1 516.317  64
  -1   2   2 48200.6 516.608  94
   1  -2  -2 45127.5 558.179  62
  -1   2   2 45507.3 557.232   3
   1  -2  -2 43445.9 310.281  34
   1  -2  -2 46139.8 593.384  39
  -1   2   2 45039.8 516.191  36
   1  -2  -2 46515.7 493.211  93
   1  -2  -1 44864.7 540.691  92
   1  -2  -1 41393.7 510.291  66
   1  -2  -1 44415.8 535.532  64
  -1   2   1 43579.4 547.680  63
   1  -2  -1 41855.6 543.193  62
   1  -2  -1 44898.0 536.990  96
  -1   2   1 45486.8 554.128  94
   1  -2  -1 45192.2 539.883  95
  -1   2   1 44674.5 534.844  67
   1  -2  -1 44962.2 541.514  90
  -1   2   1 44375.1 542.358   3
   1  -2  -1 43061.1 571.769  39
   1  -2  -1 45049.7 541.424  91
   1  -2  -1 44348.4 535.806  93
  -1   2   1 42977.3 496.365  37
  -1   2   1 43170.7 311.918  38
  -1   2   1 44458.2 562.487  65
  -1   2   0 123643. 725.541  38
   1  -2   0 126902. 985.805  91
  -1   2   0 124056. 944.442  37
   1  -2   0 124951. 990.396  90
   1  -2   0 126246. 987.955  95
   1  -2   0 123004. 971.352  96
  -1   2   0 124684. 912.952   3
   1  -2   0 125415. 986.594  92
   1  -2   0 126569. 983.736  93
  -1   2   0 123180. 994.490  65
   1  -2   0 118857. 1005.23  39
  -1   2   0 125075. 990.271  63
   1  -2   0 122317. 981.170  62
  -1   2   0 126237. 1002.93  94
   1  -2   0 125899. 989.017  64
   1  -2   0 118104. 927.781  66
   1  -2   1 36216.5 590.603  62
  -1   2  -1 34968.5 565.823  65
  -1   2  -1 35607.6 488.954   3
   1  -2   1 35659.5 569.943  93
   1  -2   1 35385.8 578.119  64
  -1   2  -1 35714.7 572.103  37
  -1   2  -1 35554.3 488.690  38
   1  -2   1 35349.0 568.983  91
  -1   2  -1 34634.2 574.739  94
   1  -2   1 35365.5 565.199  66
   1  -2   1 35782.3 570.438  96
   1  -2   1 35364.9 596.376  39
   1  -2   1 35134.0 323.978  35
   1  -2   1 36947.3 433.266  68
   1  -2   1 35598.9 574.328  90
   1  -2   1 35489.3 570.309  92
   1  -2   1 35645.7 572.508  95
  -1   2  -1 35341.3 567.098  63
   1  -2   2 135.323 39.9815  92
   1  -2   2 202.331 54.2022  93
   1  -2   2 122.529 43.1034  39
  -1   2  -2 43.5834 19.6944   3
  -1   2  -2 1.21882 14.8599  65
   1  -2   2 110.340 44.3627  95
   1  -2   2 261.137 43.5697  68
  -1   2  -2 102.354 38.1058  63
   1  -2   2 119.856 40.8496  90
  -1   2  -2 52.0826 31.7662  37
  -1   2  -2 109.233 33.2711  38
  -1   2  -2 27.7412 20.7504  94
   1  -2   2 131.039 45.0658  96
   1  -2   2 104.229 44.8576  91
   1  -2   2 74.2732 39.8509  62
   1  -2   2 109.687 33.5476   4
  -1   2  -3 40.9868 26.0655  63
   1  -2   3 82.6594 34.2553  96
   1  -2   3 58.0548 40.9073  39
   1  -2   3 123.963 40.7860  92
   1  -2   3 141.297 42.1774  95
   1  -2   3 38.3639 28.3893  68
  -1   2  -3 79.5948 49.2691  38
   1  -2   3 15.5390 13.0128   4
  -1   2  -3 228.016 55.7234  65
   1  -2   3 151.734 50.2661   2
   1  -2   3 165.584 46.7698  91
   1  -2   3 158.858 45.4194  90
  -1   2  -3 144.701 52.3786  37
  -1   2  -3 39.9272 25.8115  94
   1  -2   3 206.263 50.9236  93
  -1   2  -4 50952.0 892.805  94
   1  -2   4 52332.5 878.203  92
   1  -2   4 52679.6 880.949  91
   1  -2   4 52990.1 883.262  96
   1  -2   4 51573.4 869.291  95
  -1   2  -4 55723.7 943.205  65
   1  -2   4 50960.6 802.098   4
   1  -2   4 51027.1 870.281  90
  -1   2  -4 53446.6 976.723  38
  -1   2  -4 52256.0 982.124  37
   1  -2   4 51253.0 868.239  93
   1  -2   4 52975.5 951.730   2
   1  -2   4 50447.1 837.057  68
  -1   2  -4 54309.7 871.606  63
   1  -2   5 838.388 130.031   2
   1  -2   5 848.894 90.0970  22
   1  -2   5 785.761 79.6260  42
   1  -2   5 761.594 81.1785  48
  -1   2  -5 827.173 147.050  38
   1  -2   5 856.954 85.0233  74
   1  -2   5 749.141 83.8574  88
   1  -2   5 829.568 85.3294  18
   1  -2   5 825.027 83.9930  49
   1  -2   5 756.823 75.0442  76
  -1   2  -5 1200.23 156.771  37
   1  -2   5 704.590 72.9403  81
   1  -2   6 6349.88 238.565  30
   1  -2   6 6310.51 231.838  32
   1  -2   6 6486.34 219.623  76
   1  -2   6 7534.62 432.778   2
  -1   2  -6 7157.71 436.483  38
   1  -2   6 6264.24 234.172  48
   1  -2   6 6358.38 238.605  49
   1  -2   6 6353.57 238.653  54
   1  -2   6 6359.06 258.930  88
   1  -2   6 6697.71 230.884  59
   1  -2   6 6428.35 228.618  81
   1  -2   6 6289.74 235.462  24
   1  -2   6 6262.56 239.406  74
   1  -2   6 6335.97 254.022  22
   1  -2   6 6395.10 231.935  42
  -1   2  -6 6604.05 405.910  37
   1  -2   6 6669.18 238.176  31
   1  -2   6 6276.98 242.965  18
  -1   2  -6 6401.66 211.547  77
   1  -2   7 13798.1 330.822  31
   1  -2   7 12868.8 335.630  49
   1  -2   7 13086.5 361.206  22
   1  -2   7 13469.4 316.109  81
   1  -2   7 13134.4 329.180  24
  -1   2  -7 13466.1 301.642  55
   1  -2   7 13718.2 325.306  32
   1  -2   7 13878.4 318.450  59
   1  -2   7 12502.7 356.450  88
   1  -2   7 12738.6 339.337  74
   1  -2   7 13846.8 338.079  30
   1  -2   7 13373.0 324.197  42
   1  -2   7 12644.8 336.769  54
   1  -2   8 80.0341 30.1129  31
   1  -2   8 20.9531 24.0611  54
   1  -2   8 44.7258 20.2247  59
   1  -2   8 30.0157 27.0918  74
  -1   2  -8 47.6090 33.2288  41
   1  -2   8 8.63420 24.2607  22
   1  -2   8 49.4514 27.0274  13
   1  -2   8 5.15512 18.5531  85
   1  -2   9 1905.47 94.7977  13
  -1   2  -9 1834.81 84.8651  69
   1  -2   9 1990.17 94.2725  54
  -1   1  11 1016.35 62.2690  59
  -1   1  11 1049.33 65.7349  31
  -1   1  10 1187.44 96.4048  31
  -1   1  10 1295.33 91.6113  57
  -1   1  10 1258.03 91.3786  82
  -1   1  10 1211.79 89.2700  29
  -1   1  10 1183.09 85.3599  54
  -1   1  10 1230.41 93.5630  59
  -1   1   9 19673.0 438.798  31
  -1   1   9 19694.4 408.370  29
  -1   1   9 19983.7 393.548  13
  -1   1   9 19143.7 414.473  59
  -1   1   9 20696.1 401.466  11
  -1   1   9 19602.5 393.731  54
  -1   1   9 19614.1 356.385  12
  -1   1   9 20280.5 404.597  57
  -1   1   9 19685.0 404.254  82
  -1   1   8 9034.83 275.227  11
  -1   1   8 8740.42 285.464  59
  -1   1   8 8488.36 263.953  13
  -1   1   8 8860.17 273.366  54
  -1   1   8 8918.21 278.453  57
  -1   1   8 9257.04 245.966  26
  -1   1   8 9118.96 243.311  51
  -1   1   8 8298.15 290.997  31
  -1   1   8 8705.08 278.652  82
  -1   1   8 8845.56 281.853  29
  -1   1   7 22375.9 407.529  11
  -1   1   7 21385.0 399.553  13
  -1   1   7 22603.5 429.646  82
  -1   1   7 20926.1 368.538  51
   1  -1  -7 21861.0 664.053  38
  -1   1   7 21880.9 427.932  59
  -1   1   7 21589.6 402.597  54
  -1   1   7 21524.2 410.655  57
  -1   1   7 22167.2 426.734  29
  -1   1   7 21227.1 437.735  31
  -1   1   7 20608.7 366.398  26
  -1   1   7 21858.1 683.002   2
  -1   1   6 4526.77 277.447   2
   1  -1  -6 4021.52 252.129  34
   1  -1  -6 4323.98 263.078  38
  -1   1   6 4543.93 290.723  67
  -1   1   6 3922.18 276.752  68
  -1   1   5 45412.1 626.519  40
   1  -1  -5 45973.0 731.108  34
   1  -1  -5 44865.4 735.054  38
   1  -1  -5 44409.0 614.403  64
  -1   1   5 44644.5 767.168   2
  -1   1   5 42638.0 791.516  68
  -1   1   5 43244.4 776.149  67
  -1   1   4 2714.73 164.550   2
   1  -1  -4 2626.67 108.872  65
   1  -1  -4 2551.93 147.499  38
  -1   1   4 2535.57 167.638  68
  -1   1   4 2790.81 171.345  67
   1  -1  -4 2994.73 143.520  64
   1  -1  -4 2576.76 111.677  37
  -1   1   4 2675.53 134.465  40
   1  -1  -4 2658.38 150.589  34
  -1   1   4 2691.58 112.935   3
  -1   1   3 427.558 38.1413  36
  -1   1   3 411.453 23.9486  96
  -1   1   3 442.264 60.8347  68
   1  -1  -3 383.309 22.9197  90
  -1   1   3 378.279 22.8826  93
   1  -1  -3 394.502 22.8072  95
  -1   1   3 433.243 61.5096  67
  -1   1   3 450.154 57.9354   2
   1  -1  -3 381.564 22.0355  94
   1  -1  -3 447.860 51.1357  64
  -1   1   3 402.122 23.0419  91
  -1   1   3 403.861 45.3415   3
   1  -1  -3 422.271 51.0021  34
  -1   1   3 431.515 46.8627  40
   1  -1  -2 244300. 830.624  95
  -1   1   2 233904. 1123.29  67
  -1   1   2 238932. 1128.58   2
  -1   1   2 248575. 958.295  40
   1  -1  -2 247853. 835.682  93
   1  -1  -2 239185. 826.007  94
  -1   1   2 239512. 831.708  96
  -1   1   2 231797. 757.922  36
  -1   1   2 236246. 1091.43  68
   1  -1  -2 244626. 822.710  91
   1  -1  -2 246154. 833.608  92
   1  -1  -2 232956. 1163.15  66
   1  -1  -2 240158. 827.507  90
   1  -1  -2 234927. 927.541  34
   1  -1  -1 3431.71 127.640  62
  -1   1   1 3522.10 123.838   3
  -1   1   1 3526.92 117.146  65
  -1   1   1 3813.56 105.520   5
  -1   1   1 3513.66 93.1082  37
  -1   1   1 3665.21 118.160  67
   1  -1  -1 3368.73 124.230  66
   1  -1  -1 3711.88 125.833  64
   1  -1  -1 3778.68 119.109  95
   1  -1  -1 3917.64 121.794  91
  -1   1   1 3860.54 100.844  68
   1  -1  -1 3726.14 119.428  90
   1  -1  -1 3791.82 102.734  34
   1  -1  -1 3503.71 132.101  39
   1  -1  -1 3868.29 120.579  92
   1  -1  -1 3750.38 118.952  93
  -1   1   1 3631.97 117.672  63
  -1   1   0 505402. 1030.70  38
   1  -1   0 529033. 1589.33  90
  -1   1   0 524399. 1612.78  94
   1  -1   0 529436. 1581.12  96
   1  -1   0 528060. 1583.23  91
   1  -1   0 530479. 1582.35  92
  -1   1   0 503392. 1419.85  37
   1  -1   0 530617. 1580.96  95
  -1   1   0 503466. 1540.59  63
  -1   1   0 495372. 1536.44  65
   1  -1   0 529452. 1581.04  93
   1  -1   1 15659.4 200.301   4
  -1   1  -1 14410.5 295.170  65
   1  -1   1 14381.6 302.464  39
   1  -1   1 14237.0 298.932  62
   1  -1   1 15427.3 302.398  90
   1  -1   1 15016.5 297.776  92
  -1   1  -1 14354.4 293.919  37
   1  -1   1 14796.7 302.408  64
   1  -1   1 14874.2 297.056  93
   1  -1   1 14269.9 302.901  66
  -1   1  -1 13961.2 240.055   3
   1  -1   1 15356.6 210.287  68
   1  -1   1 15252.0 301.014  91
  -1   1  -1 14711.2 300.827  94
   1  -1   1 14932.4 296.285  95
  -1   1  -1 14236.4 290.099  63
   1  -1   1 14878.5 296.002  96
  -1   1  -2 49746.5 604.918  63
   1  -1   2 51900.6 504.305   4
   1  -1   2 51313.6 607.587  95
   1  -1   2 51101.2 649.236  39
  -1   1  -2 50110.7 648.603  37
  -1   1  -2 49469.8 609.092  38
   1  -1   2 51673.4 609.746  92
  -1   1  -2 49396.4 622.033  65
   1  -1   2 49561.6 642.192  62
   1  -1   2 51448.1 613.038  90
   1  -1   2 51526.0 610.727  91
   1  -1   2 50343.6 659.500  66
   1  -1   2 51501.8 608.368  93
  -1   1  -2 48012.6 434.397   3
   1  -1   2 51191.9 607.818  96
   1  -1   2 50651.4 520.542  68
   1  -1   2 50255.5 632.354  64
  -1   1  -2 49654.9 619.283  94
   1  -1   3 6277.69 235.136  90
  -1   1  -3 6252.31 261.949  38
   1  -1   3 6352.75 263.033  39
  -1   1  -3 6691.06 246.651  94
   1  -1   3 6525.87 238.828  92
   1  -1   3 6392.13 236.777  96
  -1   1  -3 7246.97 284.738  37
   1  -1   3 6935.56 246.717  91
   1  -1   3 6678.05 242.571  93
  -1   1  -3 6889.04 263.323  65
  -1   1  -3 6384.91 241.099  63
   1  -1   3 6408.04 232.475  68
   1  -1   3 6733.74 241.545  95
   1  -1   3 6525.81 260.912   2
   1  -1   3 6642.82 221.882   4
   1  -1   4 405.754 68.5396  68
   1  -1   4 1599.36 128.702  93
  -1   1  -4 620.793 99.0651  37
   1  -1   4 1884.95 138.858  90
  -1   1  -4 430.712 74.1499  65
   1  -1   4 1977.14 142.966  95
   1  -1   4 1799.76 137.720  92
   1  -1   4 568.531 76.4923   4
   1  -1   4 1816.97 138.317  91
  -1   1  -4 490.452 90.7473  38
   1  -1   4 432.896 77.0503   2
  -1   1  -4 521.040 74.9545  63
   1  -1   5 20938.2 614.196   2
  -1   1  -5 20585.1 619.409  37
  -1   1  -5 21400.6 573.808  65
  -1   1  -5 21664.7 651.390  38
   1  -1   5 20653.9 570.095  68
   1  -1   6 162.026 36.3850  18
   1  -1   6 169.711 39.9516  24
   1  -1   6 165.078 41.0471  59
   1  -1   6 199.468 44.0311  74
   1  -1   6 438.272 97.9630   2
   1  -1   6 238.072 46.3922  81
  -1   1  -6 240.503 84.8411  37
   1  -1   6 93.2928 45.8106  68
   1  -1   6 288.678 54.5487  82
   1  -1   6 314.533 53.6052  32
   1  -1   6 178.042 37.7201  42
  -1   1  -6 117.402 66.2712  38
   1  -1   6 216.983 48.8974  31
   1  -1   6 225.564 48.8489  54
   1  -1   6 264.224 44.1757  30
   1  -1   6 186.987 45.8223  88
   1  -1   6 170.202 45.6266  48
   1  -1   6 188.468 46.9584  49
   1  -1   7 24646.4 475.321  24
   1  -1   7 25705.1 470.039  59
   1  -1   7 26026.6 456.230  32
   1  -1   7 26976.0 462.558  30
   1  -1   7 25615.9 497.703  22
   1  -1   7 23636.2 486.771  88
   1  -1   7 25866.2 444.734  81
   1  -1   7 24657.2 461.171  49
   1  -1   7 24307.9 470.846  54
   1  -1   7 25588.3 487.722  31
   1  -1   7 25393.6 477.117  74
   1  -1   7 25993.9 462.576  42
   1  -1   8 5278.99 215.019  13
   1  -1   8 4929.61 207.439  54
   1  -1   8 5321.29 215.153  31
   1  -1   8 5011.23 189.691  42
   1  -1   8 5172.56 205.137  24
   1  -1   8 5541.87 209.698  59
   1  -1   8 5104.17 210.085  74
   1  -1   8 5326.64 218.115  22
   1  -1   8 5442.98 200.787  85
   1  -1   9 6413.32 190.148  59
   1  -1   9 6496.07 200.478  31
   1  -1   9 6348.55 200.957  54
   1  -1   9 5945.19 200.067  13
   1  -1  10 147.955 23.8308  54
   1  -1  10 179.230 27.5251  13
  -1   0  10 4661.24 173.329  31
  -1   0  10 4454.87 151.414  13
  -1   0  10 4587.86 149.359  54
  -1   0  10 4587.43 163.684  59
  -1   0   9 10031.3 274.141  29
  -1   0   9 9313.33 296.119  31
  -1   0   9 9639.73 266.901  54
  -1   0   9 10281.0 275.089  82
  -1   0   9 9773.71 288.506  59
  -1   0   9 9941.26 275.247  13
  -1   0   9 9900.44 277.688  57
  -1   0   8 3431.05 176.129  57
  -1   0   8 3144.89 181.699  31
  -1   0   8 3379.71 169.960  13
  -1   0   8 3344.82 167.759  54
  -1   0   8 3463.01 174.149  29
  -1   0   8 3231.39 176.647  59
  -1   0   8 3454.35 172.356  82
  -1   0   7 5194.10 363.165  68
  -1   0   7 5426.15 217.028  21
  -1   0   7 5893.15 358.368   2
  -1   0   7 5782.67 210.528  24
   1   0  -7 6280.63 384.071  38
  -1   0   7 5892.79 221.372  29
  -1   0   7 6369.21 222.667  11
  -1   0   7 6059.20 224.946  57
  -1   0   7 5818.16 217.542  48
  -1   0   7 5470.41 221.294  59
  -1   0   7 5838.91 219.769  82
  -1   0   7 5831.81 215.299  54
   1   0  -7 6246.21 387.295  34
  -1   0   7 5701.22 201.740  74
   1   0  -6 1425.45 165.297  38
   1   0  -6 1799.38 190.633  34
  -1   0   6 1398.01 145.671  40
  -1   0   6 1423.01 173.534  68
  -1   0   6 1536.39 168.468   2
  -1   0   5 85529.2 1161.90  68
  -1   0   5 86619.5 1119.63   4
  -1   0   5 93660.7 1119.68   2
  -1   0   5 90282.9 1058.45  40
   1   0  -5 95907.0 1172.67  38
   1   0  -5 93555.2 1178.60  34
  -1   0   4 42221.1 647.088   2
  -1   0   4 39746.5 668.421  67
  -1   0   4 39820.4 652.597   4
   1   0  -4 44061.9 679.377  38
   1   0  -4 41383.9 676.168  34
  -1   0   4 39340.8 683.940  68
   1   0  -4 41858.8 515.796  37
  -1   0   4 40493.4 624.032  40
   1   0  -3 43463.1 431.379  37
  -1   0   3 47247.4 569.548  40
   1   0  -3 46827.9 391.720  94
   1   0  -3 44249.5 591.455  34
  -1   0   3 45144.5 560.441   2
  -1   0   3 48609.0 393.230  92
  -1   0   3 45263.4 599.300  67
  -1   0   3 48972.9 392.001  96
  -1   0   3 43380.8 400.291   3
   1   0  -3 47702.2 394.841  90
  -1   0   3 48769.1 392.512  91
  -1   0   3 48051.3 391.379  93
  -1   0   3 45636.2 612.335  68
   1   0  -3 42299.5 284.661  65
   1   0  -3 44449.2 568.379  38
  -1   0   3 45418.0 594.531   4
   1   0  -2 123150. 604.446  92
  -1   0   2 116910. 630.187   3
  -1   0   2 123130. 604.764  93
  -1   0   2 123368. 599.319  96
   1   0  -2 121146. 602.226  95
  -1   0   2 119472. 768.618  40
  -1   0   2 121077. 767.799   4
   1   0  -2 120161. 485.045  37
  -1   0   2 119954. 806.080  68
  -1   0   2 117452. 728.488   2
   1   0  -2 113994. 782.350  34
  -1   0   2 117304. 776.880  67
   1   0  -2 121451. 601.117  94
  -1   0   2 124869. 605.835  91
   1   0  -2 124152. 607.784  90
   1   0  -2 115785. 720.217  38
   1   0  -1 12.4743 11.1247  94
   1   0  -1 15.0534 16.1794  34
  -1   0   1 2.08192 13.6864  40
  -1   0   1 4.54921 11.7752  91
   1   0  -1 10.8673 8.57729  95
  -1   0   1 28.9316 13.8797  68
  -1   0   1 10.4860 4.62164  65
  -1   0   1-0.74003 11.8866  96
   1   0  -1 11.8619 9.54872  38
  -1   0   1 4.51727 10.2746   4
   1   0  -1 20.2186 11.3349  92
   1   0  -1 8.17483 11.2719  90
  -1   0   1 24.9687 15.2264  35
  -1   0   1 43.2648 16.6193  67
  -1   0   1 37.3256 9.80125  63
   1   0  -1 5.35194 8.90740  93
   1   0   0 38.0690 13.8661  64
   1   0   0 67.7203 15.9627  39
  -1   0   0 51.0213 7.04158  67
  -1   0   0 68.8294 16.2189  63
   1   0   0 94.0132 18.3403  92
   1   0   0 82.8832 18.1933  91
   1   0   0 79.5984 17.3983  93
   1   0   0 84.3752 18.9797  94
  -1   0   0 83.7313 16.0107  65
   1   0   0 56.4679 12.9981  36
   1   0   0 81.0199 18.1837  90
   1   0   0 77.4829 12.8092  38
  -1   0   0 62.1998 15.1361   1
   1   0   0 101.938 20.1281  95
   1   0   0 83.1081 19.5514  66
   1   0   0 57.6157 17.9619  62
   1   0   0 124.019 21.8321  34
  -1   0   0 57.2679 13.1948  35
  -1   0   0 130.465 22.4651  96
  -1   0  -1 116019. 657.833  96
  -1   0  -1 110940. 523.746   3
   1   0   1 119482. 660.737  92
   1   0   1 118664. 657.166  95
   1   0   1 117916. 657.862  93
   1   0   1 105270. 665.371  36
   1   0   1 119054. 660.981  90
   1   0   1 119544. 661.301  91
   1   0   1 118411. 658.262  94
   1   0   1 119818. 496.098  68
  -1   0  -1 110321. 671.833  37
  -1   0  -1 110266. 494.583  35
  -1   0  -1 110849. 660.645  63
   1   0   1 109381. 589.536  39
   1   0   1 108959. 608.996  64
   1   0   1 107287. 590.921  62
  -1   0  -1 109260. 668.238  65
   1   0   2 110414. 730.705  62
   1   0   2 108243. 718.227  64
   1   0   2 108464. 738.452  39
  -1   0  -2 108720. 806.511  65
   1   0   2 112372. 723.450  93
  -1   0  -2 109771. 833.553  37
   1   0   2 114176. 725.147  91
   1   0   2 113534. 715.294  68
  -1   0  -2 108822. 491.819  35
   1   0   2 115054. 727.543  92
   1   0   2 110010. 819.648  66
  -1   0  -2 113933. 726.631  96
  -1   0  -2 107592. 764.683  63
   1   0   2 110491. 839.737  36
   1   0   2 115519. 723.618  94
  -1   0  -2 106069. 448.804   3
   1   0   2 115765. 727.839  95
   1   0   2 110190. 787.892   2
   1   0   2 115662. 726.475  90
   1   0   3 3850.52 147.375  94
   1   0   3 3831.79 148.313  93
  -1   0  -3 3762.76 175.041  65
   1   0   3 3760.11 145.314  95
   1   0   3 3945.34 169.507  68
  -1   0  -3 3570.74 157.251  63
  -1   0  -3 3823.30 186.043  37
   1   0   3 3848.17 147.646  90
  -1   0  -3 3777.59 148.327  96
   1   0   3 3797.81 146.882  91
   1   0   3 3724.19 175.695   2
  -1   0  -3 3464.79 90.1363  35
   1   0   3 3783.42 147.031  92
   1   0   4 38196.9 499.511  94
   1   0   4 35776.1 617.207  68
   1   0   4 38718.0 506.379  90
  -1   0  -4 36929.6 559.225  63
  -1   0  -4 37151.0 663.988  37
   1   0   4 38279.1 505.531  92
   1   0   4 38262.2 505.747  93
   1   0   4 37833.6 657.211   2
  -1   0  -4 36739.0 501.246  96
  -1   0  -4 39893.8 646.547  65
   1   0   4 37728.0 500.211  95
   1   0   4 38073.4 500.647  91
   1   0   5 14737.1 476.901   2
  -1   0  -5 14895.1 483.577  37
  -1   0  -5 13983.9 486.720  38
   1   0   5 13876.6 447.137  68
  -1   0  -5 15233.4 446.868  65
   1   0   6 5994.33 335.059  68
   1   0   6 6686.88 363.815   2
  -1   0  -6 6463.19 353.274  37
  -1   0  -6 6815.50 385.462  38
   1   0   7 81.7781 36.8053  82
  -1   0  -7-113.708 70.8695  38
   1   0   7-88.1611 60.9958   2
   1   0   7 167.787 39.1015  85
   1   0   7 33.4019 30.2896  31
   1   0   7-153.858 76.5228  68
   1   0   7 85.1529 34.9008  88
   1   0   7 71.6308 31.7043  42
   1   0   7 85.9203 29.8809  81
   1   0   7 60.7077 31.7262  59
   1   0   7 69.3921 26.5114  22
  -1   0  -7 100.420 57.9405  37
   1   0   7 75.5121 28.5188  24
   1   0   7 70.2755 36.2664  29
   1   0   7 50.2532 30.5673  54
   1   0   7 115.453 41.0249  74
   1   0   8 23908.8 467.770  59
   1   0   8 24449.3 440.376  42
   1   0   8 23945.0 457.817  74
   1   0   8 24542.9 458.309  22
   1   0   8 23769.9 486.856  31
   1   0   8 23482.4 459.097  54
   1   0   8 23789.8 463.518  24
   1   0   8 23166.6 461.149  13
   1   0   9 3669.53 170.582  59
   1   0   9 3950.19 182.654  31
   1   0   9 3979.59 179.149  13
   1   0   9 4089.73 176.978  54
   1   0  10 2474.64 115.704  13
   1   0  10 2565.41 111.330  59
   1   0  10 2596.33 114.781  54
  -1  -1  10 538.788 47.2445  59
  -1  -1  10 513.099 48.6728  31
  -1  -1   9 13579.2 305.903  13
  -1  -1   9 13486.6 323.072  31
  -1  -1   9 13637.2 295.174  54
  -1  -1   9 13624.1 314.865  22
  -1  -1   9 13896.0 315.545  59
  -1  -1   8 32971.6 498.857  74
  -1  -1   8 33009.4 566.436  31
  -1  -1   8 32782.1 540.254  59
  -1  -1   8 31621.4 509.367  54
  -1  -1   8 33378.2 530.040  57
  -1  -1   8 32695.5 493.201  82
  -1  -1   8 33794.0 509.005  29
  -1  -1   8 32803.0 530.565  88
  -1  -1   7 701.569 77.4468  74
  -1  -1   7 739.305 80.6038  29
  -1  -1   7 662.478 80.9335  59
  -1  -1   7 689.190 84.2663  21
  -1  -1   7 720.378 86.1668  88
  -1  -1   7 679.709 83.5801  48
  -1  -1   7 760.096 81.3916  82
   1   1  -7 806.910 151.839  38
  -1  -1   7 543.525 68.9380  54
  -1  -1   7 699.416 82.6161  57
  -1  -1   7 754.838 142.465  68
  -1  -1   7 649.801 80.6189  31
  -1  -1   6 3039.42 156.775  59
  -1  -1   6 2941.92 151.319  57
  -1  -1   6 2844.32 144.206  29
  -1  -1   6 2489.08 236.556  68
  -1  -1   6 2920.46 158.214  88
  -1  -1   6 2860.83 150.673  89
  -1  -1   6 3490.05 160.878  11
  -1  -1   6 2997.48 159.388  21
  -1  -1   6 3104.49 150.975  82
  -1  -1   6 3270.20 160.847  52
   1   1  -6 3040.45 269.531  34
  -1  -1   6 2847.44 146.425  54
  -1  -1   6 2663.79 233.820  40
   1   1  -6 2932.46 251.638  38
  -1  -1   6 2812.02 150.053  48
  -1  -1   6 3052.15 240.210   2
   1   1  -5 5983.87 324.306  38
  -1  -1   5 5574.20 302.518   4
  -1  -1   5 5346.11 313.595  68
   1   1  -5 6105.41 267.503  37
   1   1  -5 5329.91 314.890  34
  -1  -1   5 5179.25 291.273  40
  -1  -1   5 6100.47 297.140   2
  -1  -1   4-4.25753 13.8328   4
  -1  -1   4 39.1142 30.8976  40
   1   1  -4 11.8604 13.0342  90
  -1  -1   4 96.5216 33.6091  95
   1   1  -4 18.9079 26.0481  38
  -1  -1   4 36.5694 25.2402  91
  -1  -1   4 91.3258 30.6096  92
  -1  -1   4 69.9025 32.7920  93
  -1  -1   4 81.6266 32.0480  96
   1   1  -4 46.6741 23.3370  94
  -1  -1   4 67.4228 34.8335  68
  -1  -1   4-24.2785 18.1313   2
   1   1  -3 105988. 600.626  65
   1   1  -3 107884. 840.725  90
  -1  -1   3 102582. 1011.44  68
   1   1  -3 107155. 837.896  94
  -1  -1   3 106649. 894.531   2
  -1  -1   3 105306. 975.043   4
  -1  -1   3 109464. 829.641  95
  -1  -1   3 109229. 829.515  92
   1   1  -3 107656. 1015.65  38
  -1  -1   3 104977. 1009.07  40
   1   1  -3 107405. 848.408  37
  -1  -1   3 109743. 832.219  93
  -1  -1   3 101093. 470.135   1
  -1  -1   3 108627. 827.915  96
  -1  -1   3 107707. 830.966  91
  -1  -1   2 14257.2 273.689  96
  -1  -1   2 13788.2 314.202  40
  -1  -1   2 14018.8 314.398  68
   1   1  -2 13750.8 274.826  90
  -1  -1   2 13941.1 272.587  93
   1   1  -2 13925.1 276.890  95
   1   1  -2 13405.4 253.484  37
  -1  -1   2 12987.8 199.585   1
   1   1  -2 13909.7 276.116  94
  -1  -1   2 13903.3 272.092  92
   1   1  -2 13496.2 302.223  38
  -1  -1   2 13185.0 241.197  35
  -1  -1   2 13460.3 255.144   2
   1   1  -2 13239.7 315.803  34
  -1  -1   2 14106.4 273.095  91
   1   1  -2 13492.9 182.614  65
   1   1  -1 16093.5 285.214  34
  -1  -1   1 16109.1 198.592   2
  -1  -1   1 17141.1 276.437  93
   1   1  -1 16340.4 235.913  37
  -1  -1   1 17033.5 275.037  96
   1   1  -1 17978.0 284.881  95
   1   1  -1 17590.0 281.119  94
  -1  -1   1 16352.3 229.109   1
   1   1  -1 17165.9 279.224  90
  -1  -1   1 17084.6 275.825  92
  -1  -1   1 15437.3 247.669  35
  -1  -1   1 17611.8 298.025  40
   1   1  -1 16382.3 278.022  38
  -1  -1   1 17140.4 276.271  91
  -1  -1   0 278313. 1022.26  91
   1   1   0 280131. 1027.95  95
   1   1   0 277990. 1026.89  92
  -1  -1   0 278795. 976.143  40
  -1  -1   0 269732. 994.704  35
   1   1   0 281302. 1027.76  90
  -1  -1   0 278448. 1018.29  96
  -1  -1   0 276447. 1022.27  93
  -1  -1   0 266539. 917.547   1
   1   1   0 280094. 1024.76  94
   1   1   1 11859.8 224.043  36
   1   1   1 12248.4 154.824   2
   1   1   1 12186.6 157.584  64
   1   1   1 12454.5 147.648  66
   1   1   1 13125.6 210.658  94
  -1  -1  -1 13152.1 211.072  96
   1   1   1 12190.1 218.163  38
   1   1   1 12067.4 108.874  62
   1   1   1 12909.6 209.819  90
   1   1   1 13422.8 171.055  67
   1   1   1 12923.0 211.209  95
  -1  -1  -1 13018.9 210.768  91
   1   1   1 12818.6 209.821  92
   1   1   1 12065.6 197.438  34
  -1  -1  -1 12147.2 218.058  35
  -1  -1  -1 12038.2 196.663   1
   1   1   2 36915.1 357.639  93
   1   1   2 35040.5 450.780  36
  -1  -1  -2 38028.5 357.593  96
   1   1   2 37571.1 389.277  67
   1   1   2 36739.4 357.081  90
  -1  -1  -2 37714.8 358.472  91
  -1  -1  -2 34100.5 330.872   1
   1   1   2 37680.4 356.468  94
  -1  -1  -2 34996.7 403.050  35
   1   1   2 35703.1 256.656  64
   1   1   2 38176.7 397.278   5
   1   1   2 36850.2 430.357  68
   1   1   2 36744.4 358.284  92
   1   1   2 36854.7 357.450  95
   1   1   2 34028.2 382.618   2
  -1  -1  -2 34179.0 416.147  63
  -1  -1  -3 141250. 723.087  91
   1   1   3 129437. 976.424  68
   1   1   3 134174. 1032.29  36
   1   1   3 140191. 718.522  92
   1   1   3 141056. 722.456  90
  -1  -1  -3 131574. 914.967  63
   1   1   3 140625. 717.521  93
   1   1   3 140185. 926.824   5
  -1  -1  -3 140838. 715.818  96
   1   1   3 140610. 719.164  95
   1   1   3 143328. 714.979  94
   1   1   3 136140. 944.310  67
   1   1   3 133953. 952.559   2
  -1  -1  -3 132359. 859.706  35
  -1  -1  -3 131196. 1004.18  65
   1   1   4 2831.44 102.771  95
   1   1   4 2760.54 167.578   2
   1   1   4 2666.36 163.395  67
   1   1   4 2751.30 100.234  90
  -1  -1  -4 2733.10 145.687  63
   1   1   4 2579.15 163.209  68
  -1  -1  -4 2706.53 170.157  37
  -1  -1  -4 2933.05 170.685  65
   1   1   4 2771.47 102.138  92
  -1  -1  -4 2857.15 137.847  35
   1   1   4 2766.02 100.771  94
   1   1   4 2822.04 102.804  93
   1   1   4 2580.54 166.265  36
   1   1   5 1200.57 126.636  67
  -1  -1  -5 1321.94 109.869  63
   1   1   5 1267.95 133.137   2
   1   1   5 1222.38 133.384  68
  -1  -1  -5 1308.16 137.023  37
   1   1   6 8753.62 394.427   2
  -1  -1  -6 8636.06 356.898  65
   1   1   6 7732.88 376.369  68
  -1  -1  -6 9241.48 396.719  37
   1   1   7 531.958 69.4134  24
   1   1   7 513.803 69.0404  74
   1   1   7 528.403 64.7553  42
   1   1   7 559.909 66.1810  11
   1   1   7 603.268 72.5632  54
   1   1   7 557.276 75.0017  31
   1   1   7 577.800 75.1703  82
   1   1   7 572.530 72.8686  59
   1   1   7 650.404 125.449  68
  -1  -1  -7 806.211 130.240  37
   1   1   7 563.786 70.1629  57
   1   1   7 830.891 146.800   2
   1   1   7 584.564 71.5629  13
  -1  -1  -7 335.550 83.3900  38
   1   1   7 636.342 77.0303  29
   1   1   8 15039.6 347.477  42
   1   1   8 15550.3 348.409  15
   1   1   8 16020.5 380.315  29
   1   1   8 15802.0 358.924  57
   1   1   8 15540.5 381.739  24
   1   1   8 15214.4 366.875  54
   1   1   8 14704.5 376.083  59
   1   1   8 15136.4 396.025  31
   1   1   8 16767.6 384.418  82
   1   1   8 15370.0 374.758  13
   1   1   9 17079.2 386.529  59
   1   1   9 16671.9 400.625  31
   1   1   9 16768.8 381.269  13
   1   1  10 2679.38 138.586  31
   1   1  10 2605.44 132.330  13
   1   1  10 2468.47 127.309  59
   1   1  10 2618.55 127.362  54
   1   1  11 63.6321 18.7992  13
   1   1  11 62.8318 17.1915  54
  -1  -2   9 25913.9 364.853  31
  -1  -2   9 25906.2 347.611  59
  -1  -2   9 25668.5 372.403  13
  -1  -2   9 25567.0 387.037  22
  -1  -2   8 11116.6 277.081  74
  -1  -2   8 10996.8 282.986  54
  -1  -2   8 11435.5 307.228  88
  -1  -2   8 11542.8 305.684  31
  -1  -2   8 11321.6 288.308  59
  -1  -2   7 753.421 78.3543  49
  -1  -2   7 790.432 84.7858  74
  -1  -2   7 704.838 80.6611  54
  -1  -2   7 695.831 85.0601  48
  -1  -2   7 681.837 76.4850  18
  -1  -2   7 874.065 88.5140  57
  -1  -2   7 850.910 87.8032  59
  -1  -2   7 863.020 95.6074  88
  -1  -2   7 790.974 88.6751  31
  -1  -2   6 17256.7 584.063   2
  -1  -2   6 16177.9 363.961  74
  -1  -2   6 15082.6 372.866  89
  -1  -2   6 16292.2 365.323  54
  -1  -2   6 15787.0 373.539  48
   1   2  -6 17926.4 674.026  38
  -1  -2   6 15649.4 365.817  18
  -1  -2   6 15896.3 389.892  21
   1   2  -6 17451.8 680.548  34
  -1  -2   6 15833.4 350.047  49
  -1  -2   6 15635.0 626.489  68
  -1  -2   6 16342.2 399.767  88
  -1  -2   6 15890.5 366.818  59
  -1  -2   6 16648.2 365.313  57
  -1  -2   6 14699.1 347.257   7
  -1  -2   6 15013.6 588.799   4
   1   2  -5 26267.5 743.927  38
  -1  -2   5 23716.5 706.714  40
   1   2  -5 26409.5 767.491  34
  -1  -2   5 24126.8 677.743   4
  -1  -2   5 26728.4 663.845   2
  -1  -2   5 23951.0 710.006  68
   1   2  -5 28550.2 667.470  37
   1   2  -4 20614.1 583.360  38
  -1  -2   4 19838.4 500.263   2
   1   2  -4 19509.4 483.763  94
  -1  -2   4 20181.2 484.923  95
  -1  -2   4 20183.6 484.761  91
  -1  -2   4 19659.9 477.893  96
  -1  -2   4 19945.5 482.201  92
  -1  -2   4 19067.6 561.945  68
  -1  -2   4 18226.0 526.973   4
   1   2  -4 20761.5 522.745  37
   1   2  -4 19707.7 584.218  34
  -1  -2   4 18678.7 561.139  40
  -1  -2   4 20156.1 486.330  93
  -1  -2   3 1471.86 138.500  68
   1   2  -3 1532.88 143.349  38
  -1  -2   3 1508.26 133.108   4
   1   2  -3 1381.03 120.273  94
  -1  -2   3 1316.57 132.791  40
  -1  -2   3 1539.35 126.980  92
  -1  -2   3 1373.41 120.082  93
  -1  -2   3 1457.47 123.821  95
  -1  -2   3 1422.36 113.755   2
  -1  -2   3 1450.03 121.680  91
   1   2  -3 1373.88 121.488  90
   1   2  -3 1526.91 127.518  37
  -1  -2   3 1590.64 128.076  96
   1   2  -3 1513.07 100.105  65
   1   2  -2 34950.5 584.491  38
   1   2  -2 34805.6 587.687  34
  -1  -2   2 35398.6 550.704  93
   1   2  -2 35687.8 542.115  37
  -1  -2   2 36025.2 585.253  68
  -1  -2   2 35822.0 550.663  96
  -1  -2   2 35170.4 603.202  40
  -1  -2   2 35343.3 550.837  95
   1   2  -2 35296.5 557.490  94
  -1  -2   2 35322.9 549.644  91
   1   2  -2 35465.7 560.835  90
  -1  -2   2 35115.7 548.057  92
  -1  -2   2 35603.5 433.547   1
  -1  -2   2 33588.9 415.650  35
  -1  -2   2 35583.5 466.489   2
   1   2  -1 75064.3 748.372  38
  -1  -2   1 74121.4 618.302  35
  -1  -2   1 72170.6 515.630   2
  -1  -2   1 75547.1 736.812  96
  -1  -2   1 74715.2 737.760  92
  -1  -2   1 74976.1 754.370  40
   1   2  -1 74887.7 752.963  95
  -1  -2   1 73891.2 627.009   1
   1   2  -1 75202.1 751.000  94
   1   2  -1 72771.8 694.517  37
  -1  -2   1 76066.5 742.584  93
   1   2  -1 74477.7 751.349  90
   1   2  -1 73212.6 720.850  34
  -1  -2   1 75806.1 740.211  91
   1   2   0 128450. 898.579  94
   1   2   0 124232. 867.634  36
   1   2   0 123618. 777.909  34
  -1  -2   0 129286. 892.872  92
  -1  -2   0 127829. 890.951  93
  -1  -2   0 125646. 816.823   1
   1   2   0 121641. 843.589  37
  -1  -2   0 129159. 835.510  40
  -1  -2   0 128631. 887.600  96
   1   2   0 125892. 874.762  38
  -1  -2   0 123780. 827.816  35
   1   2   0 127708. 902.066  95
  -1  -2   0 126832. 891.628  91
  -1  -2   0 125003. 769.674  39
   1   2   0 126356. 895.647  90
  -1  -2  -1 170386. 771.989  40
  -1  -2  -1 160617. 922.641   1
  -1  -2  -1 162470. 665.401  39
  -1  -2  -1 163141. 997.319  35
   1   2   1 158510. 953.625  38
   1   2   1 163873. 1006.21  36
  -1  -2  -1 168040. 943.101  91
   1   2   1 169686. 959.283  90
  -1  -2  -1 168960. 945.995  93
   1   2   1 170722. 963.627  95
   1   2   1 169732. 957.707  94
  -1  -2  -1 167791. 938.835  92
   1   2   1 167536. 880.101  67
  -1  -2  -1 168774. 941.068  96
  -1  -2  -2 8519.40 213.439   1
   1   2   2 8865.41 207.063  90
  -1  -2  -2 9081.85 203.071  96
  -1  -2  -2 9034.34 204.296  93
  -1  -2  -2 9409.39 134.910  40
  -1  -2  -2 8397.68 128.570  39
   1   2   2 8685.43 183.831   2
  -1  -2  -2 8671.09 244.221  35
   1   2   2 8499.98 171.005  34
   1   2   2 8496.67 245.522  36
  -1  -2  -2 8975.97 203.771  91
   1   2   2 8171.81 94.7371  64
   1   2   2 9263.07 207.904  94
   1   2   2 8856.13 220.700  67
   1   2   2 9238.17 210.247  95
  -1  -2  -3 58731.3 448.513  39
  -1  -2  -3 58270.7 301.186  40
   1   2   3 60450.5 659.989  67
   1   2   3 60843.5 493.255  95
  -1  -2  -3 58516.5 557.410   1
  -1  -2  -3 62059.4 484.211  91
   1   2   3 61815.4 487.252  94
  -1  -2  -3 61737.0 481.068  96
   1   2   3 59730.7 609.215   2
  -1  -2  -3 62109.4 483.675  93
   1   2   3 59920.0 489.430  90
   1   2   3 62384.8 729.170  68
   1   2   3 61004.1 723.266  36
  -1  -2  -3 59545.1 692.385  35
  -1  -2  -4 206399. 1407.03  35
  -1  -2  -4 209735. 1322.50  63
   1   2   4 201751. 1398.19   5
   1   2   4 201064. 1499.06  68
   1   2   4 209514. 1367.95   2
   1   2   4 209805. 1490.71  36
   1   2   4 210462. 1422.96  67
  -1  -2  -4 206214. 1034.41   1
   1   2   5 30841.2 666.420  68
   1   2   5 31282.5 622.109   2
   1   2   5 30849.2 639.429  36
  -1  -2  -5 31531.4 546.094  63
  -1  -2  -5 31951.3 637.219  65
  -1  -2  -5 31810.9 592.970  35
   1   2   5 29640.6 622.594  67
  -1  -2  -6 57790.1 982.377  37
   1   2   6 54067.1 998.178  68
   1   2   6 53729.1 940.294  67
   1   2   6 59729.3 986.398   2
   1   2   6 59627.8 978.225  36
  -1  -2  -6 60948.5 961.349  65
   1   2   7 133.845 41.0054  31
   1   2   7 92.6707 29.9972  26
   1   2   7 79.0438 63.8389   2
   1   2   7 118.007 31.4072  57
   1   2   7 148.448 40.9427  24
   1   2   7 69.0751 40.8003  68
   1   2   7 117.994 41.7023  59
   1   2   7 291.136 52.5262  29
   1   2   7 329.258 56.3672  82
   1   2   7 108.159 33.0851  11
   1   2   7 141.536 38.2600  13
   1   2   7 97.5573 29.7300  46
   1   2   7 81.6825 27.4489  51
   1   2   8 4783.41 198.962  15
   1   2   8 5299.79 195.816  11
   1   2   8 4871.73 208.228  82
   1   2   8 5268.01 201.100  57
   1   2   8 4736.64 213.014  24
   1   2   8 5008.88 211.473  29
   1   2   8 4895.67 186.255  51
   1   2   8 4997.75 224.818  31
   1   2   8 4805.75 210.057  13
   1   2   8 4983.72 208.288  54
   1   2   8 4791.34 211.225  59
   1   2   8 4819.60 187.774  26
  -1  -2  -8 5242.60 371.436  38
   1   2   9-34.1506 23.6994  51
   1   2   9-11.2294 32.2061  59
   1   2   9 22.5811 32.2724  31
   1   2   9 56.8118 27.9385  15
   1   2   9 56.7129 29.0884  54
   1   2   9 306.280 58.7256  82
   1   2   9 25.5528 18.1488  26
   1   2   9 5.97227 24.8860  13
   1   2   9 307.429 57.1680  29
   1   2  10 10447.7 278.507  13
   1   2  10 10597.6 257.260  12
   1   2  10 11285.3 285.556  59
   1   2  10 11139.8 274.391  54
   1   2  10 11270.2 299.049  31
   1   2  11 2596.33 107.076  13
   1   2  11 2948.35 108.898  54
   1   2  11 2738.58 96.2541  12
  -1  -3   9 3459.05 113.332  22
  -1  -3   9 3555.30 106.040  13
  -1  -3   8 14737.1 317.142  88
  -1  -3   8 15267.7 287.922  74
  -1  -3   8 15360.2 330.782  22
  -1  -3   8 15465.5 291.977  54
   1   3  -8 15309.5 253.579  77
   1   3  -8 14671.5 279.529  55
  -1  -3   7 22.4895 26.1186  74
   1   3  -7 0.36295 23.6931  75
  -1  -3   7-41.2947 22.5120  31
  -1  -3   7 12.7672 22.7170  54
  -1  -3   7 115.897 39.9489  88
  -1  -3   7 26.4150 30.5168  48
  -1  -3   7 60.9023 27.7454  18
  -1  -3   7-23.1885 26.8425  49
  -1  -3   7-1.53036 20.7411  59
   1   3  -6 51518.8 596.748  73
  -1  -3   6 49825.8 661.815  74
  -1  -3   6 51814.0 634.413  59
   1   3  -6 52249.1 597.220  61
  -1  -3   6 51731.5 665.969  31
  -1  -3   6 48958.8 689.151  89
  -1  -3   6 50830.4 660.860  54
  -1  -3   6 50597.9 652.549  49
  -1  -3   6 50925.0 736.578  88
  -1  -3   6 51400.7 697.392  18
  -1  -3   6 48875.7 671.827  48
   1   3  -5 1316.51 97.3237  79
   1   3  -5 1469.06 190.959  38
  -1  -3   5 1353.90 111.552  86
  -1  -3   5 1663.85 196.235  68
  -1  -3   5 1439.39 175.383   4
  -1  -3   5 1353.16 181.425  40
   1   3  -5 1370.78 180.015  34
  -1  -3   5 1265.30 99.0028  59
  -1  -3   5 1544.22 126.365  88
  -1  -3   5 1500.90 110.630  52
  -1  -3   5 1357.50 114.763  89
  -1  -3   5 1460.15 112.618  74
  -1  -3   5 1452.53 109.855  49
  -1  -3   5 1569.26 117.501   7
  -1  -3   5 1442.26 113.721  48
  -1  -3   4 509.468 95.4914   4
   1   3  -4 673.571 112.095  94
  -1  -3   4 622.178 114.998  40
  -1  -3   4 532.684 96.0421  92
  -1  -3   4 443.919 85.7450  95
   1   3  -4 582.794 115.905  38
   1   3  -4 454.135 87.9165  37
  -1  -3   4 552.380 106.728  68
  -1  -3   4 604.605 92.7062   2
  -1  -3   4 540.770 99.1699  91
  -1  -3   4 611.603 101.804  96
   1   3  -4 555.083 112.533  34
  -1  -3   4 643.024 103.708  93
  -1  -3   3 613.585 98.0707  95
  -1  -3   3 663.115 100.053  93
  -1  -3   3 541.444 97.3571  68
   1   3  -3 427.312 77.6025  94
  -1  -3   3 666.956 98.8810  91
   1   3  -3 570.851 107.855  38
  -1  -3   3 442.586 79.2085  96
  -1  -3   3 544.743 100.732  40
   1   3  -3 502.618 85.5729  90
   1   3  -3 718.300 113.677  34
  -1  -3   3 530.603 86.3358  92
   1   3  -3 455.237 81.5125  37
  -1  -3   3 635.933 97.1878   4
  -1  -3   3 510.885 77.1239   2
   1   3  -2 290.521 61.1000  94
  -1  -3   2 343.404 71.0050  68
  -1  -3   2 381.082 73.6219  95
   1   3  -2 379.285 76.5611  38
  -1  -3   2 434.863 74.2628  93
  -1  -3   2 450.832 61.6733   1
   1   3  -2 447.970 75.8019  37
  -1  -3   2 419.615 75.7945  92
  -1  -3   2 353.103 71.8502  40
   1   3  -2 345.034 66.3713  90
  -1  -3   2 503.676 63.1403   2
  -1  -3   2 453.934 78.1761  96
   1   3  -2 452.358 77.2603  34
  -1  -3   2 419.559 72.9140  91
  -1  -3   1 31542.9 590.607  95
  -1  -3   1 32887.4 521.106   1
  -1  -3   1 31668.9 590.435  92
   1   3  -1 32346.4 604.921  94
   1   3  -1 32694.9 593.583  37
  -1  -3   1 31853.7 588.908  96
   1   3  -1 31156.2 579.957  38
  -1  -3   1 32097.7 592.984  91
  -1  -3   1 32335.2 479.795  35
   1   3  -1 31459.9 597.914  90
  -1  -3   1 32178.7 592.353  40
   1   3  -1 31629.5 550.671  34
  -1  -3   1 32399.9 584.690  39
  -1  -3   1 32627.8 597.033  93
  -1  -3   1 32505.5 429.932   2
  -1  -3   0 62140.8 696.207  35
   1   3   0 61829.8 758.233  37
  -1  -3   0 62747.4 715.785   1
  -1  -3   0 63940.3 705.341  39
   1   3   0 61776.2 782.742  90
   1   3   0 62320.9 750.515  38
  -1  -3   0 62625.8 771.099  93
  -1  -3   0 62969.6 771.026  96
  -1  -3   0 62906.7 773.101  91
   1   3   0 62358.7 653.317  34
  -1  -3   0 62136.0 772.226  92
  -1  -3   0 62065.1 714.658  40
   1   3   0 62993.7 788.539  94
   1   3   1 5019.82 151.656  34
  -1  -3  -1 4980.48 206.244  35
  -1  -3  -1 4925.29 170.305  40
  -1  -3  -1 5038.21 204.899  93
  -1  -3  -1 5038.49 202.980  96
   1   3   1 5147.26 207.063  38
  -1  -3  -1 4805.19 200.706  91
  -1  -3  -1 5033.48 173.926  39
   1   3   1 5421.65 225.222  36
   1   3   1 5184.21 211.656  95
  -1  -3  -1 4861.47 201.171  92
   1   3   1 4987.38 206.168  94
   1   3   1 4972.21 206.356  90
  -1  -3  -1 4908.45 198.754   1
  -1  -3  -2 76866.5 786.922   1
   1   3   2 76193.2 797.754  38
  -1  -3  -2 75680.3 740.652  91
  -1  -3  -2 75105.2 596.119  39
  -1  -3  -2 76714.3 742.491  96
  -1  -3  -2 77879.0 859.758  35
  -1  -3  -2 78110.4 498.235  40
   1   3   2 77421.8 760.301  90
   1   3   2 76407.8 760.384  95
  -1  -3  -2 76741.1 745.771  93
  -1  -3  -2 77013.6 746.457  92
   1   3   2 74922.5 784.460  67
   1   3   2 72728.2 456.126  34
   1   3   2 77402.6 869.616  36
   1   3   2 76720.5 754.921  94
  -1  -3  -3 20681.2 354.080  96
   1   3   3 21211.2 476.595  36
  -1  -3  -3 20620.4 355.550  92
   1   3   3 22068.5 380.998   2
  -1  -3  -3 20600.2 412.082   1
   1   3   3 21170.6 367.676  95
   1   3   3 22091.5 373.078  94
   1   3   3 20537.6 438.250  67
   1   3   3 21208.2 368.216  90
  -1  -3  -3 19346.6 294.604  39
  -1  -3  -3 21022.7 474.253  35
  -1  -3  -3 20521.2 354.050  93
  -1  -3  -3 20296.3 354.436  91
   1   3   4 41690.2 719.909  36
   1   3   4 41284.6 691.661   5
  -1  -3  -4 42277.6 591.922   1
   1   3   4 40735.5 683.413  67
  -1  -3  -4 42807.7 727.159  35
   1   3   4 43551.1 624.636   2
   1   3   5 94917.6 1072.93   2
  -1  -3  -5 93728.3 1151.88  35
  -1  -3  -5 90792.8 1018.07  63
   1   3   5 88018.6 1114.55   5
   1   3   5 88530.5 1106.83  67
   1   3   5 92436.0 1156.70  36
   1   3   6 14479.8 492.022  36
  -1  -3  -6 14901.0 493.508  35
   1   3   6 12325.5 462.039  67
   1   3   6 12192.6 491.961  68
   1   3   6 13637.7 463.663   2
  -1  -3  -6 14109.6 484.140  65
  -1  -3  -7 16624.2 562.101  37
   1   3   7 16262.0 321.543  11
   1   3   7 17094.2 381.416  31
   1   3   7 17060.5 364.557  15
   1   3   7 15833.6 614.945  68
   1   3   7 17740.2 583.399  36
   1   3   7 16061.3 348.600  26
   1   3   7 14852.6 553.988  67
   1   3   7 17093.4 365.194  54
   1   3   7 17097.7 581.018   2
   1   3   7 16407.9 354.590  29
   1   3   7 16544.9 335.499  25
   1   3   7 17152.4 370.982  13
   1   3   7 17045.9 366.277  59
   1   3   7 16790.2 355.208  51
   1   3   7 16378.2 353.212  82
   1   3   8 110310. 1023.40  31
   1   3   8 109738. 965.776  15
   1   3   8 113683. 977.956  29
   1   3   8 113899. 976.333  82
  -1  -3  -8 103571. 1618.79  38
   1   3   8 109186. 928.544  51
   1   3   8 111063. 976.619  54
   1   3   8 106559. 977.140  13
   1   3   8 110847. 879.807  25
   1   3   8 110324. 980.784  59
   1   3   8 107041. 926.670  26
   1   3   8 111206. 876.844  11
   1   3   9 6234.49 246.460  31
   1   3   9 6815.23 212.776  11
   1   3   9 6625.26 236.370  29
   1   3   9 6256.08 214.764  26
   1   3   9 6498.22 216.885  51
   1   3   9 6338.37 237.287  59
   1   3   9 6280.70 227.668  82
   1   3   9 6394.62 235.012  54
   1   3   9 7013.31 212.415  57
   1   3   9 6366.24 229.235  15
   1   3   9 6393.07 238.851  13
   1   3  10 251.595 50.8588  31
   1   3  10 218.244 42.7046  59
   1   3  10 202.733 44.0959  13
   1   3  10 281.497 49.3657  54
   1   3  10 267.983 47.0300  12
   1   3  11 12.3251 17.2867  54
   1   3  11-2.11224 14.9879  12
  -1  -4   8 1976.90 93.2037  22
   1   4  -8 1910.70 77.8899  55
   1   4  -8 1843.28 80.8045  41
  -1  -4   8 1893.12 85.9619  13
  -1  -4   7 4686.63 174.833  48
   1   4  -7 4743.10 153.452  75
  -1  -4   7 4902.75 192.723  88
  -1  -4   7 4809.20 172.959  74
  -1  -4   7 4836.52 167.766  49
   1   4  -7 4724.99 167.496  55
  -1  -4   7 4835.05 169.416  54
  -1  -4   7 4808.58 189.500  22
  -1  -4   7 4778.61 176.001  18
   1   4  -7 4848.00 161.283  77
  -1  -4   6 18456.6 408.010  89
   1   4  -6 18643.2 365.070  75
   1   4  -6 19299.5 355.882  61
  -1  -4   6 18431.9 384.268  49
  -1  -4   6 18424.1 389.709  74
  -1  -4   6 17716.4 385.889  48
  -1  -4   6 17930.6 377.117  54
  -1  -4   6 18561.2 412.516  18
   1   4  -6 18771.4 337.004  79
  -1  -4   6 18667.7 433.358  88
  -1  -4   6 18678.7 419.493  22
   1   4  -5 1694.34 113.400  79
   1   4  -5 1720.44 121.174  75
  -1  -4   5 1692.83 136.137  88
   1   4  -5 1686.68 115.799  61
   1   4  -5 1688.24 113.126  73
  -1  -4   5 1521.39 118.281  49
  -1  -4   5 1619.38 130.164  18
  -1  -4   5 1632.63 127.456  89
  -1  -4   5 1763.15 127.137  74
  -1  -4   5 1629.00 122.695  48
   1   4  -4 18133.5 365.278  97
  -1  -4   4 18022.3 627.344  91
   1   4  -4 18778.8 372.941  73
  -1  -4   4 18355.2 371.982 102
   1   4  -4 20574.6 713.384  34
   1   4  -4 18524.4 375.424 105
  -1  -4   4 18559.9 370.379 107
   1   4  -4 18326.5 374.764 103
   1   4  -4 19031.9 374.303  98
  -1  -4   4 18172.0 404.912  89
  -1  -4   4 17837.8 623.360  92
  -1  -4   4 18361.8 625.868  96
  -1  -4   4 18980.2 384.337  19
  -1  -4   4 19019.1 407.445  74
   1   4  -4 18847.0 372.333  99
   1   4  -4 17310.8 619.593  94
  -1  -4   4 17716.5 618.758   4
   1   4  -4 19335.5 698.779  38
  -1  -4   4 18471.5 411.165   7
  -1  -4   4 19533.7 442.402  88
  -1  -4   4 18629.7 393.379  48
  -1  -4   4 17209.6 636.986  68
  -1  -4   4 18107.1 629.278  90
  -1  -4   4 18160.9 400.438  86
  -1  -4   4 18575.6 632.571  95
  -1  -4   4 17752.6 620.653  93
  -1  -4   4 18113.7 363.198  52
   1   4  -4 18603.5 373.882  79
  -1  -4   4 18555.4 395.056  49
   1   4  -4 19423.4 659.929  37
  -1  -4   4 19095.3 371.680  76
  -1  -4   4 19038.9 376.341 101
  -1  -4   3 11799.6 298.483  74
  -1  -4   3 10032.3 449.764  93
  -1  -4   3 9848.96 478.600  40
  -1  -4   3 10286.5 454.348  95
  -1  -4   3 10325.8 453.301  92
  -1  -4   3 10951.7 285.685  49
   1   4  -3 9785.79 451.828  94
   1   4  -3 11328.4 483.579  34
  -1  -4   3 10163.4 450.353  91
  -1  -4   3 10924.1 292.631  86
   1   4  -3 10972.9 468.856  37
  -1  -4   3 10020.9 431.563   4
  -1  -4   3 9707.08 444.573  68
   1   4  -3 11445.2 493.326  38
  -1  -4   3 9956.42 443.897  96
  -1  -4   3 10855.3 298.218   7
  -1  -4   2 76090.1 1163.88  96
  -1  -4   2 77129.7 1175.66  92
   1   4  -2 74842.0 1176.65  94
  -1  -4   2 76353.1 1172.58  91
  -1  -4   2 74326.0 1175.50  40
  -1  -4   2 76634.1 1173.65  93
   1   4  -2 83650.7 1166.94  34
  -1  -4   2 76027.1 1170.82  95
  -1  -4   2 73652.0 1126.26  68
   1   4  -2 74939.3 1183.27  90
   1   4  -2 80624.9 1192.37  37
   1   4  -2 80976.7 1197.34  38
  -1  -4   2 82716.3 993.839   1
   1   4  -1 3284.56 225.813  37
  -1  -4   1 3880.92 217.763   1
  -1  -4   1 2995.40 217.760  96
  -1  -4   1 3348.91 231.297  93
  -1  -4   1 3273.84 229.107  95
  -1  -4   1 3334.71 229.693  91
  -1  -4   1 3422.02 231.685  92
   1   4  -1 3481.46 207.399  34
   1   4  -1 3291.70 222.039  38
   1   4  -1 3204.01 229.571  90
  -1  -4   1 3643.72 230.867  39
  -1  -4   1 3046.15 214.031  40
   1   4  -1 3090.70 223.651  94
  -1  -4   0 1476.09 134.475   1
  -1  -4   0 1417.05 128.422  39
  -1  -4   0 1316.83 135.914  91
   1   4   0 1387.06 142.980  90
  -1  -4   0 1557.40 143.943  93
  -1  -4   0 1456.40 143.938  92
  -1  -4   0 1303.87 134.164  95
   1   4   0 1522.97 147.984  94
  -1  -4   0 1339.26 135.027  96
   1   4   0 1540.20 143.489  38
  -1  -4   0 1334.55 126.886  40
   1   4   0 1394.79 142.589  37
   1   4   0 1587.02 152.072  36
  -1  -4   0 1402.84 122.535  35
   1   4   0 1419.79 115.459  34
   1   4   1 5802.94 271.180  94
  -1  -4  -1 5408.97 256.197  93
  -1  -4  -1 5434.92 259.373  95
   1   4   1 5997.34 189.555  34
  -1  -4  -1 5927.79 263.395   1
  -1  -4  -1 6195.29 243.372  39
  -1  -4  -1 5518.64 259.242  91
  -1  -4  -1 5790.21 266.038  92
  -1  -4  -1 5701.56 261.737  96
   1   4   1 5778.64 260.005  38
   1   4   1 5859.64 274.089  90
  -1  -4  -1 5784.92 256.596  35
  -1  -4  -1 5712.41 225.045  40
   1   4   1 6078.61 289.686  36
   1   4   2 9069.93 320.597  94
  -1  -4  -2 9352.12 343.920  35
  -1  -4  -2 8759.80 308.689  91
  -1  -4  -2 8654.50 307.615  95
  -1  -4  -2 8750.32 227.229  40
  -1  -4  -2 9312.63 270.903  39
  -1  -4  -2 8893.95 321.511   1
   1   4   2 9442.74 359.882  36
   1   4   2 8430.82 319.028  67
  -1  -4  -2 8669.63 306.571  96
  -1  -4  -2 9030.46 313.456  93
  -1  -4  -2 8720.46 307.645  92
   1   4   2 8843.97 317.841  90
   1   4   2 9321.67 323.544  38
   1   4   3 2684.93 163.109  90
   1   4   3 2706.94 184.723  67
   1   4   3 2582.39 193.341  36
  -1  -4  -3 2510.37 153.778  93
  -1  -4  -3 2529.44 134.243  39
  -1  -4  -3 2595.24 175.695   1
  -1  -4  -3 2606.00 155.708  96
  -1  -4  -3 2789.74 161.905  92
  -1  -4  -3 2701.81 160.172  91
   1   4   3 2700.81 165.308  94
  -1  -4  -3 2665.80 194.688  35
  -1  -4  -3 2520.76 153.368  95
   1   4   4 15890.5 495.293  36
   1   4   4 14859.5 458.681  67
  -1  -4  -4 16060.2 437.696   1
  -1  -4  -4 15803.5 502.439  35
   1   4   5 17731.2 539.701  67
  -1  -4  -5 19616.7 591.906  35
   1   4   5 19705.4 577.141  36
  -1  -4  -5 20941.4 492.408   1
   1   4   5 18697.8 559.188   5
   1   4   5 21119.6 520.791   2
   1   4   6 64.3193 44.0259   2
   1   4   6 98.5130 44.7155  67
  -1  -4  -6 99.5859 50.7512  35
   1   4   6 48.3250 39.9673   5
   1   4   7 6833.14 226.615  59
   1   4   7 6833.08 222.535  29
   1   4   7 7073.42 240.382  15
   1   4   7 6769.55 228.218  25
   1   4   7 6657.24 231.506  26
   1   4   7 7158.49 244.378  13
   1   4   7 7003.60 216.316  71
   1   4   7 7143.82 232.229  12
   1   4   7 6826.67 220.209  82
   1   4   7 7095.70 240.542  54
  -1  -4  -7 6938.41 386.700  35
   1   4   7 6853.11 223.426  84
   1   4   7 6181.29 371.165  67
   1   4   7 6891.90 379.033  36
   1   4   7 6702.18 229.225  51
   1   4   7 6820.42 233.921  31
   1   4   7 7404.81 384.058   2
  -1  -4  -7 7406.12 396.163  65
   1   4   8 26284.5 480.602  15
   1   4   8 27670.9 466.111  29
   1   4   8 27018.8 493.815  13
   1   4   8 25493.3 420.994  11
   1   4   8 27708.7 490.223  31
   1   4   8 25643.4 458.818  12
   1   4   8 26579.2 458.416  25
   1   4   8 25806.2 473.762  54
   1   4   8 27346.5 469.713  59
   1   4   8 26960.7 474.468  51
   1   4   8 27944.2 466.568  82
   1   4   8 25994.1 468.563  26
   1   4   9 8682.89 263.407  26
   1   4   9 8968.28 239.348  11
   1   4   9 8963.92 250.516  25
   1   4   9 9010.72 270.104  59
   1   4   9 8602.01 275.729  54
   1   4   9 8947.27 282.294  31
   1   4   9 8360.45 272.655  13
   1   4   9 8961.44 265.500  51
   1   4   9 9528.57 270.053  29
   1   4   9 9187.30 264.207  82
   1   4   9 8539.37 263.297  12
   1   4   9 8808.61 274.557  15
   1   4  10 4632.97 182.834  54
   1   4  10 4868.99 181.427  12
   1   4  10 4871.49 174.785  26
   1   4  10 4817.14 171.294  51
   1   4  11 263.759 37.4223  12
   1   4  11 271.135 38.1079  54
  -1  -5   7 4309.88 121.919  74
   1   5  -7 4161.24 99.9390  75
   1   5  -7 4230.27 122.578  41
   1   5  -7 4307.16 120.839  55
  -1  -5   7 4278.63 131.162  22
   1   5  -7 3892.49 105.233  87
   1   5  -7 4454.57 115.504  77
  -1  -5   6 111.444 32.4368  48
  -1  -5   6 134.905 37.2144  88
   1   5  -6 145.717 39.4327  55
   1   5  -6 137.146 34.0924  75
  -1  -5   6 89.7515 30.1628  22
  -1  -5   6 165.555 38.0892  49
   1   5  -6 195.575 32.1433  79
  -1  -5   6 130.069 34.9473  74
   1   5  -6 113.824 34.6970  77
   1   5  -6 126.916 29.6354  61
  -1  -5   6 119.015 30.9758  54
  -1  -5   6 122.557 34.5305  18
  -1  -5   5 2147.05 137.913  89
  -1  -5   5 2122.88 128.745  48
   1   5  -5 2131.00 115.560  73
  -1  -5   5 1999.42 140.415  88
   1   5  -5 2070.51 120.286  79
  -1  -5   5 2116.03 134.312  74
   1   5  -5 2143.30 127.971  75
  -1  -5   5 2018.77 133.149  22
   1   5  -5 2216.90 126.711  61
  -1  -5   5 2074.19 132.223  49
   1   5  -5 2076.43 128.492  55
  -1  -5   5 2072.27 140.406  18
  -1  -5   4 51066.0 682.969  74
   1   5  -4 51802.0 648.807  61
   1   5  -4 51910.4 641.076  97
  -1  -5   4 53196.2 644.997 100
  -1  -5   4 53463.6 649.820 107
  -1  -5   4 53009.8 736.763  18
  -1  -5   4 53358.8 648.789 101
   1   5  -4 50606.9 646.622 104
  -1  -5   4 50343.2 652.749  48
   1   5  -4 51763.1 648.896 105
  -1  -5   4 52173.2 730.924  88
  -1  -5   4 52552.0 694.569  22
   1   5  -4 53094.3 647.138  98
  -1  -5   4 52849.0 631.955  81
  -1  -5   4 51062.2 677.746  49
   1   5  -4 52141.9 652.412  75
  -1  -5   4 50282.7 680.759  89
  -1  -5   4 48319.5 664.616  86
  -1  -5   4 53110.0 648.391 102
   1   5  -4 49860.1 645.315  55
   1   5  -4 52970.0 599.245  60
   1   5  -4 52047.5 651.269 103
   1   5  -4 52539.8 641.838  79
   1   5  -4 52681.1 626.550  73
  -1  -5   4 54883.4 671.856  19
  -1  -5   4 53116.2 633.742  76
   1   5  -3 6438.81 230.877  75
   1   5  -3 6488.50 225.664  73
  -1  -5   3 6483.62 235.029 102
  -1  -5   3 5969.72 360.901   4
   1   5  -3 6558.15 236.064  97
   1   5  -3 6216.32 233.600 105
  -1  -5   3 6538.91 234.331 107
  -1  -5   3 6440.56 229.421  48
  -1  -5   3 6483.85 254.089  88
  -1  -5   3 6786.46 233.782  76
  -1  -5   3 6006.47 374.692  68
  -1  -5   3 6379.56 403.230  95
   1   5  -3 6347.64 226.846  79
  -1  -5   3 6280.40 237.102  86
  -1  -5   3 6257.40 399.227  96
  -1  -5   3 6169.67 394.839  93
  -1  -5   3 6789.64 227.244  33
   1   5  -3 7122.74 424.286  38
  -1  -5   3 6257.83 400.406  92
   1   5  -3 6797.87 413.431  36
  -1  -5   3 6358.31 406.735  91
   1   5  -3 6436.23 218.544  60
   1   5  -3 6933.89 417.011  37
  -1  -5   3 6332.86 238.466  74
  -1  -5   3 6252.35 401.501  90
  -1  -5   3 6455.79 239.771  49
  -1  -5   3 6483.24 240.041  89
  -1  -5   3 7062.94 231.795  42
   1   5  -3 6146.19 377.835  34
   1   5  -3 6370.34 236.287 103
  -1  -5   3 6676.75 245.104  19
   1   5  -3 6154.77 403.902  94
  -1  -5   3 6854.17 234.230  81
   1   5  -3 6336.31 232.783  98
  -1  -5   3 6531.59 235.720 101
  -1  -5   3 5827.62 237.559   7
   1   5  -3 6344.29 233.192  99
   1   5  -2 86220.5 808.264  75
   1   5  -2 86390.1 856.184 103
   1   5  -2 86432.1 803.681  73
   1   5  -2 86695.6 841.388  97
  -1  -5   2 84321.5 851.488   7
  -1  -5   2 77558.0 1295.91  68
   1   5  -2 86609.5 1388.30  38
  -1  -5   2 81204.5 1387.90  92
   1   5  -2 86257.5 858.021 105
  -1  -5   2 88631.8 870.460  88
   1   5  -2 89564.2 1458.27  36
   1   5  -2 85121.0 1406.05  37
  -1  -5   2 85315.8 791.523  33
   1   5  -2 85477.0 787.095  60
  -1  -5   2 87596.5 845.389  74
  -1  -5   2 86481.0 823.998  81
  -1  -5   2 80217.0 1379.15  91
   1   5  -2 78862.5 1390.40  94
  -1  -5   2 80954.4 1373.70  96
  -1  -5   2 86466.6 819.795  76
  -1  -5   2 87717.4 854.154 102
  -1  -5   2 87438.4 865.027  19
  -1  -5   2 85264.8 822.016  89
   1   5  -2 86331.9 843.142  98
   1   5  -2 84921.6 841.964  99
  -1  -5   2 86099.3 846.924 101
  -1  -5   2 84407.2 820.337  86
  -1  -5   2 87140.6 844.837 107
  -1  -5   2 80887.3 1384.28  93
  -1  -5   2 89744.5 815.669  42
  -1  -5   2 80465.1 1384.34  95
   1   5  -2 88558.1 820.210  79
   1   5  -2 92875.6 1338.56  34
  -1  -5   2 86310.2 841.905  49
  -1  -5   2 84573.3 786.572  48
  -1  -5   1 9284.86 422.601  68
  -1  -5   1 9677.62 459.099  95
   1   5  -1 9286.47 456.629  90
  -1  -5   1 9213.43 448.657  96
   1   5  -1 9503.46 459.363  94
  -1  -5   1 9655.87 461.081  93
  -1  -5   1 9661.27 456.937  92
   1   5  -1 10560.2 451.413  38
  -1  -5   1 10814.0 420.515   1
  -1  -5   1 9343.40 453.832  91
   1   5  -1 10136.8 462.862  37
   1   5  -1 10466.2 475.510  36
  -1  -5   1 9307.28 433.511  40
   1   5   0 1505.69 176.331  90
  -1  -5   0 1394.24 163.825  91
   1   5   0 1421.53 169.031  37
   1   5   0 1486.11 171.631  94
   1   5   0 1561.24 174.892  36
  -1  -5   0 1181.93 152.249  93
  -1  -5   0 1636.45 167.240   1
  -1  -5   0 1318.22 159.229  96
   1   5   0 1490.91 163.678  38
  -1  -5   0 1488.21 168.714  95
  -1  -5   0 1463.52 168.048  92
  -1  -5   0 1941.64 177.042  39
  -1  -5   0 1369.84 151.293  40
   1   5   1 210.798 61.1880  38
  -1  -5  -1 151.826 50.2540  95
   1   5   1 75.4007 36.7352  67
   1   5   1 96.1886 50.5453  36
  -1  -5  -1 24.4041 22.6405  92
   1   5   1 89.0043 43.0962  94
  -1  -5  -1 54.0264 45.9241   1
  -1  -5  -1 74.2791 36.3974  39
  -1  -5  -1 62.2211 34.6533  96
   1   5   1 124.899 47.4795  90
  -1  -5  -1 34.8630 29.5683  35
  -1  -5  -1 7.67635 15.9599  91
  -1  -5  -1 44.6064 27.1997  93
   1   5   2 16271.5 518.702  67
  -1  -5  -2 16170.9 501.567  93
   1   5   2 16722.7 516.954  90
   1   5   2 17888.7 580.385  36
   1   5   2 16558.7 514.731  94
  -1  -5  -2 16179.3 503.883  95
  -1  -5  -2 17556.3 537.178  35
  -1  -5  -2 17026.3 512.081  91
  -1  -5  -2 17921.1 459.089  39
   1   5   2 17041.4 505.572  38
  -1  -5  -2 16264.6 499.122  96
  -1  -5  -2 16903.4 516.444   1
  -1  -5  -2 16245.2 504.099  92
  -1  -5  -3 2395.63 197.308   1
  -1  -5  -3 2338.70 176.645  96
  -1  -5  -3 1991.29 167.019  95
  -1  -5  -3 2216.10 175.700  93
  -1  -5  -3 2262.76 179.275  91
  -1  -5  -3 2399.15 183.877  92
   1   5   3 2256.39 178.609  90
   1   5   3 2296.62 197.809  67
   1   5   3 2220.30 176.136  94
  -1  -5  -3 2459.60 213.266  35
   1   5   3 2678.13 225.140  36
   1   5   4 1136.77 144.338  67
  -1  -5  -4 1280.13 148.128   1
   1   5   4 1459.32 166.285  36
  -1  -5  -4 1499.04 177.020  35
  -1  -5  -5 1105.12 137.166   1
   1   5   5 938.744 137.167  36
   1   5   5 879.053 131.740  67
  -1  -5  -5 911.718 144.978  35
   1   5   5 883.298 137.207   5
  -1  -5  -6 14794.7 596.556  35
   1   5   6 15039.1 344.895  15
   1   5   6 14165.3 325.961  71
   1   5   6 13795.5 319.391  26
   1   5   6 14888.4 337.292  84
   1   5   6 12820.1 534.523   5
   1   5   6 14614.1 326.007  58
   1   5   6 14183.2 328.161  25
   1   5   6 13092.5 541.834  67
   1   5   6 15437.4 351.994  54
   1   5   6 13372.6 301.514   9
   1   5   6 14802.4 567.614  36
   1   5   6 14291.2 325.270  51
   1   5   6 14941.7 326.003  12
   1   5   7 15488.8 346.629  71
   1   5   7 15179.5 608.128  67
   1   5   7 16529.0 379.485  15
   1   5   7 16274.8 344.811  58
   1   5   7 16687.8 366.168  84
   1   5   7 16166.0 361.359  51
   1   5   7 15601.4 360.804  25
  -1  -5  -7 16493.9 648.133  35
   1   5   7 15633.3 356.288  26
   1   5   7 15986.5 338.025   9
   1   5   7 16100.5 355.222  12
   1   5   7 16832.0 378.543  54
   1   5   8 2597.70 150.065  25
   1   5   8 2651.42 156.354  54
   1   5   8 2288.40 139.160  12
   1   5   8 2549.88 149.558  26
   1   5   8 2628.73 149.988  51
   1   5   8 2674.65 140.548  71
   1   5   9 75.3479 35.3227  12
   1   5   9 65.3519 28.4547  25
   1   5   9 98.8958 38.2095  51
   1   5   9 119.702 38.1956  26
   1   5  10 9317.79 241.875  12
   1   5  10 9077.72 238.156  26
   1   5  10 9449.72 253.241  54
   1   5  10 9147.72 238.388  51
   1   5  11 14427.1 226.519  26
   1   5  11 14746.4 227.592  51
   1   6  -6 2091.85 78.0036  41
  -1  -6   6 1984.50 81.4262  30
   1   6  -6 1921.48 76.1732  87
   1   6  -6 2075.14 79.6816  55
   1   6  -6 2060.98 73.3603  75
  -1  -6   6 2106.03 82.1082  74
  -1  -6   6 2112.85 81.5423  49
   1   6  -6 2180.32 80.7931  77
   1   6  -5 925.427 71.3446  75
  -1  -6   5 878.286 75.1276  88
  -1  -6   5 913.657 74.2700  49
   1   6  -5 846.934 69.3564  77
   1   6  -5 959.923 70.6696  61
   1   6  -5 918.043 71.4093  55
  -1  -6   5 966.029 71.5798  22
  -1  -6   5 901.212 78.4103  18
  -1  -6   5 974.696 77.4499  74
   1   6  -5 873.381 69.5064  41
   1   6  -5 895.447 65.6281  79
  -1  -6   5 889.804 71.0974  54
  -1  -6   5 935.583 67.8537  48
   1   6  -4 8400.45 238.643 105
   1   6  -4 8640.83 246.627  55
   1   6  -4 8217.72 240.289  75
  -1  -6   4 8310.77 252.122  49
  -1  -6   4 8535.56 242.782  19
   1   6  -4 8316.39 242.359  61
   1   6  -4 8306.82 236.185  98
  -1  -6   4 8269.14 233.530 107
   1   6  -4 8194.35 236.276 103
  -1  -6   4 8524.12 236.529 100
  -1  -6   4 8143.34 226.018  76
   1   6  -4 8134.93 234.347  79
  -1  -6   4 8148.38 266.434  18
   1   6  -4 8384.12 225.175  73
  -1  -6   4 8622.15 239.695 102
  -1  -6   4 8272.69 247.515  89
  -1  -6   4 8281.70 260.203  88
  -1  -6   4 8416.88 255.553  74
   1   6  -4 8122.30 231.962  97
  -1  -6   4 8387.09 236.069 101
  -1  -6   4 7628.98 228.753  22
   1   6  -4 8298.88 237.813 104
  -1  -6   4 8051.94 228.341  48
   1   6  -4 8419.90 242.996  77
   1   6  -3 12363.4 316.292  75
  -1  -6   3 12489.5 323.128 102
  -1  -6   3 12639.4 299.493  42
   1   6  -3 12992.7 303.458  60
   1   6  -3 12299.3 317.059  61
   1   6  -3 12460.5 324.083  97
  -1  -6   3 13514.1 348.100  88
  -1  -6   3 12501.8 324.415 101
  -1  -6   3 13237.4 362.175  18
   1   6  -3 12483.5 328.642 103
   1   6  -3 12311.7 324.157  98
  -1  -6   3 12369.2 320.791 100
   1   6  -3 13449.8 319.992  73
   1   6  -3 12638.1 315.617  55
  -1  -6   3 12910.0 326.009  89
  -1  -6   3 12691.6 331.958  19
  -1  -6   3 11874.0 321.232  49
  -1  -6   3 12818.7 325.220 107
   1   6  -3 12751.2 319.635  79
  -1  -6   3 11191.1 319.353  74
  -1  -6   3 12223.4 312.662  81
   1   6  -3 12218.4 326.281 104
   1   6  -3 12326.1 326.978 105
  -1  -6   3 12647.0 314.747  76
  -1  -6   3 12835.5 307.699  48
  -1  -6   3 12632.5 305.300  33
   1   6  -2 14171.3 342.433  75
   1   6  -2 13742.4 331.116  55
  -1  -6   2 13772.3 354.103  74
   1   6  -2 13912.9 361.253 105
   1   6  -2 14092.0 332.683  60
  -1  -6   2 14107.2 356.383 107
  -1  -6   2 13707.4 333.149  33
  -1  -6   2 13792.3 354.626 101
  -1  -6   2 13824.6 337.474  89
  -1  -6   2 13805.3 344.139  86
   1   6  -2 14275.5 339.379  73
   1   6  -2 13664.4 338.291  61
  -1  -6   2 13746.4 353.350 102
  -1  -6   2 13755.1 347.708  81
   1   6  -2 14061.3 355.438  97
  -1  -6   2 14545.1 357.977  88
  -1  -6   2 14408.0 328.240  48
   1   6  -2 13988.9 357.275  99
   1   6  -2 13606.8 352.500  98
  -1  -6   2 14168.0 368.389  19
  -1  -6   2 14388.2 340.513  42
   1   6  -2 14084.8 361.085 103
   1   6  -2 14010.3 344.460  79
  -1  -6   2 13895.4 350.744  49
  -1  -6   2 14271.8 347.725  76
   1   6  -1 46781.6 611.079  75
  -1  -6   1 46599.4 1120.82  90
   1   6  -1 48592.6 581.246  72
   1   6  -1 46172.0 653.407 105
   1   6  -1 54183.7 1216.00  36
  -1  -6   1 47780.7 645.823  81
  -1  -6   1 48624.5 650.315  74
   1   6  -1 46457.5 647.819  97
   1   6  -1 48506.3 1060.12  38
  -1  -6   1 46904.2 654.596 102
   1   6  -1 45864.2 645.643  98
  -1  -6   1 45783.1 1110.35  95
  -1  -6   1 45796.9 665.753  19
  -1  -6   1 45721.4 1109.52  93
  -1  -6   1 46313.2 1111.22  96
  -1  -6   1 46457.2 649.753 101
   1   6  -1 46386.9 652.903  99
  -1  -6   1 46369.9 617.362  33
   1   6  -1 46071.7 1131.36  94
   1   6  -1 46924.6 617.976  73
  -1  -6   1 47732.0 606.611  89
  -1  -6   1 46745.4 1122.32  92
  -1  -6   1 46901.9 1124.90  91
   1   6  -1 47665.0 598.524  55
   1   6  -1 48348.9 620.812  61
  -1  -6   1 46146.2 607.103  86
   1   6  -1 46455.9 612.776  60
  -1  -6   1 47623.0 639.532  76
  -1  -6   1 46320.3 647.489 107
   1   6  -1 48012.5 626.549  79
  -1  -6   1 44261.1 1013.71  68
  -1  -6   1 45117.6 631.817  49
  -1  -6   1 49987.4 645.087  42
   1   6  -1 47029.6 661.068 103
   1   6   0 8185.67 252.531  60
   1   6   0 7675.13 256.507  99
  -1  -6   0 7830.09 266.007  19
  -1  -6   0 8096.02 264.118  74
   1   6   0 8252.62 254.952  73
   1   6   0 7658.79 239.276   6
   1   6   0 7910.33 237.257  55
  -1  -6   0 7892.75 263.217 101
   1   6   0 8032.23 248.917  79
   1   6   0 7604.05 238.238  72
  -1  -6   0 7837.05 252.370  49
   1   6   0 7678.46 261.433 105
  -1  -6   0 7895.19 443.331  92
  -1  -6   0 6913.72 232.675   7
  -1  -6   0 7789.99 251.510  33
  -1  -6   0 8049.90 264.096 102
  -1  -6   0 8181.78 260.814  42
   1   6   0 8038.08 243.427  61
   1   6   0 7934.51 260.034  98
  -1  -6   0 8112.02 410.921   1
   1   6   0 7413.34 415.098  67
  -1  -6   0 7792.25 439.610  96
   1   6   0 7710.04 446.475  94
   1   6   0 8047.60 245.644  75
  -1  -6   0 7296.83 425.453  93
   1   6   0 8249.42 417.210  38
  -1  -6   0 7541.51 253.383 107
   1   6   0 7867.64 237.185  56
   1   6   0 9010.71 487.719  36
  -1  -6   0 7213.39 425.993  95
   1   6   0 8082.99 262.027  97
   1   6   0 7802.63 262.339 103
   1   6   0 7945.33 233.986  58
  -1  -6   0 8034.61 264.238  81
  -1  -6   0 8042.58 260.525  76
  -1  -6   0 7394.86 430.239  91
   1   6   1 2851.72 139.949  75
   1   6   1 2600.51 140.296  72
   1   6   1 2808.17 136.238  61
   1   6   1 2637.50 240.810  67
   1   6   1 2674.20 149.984 105
   1   6   1 2805.04 267.498  36
   1   6   1 2778.59 150.172  97
  -1  -6  -1 2731.40 150.355 101
   1   6   1 2752.89 149.149  98
  -1  -6  -1 2365.91 234.866  91
  -1  -6  -1 2948.28 250.873   1
   1   6   1 2543.76 247.362  94
   1   6   1 2653.88 227.578  38
  -1  -6  -1 2706.88 247.263  96
  -1  -6  -1 2632.79 245.005  92
  -1  -6  -1 2201.72 223.152  93
  -1  -6  -1 2284.81 231.342  95
  -1  -6  -1 2926.12 154.251  76
  -1  -6  -1 2767.12 150.674 107
   1   6   1 2778.96 150.587  99
   1   6   1 2712.59 140.147  79
  -1  -6  -1 2825.76 150.029  33
   1   6   1 2814.77 149.376  60
  -1  -6  -1 2635.82 150.725  74
   1   6   1 2723.78 144.210  73
   1   6   1 2766.77 145.201   6
   1   6   1 2627.31 253.124  90
  -1  -6  -1 2853.54 156.646  81
   1   6   1 2741.13 140.891  58
  -1  -6  -1 2777.46 151.248 102
   1   6   1 2747.45 152.648 103
  -1  -6  -1 2759.78 152.520  19
   1   6   1 2670.69 141.000  56
  -1  -6  -1 2678.07 144.842  49
   1   6   2 598.432 114.593  94
   1   6   2 541.626 68.2178  58
   1   6   2 509.578 64.2395  72
   1   6   2 387.544 56.7095 103
   1   6   2 412.758 59.9793   6
   1   6   2 461.396 103.790  36
  -1  -6  -2 519.621 64.9559 102
  -1  -6  -2 425.705 61.2548 101
  -1  -6  -2 636.329 117.148  35
  -1  -6  -2 404.408 102.091  92
   1   6   2 565.101 65.9123  73
  -1  -6  -2 564.685 67.0296  49
   1   6   2 489.815 61.7362  98
   1   6   2 510.988 95.5535  38
  -1  -6  -2 380.613 63.9702  74
  -1  -6  -2 390.111 98.0562  93
   1   6   2 499.076 63.4351  97
   1   6   2 460.052 61.1103  99
  -1  -6  -2 290.204 89.5901  91
  -1  -6  -2 579.581 123.590   1
  -1  -6  -2 426.720 60.4722  19
   1   6   2 432.484 60.3370 105
   1   6   2 63.8844 55.5442  90
  -1  -6  -2 511.592 69.1978  76
  -1  -6  -2 379.331 98.5506  96
  -1  -6  -2 523.434 65.8879 107
   1   6   2 510.463 63.8090  56
   1   6   2 457.134 61.1420  60
  -1  -6  -2 476.951 106.401  95
   1   6   2 446.192 96.6129  67
  -1  -6  -3 247.777 81.6042  35
   1   6   3 144.283 34.6017  72
   1   6   3 332.019 53.8520   6
   1   6   3 76.5277 44.8116  36
   1   6   3-40.7453 30.3080  67
   1   6   3 104.824 37.2693  73
   1   6   3 85.2561 34.2645  58
   1   6   3 51.9091 27.0409  56
   1   6   3 108.935 38.6844  60
  -1  -6  -3 142.941 61.3877  91
   1   6   3 125.392 53.7137  94
  -1  -6  -3 3.93963 32.3226  95
  -1  -6  -3 110.761 39.1527  93
  -1  -6  -3 220.205 71.2648   1
  -1  -6  -3 161.378 66.5992  92
   1   6   3 84.6349 35.1375  84
   1   6   3 78.4514 30.4867  45
  -1  -6  -3 91.2514 50.2122  96
   1   6   4 2245.53 131.863  45
  -1  -6  -4 1781.32 187.884   1
   1   6   4 2068.74 125.774  84
   1   6   4 1970.92 123.162  73
  -1  -6  -4 2139.91 230.454  35
   1   6   4 1939.53 114.875  25
   1   6   4 2039.66 123.520  60
   1   6   4 1840.11 116.652   6
   1   6   4 2032.07 220.577  36
   1   6   4 2122.26 129.385  58
   1   6   4 1855.71 207.413  67
   1   6   4 2106.94 127.887  72
   1   6   4 2203.98 131.922  56
  -1  -6  -5 4716.86 311.769   1
   1   6   5 4704.86 188.976  72
   1   6   5 4998.99 201.892  58
   1   6   5 5032.01 202.213  84
   1   6   5 4418.30 176.935   6
   1   6   5 4857.37 187.144  60
   1   6   5 4507.93 330.504  67
   1   6   5 4624.43 329.257   5
   1   6   5 4866.24 190.047  73
   1   6   5 4602.70 185.251   9
   1   6   5 5097.71 355.694  36
   1   6   5 4672.94 186.568  25
   1   6   5 5059.31 201.860  56
  -1  -6  -5 4864.29 359.988  35
   1   6   5 4582.76 193.303  71
   1   6   6 17403.4 361.307   9
   1   6   6 16509.8 649.930  67
   1   6   6 18295.7 365.348  26
   1   6   6 19338.5 375.798  43
   1   6   6 17971.0 672.534   5
   1   6   6 18791.7 397.675  58
   1   6   6 18059.9 387.954  71
   1   6   6 19565.0 704.045  36
  -1  -6  -6 19656.9 741.743  35
   1   6   6 18228.4 384.481  56
   1   6   6 18468.7 364.698  51
   1   6   6 18507.1 398.494  84
   1   6   6 17985.1 381.898  25
   1   6   7 30361.8 506.721  25
   1   6   7 30110.8 497.101  71
   1   6   7 29593.8 501.787  58
   1   6   7 30891.8 531.905  54
   1   6   7 30436.5 471.739   9
   1   6   7 29899.4 485.121  26
   1   6   7 30164.2 485.674  51
   1   6   7 32012.6 504.807  12
   1   6   8 3080.23 157.020  12
   1   6   8 2976.45 151.495  71
   1   6   8 3265.41 166.127  25
   1   6   8 3096.96 170.803  54
   1   6   8 3346.86 162.812  51
   1   6   8 3225.32 161.003  26
   1   6   9 700.881 73.5204  26
   1   6   9 675.764 71.9364  25
   1   6   9 697.390 78.3504  54
   1   6   9 652.471 71.4727  12
   1   6   9 632.671 69.3748  51
   1   6   9 824.557 73.4984  71
   1   6  10 29.3217 21.5250  51
   1   6  10 23.5614 20.4140  26
   1   6  11 12918.5 197.729  51
   1   6  11 12869.3 198.665  26
   1   7  -4 195.561 33.2938  75
  -1  -7   4 132.499 29.0678  74
   1   7  -4 180.927 26.8578  73
  -1  -7   4 116.309 28.1877  18
  -1  -7   4 110.645 26.9145  54
   1   7  -4 124.673 23.6919 105
   1   7  -4 209.890 34.0809  61
   1   7  -4 159.786 26.9612  97
   1   7  -4 131.069 23.9842  98
   1   7  -4 169.029 32.4449  55
   1   7  -4 156.399 26.7893 103
   1   7  -4 147.929 27.5999 104
   1   7  -4 146.487 28.5232  79
  -1  -7   4 161.830 32.4002  49
   1   7  -4 156.306 29.9548  77
  -1  -7   3 817.039 73.1419 100
  -1  -7   3 871.762 77.7722  74
   1   7  -3 801.577 73.3010  98
   1   7  -3 779.114 72.0567 105
  -1  -7   3 788.295 73.7416  19
   1   7  -3 864.707 74.4808  75
  -1  -7   3 823.792 73.6506 101
  -1  -7   3 747.950 69.7649 107
   1   7  -3 780.217 71.7821  97
   1   7  -3 759.560 71.2474 103
   1   7  -3 824.311 66.0748  60
   1   7  -3 731.936 66.5033  73
   1   7  -3 765.638 72.3742 104
  -1  -7   3 687.069 67.0027 102
  -1  -7   3 799.701 77.1905  18
   1   7  -3 752.732 71.1173  61
  -1  -7   3 724.136 63.8057  88
   1   7  -3 807.104 73.1815  79
  -1  -7   3 793.034 73.5997  49
   1   7  -3 875.923 74.5185  55
   1   7  -3 843.665 72.2523  77
  -1  -7   3 741.636 69.5703  76
  -1  -7   2 16299.1 370.551  19
  -1  -7   2 16353.8 360.296 107
  -1  -7   2 15746.4 353.130 100
   1   7  -2 15863.1 331.107  60
  -1  -7   2 16368.3 361.290 102
   1   7  -2 16255.1 364.934 104
   1   7  -2 16367.6 344.778  61
   1   7  -2 16305.4 365.303 105
   1   7  -2 16008.6 356.637  97
  -1  -7   2 16178.1 347.649  81
   1   7  -2 16238.3 337.101  73
   1   7  -2 16519.0 346.311  75
   1   7  -2 16429.4 333.173  55
   1   7  -2 16323.8 361.555  98
  -1  -7   2 16193.1 360.542 101
   1   7  -2 15868.4 359.276 103
  -1  -7   2 16059.0 326.202  42
  -1  -7   2 15853.5 351.110  49
   1   7  -2 16067.4 345.055  79
  -1  -7   2 16613.3 360.156  74
  -1  -7   2 16637.6 368.991  18
   1   7  -2 15846.8 325.416  77
  -1  -7   2 15817.7 332.018  33
  -1  -7   2 16246.0 351.756  76
  -1  -7   1 27441.7 467.102  33
   1   7  -1 27429.3 469.711  73
   1   7  -1 24106.4 472.702 105
  -1  -7   1 27438.7 496.285 100
   1   7  -1 27023.9 465.528  60
   1   7  -1 23239.2 461.030  99
   1   7  -1 27641.6 445.625  55
   1   7  -1 23874.4 466.256  98
   1   7  -1 27408.8 464.419  75
  -1  -7   1 27774.1 511.202  19
  -1  -7   1 28563.6 479.176  42
   1   7  -1 28203.2 442.963  77
  -1  -7   1 27741.0 487.987  76
   1   7  -1 28617.4 468.005  61
  -1  -7   1 27714.9 495.664 107
  -1  -7   1 25214.7 473.013  74
  -1  -7   1 28586.3 492.536  49
   1   7  -1 23608.0 467.643 103
   1   7  -1 23755.3 463.448  97
   1   7  -1 27969.3 476.327  79
  -1  -7   1 29252.5 497.353  18
  -1  -7   1 27730.2 485.106  81
  -1  -7   1 27713.5 499.556 101
  -1  -7   1 28057.4 501.218 102
   1   7  -1 22941.1 462.583 104
   1   7   0 551.967 71.7400  75
  -1  -7   0 503.473 71.5051  76
   1   7   0 573.064 76.1768 105
  -1  -7   0 579.094 76.9412  74
  -1  -7   0 651.715 79.9013 101
   1   7   0 640.713 71.2424  43
  -1  -7   0 518.210 72.1144 107
   1   7   0 558.527 65.3218  56
   1   7   0 545.617 73.3925  60
  -1  -7   0 604.167 76.7546  42
   1   7   0 496.503 71.1890  98
   1   7   0 594.994 68.1059  55
   1   7   0 606.358 67.3415  77
  -1  -7   0 601.040 78.6962  49
   1   7   0 573.606 76.2142  97
  -1  -7   0 708.889 78.7148  18
   1   7   0 587.524 73.1431  79
  -1  -7   0 569.066 77.8264  19
   1   7   0 558.750 74.7852  99
   1   7   0 526.342 65.8631  72
   1   7   0 576.823 70.8661  61
   1   7   0 591.679 76.8563  73
  -1  -7   0 541.948 72.4367  33
  -1  -7   0 557.521 74.9428  81
  -1  -7   0 558.086 73.5520 102
   1   7   0 561.127 76.6458 103
   1   7   1 5166.31 215.345  99
   1   7   1 5300.66 201.972  75
  -1  -7  -1 5594.12 222.915  74
   1   7   1 5379.29 214.975  43
   1   7   1 5050.10 205.045  72
   1   7   1 5122.30 202.794  56
  -1  -7  -1 5300.31 218.048  76
   1   7   1 5296.33 202.223  58
   1   7   1 5147.13 214.821  98
  -1  -7  -1 5183.14 216.384 101
  -1  -7  -1 5164.75 214.022 107
  -1  -7  -1 5236.89 210.050  49
  -1  -7  -1 4937.82 210.110  33
   1   7   1 5583.02 199.040  61
   1   7   1 5170.27 210.295  60
   1   7   1 5326.21 214.419  73
   1   7   1 5432.13 193.512  55
  -1  -7  -1 5339.04 218.844 102
   1   7   1 5291.40 216.480  97
   1   7   1 5334.00 222.505 105
   1   7   1 5312.92 220.560 103
  -1  -7  -1 5376.51 226.349  81
  -1  -7  -1 5199.73 222.883  19
   1   7   1 5190.05 203.718  79
  -1  -7  -1 5299.08 220.299  42
  -1  -7  -2 11339.6 313.323  76
   1   7   2 10896.7 303.107  73
  -1  -7  -2 10463.2 319.489  81
  -1  -7  -2 10991.2 310.001  74
   1   7   2 10533.7 299.358   6
  -1  -7  -2 11168.4 298.109  49
   1   7   2 10946.5 304.811  99
   1   7   2 11249.8 304.312  56
   1   7   2 10636.5 302.371  72
  -1  -7  -2 10947.9 302.915 102
   1   7   2 11302.4 280.998  75
  -1  -7  -2 10875.9 310.138  33
   1   7   2 10999.6 307.717 103
   1   7   2 11474.2 314.936 105
   1   7   2 10735.0 295.636  58
   1   7   2 10961.6 534.638  94
   1   7   2 11300.7 307.164  98
  -1  -7  -2 12516.3 560.513   1
   1   7   2 12442.5 609.308  36
   1   7   2 11156.3 304.663  97
  -1  -7  -2 11100.3 303.490 107
  -1  -7  -2 11110.3 305.973 101
  -1  -7  -2 11064.6 311.747  19
   1   7   2 11123.8 287.885  79
   1   7   2 10875.4 305.049  60
   1   7   3 1502.40 108.073  99
   1   7   3 1543.15 109.622  97
   1   7   3 1425.45 113.028  72
   1   7   3 1584.78 112.958 105
   1   7   3 1604.42 109.013  71
   1   7   3 1462.74 109.807 103
  -1  -7  -3 1635.46 113.169 107
  -1  -7  -3 1636.92 113.191 102
  -1  -7  -3 1703.15 115.448  49
  -1  -7  -3 1592.25 121.081  74
  -1  -7  -3 1520.08 110.784 101
   1   7   3 1492.48 113.805   6
   1   7   3 1462.31 113.437  73
   1   7   3 1525.48 115.856  56
  -1  -7  -3 1916.80 229.114   1
   1   7   3 1493.72 116.830  60
   1   7   3 1502.01 107.369  98
  -1  -7  -3 1574.55 120.056  76
   1   7   3 1534.67 209.220  36
   1   7   3 1392.25 111.070  58
   1   7   3 1648.41 207.175  67
   1   7   3 1464.57 105.569  84
  -1  -7  -3 1874.78 214.571  35
  -1  -7  -3 1624.57 115.087  19
  -1  -7  -4 3623.62 316.582  35
   1   7   4 2926.23 157.047   6
   1   7   4 2804.72 149.381  71
   1   7   4 3215.56 160.195  84
   1   7   4 2983.68 159.056  60
   1   7   4 3008.79 160.119  73
   1   7   4 2730.73 154.097  72
   1   7   4 3487.31 310.651  36
   1   7   4 3099.27 165.540  58
  -1  -7  -4 2881.47 161.608  74
   1   7   4 3079.27 164.877  56
  -1  -7  -4 2960.19 157.363  76
   1   7   5 574.801 73.0532  72
   1   7   5 572.722 69.2964   6
   1   7   5 531.942 70.7550  60
   1   7   5 550.074 73.5075  56
   1   7   5 641.738 75.7065  43
   1   7   5 615.297 77.3171  84
   1   7   5 654.630 77.4113  73
   1   7   5 535.255 68.8899   9
   1   7   5 509.045 70.8650  71
  -1  -7  -5 497.201 64.7995  76
   1   7   5 648.005 79.7346  58
   1   7   5 593.243 67.6626  25
   1   7   6 783.989 79.4134  73
   1   7   6 736.021 83.8517  56
   1   7   6 711.407 81.1311  71
   1   7   6 785.939 89.2883  58
   1   7   6 847.417 82.6953  43
   1   7   6 811.429 82.1780   9
   1   7   6 795.592 81.2977  25
   1   7   7 1083.28 95.6338  71
   1   7   7 1128.17 96.3575  25
   1   7   7 992.385 82.5201  26
   1   7   7 929.509 90.3383  58
   1   7   7 1100.50 89.9790   9
   1   7   7 1108.64 87.2631  51
   1   7   8 267.058 48.4056  71
   1   7   8 284.664 43.9444  51
   1   7   8 301.967 51.1309  25
   1   7   8 339.864 50.6242  26
   1   7   9 120.686 30.0636  71
   1   7   9 113.890 28.4135  51
   1   7   9 113.924 30.3090  26
   1   7   9 107.712 31.3455  25
   1   7  10 4412.29 131.965  17
   1   7  10 4583.45 133.126  26
   1   7  10 4592.16 132.178  51
  -1  -8   3 5399.56 127.686  74
   1   8  -3 5764.51 128.960  61
  -1  -8   3 5300.71 129.582  30
   1   8  -3 5761.50 129.300  75
  -1  -8   3 5441.76 127.076  49
   1   8  -3 5345.45 125.687  79
   1   8  -3 5148.57 117.586 103
   1   8  -3 5243.92 117.925 105
   1   8  -3 4530.62 110.407 106
   1   8  -3 5134.44 116.422 104
   1   8  -3 5232.32 117.184  98
   1   8  -3 5128.61 115.881  97
  -1  -8   2 1777.88 94.5675 101
  -1  -8   2 1848.75 96.2171 102
  -1  -8   2 1808.49 95.4152 100
   1   8  -2 1866.98 98.1408 103
   1   8  -2 1825.28 95.7499  98
  -1  -8   2 1798.10 92.8296  49
   1   8  -2 1805.05 95.4564  97
  -1  -8   2 1781.81 94.6125 107
   1   8  -2 1810.81 92.1269  75
   1   8  -2 1759.32 88.6739  73
  -1  -8   2 1878.18 96.3811  74
  -1  -8   2 1827.24 98.2315  19
   1   8  -2 1737.57 84.0186  60
   1   8  -2 1793.40 93.2149  79
   1   8  -2 1857.69 97.9756 105
   1   8  -2 1707.30 94.3495 104
   1   8  -2 1926.97 94.9108  61
  -1  -8   2 1759.62 90.8944  76
   1   8  -1 3564.90 144.167  75
   1   8  -1 3408.25 141.928  60
   1   8  -1 3682.11 156.405  98
   1   8  -1 3742.95 151.165  79
   1   8  -1 3734.79 144.691  61
  -1  -8   1 3707.11 154.748 107
   1   8  -1 3629.30 156.152 105
  -1  -8   1 3846.80 148.669  33
   1   8  -1 3548.95 154.965 103
  -1  -8   1 3697.61 156.284 102
  -1  -8   1 3648.81 151.874  74
  -1  -8   1 3855.64 158.867 101
   1   8  -1 3781.80 157.843  97
  -1  -8   1 3509.92 134.576  18
  -1  -8   1 3806.94 157.818 100
   1   8  -1 3722.44 158.633 104
  -1  -8   1 3780.33 161.579  19
   1   8  -1 3558.87 146.896  73
  -1  -8   1 3672.41 150.736  81
  -1  -8   1 3662.78 147.335  49
  -1  -8   1 3562.12 150.232  76
  -1  -8   0 4885.41 187.387  74
   1   8   0 4704.08 185.080  60
  -1  -8   0 4735.18 187.364 107
   1   8   0 5032.45 194.785  98
   1   8   0 5003.61 172.735  43
  -1  -8   0 4868.30 187.235  42
   1   8   0 4821.45 194.377 105
   1   8   0 4825.19 170.053  61
  -1  -8   0 4644.69 187.992 101
  -1  -8   0 4854.76 196.170  19
  -1  -8   0 4869.10 191.569 100
   1   8   0 5072.67 194.755  97
  -1  -8   0 4770.67 181.031  49
   1   8   0 4538.77 173.051  75
   1   8   0 4641.61 181.249  73
   1   8   0 4950.92 196.890 104
  -1  -8   0 4898.33 183.915  33
  -1  -8   0 5066.82 195.731  76
   1   8   0 4980.16 196.613 103
  -1  -8   0 4604.97 190.334  81
  -1  -8   0 4868.45 191.705 102
   1   8   0 4796.21 182.639  79
   1   8   1 858.824 77.8354  75
  -1  -8  -1 787.669 81.6750  33
  -1  -8  -1 866.356 84.0308  74
   1   8   1 804.758 81.6438  73
  -1  -8  -1 865.711 85.4543 100
   1   8   1 854.136 84.9802 105
   1   8   1 851.497 85.5726 103
   1   8   1 819.335 85.2911 104
  -1  -8  -1 894.878 87.3306 101
   1   8   1 843.844 83.4527  97
  -1  -8  -1 831.514 84.6660  42
  -1  -8  -1 832.146 76.2428  47
  -1  -8  -1 797.070 82.9525  19
   1   8   1 823.966 77.2421  56
   1   8   1 922.657 87.5671  98
   1   8   1 770.999 81.8496  60
  -1  -8  -1 769.911 80.0501 107
  -1  -8  -1 778.836 82.9760  81
   1   8   1 806.368 79.2359  79
  -1  -8  -1 834.545 79.3642  49
   1   8   1 928.217 85.4929  43
  -1  -8  -1 871.983 85.8659 102
   1   8   1 733.889 70.2281  58
  -1  -8  -1 813.699 84.7969  76
  -1  -8  -2 11009.9 298.624  33
   1   8   2 9504.59 268.959  56
  -1  -8  -2 9830.71 273.582 107
   1   8   2 10049.1 282.107 103
  -1  -8  -2 10124.6 296.363  42
   1   8   2 9448.92 276.074  73
   1   8   2 9918.14 282.657  60
   1   8   2 9844.99 265.017  58
  -1  -8  -2 9903.87 276.348 100
  -1  -8  -2 9794.07 276.551 101
  -1  -8  -2 10782.2 310.725  81
   1   8   2 9849.22 275.899  98
   1   8   2 9588.66 270.574  97
   1   8   2 9659.34 248.763  75
   1   8   2 9716.67 257.977  79
  -1  -8  -2 9822.64 274.965 102
  -1  -8  -2 10215.7 280.894  74
   1   8   2 9367.71 279.942  43
  -1  -8  -2 9908.98 284.860  76
  -1  -8  -2 10040.3 283.383  19
   1   8   2 9526.02 274.746 105
   1   8   2 9578.07 277.239 104
  -1  -8  -2 10071.1 267.558  49
   1   8   3 510.750 70.3352  73
   1   8   3 606.590 68.3674 104
  -1  -8  -3 460.638 58.6117 107
   1   8   3 539.234 63.5178 105
  -1  -8  -3 546.061 76.1091  42
   1   8   3 516.867 69.5068  43
  -1  -8  -3 587.157 67.6391 102
   1   8   3 497.865 69.3627  60
   1   8   3 535.879 67.6882  58
  -1  -8  -3 642.738 74.6882  74
  -1  -8  -3 569.096 66.0359 101
   1   8   3 533.342 68.8091  56
   1   8   3 542.517 65.6105 103
  -1  -8  -3 571.338 74.2333  33
  -1  -8  -3 587.764 78.1325  81
  -1  -8  -3 517.859 64.0406  19
  -1  -8  -3 524.531 63.2161 100
   1   8   3 534.052 63.3455  98
  -1  -8  -3 500.549 61.8270  49
   1   8   3 623.514 67.8359  97
  -1  -8  -3 523.436 68.9641  76
  -1  -8  -4 9499.49 279.541  33
   1   8   4 9753.53 277.374  73
   1   8   4 9760.30 254.933  71
   1   8   4 9318.82 282.515  43
  -1  -8  -4 9250.43 286.179  81
   1   8   4 9455.71 276.963  58
   1   8   4 9446.41 262.231   9
  -1  -8  -4 9919.28 275.409  74
   1   8   4 9548.77 281.418  56
   1   8   4 9417.05 276.394  60
  -1  -8  -4 9620.47 272.377  76
   1   8   5 9423.04 275.049  43
  -1  -8  -5 9703.03 264.970  74
   1   8   5 9558.13 266.921  73
  -1  -8  -5 9522.31 281.155  81
   1   8   5 9529.80 279.935  56
   1   8   5 9038.98 265.801  60
  -1  -8  -5 9319.11 256.444  76
   1   8   5 9214.49 277.068  58
   1   8   5 9331.51 257.944  71
  -1  -8  -5 9424.85 268.273  33
   1   8   5 9695.63 258.831   9
   1   8   6 6669.25 208.732  73
   1   8   6 6898.95 221.531  43
   1   8   6 7063.79 205.134  25
   1   8   6 6853.25 230.842  58
   1   8   6 6547.78 202.420   9
  -1  -8  -6 6427.36 203.685  74
   1   8   6 6591.79 215.566  71
   1   8   7 366.861 54.0969  71
   1   8   7 397.854 60.5137  58
   1   8   7 373.362 50.3308  25
   1   8   8 3348.31 134.582  25
   1   8   8 3138.02 133.212  71
   1   8   9 1221.60 70.1469  17
   1   8   9 1329.64 73.3514  71
   1   8   9 1344.34 61.9393  51
   1   8   9 1195.72 58.8867  26
   1   8  10 698.319 40.5694  17
  -1  -9   1 16.4089 10.2066 101
   1   9  -1 31.0470 13.8891  98
   1   9  -1 29.9850 12.7036 103
  -1  -9   1 45.5427 14.2047  76
   1   9  -1 29.9602 12.1195  97
  -1  -9   1 15.4221 10.2137 102
   1   9  -1 9.50421 12.0903 104
  -1  -9   1 6.47091 9.23213 100
  -1  -9   1 3.45882 8.89633 107
   1   9  -1 13.7106 10.8552 105
   1   9  -1 8.86461 10.9831  79
  -1  -9   0 25.3902 14.9391  74
  -1  -9   0 21.5388 15.6997 107
   1   9   0 21.9683 17.4441 105
  -1  -9   0 50.4867 19.4190 101
  -1  -9   0 57.6523 20.2124 100
   1   9   0 54.2446 20.5068  98
   1   9   0 43.8574 19.2495 104
   1   9   0 15.1077 17.4463  60
   1   9   0 46.8440 19.1766 103
  -1  -9   0 45.0109 17.8787  33
  -1  -9   0 50.9011 20.7371  76
   1   9   0 48.4237 19.1536  97
   1   9   0 33.9312 18.7823  73
  -1  -9   0 50.6697 18.0472 102
  -1  -9   0 27.0709 16.9161  81
   1   9   0 37.9493 16.1398  79
  -1  -9   0 43.4803 16.5696  49
   1   9   1 1682.74 91.3902 103
  -1  -9  -1 1585.39 84.6323  74
  -1  -9  -1 1667.48 90.1117 100
   1   9   1 1675.93 91.1166 105
  -1  -9  -1 1643.30 78.4839  49
  -1  -9  -1 1661.27 89.3250 102
   1   9   1 1685.66 89.9651  97
  -1  -9  -1 1683.89 89.6269 107
   1   9   1 1682.92 81.3622  80
   1   9   1 1640.51 82.3680  43
   1   9   1 1674.85 92.1814  73
   1   9   1 1713.17 93.5316  60
  -1  -9  -1 1750.71 93.4849  33
  -1  -9  -1 1639.84 90.9451  19
   1   9   1 1686.84 90.4433  98
  -1  -9  -1 1769.54 95.6329  81
  -1  -9  -1 1634.16 89.0921 101
   1   9   1 1668.71 91.3485 104
  -1  -9  -1 1582.15 88.1902  42
  -1  -9  -1 1697.92 92.5219  76
  -1  -9  -2 1230.24 86.2830  81
  -1  -9  -2 1118.63 80.1210  33
  -1  -9  -2 1206.02 77.9898 107
  -1  -9  -2 1107.36 67.4270  49
   1   9   2 1207.49 85.2077  73
  -1  -9  -2 1210.18 78.1186 101
  -1  -9  -2 1160.16 77.4327  19
  -1  -9  -2 1163.43 75.8516 100
   1   9   2 1216.53 86.0553  60
  -1  -9  -2 1131.12 81.0783  76
  -1  -9  -2 1142.01 76.0451  74
  -1  -9  -2 1159.23 76.2739 102
  -1  -9  -2 1181.13 85.2623  42
   1   9   2 1212.64 82.8515  43
   1   9   2 1228.62 80.8456  80
   1   9   2 986.147 64.9061  58
  -1  -9  -3 11056.5 249.536  47
  -1  -9  -3 10959.6 265.450  81
  -1  -9  -3 11106.0 220.064 101
  -1  -9  -3 11084.3 224.259  19
   1   9   3 10390.3 230.027  58
  -1  -9  -3 11186.1 222.097 100
   1   9   3 11202.4 258.900  60
   1   9   3 10987.6 253.253  73
  -1  -9  -3 10951.1 218.731 102
  -1  -9  -3 11145.8 219.408 107
   1   9   3 10949.1 260.050  43
  -1  -9  -3 11105.7 256.500  33
  -1  -9  -3 11089.6 267.205  42
  -1  -9  -3 11019.7 235.842  74
  -1  -9  -3 11156.6 248.891  76
  -1  -9  -4 185.104 34.2406  74
   1   9   4 202.907 38.9020  73
  -1  -9  -4 122.757 34.9914  42
   1   9   4 190.621 38.2552  58
  -1  -9  -4 213.831 37.0045  76
  -1  -9  -4 206.424 39.8995  33
   1   9   4 194.523 40.7801  60
  -1  -9  -4 204.038 41.1681  81
   1   9   4 207.338 40.9531  43
  -1  -9  -5 20650.4 331.691  33
  -1  -9  -5 18854.0 284.138  74
   1   9   5 19197.0 323.687  73
   1   9   5 19981.1 292.027  71
  -1  -9  -5 17923.3 362.478  42
  -1  -9  -5 20201.0 344.719  81
   1   9   5 19968.4 345.177  43
   1   9   5 19644.9 320.285  60
   1   9   5 20750.9 342.799  80
   1   9   5 18866.2 338.097  58
  -1  -9  -5 19044.6 292.628  76
   1   9   6 299.760 38.7551  71
  -1  -9  -6 310.631 41.3052  33
   1   9   6 242.919 40.0734  58
  -1  -9  -6 303.241 46.8804  42
   1   9   6 305.365 41.7223  43
  -1  -9  -6 281.461 40.6952  81
   1   9   6 265.958 39.3155  80
  -1  -9  -7 6914.19 151.000  33
  -1  -9  -7 6649.12 180.520  42
   1   9   8 1286.31 64.2652  71
   1   9   8 1237.14 60.7240  23
  -1 -10  -3 1041.28 51.5083  81
  -1 -10  -4 252.426 28.8190  42
  -1 -10  -4 551.643 37.7190  33
   1  10   4 565.162 39.5744  80
   1  10   4 365.043 32.1595  73
  -1 -10  -4 402.612 33.7513  81
  -1 -10  -5 259.575 27.7019  47
   1  10   5 318.410 29.6038  80
  -2   9   5 2223.32 77.2429   9
   2  -9  -5 2128.40 74.2721  47
   2  -9  -5 2094.18 74.6748  70
  -2   9   5 2338.25 79.2685  80
   2  -9  -4 324.302 31.4702  70
  -2   9   4 251.911 29.6757  73
  -2   9   4 359.419 32.4336  80
  -2   9   4 323.088 31.9824   9
   2  -9  -4 282.623 30.3447  47
   2  -9  -3 506.807 36.5585  70
   2  -9  -3 601.762 41.0641  47
  -2   9   3 553.393 38.9103   9
  -2   8   8 47.0166 15.5041  23
   2  -8  -8 53.5538 15.5721  46
  -2   8   8 57.4916 17.3349  71
   2  -8  -7 9.57242 11.7991  47
  -2   8   7 15.3556 14.6798  23
  -2   8   7 3.43120 18.6183   9
  -2   8   7 25.4837 17.1643  71
   2  -8  -7-3.28024 12.5039  70
  -2   8   6 16998.9 257.347  71
  -2   8   6 17891.7 309.737   9
  -2   8   6 17646.4 299.196  80
  -2   8   6 16586.7 307.895  73
   2  -8  -6 17320.1 285.902  47
  -2   8   6 17042.4 268.836  23
  -2   8   5 7986.58 217.550   9
   2  -8  -5 7892.37 199.978  42
   2  -8  -5 8350.87 218.283  47
  -2   8   5 8447.98 186.341  23
  -2   8   5 8575.36 223.172  80
  -2   8   5 8053.54 221.655  73
   2  -8  -5 8400.89 226.706  46
  -2   8   4 16305.0 321.251  73
  -2   8   4 16303.5 289.984  55
   2  -8  -4 17239.2 311.468  42
  -2   8   4 16860.5 320.300   9
   2  -8  -4 16887.8 326.179  46
  -2   8   4 17288.5 322.030  80
   2  -8  -4 17276.7 327.291  47
  -2   8   4 15784.8 326.351  60
  -2   8   3 43.8332 24.3219  75
  -2   8   3 68.8375 31.9489   9
  -2   8   3 59.4940 28.3966  60
   2  -8  -3 73.2740 26.5974  42
   2  -8  -3 136.545 29.3744  81
   2  -8  -3 65.3469 21.6705  33
   2  -8  -3 101.205 30.6202  46
   2  -8  -3 90.8780 28.3337  47
  -2   8   3 94.5282 31.2869  79
  -2   8   3 134.424 35.7279  55
  -2   8   3 121.061 33.4863  80
  -2   8   3 90.3253 34.6755  73
   2  -8  -2 1364.92 81.1694 100
   2  -8  -2 1416.45 82.5359  33
   2  -8  -2 1419.60 76.4744  76
   2  -8  -2 1458.82 87.7248  46
   2  -8  -2 1406.04 89.0111  70
  -2   8   2 1470.25 89.4020  55
  -2   8   2 1312.28 87.5040  75
   2  -8  -2 1423.53 83.0676 101
  -2   8   2 1262.40 86.1962  60
   2  -8  -2 1338.38 89.7498  42
   2  -8  -2 1396.69 81.6272 102
   2  -8  -2 1423.26 81.6466  20
   2  -8  -2 1362.40 80.9169  99
   2  -8  -2 1431.89 92.7018  47
  -2   8   2 1375.89 90.7453  79
  -2   8   2 1407.38 83.8902  80
   2  -8  -2 1409.79 84.7563  81
  -2   8   2 1200.13 84.0209  73
   2  -8  -2 1358.42 79.9916 107
   2  -8  -1 8654.46 205.032  47
  -2   8   1 8516.90 204.156 105
   2  -8  -1 8548.29 200.880  99
  -2   8   1 7703.12 177.428  73
  -2   8   1 8787.69 206.958 103
   2  -8  -1 8642.24 211.016  42
  -2   8   1 7683.83 185.156  60
  -2   8   1 8657.60 202.532  55
   2  -8  -1 8412.43 184.243  76
   2  -8  -1 8685.23 201.718  81
   2  -8  -1 8624.30 202.673 101
  -2   8   1 8662.16 202.384  97
   2  -8  -1 8531.16 200.618 100
   2  -8  -1 8607.93 202.281 102
  -2   8   1 8189.25 210.710  79
   2  -8  -1 8452.01 199.399 107
  -2   8   1 8549.42 204.242 106
  -2   8   1 8834.82 206.254 104
   2  -8  -1 8612.80 200.702  20
  -2   8   1 8495.38 209.373  75
   2  -8   0 140.966 26.6855  81
  -2   8   0 115.915 28.3365  75
  -2   8   0 142.918 28.6546 106
   2  -8   0 125.144 25.4001 107
  -2   8   0 151.690 29.9017 105
   2  -8   0 168.641 29.0683 102
  -2   8   0 133.390 27.2393  97
  -2   8   0 139.925 27.2123 103
  -2   8   0 150.828 28.2813  55
   2  -8   0 150.664 27.5494  99
   2  -8   0 130.055 26.9040 101
   2  -8   0 147.165 28.8968  42
   2  -8   0 155.896 28.7633 100
   2  -8   0 130.959 25.1918  20
  -2   8   0 121.098 27.7311  79
  -2   8   0 162.259 29.7741 104
   2  -8   0 128.944 23.7149  76
   2  -8   1 660.164 45.0924  99
   2  -8   1 654.741 44.2842 100
  -2   8  -1 726.727 47.2383 105
   2  -8   1 650.063 44.3479  20
   2  -8   1 624.879 42.6688  81
  -2   8  -1 697.070 46.1524  97
  -2   8  -1 528.257 40.2308  79
   2  -8   1 594.242 39.3657  76
   2  -8   1 621.280 43.5617  32
  -2   8  -1 645.964 42.1641  61
   2  -8   1 660.266 44.5710 102
  -2   8  -1 630.404 43.6271  55
  -2   8  -1 628.634 44.5917 103
  -2   8  -1 645.713 43.8804  75
   2  -8   1 683.748 45.4600 101
  -2   8  -1 737.922 47.7361 104
   2  -8   1 661.089 44.4052  42
  -2   8  -1 636.421 44.5023 106
   2  -8   1 651.285 43.9988 107
  -2   7   9 18643.0 257.467  17
  -2   7   9 18337.0 263.227  71
  -2   7   8 11985.2 233.715  17
  -2   7   8 11594.6 245.793  23
  -2   7   8 11875.0 248.334  71
  -2   7   7 8802.80 234.095  71
   2  -7  -7 9194.92 219.252  47
  -2   7   7 9680.69 259.018   9
  -2   7   7 9699.50 224.227  17
  -2   7   7 9104.29 241.005  23
  -2   7   7 9496.49 237.737  80
  -2   7   6 27264.7 442.804  80
  -2   7   6 26673.9 459.542  73
   2  -7  -6 26165.6 398.460  42
  -2   7   6 26138.8 413.513  71
  -2   7   6 26179.9 402.512  55
  -2   7   6 26183.7 451.053   9
  -2   7   6 27262.3 375.375  17
  -2   7   6 26000.0 418.171  23
  -2   7   5 19427.3 400.602  73
  -2   7   5 18273.2 358.783  55
  -2   7   5 19243.0 349.122  71
  -2   7   5 18266.6 386.857   9
   2  -7  -5 19917.2 375.032  42
  -2   7   5 18767.9 362.288  75
  -2   7   5 18126.5 354.510  23
  -2   7   5 18490.7 397.284  60
  -2   7   5 18843.2 386.458  80
   2  -7  -4 65500.8 742.639  47
  -2   7   4 67136.1 624.062  71
  -2   7   4 67178.6 656.823  23
  -2   7   4 64081.3 751.079  60
  -2   7   4 65010.3 708.163  79
  -2   7   4 65453.7 731.880  80
  -2   7   4 62848.7 735.828  43
  -2   7   4 65054.7 704.726  55
  -2   7   4 64722.2 737.753   9
  -2   7   4 64844.0 708.644  75
  -2   7   4 66217.1 747.555  73
   2  -7  -4 67845.8 733.154  42
  -2   7   3 1733.71 130.562  60
  -2   7   3 1946.92 129.151  73
   2  -7  -3 1961.06 131.786  47
  -2   7   3 1796.83 123.584  75
  -2   7   3 1851.15 128.944  43
  -2   7   3 1928.99 127.560  80
   2  -7  -3 2015.02 117.055  33
   2  -7  -3 1860.36 119.931  81
  -2   7   3 1861.58 123.456  55
   2  -7  -3 1950.84 129.138  42
  -2   7   3 1773.48 121.739  79
   2  -7  -2 11684.7 289.362  33
  -2   7   2 11304.4 300.128  73
  -2   7   2 11967.9 300.902 104
   2  -7  -2 11418.1 312.220  47
  -2   7   2 11034.9 304.336  60
   2  -7  -2 11032.0 301.417  46
   2  -7  -2 11790.8 296.846 102
   2  -7  -2 11609.0 293.864 107
  -2   7   2 11848.6 298.356  98
   2  -7  -2 11673.3 296.969 101
  -2   7   2 11905.6 298.045  97
   2  -7  -2 11414.2 276.692  76
   2  -7  -2 11826.2 297.169 100
  -2   7   2 11360.1 301.555  75
  -2   7   2 11705.6 298.463 105
  -2   7   2 11251.3 299.541  55
   2  -7  -2 11600.0 314.887  42
  -2   7   2 11627.0 298.601 103
   2  -7  -2 11165.7 295.020  81
  -2   7   2 11302.3 291.359  80
  -2   7   2 11628.4 278.012  61
  -2   7   2 11251.7 302.830  79
  -2   7   1 5355.75 206.371 104
  -2   7   1 5175.86 189.452  61
  -2   7   1 4967.28 198.115  98
   2  -7  -1 4959.71 200.470  47
   2  -7  -1 4907.25 190.387  46
  -2   7   1 5140.60 200.214  75
  -2   7   1 5289.02 202.297  97
  -2   7   1 5034.07 195.616  55
  -2   7   1 4818.85 185.022  73
   2  -7  -1 5228.60 207.802  42
   2  -7  -1 5019.03 197.483 100
  -2   7   1 5300.33 205.735 103
  -2   7   1 5076.99 182.929  80
  -2   7   1 4847.89 190.345  60
   2  -7  -1 5131.18 191.739  33
   2  -7  -1 5067.73 198.567 101
   2  -7  -1 5225.87 200.668 102
  -2   7   1 5017.24 203.206  79
   2  -7  -1 5199.17 200.163  81
  -2   7   1 4987.26 200.004 105
   2  -7  -1 5168.22 198.881 107
  -2   7   1 4995.67 181.722  77
   2  -7  -1 4948.57 187.746  76
   2  -7   0 17725.0 347.828  33
   2  -7   0 17292.8 349.699  47
  -2   7   0 17112.4 315.913  73
  -2   7   0 17763.0 365.743  97
   2  -7   0 17251.6 359.411 100
   2  -7   0 17601.7 329.161  70
  -2   7   0 17774.1 330.349  60
  -2   7   0 17955.1 368.001  98
   2  -7   0 17256.0 360.212 101
  -2   7   0 17401.0 330.555  77
   2  -7   0 17833.8 365.442  42
  -2   7   0 17562.1 353.791  75
  -2   7   0 17574.9 367.677 104
  -2   7   0 17664.5 344.454  61
   2  -7   0 17252.4 343.130  76
  -2   7   0 17668.1 368.786 103
   2  -7   0 17309.7 359.239 102
   2  -7   0 17373.0 357.441  81
  -2   7   0 17247.7 353.984  79
  -2   7   0 17622.9 349.321  55
  -2   7   0 17672.0 367.894 105
   2  -7   0 17850.5 363.313 107
  -2   7  -1 2601.87 133.681 104
   2  -7   1 2666.19 134.074  99
   2  -7   1 2503.64 119.297  47
   2  -7   1 2604.00 131.944 100
   2  -7   1 2506.89 129.518 101
  -2   7  -1 2598.37 133.502 105
   2  -7   1 2564.50 131.539 102
  -2   7  -1 2453.26 129.638  98
  -2   7  -1 2467.07 129.345  97
   2  -7   1 2487.42 128.153  81
  -2   7  -1 2612.82 133.968 106
  -2   7  -1 2410.34 123.298  75
  -2   7  -1 2681.86 125.214  77
   2  -7   1 2523.03 128.928  42
  -2   7  -1 2610.93 118.099  87
  -2   7  -1 2628.88 127.761  55
   2  -7   1 2555.72 131.237  20
  -2   7  -1 2450.96 124.480  61
  -2   7  -1 2321.22 124.009  79
   2  -7   1 2501.86 128.603 107
  -2   7  -1 2482.45 131.597 103
   2  -7   1 2453.33 123.957  76
  -2   7  -2 3318.94 120.365  87
   2  -7   2 3088.34 115.588  30
  -2   7  -2 3369.33 135.110 104
   2  -7   2 3303.06 131.285 107
   2  -7   2 3300.09 130.548  20
  -2   7  -2 3259.37 133.435 103
  -2   7  -2 3208.66 123.750  75
   2  -7   2 3396.36 132.903  99
  -2   7  -2 3278.46 131.969  97
   2  -7   2 3387.40 132.710 100
   2  -7   2 3477.92 133.563  42
  -2   7  -2 3250.87 131.736 106
   2  -7   2 3395.29 134.117 101
  -2   7  -2 3135.33 130.658 105
  -2   7  -2 3402.34 130.237  61
   2  -7   2 3386.52 133.639 102
   2  -7   2 3408.49 132.311  81
  -2   7  -2 3088.05 123.469  79
  -2   7  -2 3374.70 126.855  55
  -2   7  -2 3266.91 124.033  77
   2  -7   2 3429.95 129.825  76
   2  -7   3 25.6192 12.9782  76
  -2   7  -3 30.6701 14.0505  75
  -2   7  -3 75.9413 19.8780  61
  -2   7  -3 43.4931 17.0561  55
   2  -7   3 49.5983 15.6932  42
  -2   7  -3 23.3081 13.3703 103
   2  -7   3 46.9025 15.3832  32
   2  -7   3 44.6099 16.0481  99
  -2   7  -3 46.3146 17.3903  87
   2  -7   3 68.0450 17.8796 100
  -2   7  -3 42.6468 14.7700 105
  -2   7  -3 63.7925 17.0266  97
   2  -7   3 41.0803 14.8634  54
   2  -7   3 44.4961 14.0602 102
   2  -7   3 58.2779 16.4947 101
  -2   7  -3 58.8771 16.7190 104
   2  -7   3 50.4942 15.2865  20
   2  -7   3 63.5067 17.8206  81
   2  -7   3 53.7549 16.5288 107
  -2   7  -3 57.1524 17.3032 106
  -2   7  -3 41.9321 17.7968  77
  -2   6  10 1442.74 73.5896  17
  -2   6  10 1317.26 72.1854  11
  -2   6   9 5816.33 176.899  17
  -2   6   9 5675.85 167.820  23
  -2   6   9 5969.54 175.840  26
  -2   6   9 5965.23 174.820  51
  -2   6   9 5548.66 170.253  71
  -2   6   8 236.766 44.8894  17
  -2   6   8 227.866 47.5679   9
  -2   6   8 243.598 43.8469  23
  -2   6   8 284.540 44.4793  26
  -2   6   8 265.569 44.4998  51
  -2   6   8 206.087 42.4433  71
  -2   6   7 1505.85 108.787  71
  -2   6   7 1629.17 103.976  26
  -2   6   7 1779.77 108.554  51
  -2   6   7 1567.66 118.140   9
  -2   6   7 1581.77 108.130  17
  -2   6   7 1550.65 105.451  55
  -2   6   7 1597.35 107.634  80
  -2   6   6 261.165 48.0675  17
  -2   6   6 230.869 49.9770  71
  -2   6   6 236.595 47.1484  80
  -2   6   6 248.576 50.5273  55
  -2   6   6 238.091 47.6066  75
  -2   6   6 284.632 57.5159  73
  -2   6   6 290.873 56.4692   9
  -2   6   5 9.49534 27.0427  75
  -2   6   5 3.97588 27.8556  73
  -2   6   5 11.0883 26.8945  60
  -2   6   5-48.9686 34.4673   9
  -2   6   5 17.7739 19.8318  17
  -2   6   5-11.1141 27.6556  55
  -2   6   5-7.42261 24.6657  80
  -2   6   5 28.4203 30.6234  79
  -2   6   4 38230.7 524.644  71
  -2   6   4 37409.8 579.268  73
  -2   6   4 37305.2 556.591  79
  -2   6   4 36757.8 527.177  23
   2  -6  -4 38287.6 571.686  42
  -2   6   4 36627.4 571.972  43
  -2   6   4 36964.2 564.162  55
  -2   6   4 36851.1 561.163  75
  -2   6   4 37122.1 570.199  80
  -2   6   4 37578.3 590.494  60
  -2   6   3 6371.32 238.432  73
  -2   6   3 6486.81 237.201  79
   2  -6  -3 6496.27 215.796  33
  -2   6   3 6754.65 227.923  58
   2  -6  -3 6928.56 418.943   1
  -2   6   3 6609.42 239.885  80
  -2   6   3 6344.39 242.068  43
   2  -6  -3 6471.28 416.811  39
  -2   6   3 6391.23 212.292  23
  -2   6   3 6517.97 237.310  55
  -2   6   3 6154.27 240.322  60
  -2   6   3 6185.30 235.463  75
   2  -6  -3 6488.82 227.605  81
   2  -6  -3 7023.59 244.902  42
   2  -6  -2 6773.32 422.310  62
   2  -6  -2 6895.32 230.671  33
   2  -6  -2 6805.25 248.672  47
   2  -6  -2 7119.75 227.630  76
  -2   6   2 6588.69 238.524  73
  -2   6   2 6781.14 237.738  98
   2  -6  -2 6674.94 233.677 107
   2  -6  -2 6761.04 234.509 100
  -2   6   2 6932.21 241.205 103
   2  -6  -2 7075.39 253.218  42
   2  -6  -2 6953.27 239.197 101
  -2   6   2 7041.90 231.084  61
  -2   6   2 6979.17 239.701  97
  -2   6   2 7103.58 225.593  77
  -2   6   2 7327.53 436.272  36
  -2   6   2 6541.89 244.193  60
  -2   6   2 6842.85 240.430 105
  -2   6   2 6444.24 241.797  43
   2  -6  -2 6910.66 238.548 102
   2  -6  -2 6794.15 234.528  81
  -2   6   2 6703.06 241.902  75
  -2   6   2 6542.27 236.450  80
  -2   6   2 6870.71 242.190  55
  -2   6   2 6593.98 241.352  79
  -2   6   2 7150.88 245.543 104
   2  -6  -1 62183.2 708.568  33
   2  -6  -1 63765.1 770.243  42
  -2   6   1 62634.2 711.654  73
  -2   6   1 62995.4 753.966 104
  -2   6   1 65933.7 673.937  87
  -2   6   1 63847.1 688.145  41
  -2   6   1 62884.7 724.438  60
  -2   6   1 62359.2 750.645  98
   2  -6  -1 61716.3 738.879 100
  -2   6   1 62788.3 712.319  61
   2  -6  -1 62198.1 744.767 101
   2  -6  -1 62410.0 744.894 102
   2  -6  -1 63540.6 748.060 107
  -2   6   1 61577.3 726.441  55
  -2   6   1 62942.7 755.799 105
  -2   6   1 60732.9 727.330  43
  -2   6   1 63753.8 759.023 103
  -2   6   1 64155.5 745.569  75
  -2   6   1 62081.3 695.093  77
   2  -6  -1 63015.8 733.067  81
  -2   6   1 63123.0 705.762  80
   2  -6  -1 64072.8 743.545  46
  -2   6   1 62334.7 738.784  79
   2  -6  -1 62559.4 748.493  47
  -2   6   1 62806.3 745.732  97
   2  -6  -1 62639.6 700.208  76
  -2   6   0 4591.26 200.570  75
   2  -6   0 4821.81 209.006 107
   2  -6   0 4533.33 204.017 100
   2  -6   0 4827.55 210.269 102
   2  -6   0 4644.81 194.416  46
  -2   6   0 4669.86 190.879  60
  -2   6   0 4523.32 206.861  98
  -2   6   0 4378.10 192.629  61
  -2   6   0 4415.12 199.168  79
  -2   6   0 4564.12 185.612  87
   2  -6   0 4744.73 209.945  42
   2  -6   0 4427.87 192.210  76
  -2   6   0 4587.64 209.814 105
  -2   6   0 4370.88 200.335  97
  -2   6   0 4523.74 186.487  73
  -2   6   0 4483.38 191.036  77
   2  -6   0 4868.26 211.868 101
  -2   6   0 4599.18 188.114  41
  -2   6   0 4481.88 171.629  69
  -2   6   0 4513.79 197.190  55
  -2   6   0 4536.83 206.998 103
  -2   6   0 4675.24 210.142 104
   2  -6   0 4552.98 194.996  33
   2  -6   0 4590.40 201.530  81
  -2   6   0 4422.31 178.633  80
   2  -6   0 4593.43 200.273  47
   2  -6   1 20051.8 407.959  33
  -2   6  -1 19364.5 408.262  75
   2  -6   1 22945.9 449.004 107
   2  -6   1 23807.8 436.266  47
   2  -6   1 23714.8 414.709  46
   2  -6   1 22554.7 449.325 101
  -2   6  -1 23498.3 389.758  69
   2  -6   1 25536.1 449.637  30
   2  -6   1 24228.8 411.908  70
  -2   6  -1 23860.3 427.041  87
  -2   6  -1 24436.4 470.745 104
  -2   6  -1 22884.6 430.614  55
  -2   6  -1 24006.3 463.518  97
  -2   6  -1 24076.5 466.148  98
   2  -6   1 20182.0 422.990  81
  -2   6  -1 23678.2 422.539  41
  -2   6  -1 23724.1 433.432  77
  -2   6  -1 23993.8 466.029 105
   2  -6   1 22607.7 449.186  42
   2  -6   1 21413.6 425.156  76
   2  -6   1 23126.0 454.525 102
  -2   6  -1 23510.5 463.360 103
  -2   6  -1 23719.2 441.987  61
  -2   6  -1 19726.6 406.872  79
   2  -6   1 22148.7 443.190 100
  -2   6  -2 7762.47 253.419  98
  -2   6  -2 7878.79 240.678  75
   2  -6   2 7589.02 218.132  74
   2  -6   2 7719.18 229.215  47
   2  -6   2 8188.58 253.409  30
   2  -6   2 8048.30 254.971 100
   2  -6   2 7855.18 253.098  42
  -2   6  -2 7735.38 254.485 104
  -2   6  -2 7709.61 251.770  97
  -2   6  -2 7702.92 234.131  41
  -2   6  -2 7765.59 239.430  87
   2  -6   2 7955.75 254.677 101
  -2   6  -2 7586.82 240.825  61
  -2   6  -2 7954.81 243.052  55
  -2   6  -2 7684.95 253.203 105
   2  -6   2 7853.15 251.174 107
  -2   6  -2 7829.79 256.497 103
   2  -6   2 8026.81 254.476 102
   2  -6   2 7378.40 247.759  81
  -2   6  -2 7920.53 240.649  79
   2  -6   2 7586.19 218.965  49
  -2   6  -2 7876.10 218.659  69
  -2   6  -2 7943.29 242.281  77
   2  -6   2 7519.48 243.344  76
  -2   6  -3 625.718 62.4569  75
   2  -6   3 590.048 57.0569  74
  -2   6  -3 581.920 65.4736 103
   2  -6   3 610.493 60.1435  49
   2  -6   3 648.736 68.4364  30
   2  -6   3 662.082 70.1641  42
   2  -6   3 662.834 67.9769  99
  -2   6  -3 661.943 67.2637  55
  -2   6  -3 608.934 67.0267 106
   2  -6   3 578.435 63.1771 102
  -2   6  -3 553.969 63.1501 104
  -2   6  -3 617.216 65.4256  61
  -2   6  -3 561.526 62.8937  87
  -2   6  -3 582.421 60.8482  79
   2  -6   3 634.153 65.9785 101
  -2   6  -3 641.198 67.2682  77
  -2   6  -3 537.629 62.0965 105
   2  -6   3 617.480 64.2766 100
  -2   6  -3 616.757 66.1349  41
  -2   6  -3 574.062 63.5376  97
   2  -6   3 558.235 61.4299 107
   2  -6   3 620.454 64.6131  20
   2  -6   3 540.239 64.3578  81
   2  -6   3 608.912 65.6561  76
  -2   6  -4 6223.01 150.914  75
   2  -6   4 6511.89 183.930  32
  -2   6  -4 6358.09 161.469 105
   2  -6   4 6163.31 178.956  30
  -2   6  -4 6304.81 161.006 103
  -2   6  -4 6287.33 160.140 104
  -2   6  -4 6585.32 170.345  41
  -2   6  -4 6302.10 158.685  97
  -2   6  -4 6420.46 167.486  61
  -2   6  -4 6480.14 165.556  55
  -2   6  -4 6518.28 172.864  87
   2  -6   4 5889.57 168.845  54
  -2   6  -4 6029.17 157.846 106
   2  -6   4 6424.88 174.264  42
   2  -6   4 6416.84 178.070  81
   2  -6   4 6307.60 151.562  74
  -2   6  -4 6519.17 170.878  77
   2  -6   4 6571.85 174.492  76
  -2   5  11 63.3245 17.3622  11
  -2   5  10 18522.7 287.762  17
  -2   5  10 18456.9 302.081  11
  -2   5  10 19500.9 310.048  26
  -2   5  10 19044.9 303.837  51
  -2   5   9 569.067 60.0062  71
  -2   5   9 346.115 54.7244  11
  -2   5   9 427.497 50.1248  23
  -2   5   9 487.007 59.1359  17
  -2   5   9 483.248 59.8493  51
  -2   5   9 444.788 58.2210  26
  -2   5   8 9981.15 274.489  17
  -2   5   8 10447.3 277.243  71
  -2   5   8 10847.0 286.538  26
  -2   5   8 10408.6 270.556  29
  -2   5   8 10172.5 267.022  82
  -2   5   8 10070.0 259.375  57
  -2   5   8 10606.9 282.756  51
  -2   5   7 2931.33 151.614  17
  -2   5   7 3063.43 157.473  71
  -2   5   7 2897.24 148.867  82
  -2   5   7 3219.00 158.774  26
  -2   5   7 2761.28 144.331  57
  -2   5   7 2997.45 153.081  55
  -2   5   7 2841.41 160.199   9
  -2   5   7 3223.59 157.874  51
  -2   5   7 2943.42 149.335  29
  -2   5   6 8086.97 249.340  17
   2  -5  -6 8643.88 453.678  39
  -2   5   6 7249.62 435.702  67
  -2   5   6 8033.37 256.002  71
  -2   5   6 8187.82 272.443  73
   2  -5  -6 9282.19 509.894  35
  -2   5   6 8309.88 271.361   9
  -2   5   6 7976.35 249.469  75
  -2   5   6 8608.54 250.270  26
  -2   5   6 8108.90 245.967  57
  -2   5   6 8029.55 253.640  80
  -2   5   6 8955.34 252.255  51
  -2   5   6 8111.22 255.489  55
  -2   5   5 2164.66 219.446   3
  -2   5   5 2132.00 138.812  73
  -2   5   5 2005.21 126.917  71
   2  -5  -5 2015.59 208.272   1
  -2   5   5 1709.40 201.245  67
  -2   5   5 2018.30 133.938  60
  -2   5   5 1991.04 125.641  43
  -2   5   5 2023.62 126.657  57
  -2   5   5 2240.27 135.442  55
  -2   5   5 1877.12 130.501   9
   2  -5  -5 2651.67 252.378  39
  -2   5   5 2224.56 120.799  51
  -2   5   5 2228.23 121.347  26
  -2   5   5 2047.64 128.267  75
  -2   5   5 2120.31 132.700  80
  -2   5   4 652.105 76.7230  75
  -2   5   4 701.382 80.7788  60
  -2   5   4 633.458 62.8388  17
  -2   5   4 819.017 144.677   3
  -2   5   4 710.106 72.5832  71
  -2   5   4 649.726 77.1200  73
   2  -5  -4 728.288 134.461  39
  -2   5   4 687.211 75.9270  58
  -2   5   4 744.649 133.872  67
  -2   5   4 595.482 72.7714  55
  -2   5   4 714.856 78.5639  80
  -2   5   4 586.709 68.9604  43
  -2   5   4 597.988 70.1810  79
  -2   5   3 4744.15 194.333  43
  -2   5   3 4780.90 194.483  75
  -2   5   3 4705.48 193.253  73
   2  -5  -3 4285.28 283.623  95
  -2   5   3 4827.70 186.326  58
  -2   5   3 3976.69 295.639  67
   2  -5  -3 3895.02 273.028  94
   2  -5  -3 4341.38 287.348  93
   2  -5  -3 4050.11 277.069  91
   2  -5  -3 5003.99 324.478  35
  -2   5   3 4741.47 196.611  60
   2  -5  -3 4694.76 309.839  62
  -2   5   3 4513.05 187.887  80
  -2   5   3 4386.20 287.011  96
  -2   5   3 4616.30 306.022  36
   2  -5  -3 4874.40 337.896  39
  -2   5   3 4709.79 319.004   3
   2  -5  -3 4151.52 281.410  90
  -2   5   3 4571.21 190.746  55
  -2   5   3 4529.75 170.108  71
  -2   5   3 4520.42 184.834  79
   2  -5  -3 4265.70 285.354  92
  -2   5   2 3858.56 173.849  75
   2  -5  -2 3626.44 156.446  33
  -2   5   2 3680.30 170.502  60
  -2   5   2 3353.31 267.755  67
   2  -5  -2 3536.92 276.500  92
  -2   5   2 3757.34 173.476  43
  -2   5   2 3992.76 165.827  77
   2  -5  -2 3597.76 172.014  42
   2  -5  -2 3492.27 160.619 107
  -2   5   2 3642.46 166.719 105
  -2   5   2 3541.34 156.726  61
   2  -5  -2 3271.05 263.654  93
   2  -5  -2 3604.06 293.167  39
   2  -5  -2 3737.67 287.301  62
  -2   5   2 3372.41 143.247  23
  -2   5   2 4043.84 286.788  36
   2  -5  -2 3231.92 263.779  90
   2  -5  -2 3609.83 165.820  19
  -2   5   2 3759.43 172.064  55
  -2   5   2 3569.71 162.272  97
   2  -5  -2 3127.60 258.895  95
   2  -5  -2 3566.87 162.143 100
  -2   5   2 3417.48 161.317 104
  -2   5   2 3471.58 160.898  98
   2  -5  -2 3357.00 159.301 102
   2  -5  -2 3645.84 257.876  35
   2  -5  -2 3647.04 164.351  81
   2  -5  -2 3263.29 263.603  91
  -2   5   2 3931.64 173.485  80
  -2   5   2 3779.93 171.253  79
  -2   5   2 3639.74 166.004 103
  -2   5   2 3926.31 173.828  73
  -2   5   2 3656.32 280.944   3
   2  -5  -2 3482.39 161.263 101
  -2   5   1 426.127 60.7421  77
  -2   5   1 506.548 67.6937  75
   2  -5  -1 472.496 65.0834  47
  -2   5   1 298.903 53.3420  73
   2  -5  -1 275.726 81.0763  90
   2  -5  -1 447.340 63.0348 100
   2  -5  -1 353.673 50.6142  33
   2  -5  -1 359.936 58.8391  42
  -2   5   1 359.303 59.8783 104
   2  -5  -1 426.937 61.4832  19
   2  -5  -1 291.712 80.7016  92
   2  -5  -1 546.404 114.511  39
   2  -5  -1 285.536 82.6626  93
  -2   5   1 330.736 88.1639   3
  -2   5   1 389.774 62.6043  79
  -2   5   1 337.366 54.1247  98
  -2   5   1 417.342 60.5542  97
   2  -5  -1 398.332 61.8958 101
  -2   5   1 446.143 66.9381  55
   2  -5  -1 418.768 58.4248 107
  -2   5   1 353.664 54.6385 103
   2  -5  -1 472.924 115.450  62
   2  -5  -1 258.156 81.0175  95
   2  -5  -1 324.290 49.8512  76
  -2   5   1 571.926 108.157  37
  -2   5   1 410.711 62.0936  60
  -2   5   1 503.599 63.0048  87
  -2   5   1 263.017 79.0335  67
   2  -5  -1 361.955 57.3278 102
  -2   5   1 357.137 56.3848  41
  -2   5   1 389.387 63.9382 105
   2  -5  -1 394.642 60.0264  81
  -2   5   1 409.504 60.1305  80
  -2   5   1 380.571 58.3123  61
  -2   5   1 359.711 55.4139  43
   2  -5  -1 360.721 94.6064  91
   2  -5   0 15786.0 630.584  93
  -2   5   0 16049.5 362.460  75
   2  -5   0 16028.2 352.666  33
  -2   5   0 17113.2 604.578   3
   2  -5   0 15692.0 628.705  91
  -2   5   0 16463.2 362.495  61
  -2   5   0 16473.1 376.469  97
  -2   5   0 15677.1 349.591  43
   2  -5   0 16346.0 382.551  42
  -2   5   0 15860.0 376.844 104
  -2   5   0 15808.1 350.794  77
  -2   5   0 16504.4 383.063 103
   2  -5   0 16479.0 384.541  19
   2  -5   0 16183.8 373.900 100
  -2   5   0 16220.4 379.936 105
  -2   5   0 15962.5 340.634  73
   2  -5   0 15561.8 367.548 101
   2  -5   0 16603.0 375.656 107
  -2   5   0 15876.8 371.322  98
  -2   5   0 15759.6 346.774  41
   2  -5   0 15682.7 362.231  81
   2  -5   0 15765.3 630.937  92
   2  -5   0 16348.1 375.694 102
   2  -5   0 15071.6 621.580  90
   2  -5   0 16336.8 360.181  46
  -2   5   0 16305.4 360.372  55
  -2   5   0 15759.2 343.748  87
  -2   5   0 15558.2 575.072  67
  -2   5   0 16105.5 606.418  37
   2  -5   0 18249.0 684.905  39
  -2   5   0 15321.0 336.231  60
   2  -5   0 15076.9 615.594  95
  -2   5   0 15908.5 332.662  80
  -2   5   0 16044.9 365.601  79
   2  -5   0 17304.1 653.115  62
  -2   5   0 15724.5 329.133  69
   2  -5   0 16427.6 367.020  47
   2  -5   0 16092.2 358.327  76
   2  -5   1 2973.03 158.829  33
  -2   5  -1 2865.64 156.458  75
  -2   5  -1 3256.72 163.900  41
   2  -5   1 2938.49 159.485  47
  -2   5  -1 2285.87 221.686  67
  -2   5  -1 3007.75 160.100  55
  -2   5  -1 2973.80 150.227  69
   2  -5   1 3096.42 170.659  42
  -2   5  -1 2854.22 165.311 105
   2  -5   1 2866.57 285.167  93
   2  -5   1 2827.39 160.768 107
  -2   5  -1 2870.93 165.479 103
   2  -5   1 2917.59 168.633  19
  -2   5  -1 2799.26 163.989 104
   2  -5   1 2931.58 165.245 101
   2  -5   1 2947.32 166.207 102
   2  -5   1 2857.78 161.675 100
   2  -5   1 2953.46 158.191  76
   2  -5   1 2959.25 287.830  95
  -2   5  -1 3034.56 157.725  87
   2  -5   1 2830.16 280.438  92
   2  -5   1 2387.80 255.147  91
   2  -5   1 2637.72 270.781  90
   2  -5   1 3293.45 295.286  39
  -2   5  -1 2973.50 157.819  77
  -2   5  -1 2975.64 159.417  61
   2  -5   1 2790.51 159.792  81
   2  -5   1 2861.09 152.550  46
  -2   5  -1 2826.43 155.977  79
  -2   5  -1 3567.77 300.342  37
  -2   5  -1 2878.09 164.446  98
  -2   5  -1 2941.23 165.595  97
   2  -5   2 23136.8 448.040  33
  -2   5  -2 23559.7 439.974  75
   2  -5   2 24637.9 433.337  74
  -2   5  -2 24010.5 451.638  61
  -2   5  -2 23011.6 465.143 104
   2  -5   2 24134.1 420.808  46
   2  -5   2 23258.9 463.400 102
   2  -5   2 24593.5 478.527  30
  -2   5  -2 23000.9 463.553 105
   2  -5   2 23463.0 463.509 100
   2  -5   2 23822.5 467.590 101
   2  -5   2 23744.8 465.262 107
  -2   5  -2 24128.6 453.351  87
   2  -5   2 24457.8 475.659  42
  -2   5  -2 23163.5 463.260  97
  -2   5  -2 24158.9 448.333  77
   2  -5   2 23015.8 452.558  76
  -2   5  -2 23929.0 447.098  55
  -2   5  -2 22698.1 462.629  98
   2  -5   2 23880.0 440.988  47
  -2   5  -2 23670.8 471.474 103
   2  -5   2 22954.5 461.599  81
  -2   5  -2 23488.0 441.597  41
  -2   5  -2 23711.1 424.952  69
  -2   5  -2 24106.1 445.434  79
   2  -5   2 24272.4 432.190  49
   2  -5   3 528.545 69.2074 107
  -2   5  -3 443.357 62.4867  75
  -2   5  -3 455.868 67.8579  98
   2  -5   3 690.679 75.6306  74
  -2   5  -3 540.305 70.2133  69
   2  -5   3 489.648 62.7975  47
   2  -5   3 471.318 69.7451  30
   2  -5   3 425.701 66.2244  42
  -2   5  -3 484.255 69.8563 105
   2  -5   3 494.425 67.3972 102
   2  -5   3 508.686 69.2028 101
   2  -5   3 464.760 64.8603  49
  -2   5  -3 515.938 69.8329  61
  -2   5  -3 443.348 69.2381 104
  -2   5  -3 480.916 68.3482  41
   2  -5   3 499.516 70.3064  81
   2  -5   3 458.821 66.3651 100
  -2   5  -3 412.011 64.3916  97
  -2   5  -3 474.216 66.2205  77
  -2   5  -3 471.910 67.3743 103
  -2   5  -3 526.726 71.0166  87
  -2   5  -3 486.165 67.9489  79
  -2   5  -3 551.085 72.8547  55
   2  -5   3 442.795 66.3835  76
   2  -5   4 94.3025 32.1209  74
  -2   5  -4 115.261 35.2472 106
  -2   5  -4 115.446 35.1598  97
   2  -5   4 76.7800 29.7245  30
  -2   5  -4 322.056 50.3225  55
   2  -5   4 108.922 32.0330 100
   2  -5   4 147.265 36.8656 101
   2  -5   4 85.2136 33.3631  42
  -2   5  -4 63.5833 30.5293 105
  -2   5  -4 108.320 34.0177 104
  -2   5  -4 163.155 38.3639  61
  -2   5  -4 109.151 41.9490  41
   2  -5   4 120.952 33.0400  99
   2  -5   4 107.858 35.8002  76
   2  -5   4 86.8795 30.5794 107
  -2   5  -4 127.344 35.5671  75
  -2   5  -4 126.651 42.3120  87
  -2   5  -4 178.335 43.4101  69
   2  -5   4 97.4798 30.3482  20
   2  -5   4 114.609 36.2345  81
  -2   5  -4 101.230 31.1808  79
  -2   5  -4 137.092 35.6060 103
   2  -5   4 88.7854 33.4208  49
  -2   5  -4 95.0918 38.4474  77
   2  -5   4 92.3396 27.7062 102
   2  -5   5 2289.94 108.995  74
   2  -5   5 2255.98 121.820  30
   2  -5   5 2326.47 115.544  81
   2  -5   5 2347.31 115.628  42
   2  -5   5 2310.34 116.220  54
  -2   5  -5 2476.18 108.359  61
  -2   5  -5 2424.45 115.638  87
   2  -5   5 2377.61 113.878  49
  -2   5  -5 2389.76 108.426  55
  -2   5  -5 2510.08 118.920  41
   2  -5   5 2383.27 120.958  32
  -2   5  -5 2326.52 109.090  69
  -2   5  -5 2432.60 112.667  77
   2  -5   5 2515.85 117.688  76
   2  -5   6 5523.53 124.899  74
  -2   5  -6 5815.09 129.399  69
  -2   5  -6 5769.97 135.044  41
  -2   5  -6 5838.39 128.647  87
   2  -5   6 5772.77 147.255  85
   2  -5   6 5585.60 135.383  54
  -2   5  -6 5644.61 118.275  77
   2  -5   6 5305.71 142.645  30
  -2   4  11 15215.5 219.310  29
  -2   4  11 15700.0 225.670  11
  -2   4  11 15152.7 216.566  82
  -2   4  10 22405.2 325.304  17
  -2   4  10 23148.7 361.196  26
  -2   4  10 22521.4 361.674  29
  -2   4  10 23203.2 358.839  51
  -2   4  10 22963.0 361.229  11
  -2   4  10 22404.1 355.933  82
  -2   4   9 15372.7 321.277  17
  -2   4   9 15775.6 327.276  57
  -2   4   9 15253.1 300.131  71
  -2   4   9 15395.1 340.237  82
  -2   4   9 14981.5 336.895  11
  -2   4   9 16155.1 348.152  26
  -2   4   9 15714.9 339.359  51
  -2   4   9 15961.5 331.386  54
  -2   4   9 14887.6 341.339  29
  -2   4   8 6691.74 228.061  17
  -2   4   8 7140.54 229.781  71
  -2   4   8 6951.95 245.085  29
  -2   4   8 6984.12 243.965  82
  -2   4   8 7414.29 245.727  54
  -2   4   8 7024.09 242.316  26
  -2   4   8 7206.63 244.267  51
  -2   4   8 7083.49 237.818  57
  -2   4   7 48749.6 621.272  17
  -2   4   7 50178.3 617.651  71
  -2   4   7 49828.0 647.310  29
  -2   4   7 53411.1 652.948  26
  -2   4   7 48711.0 643.649  82
  -2   4   7 51662.9 644.406  54
  -2   4   7 50314.3 638.671  57
  -2   4   7 49951.4 1124.84  67
  -2   4   7 51971.7 667.543   9
  -2   4   7 53768.3 652.184  51
   2  -4  -7 54213.0 1126.64  39
  -2   4   6 2721.21 142.919  75
  -2   4   6 2811.08 149.384  55
  -2   4   6 2910.74 149.757  71
  -2   4   6 2712.05 147.633  29
  -2   4   6 2583.30 145.717  82
  -2   4   6 2906.51 155.673  73
  -2   4   6 2645.81 245.917  67
  -2   4   6 2746.10 151.152   9
  -2   4   6 2911.04 147.598  26
   2  -4  -6 3042.98 257.235  39
  -2   4   6 2671.38 145.092  57
  -2   4   6 3055.88 149.784  51
  -2   4   6 2908.96 141.724  80
  -2   4   6 2939.44 148.649  54
   2  -4  -5 59240.1 993.995  62
  -2   4   5 55839.1 620.096  71
   2  -4  -5 59459.7 1103.47  39
  -2   4   5 59142.8 1009.72   3
  -2   4   5 57800.6 659.116  73
  -2   4   5 55756.7 643.210   9
  -2   4   4 3753.34 254.406   3
   2  -4  -4 4274.27 252.931  66
   2  -4  -4 4245.01 264.393  62
   2  -4  -4 4073.88 278.710  39
  -2   4   4 3742.66 264.307  67
   2  -4  -3 39757.9 741.757  94
   2  -4  -3 39638.0 744.371  91
   2  -4  -3 43501.6 798.206  64
   2  -4  -3 40459.5 745.305  92
  -2   4   3 40787.5 694.885   5
   2  -4  -3 42846.0 841.304  62
   2  -4  -3 40387.7 749.124  93
   2  -4  -3 42990.1 787.502  66
   2  -4  -3 40758.1 747.965  95
   2  -4  -3 43197.2 897.154  39
  -2   4   3 41498.9 761.370  96
   2  -4  -3 41414.6 757.603  90
  -2   4   3 46186.5 812.450  36
  -2   4   3 41454.3 846.782   3
  -2   4   3 40337.3 824.337  67
   2  -4  -2 466.706 96.3087  62
   2  -4  -2 424.256 84.4108  92
   2  -4  -2 394.902 80.2315  95
  -2   4   2 520.004 91.7614   3
   2  -4  -2 445.656 84.2969  93
   2  -4  -2 435.632 89.0359  39
   2  -4  -2 463.254 85.4045  91
   2  -4  -2 427.659 86.8115  64
  -2   4   2 417.150 89.3675  67
  -2   4   2 486.380 84.4708  37
   2  -4  -2 308.101 69.2925  66
  -2   4   2 388.394 76.5163  36
   2  -4  -2 340.794 72.5535  90
   2  -4  -1 52279.6 962.953  93
   2  -4  -1 51922.6 960.117  96
  -2   4   1 52310.4 993.362  94
   2  -4  -1 51530.4 957.298  91
  -2   4   1 53446.5 916.747  67
   2  -4  -1 57253.0 1054.62  39
   2  -4  -1 57429.8 1000.11  64
   2  -4  -1 57103.6 1017.79  62
   2  -4  -1 50925.4 949.539  95
   2  -4  -1 57552.9 941.828  66
   2  -4  -1 51413.8 955.567  92
   2  -4  -1 50829.7 954.610  90
  -2   4   1 56596.8 936.363  37
  -2   4   1 56147.5 971.939   3
   2  -4   0 17858.4 598.046  90
  -2   4   0 19973.5 633.907  65
   2  -4   0 18479.0 604.219  95
   2  -4   0 18375.7 603.382  96
   2  -4   0 20074.7 589.421  66
  -2   4   0 17598.9 606.965  94
   2  -4   0 17639.8 591.633  93
   2  -4   0 20181.3 633.447  62
   2  -4   0 21036.2 656.839  39
  -2   4   0 20239.4 600.567  37
   2  -4   0 18290.1 600.695  92
   2  -4   0 18514.8 605.100  91
  -2   4   0 19821.5 570.847  67
  -2   4   0 20330.2 584.260   3
  -2   4  -1 823.793 117.468   3
   2  -4   1 1107.68 169.944  39
   2  -4   1 803.566 131.279  92
   2  -4   1 810.189 130.762  93
  -2   4  -1 1096.13 152.114  65
   2  -4   1 698.067 127.447  90
   2  -4   1 801.298 132.440  91
   2  -4   1 1040.18 157.058  62
  -2   4  -1 878.769 135.110  37
   2  -4   1 951.200 143.123  95
   2  -4   1 1189.85 152.266  66
   2  -4   2 6338.87 226.167  33
  -2   4  -2 6409.64 219.390  75
   2  -4   2 6237.79 214.318  74
   2  -4   2 6384.82 237.505  19
   2  -4   2 6310.19 215.316  46
  -2   4  -2 6809.38 402.919  37
   2  -4   2 7235.03 424.879  39
   2  -4   2 6139.98 225.338 100
   2  -4   2 6582.56 237.616  42
  -2   4  -2 6417.62 235.416 103
   2  -4   2 5863.95 375.807  95
  -2   4  -2 6260.44 213.659  69
   2  -4   2 6367.08 234.446 101
  -2   4  -2 6648.38 227.783  41
  -2   4  -2 6715.50 406.296  65
   2  -4   2 6150.52 229.082 102
  -2   4  -2 6327.96 231.519  98
  -2   4  -2 6573.01 226.488  77
  -2   4  -2 6429.43 232.518  97
  -2   4  -2 6464.26 236.077 104
   2  -4   2 6576.41 226.745  47
   2  -4   2 6074.57 387.172  91
   2  -4   2 6116.55 383.528  93
  -2   4  -2 6273.63 233.489 105
   2  -4   2 5752.77 371.969  92
   2  -4   2 6364.77 239.228  22
  -2   4  -2 6832.96 226.596  55
   2  -4   2 6810.21 239.502  81
   2  -4   2 6377.82 230.970 107
   2  -4   2 6418.36 397.693  90
  -2   4  -2 6442.30 219.710  79
  -2   4  -2 6921.08 232.843  61
   2  -4   2 6352.24 217.024  49
   2  -4   2 6421.33 242.244  18
   2  -4   2 6501.71 230.942  76
  -2   4  -3 27395.2 458.226  75
   2  -4   3 25999.2 460.691  74
   2  -4   3 27970.1 468.463  47
  -2   4  -3 29907.0 881.172  65
   2  -4   3 27339.2 447.727  46
  -2   4  -3 28601.9 474.602  69
   2  -4   3 27220.4 496.748  42
  -2   4  -3 27137.1 489.243 105
  -2   4  -3 26986.3 488.854 104
   2  -4   3 29328.6 835.418   2
   2  -4   3 26665.9 829.588  94
  -2   4  -3 26731.6 485.929 103
  -2   4  -3 27199.8 488.028  98
   2  -4   3 27208.8 484.137 101
  -2   4  -3 26474.8 838.403  96
   2  -4   3 27402.5 483.665 100
   2  -4   3 27018.0 481.390 107
   2  -4   3 32359.1 935.926  39
  -2   4  -3 26832.3 466.395  61
  -2   4  -3 27075.6 484.077  97
  -2   4  -3 26694.1 473.299  41
   2  -4   3 25544.2 508.910  18
  -2   4  -3 32539.6 928.540  37
   2  -4   3 26194.7 818.241  91
  -2   4  -3 27719.9 469.346  55
   2  -4   3 27341.3 486.169 102
   2  -4   3 26256.4 819.343  93
   2  -4   3 26342.5 817.779  95
   2  -4   3 27410.4 472.154  49
   2  -4   3 26573.3 490.860  81
   2  -4   3 26550.6 826.952  92
   2  -4   3 26409.8 513.686  22
  -2   4  -3 26906.1 450.187  79
   2  -4   3 26578.6 831.078  90
  -2   4  -3 27247.3 470.965  77
   2  -4   3 27009.0 483.586  76
  -2   4  -4 23798.8 412.767  75
  -2   4  -4 22779.7 434.680  98
   2  -4   4 23025.2 430.903 100
  -2   4  -4 23066.6 438.662 104
  -2   4  -4 22858.9 436.333 105
   2  -4   4 24254.0 488.588  30
  -2   4  -4 23156.4 426.584  61
  -2   4  -4 23137.2 435.533  97
  -2   4  -4 22853.6 439.216  41
   2  -4   4 22275.0 439.222  49
  -2   4  -4 22582.5 439.058  87
   2  -4   4 23561.7 437.233 101
   2  -4   4 23252.2 440.959  74
   2  -4   4 22992.3 448.160  76
   2  -4   4 22231.3 475.871  22
  -2   4  -4 24360.0 434.809  55
   2  -4   4 22358.6 453.638  42
  -2   4  -4 23334.9 442.751 103
   2  -4   4 23353.7 408.944  47
  -2   4  -4 22539.1 426.024  69
   2  -4   4 23907.6 442.672 102
   2  -4   4 23048.7 459.349  81
   2  -4   4 23438.5 436.882 107
  -2   4  -4 23897.3 403.379  79
  -2   4  -4 23798.8 436.732  77
  -2   4  -5 577.392 62.9181 105
   2  -4   5 529.746 66.2228  74
  -2   4  -5 555.679 69.9620  69
   2  -4   5 573.273 73.9075  32
   2  -4   5 540.401 68.4367  42
   2  -4   5 590.226 76.4343  30
  -2   4  -5 593.097 65.8869  61
  -2   4  -5 578.004 66.6417  55
   2  -4   5 511.833 65.0184  76
  -2   4  -5 587.912 64.0447 103
   2  -4   5 560.023 70.9017  49
  -2   4  -5 626.844 65.7561  97
  -2   4  -5 591.783 64.7939 104
  -2   4  -5 499.025 60.5155 106
  -2   4  -5 577.612 71.8119  87
  -2   4  -5 510.173 66.6572  41
   2  -4   5 633.255 74.8399  81
  -2   4  -5 501.798 64.8942  77
   2  -4   6 21826.4 361.410  74
  -2   4  -6 21884.6 354.014  69
  -2   4  -6 21932.9 320.184  55
   2  -4   6 21714.4 387.490  30
  -2   4  -6 21930.3 354.587  41
   2  -4   6 21622.3 367.331  54
   2  -4   6 21709.6 347.809  76
   2  -4   6 21934.6 361.923  81
   2  -4   6 21602.0 369.740  32
  -2   4  -6 20887.7 338.228  87
  -2   4  -6 21587.7 328.691  77
   2  -4   6 22007.1 361.818  42
  -2   4  -7 2763.87 98.5893  69
  -2   4  -7 2306.04 94.0646  44
  -2   4  -7 2646.92 93.1281  41
   2  -4   7 2828.29 107.538  85
   2  -4   7 2726.08 100.096  54
  -2   4  -7 2409.32 76.2475  87
  -2   3  11 2107.74 90.3453  29
  -2   3  11 2075.43 88.8573  82
  -2   3  10 91.7646 30.6841  11
  -2   3  10 68.5227 30.4520  57
  -2   3  10 67.8510 29.5401  26
  -2   3  10 68.6842 28.7043  51
  -2   3  10 165.382 38.7974  29
  -2   3  10 157.769 38.9748  82
  -2   3   9 14801.2 309.696  17
  -2   3   9 14513.6 352.850  29
  -2   3   9 15873.3 329.660  12
  -2   3   9 15129.2 335.663  26
  -2   3   9 14742.5 317.691  59
  -2   3   9 14152.2 345.227  82
  -2   3   9 14906.0 337.952  57
  -2   3   9 14071.8 334.100  11
  -2   3   9 15135.3 326.728  54
  -2   3   9 14848.6 332.455  31
  -2   3   9 15349.4 335.444  51
  -2   3   8 10569.7 280.904  17
  -2   3   8 10963.1 297.450  31
  -2   3   8 10759.9 265.800  71
  -2   3   8 10627.0 313.861  29
  -2   3   8 11235.7 302.056  26
  -2   3   8 10703.8 303.171  57
  -2   3   8 11195.2 293.395  12
  -2   3   8 10934.5 293.637  54
  -2   3   8 10970.4 284.762  59
  -2   3   8 9924.61 291.211  11
  -2   3   8 11186.7 299.615  51
  -2   3   8 10444.8 311.244  82
  -2   3   7 30152.8 467.588  17
  -2   3   7 30177.0 517.620  29
  -2   3   7 32121.9 502.535  26
  -2   3   7 30622.0 464.617  71
  -2   3   7 29388.1 834.847  67
  -2   3   7 32770.8 493.375  12
  -2   3   7 30210.5 496.078  57
  -2   3   7 31548.7 484.461  54
   2  -3  -7 33259.6 872.555  39
  -2   3   7 29257.5 835.107  68
  -2   3   7 32621.7 500.444  51
  -2   3   7 29993.1 514.654  82
  -2   3   6 8196.88 234.078  71
  -2   3   6 7494.29 244.463  29
  -2   3   6 8503.61 244.393  26
   2  -3  -6 8591.94 418.622  39
  -2   3   6 7417.77 392.752  67
  -2   3   6 7658.58 246.722  82
  -2   3   6 7017.57 374.871  68
  -2   3   6 8464.84 242.278  51
   2  -3  -6 8646.14 403.162  66
  -2   3   6 8139.78 246.140   9
  -2   3   5 40762.3 848.604  67
   2  -3  -5 40365.3 778.061  62
   2  -3  -5 46202.5 911.050  39
  -2   3   5 42906.1 834.089  68
   2  -3  -5 47523.7 864.478  66
  -2   3   5 45736.0 791.889   3
  -2   3   4 1027.39 120.478   3
   2  -3  -4 1097.68 127.136  39
  -2   3   4 977.936 123.982  67
   2  -3  -4 1208.48 126.357  66
   2  -3  -4 1219.55 116.089  64
   2  -3  -4 1187.27 134.334  62
  -2   3   3 800.112 102.611  67
   2  -3  -3 936.838 107.976  66
   2  -3  -3 1000.40 98.4656  94
   2  -3  -3 774.238 86.9339  95
   2  -3  -3 954.921 98.9906  90
   2  -3  -3 942.283 99.9884  92
   2  -3  -3 900.154 92.8507  91
  -2   3   3 1025.49 104.078  96
   2  -3  -3 997.511 107.864  64
  -2   3   3 883.921 89.7928  36
   2  -3  -3 958.912 119.006  62
  -2   3   3 832.479 108.256   3
   2  -3  -3 1145.66 104.947  93
  -2   3   2 47775.0 749.840  67
  -2   3   2 49351.3 753.645  96
   2  -3  -2 53307.4 799.357  64
   2  -3  -2 48001.0 740.886  94
   2  -3  -2 49396.0 848.149  39
   2  -3  -2 48656.7 747.170  93
   2  -3  -2 48651.7 746.651  91
   2  -3  -2 48793.4 747.755  90
  -2   3   2 50986.9 806.248   3
   2  -3  -2 51213.4 824.507  62
  -2   3   2 51896.0 624.430   5
  -2   3   2 50250.7 673.886  37
   2  -3  -2 49385.9 748.515  95
   2  -3  -2 49894.7 777.196  66
   2  -3  -2 48263.9 742.282  92
   2  -3  -1 55158.1 851.665  64
   2  -3  -1 50989.7 814.445  93
  -2   3   1 51974.7 849.424  65
  -2   3   1 52474.0 765.965  67
  -2   3   1 51828.1 829.405  63
  -2   3   1 53547.8 824.452   3
   2  -3  -1 52118.5 846.568  62
   2  -3  -1 51211.4 814.300  95
   2  -3  -1 51905.7 873.170  39
   2  -3  -1 49970.3 804.337  92
  -2   3   1 54229.3 760.397  37
   2  -3  -1 52740.9 810.209  66
   2  -3  -1 50127.5 807.398  91
   2  -3  -1 49646.2 813.476  90
  -2   3   0 9183.03 342.681  37
   2  -3   0 8881.41 348.826  66
   2  -3   0 9029.10 362.837  95
   2  -3   0 9154.56 368.667  64
  -2   3   0 9140.19 369.497  65
   2  -3   0 8514.45 351.357  96
  -2   3   0 9071.61 327.304  67
  -2   3   0 8675.27 359.874  63
   2  -3   0 8867.08 360.617  93
   2  -3   0 9203.79 380.432  39
   2  -3   0 8645.08 356.223  92
   2  -3   0 8787.92 361.120  90
   2  -3   0 8921.87 367.721  62
  -2   3   0 8817.94 371.599  94
   2  -3   0 8577.74 354.568  91
  -2   3   0 9239.09 342.957   3
   2  -3   1 107497. 1332.81  95
  -2   3  -1 121059. 1426.32  65
   2  -3   1 108846. 1343.78  96
   2  -3   1 106747. 1332.50  93
   2  -3   1 113533. 1348.25  66
   2  -3   1 126155. 1453.64  64
   2  -3   1 114051. 1413.95  39
   2  -3   1 108100. 1339.89  92
  -2   3  -1 104128. 1349.52  94
   2  -3   1 108128. 1339.63  91
   2  -3   1 107592. 1340.07  90
  -2   3  -1 115329. 1330.59  37
  -2   3  -1 115680. 1216.92   3
   2  -3   1 114213. 1396.74  62
  -2   3  -2 115.919 47.9927  38
   2  -3   2 191.616 69.4147  62
  -2   3  -2 424.036 89.6704  65
  -2   3  -2 158.527 50.4884   3
  -2   3  -2 229.689 67.2700  63
   2  -3   2 153.969 59.6655  39
   2  -3   2 226.971 68.0060  92
   2  -3   2 195.517 63.4042  91
   2  -3   2 159.884 55.6350  93
   2  -3   2 162.858 72.2019  90
  -2   3  -2 246.435 77.5652  37
   2  -3   2 112.627 59.0734  95
   2  -3   3 8854.11 257.588 107
   2  -3   3 7962.79 407.983  92
   2  -3   3 8939.13 255.254  49
   2  -3   3 8779.20 427.685   2
  -2   3  -3 8952.67 250.211  61
   2  -3   3 8069.58 412.741  94
   2  -3   3 9132.08 269.512  42
  -2   3  -3 8393.44 255.045 103
  -2   3  -3 9469.01 404.229  38
   2  -3   3 8419.86 279.710  88
  -2   3  -3 9604.29 448.361  63
   2  -3   3 8688.35 256.198 101
  -2   3  -3 8632.62 257.776  98
  -2   3  -3 8813.33 258.654  97
   2  -3   3 8028.18 413.806  91
  -2   3  -3 7793.74 411.219  96
   2  -3   3 8197.96 415.636  93
   2  -3   3 8188.80 414.899  95
   2  -3   3 8969.44 258.888 100
   2  -3   3 9111.09 453.739  39
   2  -3   3 8456.51 423.756  90
   2  -3   3 9501.10 289.578  22
  -2   3  -3 8782.26 442.808  37
   2  -3   3 8578.06 254.264 102
  -2   3  -3 9207.77 448.075  65
   2  -3   3 9218.75 269.617  81
   2  -3   3 8818.84 255.545  33
   2  -3   3 8974.95 279.541  18
  -2   3  -3 9266.04 254.654  77
   2  -3   3 9290.40 265.435  76
  -2   3  -4 20770.3 390.127  55
  -2   3  -4 20528.9 372.538  75
   2  -3   4 19544.3 404.190  74
   2  -3   4 19783.0 380.982  47
  -2   3  -4 20018.7 401.786  41
   2  -3   4 19230.3 391.975 102
   2  -3   4 19458.7 388.340 107
   2  -3   4 20757.4 441.053  30
  -2   3  -4 19834.1 383.057  61
  -2   3  -4 19387.5 397.391 105
   2  -3   4 20552.8 428.387  42
  -2   3  -4 21774.9 731.300  65
   2  -3   4 19359.7 389.046 100
   2  -3   4 18853.7 655.791  94
   2  -3   4 19418.1 391.622 101
  -2   3  -4 22484.1 686.726  38
   2  -3   4 19982.4 418.701  81
   2  -3   4 18797.8 439.487  88
  -2   3  -4 19903.5 394.238  97
   2  -3   4 18508.3 652.993  92
   2  -3   4 19930.3 406.793  76
  -2   3  -4 18525.6 656.453  96
   2  -3   4 18835.2 658.686  93
   2  -3   4 18155.0 642.560  95
  -2   3  -4 19646.3 392.679  98
   2  -3   4 18667.4 430.483  18
   2  -3   4 19782.6 441.733  22
  -2   3  -4 19338.6 397.315 104
  -2   3  -4 22778.5 763.833  37
   2  -3   4 18871.9 659.884  91
  -2   3  -4 19599.7 398.488 103
   2  -3   4 18869.0 657.011  90
   2  -3   4 19381.3 401.980  49
   2  -3   4 21664.1 711.551   2
  -2   3  -4 20209.9 392.738  77
   2  -3   5 3024.25 163.549  74
   2  -3   5 3062.01 167.457  81
   2  -3   5 3214.54 178.039  30
   2  -3   5 3045.23 170.956  32
   2  -3   5 3051.44 166.387  49
  -2   3  -5 3179.61 152.976  55
  -2   3  -5 3232.17 152.608  61
   2  -3   5 2997.50 160.524  76
   2  -3   5 3012.45 178.452  22
  -2   3  -5 3018.45 157.552  87
   2  -3   5 3031.71 166.799  42
  -2   3  -5 3084.31 162.500  41
  -2   3  -5 3245.77 158.902  77
   2  -3   6 6193.82 225.339  74
   2  -3   6 6310.14 233.389  32
   2  -3   6 5965.88 232.483  30
   2  -3   6 6325.23 224.523  81
   2  -3   6 6734.31 234.274  42
   2  -3   6 5973.95 223.166  24
  -2   3  -6 6528.63 202.723  55
   2  -3   6 6273.49 217.798  76
  -2   3  -6 6202.97 215.362  41
   2  -3   6 6338.33 249.282  22
   2  -3   6 5889.96 221.479  54
  -2   3  -6 6507.94 205.755  77
  -2   3  -6 6431.54 212.593  87
   2  -3   6 6238.29 228.817  49
   2  -3   7 125.542 31.7562  81
   2  -3   7 201.079 40.1775  74
   2  -3   7 189.068 37.7026  32
  -2   3  -7 190.464 41.1879  41
   2  -3   7 129.080 32.8847  30
   2  -3   7 174.129 36.8120  13
   2  -3   7 146.806 35.9578  85
   2  -3   7 180.331 36.8932  42
   2  -3   7 146.780 32.9340  54
  -2   3  -7 145.083 30.3703  87
  -2   3  -7 155.482 40.0709  69
   2  -3   8 15679.3 214.781  13
   2  -3   8 17367.0 250.165  85
  -2   3  -8 15640.0 192.243  41
  -2   3  -8 17004.0 236.857  69
   2  -3   8 17095.0 246.860  54
  -2   2  11 1771.72 81.7300  29
  -2   2  11 1836.23 82.3648  82
  -2   2  10 1387.07 98.4991  31
  -2   2  10 1547.83 103.076  29
  -2   2  10 1544.87 99.1277  57
  -2   2  10 1584.67 99.5206  11
  -2   2  10 1501.55 97.6685  59
  -2   2  10 1507.44 100.958  82
  -2   2   9 8016.66 265.303  31
  -2   2   9 8570.73 242.873  26
  -2   2   9 7954.24 250.993  11
  -2   2   9 8328.39 241.036  54
  -2   2   9 8039.65 254.706  59
  -2   2   9 8196.84 257.865  57
  -2   2   9 8010.93 263.215  29
  -2   2   9 8436.01 229.187  12
  -2   2   9 8578.25 240.863  51
  -2   2   9 8296.64 266.388  82
  -2   2   8 9682.61 290.750  57
  -2   2   8 9910.17 256.312  17
  -2   2   8 9853.89 274.135  54
  -2   2   8 10098.8 281.654  26
  -2   2   8 9414.33 295.361  29
  -2   2   8 10027.5 277.978  51
  -2   2   8 9276.27 279.934  11
  -2   2   8 10225.2 269.949  12
  -2   2   8 10007.4 302.610  31
  -2   2   8 9737.82 286.789  59
  -2   2   8 9933.33 302.286  82
  -2   2   7 210.179 40.4980  17
  -2   2   7 238.598 77.0183   2
  -2   2   7 186.460 34.7187  71
  -2   2   7 206.869 76.0958  67
  -2   2   7 189.918 65.7562  68
  -2   2   7 153.837 41.4902  54
  -2   2   7 156.070 41.2353  59
  -2   2   7 228.139 46.7213  51
  -2   2   7 175.846 41.9540  26
  -2   2   7 191.578 42.2859  12
  -2   2   7 227.896 53.4929  57
  -2   2   7 151.500 43.0699  29
  -2   2   7 170.074 45.0132  82
   2  -2  -6 2795.02 231.374  66
  -2   2   6 2428.59 217.807  67
   2  -2  -6 2475.30 222.934  39
  -2   2   6 2375.70 215.285   2
   2  -2  -6 2447.51 201.703  62
  -2   2   6 2083.01 203.022  68
   2  -2  -5 27573.5 664.309  66
  -2   2   5 25151.1 618.435  68
  -2   2   5 25204.4 626.576  67
   2  -2  -5 27644.1 677.565  39
   2  -2  -5 27002.3 624.058  62
  -2   2   5 27757.6 536.399   3
   2  -2  -4 2907.17 192.778  66
  -2   2   4 2855.21 183.282  68
  -2   2   4 2728.92 187.186  67
  -2   2   4 2897.95 173.028   3
   2  -2  -4 2910.18 194.053  62
  -2   2   4 2945.56 153.485  40
   2  -2  -4 2830.87 199.835  39
   2  -2  -4 3018.52 173.374  64
   2  -2  -3 37762.9 524.223  90
   2  -2  -3 36977.5 511.268  95
   2  -2  -3 38066.6 523.594  94
   2  -2  -3 37661.4 675.873  39
   2  -2  -3 37134.3 589.909  64
   2  -2  -3 37746.4 647.550  62
  -2   2   3 38788.6 567.459  68
  -2   2   3 36816.5 541.085  40
  -2   2   3 37064.7 418.975  36
   2  -2  -3 37960.1 477.402  34
   2  -2  -3 37124.0 509.377  92
  -2   2   3 38555.8 519.238  96
   2  -2  -3 37173.5 641.721  66
  -2   2   3 36119.7 606.199  67
  -2   2   3 36692.1 606.265   3
   2  -2  -3 38143.7 516.985  93
   2  -2  -2 8153.72 298.976  39
  -2   2   2 8234.86 263.143  63
   2  -2  -2 8686.85 266.824  94
   2  -2  -2 8675.09 267.236  95
   2  -2  -2 8548.74 293.523  66
  -2   2   2 8221.86 265.621  65
   2  -2  -2 8401.27 282.063  64
  -2   2   2 8546.35 204.127  37
   2  -2  -2 8292.63 219.590  34
   2  -2  -2 8583.62 265.598  91
   2  -2  -2 8635.87 266.636  93
  -2   2   2 8295.66 281.790   3
   2  -2  -2 8700.17 269.221  90
   2  -2  -2 8566.37 265.803  92
   2  -2  -2 8669.07 302.516  62
  -2   2   2 8450.47 268.294  96
  -2   2   2 8337.61 265.257  67
   2  -2  -1 33315.8 574.320  66
  -2   2   1 33982.9 563.373  65
  -2   2   1 34592.6 578.295  96
  -2   2   1 34824.9 507.358  67
  -2   2   1 37201.1 377.858   5
   2  -2  -1 34949.4 595.170  64
  -2   2   1 34104.1 563.664  63
   2  -2  -1 33931.8 564.279  90
   2  -2  -1 34643.9 608.249  39
   2  -2  -1 33819.7 560.804  94
   2  -2  -1 33998.6 563.767  93
   2  -2  -1 34073.0 562.387  92
  -2   2   1 34766.4 487.867  37
   2  -2  -1 33947.0 597.241  62
  -2   2   1 34181.4 568.372   3
   2  -2  -1 34120.9 564.697  91
   2  -2  -1 34102.9 562.758  95
   2  -2   0 2061.99 150.277  66
   2  -2   0 2062.17 150.584  91
   2  -2   0 2151.69 156.680  62
  -2   2   0 1882.79 134.764   3
   2  -2   0 1987.93 148.461  64
  -2   2   0 1918.38 143.708  65
  -2   2   0 1880.51 144.348  63
   2  -2   0 1915.08 142.999  95
   2  -2   0 2037.11 150.048  90
   2  -2   0 1939.70 149.730  39
   2  -2   0 1857.06 140.756  93
   2  -2   0 1862.31 141.155  92
  -2   2   0 1944.09 131.457  37
  -2   2   0 2042.75 87.0586  38
   2  -2   1 1110.60 118.088  93
   2  -2   1 1004.47 113.261  64
   2  -2   1 943.910 108.300  39
   2  -2   1 1189.29 122.909  66
   2  -2   1 1128.24 122.690  62
  -2   2  -1 1023.91 84.9860  38
   2  -2   1 999.532 112.491  95
  -2   2  -1 1097.92 117.663  63
   2  -2   1 1110.02 118.397  92
   2  -2   1 1040.78 113.451  91
   2  -2   1 1038.46 115.011  90
  -2   2  -1 1082.78 114.008  37
  -2   2  -1 1169.75 120.555  65
  -2   2  -1 1042.83 99.5556   3
  -2   2  -2 42942.5 781.834  63
   2  -2   2 40709.7 754.432  93
   2  -2   2 42670.1 795.122  66
   2  -2   2 43284.2 792.755  64
  -2   2  -2 43193.1 676.935  38
   2  -2   2 40485.7 751.026  95
  -2   2  -2 43185.1 794.642  65
   2  -2   2 43589.1 795.454  62
   2  -2   2 41200.2 762.055  90
  -2   2  -2 44390.4 799.118  37
  -2   2  -2 43978.0 629.157   3
   2  -2   2 40264.2 752.455  91
   2  -2   2 40790.8 754.635  92
   2  -2   2 44899.2 810.450  39
  -2   2  -3 3072.10 227.590  63
   2  -2   3 2932.37 215.203  94
   2  -2   3 3204.89 233.637   2
   2  -2   3 2919.16 215.076  91
  -2   2  -3 3207.17 238.859  65
  -2   2  -3 2760.16 212.472  96
   2  -2   3 2914.78 216.529  95
   2  -2   3 3171.82 237.819  39
  -2   2  -3 3256.18 217.672  38
   2  -2   3 2793.20 212.069  92
   2  -2   3 3098.34 222.820  93
   2  -2   3 2938.94 217.057  90
  -2   2  -3 3050.15 235.080  37
   2  -2   4 19038.6 585.313  92
  -2   2  -4 18237.6 579.377  96
   2  -2   4 18498.7 574.688  95
  -2   2  -4 20416.8 621.127  38
   2  -2   4 18123.3 574.163  93
  -2   2  -4 21423.2 630.965  63
   2  -2   4 20067.1 637.954   2
   2  -2   4 18749.2 582.523  91
   2  -2   4 18490.1 575.483  94
   2  -2   4 18341.4 575.206  90
  -2   2  -4 19523.8 657.617  37
  -2   2  -4 20149.8 643.095  65
   2  -2   5 44903.6 614.740  74
   2  -2   5 45098.3 621.330  81
   2  -2   5 46562.8 651.039  30
   2  -2   5 45688.6 631.067  42
  -2   2  -5 49431.8 1070.75  38
   2  -2   5 49527.0 1085.48   2
   2  -2   5 46012.5 667.094  22
  -2   2  -5 51975.6 1149.43  37
   2  -2   5 44747.0 631.616  32
  -2   2  -5 46903.0 562.749  55
   2  -2   5 43197.7 666.253  88
  -2   2  -5 44988.3 581.349  87
  -2   2  -5 49036.8 1055.87  65
   2  -2   5 44727.9 619.310  49
   2  -2   5 42425.0 636.058  18
  -2   2  -5 45941.3 562.735  77
   2  -2   5 45073.0 603.598  76
   2  -2   6 19304.5 416.700  74
   2  -2   6 20323.0 434.957  32
   2  -2   6 20126.1 435.386  30
  -2   2  -6 19427.2 388.144  41
   2  -2   6 19842.4 422.604  42
   2  -2   6 20808.1 408.569  76
   2  -2   6 19631.6 449.264  22
   2  -2   6 20156.6 422.278  54
  -2   2  -6 20057.2 382.156  87
   2  -2   6 20420.0 422.385  81
   2  -2   6 19457.4 418.748  49
   2  -2   7 32.6582 18.9045  76
   2  -2   7 56.2700 34.2734  74
   2  -2   7 28.5446 21.5044  30
   2  -2   7 123.605 37.3573  42
  -2   2  -7 11.5688 28.3591  41
   2  -2   7 38.2281 25.9837  24
   2  -2   7 18.1415 21.6071  22
   2  -2   7 47.7380 32.5887  54
   2  -2   7 196.411 42.3414  32
   2  -2   7 32.0739 31.0389  85
   2  -2   7 199.406 44.9449  81
   2  -2   8 58.3593 24.3983  42
   2  -2   8 42.8115 23.9660  85
  -2   2  -8 34.6496 22.2873  41
  -2   2  -8 66.2527 29.8137  69
   2  -2   8 39.7160 21.1488  24
   2  -2   8 42.7574 22.1766  54
   2  -2   8 93.3495 28.0876  13
  -2   2  -9 245.335 27.7433  69
   2  -2   9 265.273 29.6243  54
   2  -2   9 298.722 29.5478  13
  -2   1  11 3156.87 102.635  31
  -2   1  11 3264.28 100.112  59
  -2   1  10 1743.22 102.014  29
  -2   1  10 1700.99 109.661  31
  -2   1  10 1824.65 104.198  57
  -2   1  10 1682.19 104.207  59
  -2   1  10 1668.48 99.7650  82
  -2   1   9 12240.1 323.989  59
  -2   1   9 11911.9 333.613  31
  -2   1   9 12627.0 312.301  11
  -2   1   9 12231.4 314.406  57
  -2   1   9 12366.9 287.359  54
  -2   1   9 12119.7 316.516  29
  -2   1   9 11834.9 310.948  82
  -2   1   8 941.607 94.8933  57
  -2   1   8 1043.90 97.1398  11
  -2   1   8 1122.65 89.7499  26
  -2   1   8 995.439 98.1157  59
  -2   1   8 1021.83 99.3283  29
  -2   1   8 1015.97 90.6811  54
  -2   1   8 1079.82 96.3580  21
  -2   1   8 1137.60 92.1050  51
  -2   1   8 1003.55 98.3710  82
  -2   1   8 1002.37 101.831  31
   2  -1  -7 42795.8 1035.12  66
  -2   1   7 40697.9 535.037  54
  -2   1   7 38345.8 974.780  68
   2  -1  -7 41525.7 924.472  62
  -2   1   7 40559.8 588.701  59
  -2   1   7 40081.5 530.065  51
  -2   1   7 40384.5 533.255  26
  -2   1   7 39843.8 560.273  11
  -2   1   7 40183.8 587.689  29
  -2   1   7 43975.3 983.670   2
  -2   1   7 38465.5 556.951  21
  -2   1   7 40383.6 579.239  57
  -2   1   7 39500.6 583.997  82
  -2   1   6 6442.66 361.520  68
   2  -1  -6 7555.95 389.910  66
   2  -1  -6 7198.84 358.071  62
  -2   1   6 7103.55 360.788   2
   2  -1  -6 7693.80 354.667  34
  -2   1   6 6781.73 363.008  67
   2  -1  -5 35214.0 719.729  62
   2  -1  -5 36451.0 779.394  66
   2  -1  -5 35641.4 646.284  64
  -2   1   5 34847.1 618.715  40
  -2   1   5 32394.9 701.101  67
   2  -1  -5 36051.2 620.301  38
  -2   1   5 35469.7 714.893   2
  -2   1   5 32056.1 705.700  68
   2  -1  -5 37337.4 690.643  34
  -2   1   4 4805.15 209.996  40
   2  -1  -4 5014.51 225.454  64
   2  -1  -4 4901.76 245.232  62
   2  -1  -4 5130.58 259.017  66
   2  -1  -4 4594.59 186.033  38
  -2   1   4 5415.63 209.686   3
  -2   1   4 4785.87 235.362  67
  -2   1   4 4828.93 236.617  68
  -2   1   4 5352.57 245.910   2
   2  -1  -4 5230.46 228.683  34
   2  -1  -3 1815.85 99.7056  95
  -2   1   3 1671.87 120.856  67
  -2   1   3 1765.62 100.351  96
   2  -1  -3 1533.88 115.352  64
   2  -1  -3 1633.70 129.023  62
   2  -1  -3 1924.34 146.511  66
   2  -1  -3 1598.63 81.2363  38
   2  -1  -3 1702.02 115.432  34
   2  -1  -3 1822.78 100.294  94
   2  -1  -3 1912.31 102.324  92
  -2   1   3 1782.19 122.030  40
  -2   1   3 1702.18 97.8785  91
   2  -1  -3 1769.14 99.2053  90
  -2   1   3 1564.71 115.928  68
   2  -1  -3 1837.94 98.9173  93
  -2   1   3 1679.45 116.707   3
   2  -1  -2 429779. 1936.27  66
  -2   1   2 432964. 1515.94  68
  -2   1   2 421616. 1472.31  63
   2  -1  -2 419519. 1904.46  62
   2  -1  -2 423102. 1630.00  93
   2  -1  -2 408601. 1900.85  39
   2  -1  -2 419438. 1647.86  90
  -2   1   2 411792. 1414.71  65
   2  -1  -2 423829. 1644.45  95
   2  -1  -2 418763. 1638.45  94
   2  -1  -2 427281. 1643.30  92
  -2   1   2 425368. 1645.25  96
  -2   1   2 424570. 1645.04  67
   2  -1  -2 413542. 1639.35  34
   2  -1  -2 416271. 1815.77  64
  -2   1   2 421425. 1778.17   3
  -2   1   2 432142. 1768.15  40
  -2   1   2 413221. 944.995  36
  -2   1   1 56166.3 509.840  67
   2  -1  -1 54772.7 618.828  90
  -2   1   1 57621.5 364.836  68
  -2   1   1 54813.5 624.805  96
   2  -1  -1 54081.6 614.568  91
   2  -1  -1 55189.9 621.148  93
   2  -1  -1 53161.3 639.687  64
   2  -1  -1 51859.9 643.204  66
   2  -1  -1 55074.2 647.840  39
   2  -1  -1 53474.6 651.592  62
   2  -1  -1 55883.4 624.256  94
   2  -1  -1 54268.4 616.988  95
  -2   1   1 53789.3 564.916  65
  -2   1   1 51258.1 604.816   3
  -2   1   1 54146.4 442.031  37
   2  -1  -1 54093.2 620.600  92
  -2   1   1 52369.1 581.963  63
   2  -1  -1 53764.8 573.298  34
  -2   1   0 105782. 890.178  63
   2  -1   0 106423. 921.708  64
  -2   1   0 113752. 680.585  67
   2  -1   0 105866. 929.738  66
  -2   1   0 105255. 785.941  37
   2  -1   0 108780. 919.877  94
  -2   1   0 105668. 875.176  65
   2  -1   0 103789. 909.282  62
   2  -1   0 101521. 887.175  39
  -2   1   0 109390. 932.908  96
   2  -1   0 108803. 920.629  93
   2  -1   0 109023. 918.976  95
   2  -1   0 109001. 921.587  92
   2  -1   0 108191. 917.743  91
   2  -1   0 108758. 922.773  90
  -2   1   0 103694. 856.043   3
   2  -1   0 105519. 854.545  34
   2  -1   1 61199.3 739.993  92
  -2   1  -1 60368.8 706.813  37
  -2   1  -1 60890.9 740.745  65
  -2   1  -1 60536.6 736.784  63
   2  -1   1 60057.7 750.397  66
   2  -1   1 59700.2 736.270  64
   2  -1   1 61210.3 727.276  39
  -2   1  -1 59467.6 739.879  96
   2  -1   1 58927.5 718.889  62
   2  -1   1 61412.9 740.042  95
   2  -1   1 61121.9 737.511  94
   2  -1   1 61379.3 740.166  91
   2  -1   1 61876.9 745.053  90
  -2   1  -1 58973.7 633.037   3
   2  -1   1 61799.8 743.874  93
   2  -1   2 19008.5 270.998  68
   2  -1   2 17892.9 456.240  66
   2  -1   2 19168.5 444.787  91
   2  -1   2 18502.2 435.835  39
  -2   1  -2 17715.8 436.411  63
   2  -1   2 19358.3 445.347  94
   2  -1   2 17758.6 433.839  64
  -2   1  -2 19309.8 450.903  96
   2  -1   2 20034.4 453.744  95
  -2   1  -2 18144.7 448.092  65
   2  -1   2 19124.7 444.139  93
   2  -1   2 19606.8 449.480  92
   2  -1   2 19363.8 446.858  90
  -2   1  -2 17884.7 340.857   3
   2  -1   2 17633.4 431.797  62
  -2   1  -2 18034.8 443.787  37
  -2   1  -3 31152.4 667.659  37
  -2   1  -3 30383.1 624.204  63
   2  -1   3 31381.5 622.643  39
   2  -1   3 29494.9 626.655   2
   2  -1   3 30737.3 629.369  62
  -2   1  -3 28981.0 597.479  96
   2  -1   3 29169.6 590.312  95
   2  -1   3 29598.0 593.566  94
   2  -1   3 29207.2 592.690  93
  -2   1  -3 30989.5 620.777  38
   2  -1   3 29768.4 596.889  92
  -2   1  -3 30282.1 647.878  65
   2  -1   3 30260.2 602.170  90
   2  -1   3 29924.9 595.694  91
   2  -1   4 4786.60 284.066   2
  -2   1  -4 4872.32 298.764  37
  -2   1  -4 4752.96 282.691  38
   2  -1   4 4719.84 253.529  94
   2  -1   4 4644.81 252.174  92
   2  -1   4 4546.70 249.548  91
   2  -1   4 4663.34 253.906  90
   2  -1   4 4830.37 257.232  95
  -2   1  -4 4573.73 257.630  96
  -2   1  -4 4592.08 276.791  65
  -2   1  -4 4834.67 271.391  63
   2  -1   4 4635.42 251.621  93
   2  -1   5 412.460 83.1377   2
  -2   1  -5 205.738 64.9084  63
  -2   1  -5 444.332 93.4255  65
   2  -1   5 284.373 49.3009  42
  -2   1  -5 330.440 97.4167  38
   2  -1   5 350.322 55.8066  74
   2  -1   5 338.903 54.7584  32
  -2   1  -5 240.182 81.3604  37
   2  -1   5 328.906 58.8969  88
   2  -1   5 382.023 54.3197  81
   2  -1   5 345.631 58.6057  49
   2  -1   6 40326.0 589.856  74
   2  -1   6 38575.7 582.887  32
   2  -1   6 39344.5 586.908  49
   2  -1   6 41222.3 604.438  30
   2  -1   6 39813.4 587.936  42
   2  -1   6 41536.1 600.964  31
   2  -1   6 45350.7 1052.87   2
   2  -1   6 40857.5 575.250  59
   2  -1   6 39011.3 574.432  81
  -2   1  -6 44006.1 1062.12  38
   2  -1   6 39590.1 610.695  22
  -2   1  -6 44140.4 1062.34  37
   2  -1   6 39206.2 576.499  54
   2  -1   6 39143.4 554.312  76
   2  -1   7 6950.04 251.477  74
   2  -1   7 6686.26 243.297  32
   2  -1   7 7427.97 257.649  31
   2  -1   7 6630.92 239.395  30
   2  -1   7 7377.72 258.563  85
   2  -1   7 7270.74 252.480  13
   2  -1   7 6582.87 249.660  24
   2  -1   7 6862.54 257.217  22
   2  -1   7 6858.59 246.208  54
  -2   1  -7 6956.51 217.498  41
   2  -1   7 7000.10 248.626  42
   2  -1   7 6683.39 237.910  81
   2  -1   7 6923.65 240.049  59
   2  -1   7 6806.27 225.954  76
   2  -1   8 15178.6 336.615  31
   2  -1   8 14375.0 311.416  81
   2  -1   8 14405.0 329.476  54
   2  -1   8 14324.3 334.870  24
   2  -1   8 14038.3 334.661  22
   2  -1   8 14639.6 331.871  85
   2  -1   8 14443.9 330.996  13
   2  -1   8 14120.9 318.570  42
   2  -1   8 15046.4 318.402  59
  -2   1  -9 526.678 50.1040  69
   2  -1   9 501.122 51.8730  24
   2  -1   9 510.219 52.7909  54
   2  -1   9 508.032 53.6212  13
  -2   0  10 11472.4 251.163  59
  -2   0  10 11416.1 224.582  82
  -2   0  10 11421.7 262.130  31
  -2   0   9 3211.85 171.554  31
  -2   0   9 3284.08 153.012  29
  -2   0   9 3061.97 160.749  59
  -2   0   9 3365.73 154.571  82
  -2   0   9 3082.77 154.273  57
  -2   0   8 41351.8 629.386  59
  -2   0   8 41722.7 595.191  29
  -2   0   8 42965.5 566.161  13
  -2   0   8 41996.4 602.404  57
  -2   0   8 43115.9 568.508  54
  -2   0   8 41682.6 605.460  21
  -2   0   8 42482.7 597.177  82
  -2   0   7 624.584 114.168   2
  -2   0   7 790.887 84.7221  57
   2   0  -7 870.400 163.548  66
  -2   0   7 647.804 128.684  68
  -2   0   7 797.222 84.1789  11
  -2   0   7 811.860 79.2938  54
  -2   0   7 773.056 83.6852  82
  -2   0   7 810.108 87.6534  21
  -2   0   7 789.595 83.2753  52
  -2   0   7 719.534 81.3768  29
   2   0  -7 624.699 129.957  38
  -2   0   7 858.663 91.2268  59
  -2   0   7 775.569 78.5363  48
   2   0  -7 922.590 168.502  34
  -2   0   6 3285.10 268.194  68
  -2   0   6 3493.01 249.271   2
  -2   0   6 3226.77 233.971  40
   2   0  -6 4063.41 288.320  34
   2   0  -6 4068.60 267.019  38
  -2   0   5 72363.1 1004.71   2
  -2   0   5 68506.0 977.717  40
   2   0  -5 74608.6 1005.71  38
  -2   0   5 67312.7 1014.70   4
   2   0  -5 72426.0 1013.04  64
   2   0  -5 71773.5 1076.12  34
  -2   0   5 66526.0 1061.35  68
  -2   0   4 12848.2 389.255  67
  -2   0   4 11927.3 393.491  68
  -2   0   4 12752.7 378.018  40
  -2   0   4 12834.4 303.937   3
   2   0  -4 13358.8 365.964  38
  -2   0   4 12895.2 371.668   2
   2   0  -4 13063.9 402.441  34
  -2   0   4 12415.4 378.817   4
   2   0  -3 4578.49 164.800  90
  -2   0   3 4352.70 190.556  67
  -2   0   3 4193.94 171.445   3
   2   0  -3 4578.61 164.008  95
   2   0  -3 4020.41 198.408  64
  -2   0   3 4182.60 188.862   4
  -2   0   3 4359.71 160.794  91
  -2   0   3 4258.60 158.204  96
   2   0  -3 4492.08 160.515  94
  -2   0   3 4428.29 161.898  93
   2   0  -3 4492.44 161.086  92
  -2   0   3 4332.53 201.038  68
  -2   0   3 4286.95 197.117  40
   2   0  -3 4005.81 169.313  38
  -2   0   3 4309.20 182.826   2
   2   0  -3 4298.44 203.982  34
  -2   0   2 579321. 1256.91  63
   2   0  -2 590032. 1871.24  92
  -2   0   2 595584. 1920.23  68
   2   0  -2 566568. 2185.95  66
  -2   0   2 591646. 1802.43  67
   2   0  -2 577234. 1849.11  94
  -2   0   2 579793. 1854.43  96
  -2   0   2 602567. 1834.36   4
   2   0  -2 563372. 2106.26  64
  -2   0   2 564724. 2072.23  40
   2   0  -2 584879. 1871.94  90
  -2   0   2 578292. 1938.75   3
  -2   0   2 583641. 1865.98  91
   2   0  -2 582895. 1861.86  95
   2   0  -2 562247. 2065.52  34
  -2   0   2 556100. 1811.60   2
  -2   0   1 927582. 2375.81   3
  -2   0   1 925684. 2389.64  91
  -2   0   1 909308. 2012.94  63
   2   0  -1 936544. 2364.59  94
  -2   0   1 913464. 1266.96  37
   2   0  -1 904830. 2344.80  92
  -2   0   1 927946. 2377.61  96
   2   0  -1 911951. 2350.09  93
   2   0  -1 919323. 2359.78  90
   2   0  -1 927167. 2363.01  95
  -2   0   1 884926. 2387.09  35
   2   0   0 891586. 2378.65  94
  -2   0   0 871722. 2208.97  63
  -2   0   0 865477. 2078.43  65
  -2   0   0 848485. 2206.67   3
   2   0   0 875000. 2360.31  92
   2   0   0 876665. 2361.72  93
  -2   0   0 878528. 1890.88  37
   2   0   0 876427. 2358.28  95
  -2   0   0 890381. 2397.87  96
  -2   0   0 837705. 2157.76  35
   2   0   0 884503. 2377.88  90
   2   0   1 133.771 39.1968  34
   2   0   1 100.330 31.3290  36
   2   0   1 124.750 34.9327  91
  -2   0  -1 119.450 29.6223   3
  -2   0  -1 202.742 40.9324  37
   2   0   1 169.218 39.1005  64
   2   0   1 136.543 34.7553  66
  -2   0  -1 125.107 30.8976  65
  -2   0  -1 135.858 34.7424  96
   2   0   1 155.315 31.7906  39
   2   0   1 123.948 32.7380  93
   2   0   1 140.142 35.8481  95
   2   0   1 144.990 38.3601  62
   2   0   1 152.718 36.8176  92
   2   0   1 125.151 33.2320  94
   2   0   1 153.265 38.1181  90
  -2   0  -1 91.6726 22.0632  35
  -2   0  -1 289.142 48.7746  63
   2   0   2 1113.83 95.3027  91
   2   0   2 1108.49 93.4549  64
   2   0   2 1214.02 99.2359  94
   2   0   2 1125.69 94.8652  93
  -2   0  -2 1206.40 98.9483  96
   2   0   2 1172.30 97.1362  95
   2   0   2 1188.52 103.422  66
   2   0   2 1088.91 88.5097  62
  -2   0  -2 1226.01 104.536  65
   2   0   2 1134.51 86.0799  39
   2   0   2 1143.82 95.7164  90
   2   0   2 1097.27 94.7282  92
  -2   0  -2 1044.47 74.5159   3
  -2   0  -2 1149.88 101.746  37
   2   0   2 1209.30 70.0193  68
  -2   0  -2 1031.20 66.7248  35
   2   0   3 102412. 960.677  91
   2   0   3 103943. 969.029  93
   2   0   3 102506. 921.950  39
   2   0   3 105273. 848.742  68
  -2   0  -3 100048. 965.732  96
   2   0   3 105246. 972.749  94
  -2   0  -3 96192.7 627.467   3
  -2   0  -3 102296. 1093.22  37
   2   0   3 99698.0 1015.47   2
   2   0   3 100302. 932.301  62
   2   0   3 104738. 968.892  95
   2   0   3 103928. 966.751  92
   2   0   3 104089. 969.349  90
  -2   0  -3 100990. 1073.56  65
   2   0   3 101379. 948.051  64
   2   0   3 102212. 1066.99  66
  -2   0  -4 4211.13 230.127  63
   2   0   4 4673.59 253.432   2
   2   0   4 4266.05 207.158  68
   2   0   4 4711.74 220.436  95
   2   0   4 4576.39 217.118  94
  -2   0  -4 4295.69 247.592  65
   2   0   4 4494.90 215.720  91
   2   0   4 4187.66 207.859  93
   2   0   4 4459.13 214.679  90
  -2   0  -4 4310.49 256.117  37
   2   0   4 4422.58 213.854  92
  -2   0  -4 3934.27 203.765  96
  -2   0  -5 72225.1 1177.22  37
   2   0   5 72718.0 1135.64   2
  -2   0  -5 75212.2 1041.12  63
  -2   0  -5 73614.5 1134.26  65
   2   0   5 72083.7 990.513  68
   2   0   6 2753.41 149.251  74
   2   0   6 2780.52 150.675  32
   2   0   6 3162.60 169.365  31
   2   0   6 2741.89 139.700  46
  -2   0  -6 2554.04 253.055  38
   2   0   6 2526.41 139.700  30
   2   0   6 2790.31 151.004  42
  -2   0  -6 2813.62 250.176  37
   2   0   6 2832.48 253.617   2
   2   0   6 2813.47 148.701  54
   2   0   6 2825.78 148.406  81
   2   0   6 2999.63 157.846  59
   2   0   6 2718.68 149.162  22
   2   0   6 2928.69 159.559  24
  -2   0  -6 3067.99 250.853  65
   2   0   6 2541.44 135.865  76
   2   0   7 2429.42 148.577  74
   2   0   7 2348.45 146.685  32
   2   0   7 2147.63 138.439  22
   2   0   7 2267.85 150.599  31
   2   0   7 2195.59 133.804  30
   2   0   7 2212.95 138.952  85
   2   0   7 2303.24 149.265  24
   2   0   7 2289.52 143.595  13
   2   0   7 2272.30 144.433  59
  -2   0  -7 2328.47 246.694  37
   2   0   7 2241.33 142.203  42
   2   0   7 2241.94 139.969  54
   2   0   7 2395.65 142.917  81
   2   0   8 6251.01 223.778  85
   2   0   8 6039.46 221.537  22
   2   0   8 5856.75 226.328  13
   2   0   8 5673.45 229.814  24
   2   0   8 6191.61 241.667  31
   2   0   8 5982.01 228.706  59
   2   0   8 6134.11 229.108  54
   2   0   8 6298.69 229.073  42
   2   0   9 7.86451 21.2782  13
   2   0   9 5.66003 20.2396  59
   2   0   9-11.6262 22.5015  24
   2   0   9 11.1807 20.2962  54
   2   0  10 1935.91 86.5454  54
   2   0  10 1865.38 87.3735  13
  -2  -1  10 106.773 24.0915  31
  -2  -1  10 97.4127 23.3626  59
  -2  -1   9 11080.1 292.406  31
  -2  -1   9 11867.9 250.471  29
  -2  -1   9 11779.0 275.872  57
  -2  -1   9 11417.4 284.224  59
  -2  -1   9 12117.1 251.501  82
  -2  -1   8 60.4715 24.2246  54
  -2  -1   8 75.5746 32.1789  13
  -2  -1   8 23.1287 29.6248  31
  -2  -1   8 57.4417 35.8914  57
  -2  -1   8 19.1487 25.8804  59
  -2  -1   8 11.2265 28.5277  48
  -2  -1   8 23.1292 20.8695  29
  -2  -1   8 46.0501 29.5040  88
  -2  -1   8 9.36313 27.0668  82
  -2  -1   7 12097.4 317.625  89
  -2  -1   7 11800.2 332.961  59
  -2  -1   7 12185.5 321.666  57
   2   1  -7 12972.3 568.982  38
  -2  -1   7 12120.9 322.253  48
  -2  -1   7 11950.4 300.624  54
  -2  -1   7 12353.4 333.462  88
  -2  -1   7 11492.0 335.142  21
  -2  -1   7 11405.4 322.748  52
  -2  -1   7 12797.3 317.489  29
  -2  -1   7 12611.4 317.012  82
   2   1  -7 13785.9 607.170  34
  -2  -1   6 69.3009 33.3471  48
  -2  -1   6 37.5998 47.9141   2
  -2  -1   6 33.1254 34.1779  57
  -2  -1   6 27.1212 29.4266  21
  -2  -1   6 79.8240 27.6757  29
  -2  -1   6 77.0499 45.8367  40
  -2  -1   6 145.735 39.4589  59
   2   1  -6-44.6865 47.4310  38
  -2  -1   6 34.1296 32.1335  11
  -2  -1   6 62.3216 38.3531   4
  -2  -1   6 96.8526 41.2569  89
  -2  -1   6 67.2748 30.8559  82
  -2  -1   6 146.693 42.0808  52
  -2  -1   6-92.9081 48.0046  68
  -2  -1   6 131.432 43.9683  78
   2   1  -6 107.856 82.3967  34
  -2  -1   5 12.5064 30.3001   2
  -2  -1   5-23.1424 24.8203  40
  -2  -1   5 46.0704 15.1630  68
   2   1  -5-57.9692 34.3228  38
  -2  -1   5-32.1808 5.46988   4
  -2  -1   4 5939.28 298.350  68
  -2  -1   4 6261.55 291.857   4
  -2  -1   4 6563.06 232.893  95
  -2  -1   4 6416.59 300.396  40
   2   1  -4 6362.88 231.715  94
  -2  -1   4 6658.83 235.107  92
  -2  -1   4 6461.63 232.647  93
   2   1  -4 6676.34 320.362  34
  -2  -1   4 6535.10 232.924  91
   2   1  -4 6776.55 299.460  38
   2   1  -4 6487.66 235.143  90
  -2  -1   4 6384.00 258.580   2
  -2  -1   4 6572.97 232.969  96
   2   1  -3 70418.4 748.853  94
  -2  -1   3 70841.0 889.971  40
   2   1  -3 69753.1 831.992  38
  -2  -1   3 71323.2 845.166   4
   2   1  -3 72172.2 760.553  95
  -2  -1   3 70524.6 747.268  91
  -2  -1   3 71372.2 723.257   2
  -2  -1   3 71603.2 749.417  92
   2   1  -3 69016.0 565.207  37
  -2  -1   3 71274.2 748.573  96
  -2  -1   3 70815.7 746.822  93
   2   1  -3 71301.0 755.401  90
   2   1  -3 69345.5 903.135  34
  -2  -1   3 70252.7 883.347  68
   2   1  -2 25592.4 437.360  38
   2   1  -2 26081.3 437.487  95
  -2  -1   2 25944.5 460.116  68
  -2  -1   2 25158.9 370.483   1
  -2  -1   2 24679.7 274.349  63
  -2  -1   2 26403.6 432.918  96
  -2  -1   2 25495.5 481.674  40
  -2  -1   2 26343.6 432.693  91
   2   1  -2 26257.1 438.728  94
  -2  -1   2 26227.3 435.184  93
   2   1  -2 25882.9 433.662  92
  -2  -1   2 25270.3 439.283  35
   2   1  -2 25665.1 433.819  90
   2   1  -2 25091.0 260.533  36
  -2  -1   2 25868.4 354.805   2
   2   1  -2 25610.5 486.289  34
  -2  -1   1 3757.45 143.381   1
   2   1  -1 3828.75 158.150  66
   2   1  -1 3895.40 110.943  36
  -2  -1   1 4128.32 166.939  96
   2   1  -1 3909.61 162.412  92
  -2  -1   1 3691.79 95.9928  65
  -2  -1   1 3672.74 128.329  63
  -2  -1   1 3897.91 162.331  35
  -2  -1   1 4045.06 165.263  91
  -2  -1   1 3871.74 168.013  40
   2   1  -1 4030.68 164.835  94
  -2  -1   1 3868.60 162.328  93
   2   1  -1 3916.78 153.324  38
   2   1  -1 3925.93 163.778  90
   2   1  -1 3837.32 161.413  95
   2   1  -1 4204.34 177.749  34
  -2  -1   0 3046.34 116.593  65
   2   1   0 2968.59 122.503  66
  -2  -1   0 3136.48 144.993  91
   2   1   0 3159.22 146.573  95
   2   1   0 2929.43 133.877  64
   2   1   0 3193.22 144.086  94
  -2  -1   0 2935.40 128.542  63
   2   1   0 2989.51 139.308  93
   2   1   0 2910.45 114.967  36
  -2  -1   0 3170.28 142.423  40
   2   1   0 2955.51 142.624  34
   2   1   0 3060.48 141.467  92
  -2  -1   0 3085.56 134.841   1
   2   1   0 3008.17 126.756  38
  -2  -1   0 3081.20 142.919  35
   2   1   0 3091.63 143.981  90
  -2  -1   0 3053.77 143.174  96
  -2  -1  -1 1876.75 102.035   1
   2   1   1 1658.21 102.490  36
  -2  -1  -1 1737.21 107.684  63
   2   1   1 1668.71 93.3232  64
  -2  -1  -1 1912.04 109.698  65
  -2  -1  -1 1554.71 98.8830  35
   2   1   1 1752.09 107.265  90
   2   1   1 1740.39 85.2492  62
   2   1   1 1688.82 105.826  93
   2   1   1 1781.80 108.556  95
   2   1   1 1642.78 104.537  34
   2   1   1 1640.66 62.5910  39
   2   1   1 1722.51 106.880  94
  -2  -1  -1 1667.78 105.669  91
  -2  -1  -1 1802.68 109.537  96
   2   1   1 1703.81 105.523  92
   2   1   1 1670.33 90.5641  66
   2   1   2 2803.74 137.585  92
  -2  -1  -2 2819.89 126.014   1
   2   1   2 2752.07 131.451  66
   2   1   2 2678.20 121.385   2
   2   1   2 2679.33 107.315  62
   2   1   2 2767.58 118.139  64
   2   1   2 2911.44 97.1410  67
   2   1   2 2865.81 139.801  94
  -2  -1  -2 2776.03 149.398  63
  -2  -1  -2 2834.25 140.339  91
   2   1   2 2767.44 152.358  36
   2   1   2 2723.41 136.519  95
  -2  -1  -2 2812.45 139.410  96
  -2  -1  -2 3041.01 138.884  35
   2   1   2 2643.64 85.7392  39
   2   1   2 3111.12 145.842  90
  -2  -1  -2 2941.05 156.428  65
   2   1   2 2882.69 139.955  93
   2   1   3 26683.9 444.183  92
   2   1   3 28278.5 401.669   5
  -2  -1  -3 26169.2 498.467  63
  -2  -1  -3 25620.7 377.745   1
  -2  -1  -3 25947.5 517.841  65
   2   1   3 25808.0 455.396   2
  -2  -1  -3 26096.6 440.100  96
   2   1   3 26859.9 445.973  93
  -2  -1  -3 26663.0 447.243  91
   2   1   3 27024.1 447.146  95
  -2  -1  -3 25645.0 337.737   3
   2   1   3 25666.9 435.989  90
   2   1   3 26590.9 442.263  94
  -2  -1  -3 26014.5 414.278  35
   2   1   3 26123.7 379.971  64
   2   1   3 25682.8 524.323  36
   2   1   3 26993.1 401.159  67
   2   1   4 127049. 1009.96  90
  -2  -1  -4 124914. 1275.61  65
   2   1   4 125857. 1001.67  95
   2   1   4 124309. 1137.69  68
   2   1   4 122817. 998.269  92
  -2  -1  -4 124051. 998.930  96
   2   1   4 126707. 1005.94  94
   2   1   4 124429. 1302.16  36
  -2  -1  -4 123309. 920.404  35
  -2  -1  -4 125496. 1003.40  91
  -2  -1  -4 120860. 1297.10  37
   2   1   4 124597. 1009.18  93
  -2  -1  -4 124617. 1186.68  63
   2   1   4 120376. 1166.25   2
   2   1   5 5401.93 286.217   2
  -2  -1  -5 5533.94 296.990  65
  -2  -1  -5 5580.05 271.467  63
   2   1   5 5433.48 274.125  68
  -2  -1  -5 5816.85 314.657  37
   2   1   6 4522.11 296.841   2
  -2  -1  -6 5169.80 315.874  65
   2   1   6 4824.43 294.030  68
  -2  -1  -6 4875.86 321.519  37
   2   1   7 459.513 111.571   2
   2   1   7 410.297 68.3740  31
   2   1   7 381.118 58.1127  81
   2   1   7 381.456 56.3530  46
  -2  -1  -7 432.921 102.381  38
   2   1   7 377.405 60.8986  42
   2   1   7 406.084 63.6819  13
   2   1   7 425.521 66.0705  59
  -2  -1  -7 431.306 105.779  37
   2   1   7 397.429 64.7287  24
   2   1   7 483.365 66.3329  85
   2   1   7 358.742 55.1965  54
   2   1   7 400.211 66.0718  82
   2   1   8 6767.37 242.140  42
   2   1   8 6880.46 233.630  85
   2   1   8 6518.42 248.819  59
   2   1   8 6909.48 257.968  24
   2   1   8 6616.82 260.518  31
   2   1   8 6478.16 236.877  54
   2   1   8 6535.66 245.504  13
   2   1   9 455.539 70.6152  31
   2   1   9 610.113 66.3651  15
   2   1   9 452.775 64.8686  24
   2   1   9 488.342 66.9573  13
   2   1   9 528.288 81.4032  59
   2   1   9 573.081 69.1005  54
   2   1  10 977.829 77.4279  13
   2   1  10 1028.50 73.5205  54
  -2  -2   9 2415.31 114.582  31
  -2  -2   9 2372.85 119.083  22
  -2  -2   9 2361.38 108.248  59
  -2  -2   8 27848.9 463.672  59
  -2  -2   8 28275.1 473.061  88
  -2  -2   8 27600.3 479.580  31
  -2  -2   8 28234.2 464.379  48
  -2  -2   7 16041.4 341.862  74
  -2  -2   7 15765.2 378.290  59
  -2  -2   7 15974.9 396.029  21
  -2  -2   7 16630.7 364.812  57
  -2  -2   7 16583.4 402.344  88
  -2  -2   7 15399.3 343.007   7
  -2  -2   7 15622.2 373.878  89
  -2  -2   7 16395.7 351.587  54
  -2  -2   7 15741.1 375.683  48
  -2  -2   6 9661.55 267.362  74
   2   2  -6 11330.7 529.395  38
  -2  -2   6 9965.15 272.893  54
  -2  -2   6 9141.62 273.051  86
  -2  -2   6 8868.05 468.290  40
  -2  -2   6 9991.88 493.363   4
  -2  -2   6 9801.39 295.031  59
  -2  -2   6 10132.1 281.960  57
  -2  -2   6 9212.36 299.837  21
  -2  -2   6 9735.07 309.320  88
  -2  -2   6 9579.36 291.041  89
  -2  -2   6 9349.41 286.720  52
   2   2  -6 10783.5 542.294  34
  -2  -2   6 9791.50 513.770  68
  -2  -2   6 9200.26 283.937  48
  -2  -2   6 9307.78 276.811   7
  -2  -2   5 21163.6 423.101  21
  -2  -2   5 20253.8 393.049  52
   2   2  -5 21867.1 680.936  38
  -2  -2   5 19451.3 651.623  40
  -2  -2   5 19102.9 626.756   4
  -2  -2   5 18659.3 652.048  68
  -2  -2   5 20591.6 397.111  78
   2   2  -5 21225.5 698.926  34
  -2  -2   5 20883.2 398.109  48
  -2  -2   4 489.050 76.2256  95
  -2  -2   4 551.229 77.8402   2
  -2  -2   4 418.537 72.4227  96
   2   2  -4 423.857 74.5184  94
  -2  -2   4 495.456 79.5431  93
  -2  -2   4 305.746 62.7102  92
   2   2  -4 414.914 84.1973  38
  -2  -2   4 469.154 75.5405  91
   2   2  -4 425.190 73.1400  90
   2   2  -4 360.347 85.8943  34
  -2  -2   4 441.365 88.8159  40
  -2  -2   4 338.975 76.8490   4
  -2  -2   4 351.971 78.2456  68
  -2  -2   3 6506.51 204.912   1
  -2  -2   3 6540.10 268.932  93
  -2  -2   3 7127.99 279.073  91
  -2  -2   3 6732.98 275.863  92
  -2  -2   3 7011.16 314.663  40
  -2  -2   3 6483.16 287.722   4
  -2  -2   3 6726.33 274.421  96
  -2  -2   3 6273.48 296.764  68
  -2  -2   3 6888.60 231.145   2
   2   2  -3 7007.70 247.618  37
   2   2  -3 6563.34 272.890  90
   2   2  -3 6874.61 278.730  94
   2   2  -3 7190.77 323.901  34
   2   2  -3 6880.69 303.564  38
   2   2  -2 16745.8 418.489  38
   2   2  -2 16493.0 406.484  95
  -2  -2   2 16480.9 405.918  93
  -2  -2   2 16475.2 425.214  68
   2   2  -2 16649.0 407.650  94
  -2  -2   2 16204.1 402.629  92
   2   2  -2 15969.2 402.160  90
  -2  -2   2 16731.3 440.217  40
  -2  -2   2 16151.6 398.360  96
  -2  -2   2 15629.3 328.341   1
  -2  -2   2 16407.1 401.911  91
   2   2  -2 17036.8 438.297  34
  -2  -2   2 16484.9 282.479   2
   2   2  -2 16705.7 350.154  37
   2   2  -2 16862.8 338.136  36
  -2  -2   2 16468.9 370.733  35
  -2  -2   1 197136. 1156.79   1
   2   2  -1 194614. 1325.01  95
  -2  -2   1 197950. 1334.89  40
   2   2  -1 197368. 1321.49  94
   2   2  -1 197131. 1115.30  36
  -2  -2   1 201197. 1325.42  93
   2   2  -1 194069. 1298.35  38
  -2  -2   1 198783. 1318.99  92
   2   2  -1 196074. 1328.59  90
  -2  -2   1 201248. 1324.07  91
  -2  -2   1 198385. 618.519   2
  -2  -2   1 199515. 1316.44  96
  -2  -2   1 195983. 1246.84  35
   2   2  -1 198896. 1327.24  34
  -2  -2   0 203109. 1176.91   1
   2   2   0 204445. 1283.23  94
   2   2   0 201296. 1216.15  34
   2   2   0 198197. 1138.90  36
  -2  -2   0 204003. 1267.75  96
  -2  -2   0 206641. 1226.48  40
  -2  -2   0 202596. 1273.45  91
   2   2   0 206343. 1292.50  95
  -2  -2   0 202375. 1273.14  93
   2   2   0 196876. 1227.62  38
   2   2   0 203189. 1288.74  90
   2   2   0 202495. 1275.59  92
  -2  -2   0 202270. 1253.37  35
  -2  -2  -1 73786.6 668.502  40
   2   2   1 67932.8 451.058  66
  -2  -2  -1 69947.6 688.555   1
   2   2   1 72133.9 738.913  90
  -2  -2  -1 70798.1 750.693  35
   2   2   1 75758.4 533.443  67
   2   2   1 72375.4 740.694  95
   2   2   1 71776.8 733.728  94
  -2  -2  -1 71642.9 733.088  93
   2   2   1 71558.1 734.933  92
   2   2   1 69403.3 732.435  38
   2   2   1 68823.8 716.162  36
  -2  -2  -1 71856.5 729.437  96
  -2  -2  -1 72244.2 733.168  91
   2   2   1 69768.0 676.605  34
   2   2   2 1593.53 108.027  34
   2   2   2 1488.23 76.5567  64
   2   2   2 1477.07 105.274  92
   2   2   2 1559.78 77.9068   2
  -2  -2  -2 1474.65 90.8227  40
   2   2   2 1447.96 104.167  95
  -2  -2  -2 1438.78 100.159   1
  -2  -2  -2 1587.38 107.951  96
  -2  -2  -2 1499.09 113.527  35
  -2  -2  -2 1564.41 107.791  93
  -2  -2  -2 1492.06 105.140  91
   2   2   2 1522.87 117.183  36
   2   2   2 1521.46 72.8737  66
   2   2   2 1600.35 109.287  90
   2   2   2 1467.68 82.1019  67
   2   2   2 1541.53 107.004  94
  -2  -2  -3 80997.9 749.840   1
   2   2   3 81734.5 722.398  67
   2   2   3 79389.3 720.202   2
   2   2   3 81674.6 944.621  36
   2   2   3 82616.3 771.659  92
   2   2   3 82316.9 771.411  95
  -2  -2  -3 81817.6 898.206  63
  -2  -2  -3 81093.3 758.877  91
  -2  -2  -3 81465.1 759.638  96
   2   2   3 82439.0 766.991  94
  -2  -2  -3 82042.7 760.896  93
  -2  -2  -3 80734.4 856.909  35
   2   2   3 81736.8 766.199  90
   2   2   4 44897.8 650.413   5
   2   2   4 44719.3 626.052  67
  -2  -2  -4 44092.0 667.126  35
  -2  -2  -4 42791.8 746.455  65
   2   2   4 41790.0 632.104   2
  -2  -2  -4 43406.8 707.210  63
  -2  -2  -4 43557.4 548.348  96
   2   2   4 44502.7 774.479  36
   2   2   4 43777.2 555.067  92
   2   2   4 43516.8 553.591  95
  -2  -2  -4 44200.5 554.440  91
   2   2   4 44646.1 557.718  94
   2   2   4 44632.3 560.900  90
  -2  -2  -4 44217.6 543.177   1
  -2  -2  -4 44134.6 551.444  93
  -2  -2  -5 57954.3 959.409  65
  -2  -2  -5 58272.7 873.646  63
   2   2   5 57658.6 915.738  68
   2   2   5 57721.6 866.154   2
   2   2   5 58164.6 987.162  36
  -2  -2  -5 58213.1 802.395  35
   2   2   5 56352.5 819.989  67
   2   2   6 99.3877 53.7807   2
   2   2   6 58.5373 40.9540  68
  -2  -2  -6-6.33648 40.7042  37
  -2  -2  -6-6.76845 29.9301  65
   2   2   7 87.0191 35.1004  47
   2   2   7 55.8383 31.8631  31
   2   2   7 5.58383 18.7682  42
  -2  -2  -7-80.3805 81.8864  65
   2   2   7 31.9271 26.7850  54
   2   2   7-3.77532 24.3815  13
   2   2   7 121.015 35.0402  46
   2   2   7 4.05925 30.2845  82
   2   2   7 73.1699 26.2478  26
   2   2   7 95.4877 34.2204  51
   2   2   7-102.202 67.5707   2
   2   2   7 29.8901 29.3247  24
   2   2   7 12.7353 21.9257  85
   2   2   7 22.5957 31.3141  29
   2   2   7 20.2542 33.2268  59
   2   2   8 19844.3 391.913  46
   2   2   8 19450.5 421.366  13
   2   2   8 19453.8 450.529  31
   2   2   8 19414.5 431.644  59
   2   2   8 19094.4 404.549  54
   2   2   8 18724.9 362.758  26
   2   2   8 19569.9 418.948  82
   2   2   8 19196.5 367.023  51
   2   2   8 18740.2 423.043  24
   2   2   9 13691.2 365.357  31
   2   2   9 13771.2 344.233  13
   2   2   9 13791.1 326.690  15
   2   2   9 13579.6 346.524  59
   2   2   9 13428.0 326.187  54
   2   2  10 721.713 72.5660  13
   2   2  10 736.933 68.5568  54
   2   2  11 49.4010 16.7792  12
   2   2  11 43.5933 16.0543  54
   2   3  -9 15.5677 12.7983  55
  -2  -3   9 18.3360 14.3301  22
   2   3  -8 541.511 52.2594  75
  -2  -3   8 517.365 55.3232  31
  -2  -3   8 522.179 64.2980  22
  -2  -3   8 547.384 62.0049  88
  -2  -3   8 507.540 51.8955  59
  -2  -3   7 205.544 46.2523  48
  -2  -3   7 133.121 34.7885  74
   2   3  -7 156.802 38.9463  73
  -2  -3   7 222.472 46.0030  31
  -2  -3   7 229.416 43.9310  59
  -2  -3   7 201.789 50.2933  88
  -2  -3   7 316.966 56.2766  89
  -2  -3   7 135.720 38.2758  54
  -2  -3   7 151.416 37.5502  18
  -2  -3   6 34506.0 527.965  74
  -2  -3   6 32722.2 534.174  52
  -2  -3   6 36563.7 526.070  57
  -2  -3   6 34282.6 572.188  89
  -2  -3   6 33460.5 544.138   7
  -2  -3   6 33326.7 576.624  21
   2   3  -6 34149.9 493.181  79
  -2  -3   6 34890.1 542.583  59
  -2  -3   6 34805.8 520.511  54
  -2  -3   6 34617.3 608.776  88
  -2  -3   6 33503.6 538.468  86
  -2  -3   6 35521.8 516.856  49
  -2  -3   6 32725.2 553.111  48
  -2  -3   5 4726.37 203.940   7
  -2  -3   5 4698.30 192.687  74
  -2  -3   5 4641.29 196.860  59
   2   3  -5 4556.38 178.684  60
  -2  -3   5 4705.97 350.477  68
  -2  -3   5 4610.69 198.832  86
   2   3  -5 4962.01 350.552  38
  -2  -3   5 4434.79 323.970   4
  -2  -3   5 5312.02 194.726  57
  -2  -3   5 4559.12 199.337  78
  -2  -3   5 4794.76 204.680  48
  -2  -3   5 4619.55 208.992  21
  -2  -3   5 4808.66 209.994  89
  -2  -3   5 4351.28 192.375  52
  -2  -3   5 4284.90 336.336  40
   2   3  -5 5438.09 377.129  34
  -2  -3   5 4702.62 191.078  49
  -2  -3   4 10193.9 472.802  68
  -2  -3   4 10968.0 426.817  92
  -2  -3   4 9637.36 464.466  40
  -2  -3   4 11089.1 431.057  96
  -2  -3   4 10460.8 417.887  95
   2   3  -4 10666.7 428.733  94
  -2  -3   4 10539.4 421.496  93
  -2  -3   4 10697.3 424.322  91
   2   3  -4 10520.7 424.551  90
   2   3  -4 11313.9 490.494  38
   2   3  -4 11249.9 497.117  34
  -2  -3   4 10100.8 448.162   4
   2   3  -3 21298.0 609.226  38
  -2  -3   3 19861.1 603.183  40
  -2  -3   3 20291.4 551.708  91
   2   3  -3 22255.4 542.750  37
  -2  -3   3 19938.3 569.224   4
  -2  -3   3 20374.8 550.566  96
   2   3  -3 19747.1 556.260  94
  -2  -3   3 20107.2 550.534  93
  -2  -3   3 19816.6 546.309  92
   2   3  -3 23210.6 536.630  36
  -2  -3   3 19719.8 596.553  68
   2   3  -3 20256.7 565.378  90
  -2  -3   3 19852.0 546.884  95
   2   3  -3 21296.0 616.025  34
   2   3  -2 203259. 1673.03  94
   2   3  -2 221923. 1560.47  36
  -2  -3   2 213796. 1421.42   1
   2   3  -2 203931. 1681.67  90
  -2  -3   2 204411. 1752.48  40
  -2  -3   2 201470. 1652.35  92
  -2  -3   2 205744. 1668.32  93
   2   3  -2 212039. 1742.30  38
   2   3  -2 216254. 1752.56  34
  -2  -3   2 204734. 1661.40  91
   2   3  -2 210257. 1567.12  37
  -2  -3   2 203610. 1650.64  96
  -2  -3   2 207295. 1742.92  68
  -2  -3   2 214584. 1439.51  35
  -2  -3   1 15321.4 427.892  92
   2   3  -1 15692.5 437.949  94
  -2  -3   1 15586.8 428.892  96
  -2  -3   1 15315.6 427.925  91
   2   3  -1 15779.6 399.488  36
  -2  -3   1 15284.5 427.961  93
  -2  -3   1 15429.8 428.093  40
   2   3  -1 15654.0 438.103  95
   2   3  -1 16351.5 445.351  38
   2   3  -1 15361.6 435.141  90
   2   3  -1 16419.9 410.967  37
  -2  -3   1 15922.2 391.890  35
   2   3  -1 16400.8 426.547  34
  -2  -3   1 16128.5 386.925   1
  -2  -3   0 61123.2 760.091  40
  -2  -3   0 61842.2 809.328  96
   2   3   0 61806.7 827.079  95
   2   3   0 62042.8 826.240  94
  -2  -3   0 59258.4 799.054  92
  -2  -3   0 60810.7 810.072  91
   2   3   0 61979.6 830.061  90
   2   3   0 63024.1 821.078  38
  -2  -3   0 61487.8 812.950  93
  -2  -3   0 61505.6 752.491   1
   2   3   0 62086.1 785.053  36
  -2  -3   0 61609.5 783.677  35
   2   3   0 62854.0 751.650  34
  -2  -3  -1 70005.6 845.789  35
   2   3   1 68955.5 834.288  95
  -2  -3  -1 68453.9 824.224  91
  -2  -3  -1 70925.7 721.313  40
  -2  -3  -1 68236.4 818.103  96
  -2  -3  -1 67999.2 818.849  92
   2   3   1 68427.4 827.934  94
  -2  -3  -1 68181.1 825.598  93
   2   3   1 69010.4 833.821  90
   2   3   1 69627.4 843.149  38
   2   3   1 68851.1 836.089  36
  -2  -3  -1 69618.3 798.618   1
   2   3   1 69253.7 722.288  34
   2   3   2 162.581 38.9177  34
   2   3   2 111.003 36.2925  90
   2   3   2 122.841 34.0746  67
   2   3   2 152.189 44.3273  95
   2   3   2 112.487 41.4118  38
  -2  -3  -2 103.626 32.5752  91
   2   3   2 65.2805 32.8473  94
  -2  -3  -2 166.127 32.0969  40
   2   3   2 101.557 38.3533  36
  -2  -3  -2 133.676 41.6042   1
  -2  -3  -2 163.083 39.4823  96
  -2  -3  -2 125.926 38.4456  35
  -2  -3  -2 79.5250 32.5979  93
   2   3   3 141664. 1101.62  94
  -2  -3  -3 139685. 1075.16  96
   2   3   3 139785. 1080.85  67
  -2  -3  -3 141033. 1084.71  93
   2   3   3 140002. 1100.18  90
   2   3   3 142699. 1108.98  95
   2   3   3 139778. 1326.77  36
  -2  -3  -3 140250. 1079.98  91
  -2  -3  -3 140600. 1289.38  35
  -2  -3  -3 143006. 1150.36   1
  -2  -3  -4 16862.6 396.018   1
  -2  -3  -4 16647.6 466.119  63
   2   3   4 17116.6 365.469  95
  -2  -3  -4 18335.4 373.665  92
   2   3   4 17438.9 369.008  90
  -2  -3  -4 18944.5 377.571  96
   2   3   4 16663.1 361.089  94
  -2  -3  -4 18275.2 374.303  93
   2   3   4 16760.4 496.470  36
   2   3   4 16676.1 413.604  67
  -2  -3  -4 18892.2 378.790  91
   2   3   4 17164.7 384.967   2
  -2  -3  -4 17053.4 472.788  35
   2   3   4 16898.3 444.120   5
   2   3   5 3718.53 217.736  67
  -2  -3  -5 3548.49 226.415  63
  -2  -3  -5 4207.03 268.600  65
  -2  -3  -5 4164.86 248.242  35
   2   3   5 4153.65 223.141   2
   2   3   5 3566.57 223.527   5
   2   3   5 3774.55 254.559  36
   2   3   6 48839.9 875.636  67
  -2  -3  -6 53666.0 920.318  63
   2   3   6 51659.3 899.209   2
   2   3   6 50673.2 1010.02  36
  -2  -3  -6 52233.3 917.680  35
  -2  -3  -6 51120.2 1005.62  65
   2   3   7 49129.2 622.522  46
   2   3   7 50887.3 682.353  31
   2   3   7 50926.5 629.221  29
   2   3   7 51771.5 663.687  13
   2   3   7 47972.5 956.121  67
   2   3   7 51586.4 663.823  24
   2   3   7 49547.5 600.707  28
   2   3   7 48570.1 649.009  59
   2   3   7 46871.9 566.390  25
   2   3   7 49890.3 622.943  54
  -2  -3  -7 50837.5 1061.91  65
  -2  -3  -7 48277.9 1057.91  37
   2   3   7 50715.6 1001.79   2
   2   3   7 50191.9 1070.06  36
   2   3   7 50768.9 624.805  82
   2   3   7 49413.3 615.998  51
   2   3   8 12806.6 329.126  82
   2   3   8 12716.3 327.235  54
   2   3   8 12665.5 335.783  15
   2   3   8 12590.8 341.093  13
   2   3   8 11873.3 309.448  26
   2   3   8 12933.8 345.863  59
   2   3   8 12858.3 359.027  31
   2   3   8 12372.2 312.678  51
   2   3   9 2103.13 132.632  15
   2   3   9 2191.88 141.379  13
   2   3   9 2320.07 127.076  26
   2   3   9 2404.36 148.196  59
   2   3   9 2081.04 131.529  54
   2   3   9 2267.59 151.602  31
   2   3   9 2309.72 125.686  51
   2   3  10 2488.00 125.152  15
   2   3  10 2157.09 126.710  13
   2   3  10 2595.15 130.108  54
   2   3  10 2396.24 124.103  12
   2   3  11 5385.92 139.645  12
   2   3  11 5402.75 140.640  54
  -2  -4   8 6938.32 173.037  22
   2   4  -8 6556.73 149.295  55
  -2  -4   8 6741.88 166.594  88
   2   4  -8 6600.45 128.471  77
   2   4  -7 713.982 64.1901  75
   2   4  -7 654.515 56.3751  73
  -2  -4   7 658.676 72.9741  88
  -2  -4   7 674.587 73.4913  22
  -2  -4   7 649.981 69.6719  48
  -2  -4   7 724.160 67.8188  18
  -2  -4   6 24028.9 430.495  74
  -2  -4   6 23465.1 459.332  89
   2   4  -6 24388.9 409.438  73
  -2  -4   6 24303.8 409.696  54
  -2  -4   6 24283.1 492.217  88
   2   4  -6 24170.6 402.530  61
   2   4  -6 24047.1 397.835  79
  -2  -4   6 23879.2 418.525  49
  -2  -4   6 24176.0 466.451  18
  -2  -4   6 23047.4 442.987  48
  -2  -4   5 4776.46 203.054  74
   2   4  -5 4652.92 195.368  73
   2   4  -5 4841.57 194.862  79
  -2  -4   5 4316.10 204.926  89
  -2  -4   5 4728.94 227.898  88
  -2  -4   5 4624.16 207.119  86
  -2  -4   5 4510.05 193.528  52
   2   4  -5 4962.11 186.437  60
  -2  -4   5 4728.29 199.945  49
  -2  -4   5 4404.77 205.077   7
  -2  -4   5 4508.52 204.767  48
  -2  -4   4 81353.1 840.353  48
  -2  -4   4 84463.6 881.980   7
  -2  -4   4 83906.7 834.168  74
   2   4  -4 82141.6 771.735  60
  -2  -4   4 79553.5 1419.71  68
  -2  -4   4 82342.9 858.090  21
  -2  -4   4 80409.4 1460.95  40
  -2  -4   4 81719.5 776.590 101
  -2  -4   4 79740.2 775.646 102
  -2  -4   4 79823.9 1368.68   4
  -2  -4   4 78221.8 1292.35  95
  -2  -4   4 77760.5 1291.00  91
  -2  -4   4 78463.6 1288.62  96
  -2  -4   4 77103.7 1281.52  93
   2   4  -4 93945.0 1543.01  38
  -2  -4   4 78658.4 1297.10  92
  -2  -4   4 80195.5 861.427  89
  -2  -4   4 81171.8 842.007  86
  -2  -4   4 81637.8 770.535 107
   2   4  -4 92856.3 1527.48  34
  -2  -4   4 78301.0 776.776  52
  -2  -4   4 80230.7 788.421  19
  -2  -4   4 76832.0 800.117  78
  -2  -4   4 82520.5 815.387  49
  -2  -4   3 88.0033 37.2440  48
  -2  -4   3 85.2710 46.5802  40
  -2  -4   3 127.784 55.3535  96
  -2  -4   3 92.6636 47.0665   4
  -2  -4   3 151.782 55.6466  95
  -2  -4   3 45.9508 31.8196  86
  -2  -4   3 215.577 66.0568  93
  -2  -4   3 87.8321 34.1673   7
  -2  -4   3-56.2144 39.8855  92
   2   4  -3 65.7088 57.4239  38
  -2  -4   3 177.385 64.3843  91
   2   4  -3 45.0800 42.3999  90
  -2  -4   3 78.6329 36.4255  89
   2   4  -3-46.3926 33.0579  37
   2   4  -3 89.3658 58.3219  94
  -2  -4   3 177.263 64.5192  68
  -2  -4   3 50.6639 28.7800  49
   2   4  -3 209.301 67.4909  34
   2   4  -2 43.0319 47.1778  38
  -2  -4   2 113.331 54.3496  68
  -2  -4   2 23.0739 23.1283  95
  -2  -4   2 96.0236 44.5243  93
   2   4  -2 19.7887 34.4607  94
  -2  -4   2 8.81245 22.9373  96
  -2  -4   2 14.7777 35.5125  40
  -2  -4   2-28.8936 36.3671  91
   2   4  -2 54.1235 34.6957  90
  -2  -4   2 35.1491 30.7587  92
  -2  -4   2 36.4164 38.8546   1
   2   4  -2 35.0608 28.4144  34
   2   4  -1 1019.13 132.019  94
   2   4  -1 1289.22 140.885  36
  -2  -4   1 1155.39 135.236  40
  -2  -4   1 1303.34 146.685  96
  -2  -4   1 1251.48 127.220   1
   2   4  -1 1284.61 146.953  38
  -2  -4   1 1217.26 140.475  92
  -2  -4   1 1067.05 133.500  91
   2   4  -1 1169.20 135.954  90
   2   4  -1 1295.18 142.454  37
  -2  -4   1 1126.37 136.116  93
  -2  -4   1 1295.90 126.205  35
   2   4  -1 1303.02 133.478  34
   2   4   0 92910.5 1160.54  38
   2   4   0 89471.4 1162.86  95
  -2  -4   0 92103.5 1084.06  35
   2   4   0 94766.1 1156.11  36
  -2  -4   0 91699.0 1067.86  40
  -2  -4   0 93835.2 1078.86   1
  -2  -4   0 89073.7 1132.28  96
  -2  -4   0 88178.8 1136.90  92
   2   4   0 87650.3 1146.66  94
  -2  -4   0 89265.1 1141.66  93
  -2  -4   0 87917.7 1129.24  91
   2   4   0 88059.3 1150.95  90
   2   4   0 94985.7 1029.58  34
  -2  -4  -1 24604.1 567.600  96
   2   4   1 25054.9 584.573  94
  -2  -4  -1 25922.3 503.951  40
  -2  -4  -1 24977.7 575.102  91
   2   4   1 26156.2 599.821  38
   2   4   1 24871.3 585.443  90
   2   4   1 24407.0 579.582  95
  -2  -4  -1 24344.8 566.824  93
  -2  -4  -1 25022.9 575.474  92
  -2  -4  -1 25970.7 567.705   1
   2   4   1 25959.3 603.338  36
  -2  -4  -1 26967.6 596.748  35
   2   4   1 26524.7 479.294  34
   2   4   2 2550.81 167.996  67
  -2  -4  -2 2678.50 140.317  40
  -2  -4  -2 2819.68 182.615  96
   2   4   2 2953.55 192.024  95
  -2  -4  -2 3027.89 190.387  93
  -2  -4  -2 2770.81 182.502  92
   2   4   2 2760.44 196.928  38
  -2  -4  -2 2867.95 184.698  91
  -2  -4  -2 2624.97 181.435   1
   2   4   2 2676.01 197.434  36
  -2  -4  -2 2632.96 192.904  35
   2   4   2 2820.02 187.720  94
   2   4   2 2653.20 136.122  34
   2   4   2 2797.93 187.783  90
  -2  -4  -3 113012. 1304.53  35
  -2  -4  -3 109631. 1095.79  96
   2   4   3 111137. 1126.30  95
   2   4   3 109487. 1115.82  94
  -2  -4  -3 111995. 1108.81  93
  -2  -4  -3 111050. 1100.86  92
   2   4   3 110271. 1122.91  90
   2   4   3 112857. 1129.00  67
   2   4   3 111875. 1322.45  36
  -2  -4  -3 110745. 1175.66   1
  -2  -4  -3 110111. 1101.35  91
  -2  -4  -4 36610.1 678.656   1
   2   4   4 36280.4 605.537  94
   2   4   4 36562.8 791.695  36
  -2  -4  -4 34475.3 578.662  96
  -2  -4  -4 35326.3 586.871  93
  -2  -4  -4 34939.0 581.041  92
  -2  -4  -4 35029.1 585.109  91
   2   4   4 35575.2 600.550  90
   2   4   4 35758.8 601.847  95
   2   4   4 34981.9 671.503  67
  -2  -4  -4 36178.0 775.696  35
  -2  -4  -5 69129.0 926.244   1
   2   4   5 62284.3 1019.50   5
  -2  -4  -5 64099.4 1043.71  63
   2   4   5 65316.3 1120.30  36
  -2  -4  -5 63872.9 1087.32  35
   2   4   5 62341.1 972.205  67
   2   4   5 71893.4 912.658   2
   2   4   6 2593.25 139.830  15
   2   4   6 2245.01 195.849  67
  -2  -4  -6 2505.69 234.024  65
  -2  -4  -6 2400.65 207.268  63
   2   4   6 2630.21 144.842  13
   2   4   6 2429.08 230.446  36
   2   4   6 2358.76 215.871   5
   2   4   6 2943.35 210.760   2
  -2  -4  -6 2809.23 239.143  35
   2   4   6 2622.99 140.206  51
   2   4   7 19583.6 416.444  31
   2   4   7 18245.9 378.712  25
   2   4   7 18872.7 397.963  15
   2   4   7 19852.1 378.523  29
   2   4   7 19795.5 397.519  28
   2   4   7 19697.8 415.556  13
   2   4   7 18716.9 610.938  67
   2   4   7 19599.9 399.614  59
   2   4   7 19785.6 398.607  54
   2   4   7 19355.8 678.468  36
   2   4   7 19544.9 367.113  84
   2   4   7 20425.1 380.539  82
   2   4   7 20843.7 617.429   2
   2   4   7 19408.4 398.863  51
  -2  -4  -7 19519.1 685.910  65
   2   4   8 26344.5 486.525  15
   2   4   8 25992.2 468.362  26
   2   4   8 26741.5 452.090  25
   2   4   8 27361.8 486.728  59
   2   4   8 27041.4 479.337  54
   2   4   8 25899.9 466.757  51
   2   4   8 26550.4 498.226  13
   2   4   9 17214.3 380.139  15
   2   4   9 16813.1 361.426  26
   2   4   9 17248.3 392.819  13
   2   4   9 17420.2 332.366  25
   2   4   9 17277.7 373.128  54
   2   4   9 16432.6 355.717  12
   2   4   9 17346.4 364.279  51
   2   4  10 1798.51 109.202  15
   2   4  10 1658.14 96.7827  26
   2   4  10 1737.65 105.613  12
   2   4  10 1737.00 107.071  54
   2   4  10 1711.88 97.6216  51
   2   4  11 206.012 31.5563  12
   2   4  11 226.114 32.0384  54
   2   5  -7 4368.36 115.170  75
   2   5  -7 4413.75 120.604  77
   2   5  -7 4361.42 124.764  55
  -2  -5   7 4298.25 131.908  22
  -2  -5   7 4348.86 140.674  88
  -2  -5   6 6104.75 188.770  74
   2   5  -6 6159.94 172.549  73
   2   5  -6 6232.50 194.802  55
  -2  -5   6 6173.68 208.558  18
   2   5  -6 5909.28 174.725  61
  -2  -5   6 6467.07 208.777  22
   2   5  -6 6250.72 189.204  75
  -2  -5   6 6055.47 213.842  88
   2   5  -6 6204.87 173.914  79
  -2  -5   6 6190.24 186.501  49
  -2  -5   6 5933.53 195.919  48
  -2  -5   5 268.685 52.3533  48
   2   5  -5 248.916 51.1147  75
  -2  -5   5 304.944 51.6003  74
   2   5  -5 324.400 53.8388  73
   2   5  -5 300.753 47.0308  60
  -2  -5   5 318.145 58.4441  88
  -2  -5   5 304.575 57.4823  18
  -2  -5   5 251.668 54.2069  89
  -2  -5   5 292.748 46.8548  54
   2   5  -5 335.967 55.1900  61
   2   5  -5 276.482 50.3410  79
  -2  -5   5 276.421 50.8603  49
   2   5  -4 517.380 70.4556  73
  -2  -5   4 552.633 75.7038  48
  -2  -5   4 520.787 67.1018 101
   2   5  -4 548.799 70.4733 103
  -2  -5   4 605.030 72.7220 102
  -2  -5   4 859.429 96.1349  89
   2   5  -4 569.438 70.8752  99
  -2  -5   4 587.978 77.1129  74
  -2  -5   4 556.761 80.7677  88
   2   5  -4 578.240 72.3165  98
   2   5  -4 565.641 69.7370  60
  -2  -5   4 487.291 76.8411  86
  -2  -5   4 824.609 80.6776  52
   2   5  -4 613.041 74.1827 105
   2   5  -4 477.662 70.3471  75
  -2  -5   4 503.509 67.0529  19
  -2  -5   4 604.811 71.3991 107
   2   5  -4 556.387 73.7349  79
  -2  -5   4 641.238 80.2149  49
   2   5  -4 645.009 77.0259  97
  -2  -5   4 958.978 100.511   7
   2   5  -3 9413.35 277.741  73
  -2  -5   3 9060.30 285.528  74
  -2  -5   3 9062.50 288.862  89
   2   5  -3 9264.14 277.193  99
  -2  -5   3 9662.15 284.922 102
   2   5  -3 9088.32 275.879  98
  -2  -5   3 9564.09 281.535 107
  -2  -5   3 8870.99 469.432  96
  -2  -5   3 9130.39 482.564  91
  -2  -5   3 8809.46 472.410  95
   2   5  -3 8705.85 472.055  94
  -2  -5   3 9027.12 475.402  93
  -2  -5   3 8696.33 467.043  92
   2   5  -3 10565.0 530.187  38
  -2  -5   3 8815.21 477.455  68
  -2  -5   3 8810.62 282.954  86
   2   5  -3 9135.32 268.088  60
   2   5  -3 9008.59 273.608  97
   2   5  -3 9367.10 283.765 103
   2   5  -3 9183.69 275.247  79
  -2  -5   3 9635.24 284.882 101
  -2  -5   3 8924.03 281.812  19
  -2  -5   3 8891.81 459.493   4
   2   5  -3 9857.20 488.966  34
  -2  -5   3 9593.61 511.528  40
  -2  -5   3 9256.76 281.601  49
   2   5  -3 9154.01 282.253 105
  -2  -5   3 9234.31 280.155  48
  -2  -5   3 8901.13 293.453   7
  -2  -5   3 9916.91 271.019  76
  -2  -5   2 22519.8 427.312  49
   2   5  -2 21907.9 426.038  99
  -2  -5   2 23447.9 397.094  33
   2   5  -2 21954.5 411.113  73
  -2  -5   2 20988.8 706.306  92
   2   5  -2 22239.5 425.046  97
  -2  -5   2 21788.7 428.207 101
   2   5  -2 22069.5 407.641  60
  -2  -5   2 22666.3 433.375 107
  -2  -5   2 19805.0 689.029  68
  -2  -5   2 22043.3 430.395 102
  -2  -5   2 21801.9 402.711  76
  -2  -5   2 20754.5 696.138  96
   2   5  -2 21851.4 432.632 105
  -2  -5   2 23038.4 431.823  74
  -2  -5   2 20076.5 690.149  40
  -2  -5   2 21181.8 418.141  86
  -2  -5   2 19966.1 689.294  95
   2   5  -2 22140.4 729.196  38
   2   5  -2 19730.1 694.638  94
   2   5  -2 22102.5 425.683  98
  -2  -5   2 21053.4 408.610  48
  -2  -5   2 20204.0 693.053  93
  -2  -5   2 20671.2 699.979  91
   2   5  -2 20877.2 714.244  90
  -2  -5   2 21685.7 425.469  89
   2   5  -2 22156.4 433.992 103
  -2  -5   2 22736.7 446.132   7
  -2  -5   2 23450.3 409.502  81
   2   5  -2 21753.8 408.380  79
  -2  -5   2 21609.8 388.978  78
   2   5  -2 23242.2 691.816  34
   2   5  -2 24516.1 732.761  36
  -2  -5   1 39185.5 886.705  40
  -2  -5   1 40515.9 934.015  96
   2   5  -1 43641.0 960.598  38
  -2  -5   1 39616.2 930.951  95
   2   5  -1 38500.7 932.162  94
  -2  -5   1 39940.0 929.940  93
  -2  -5   1 39265.7 923.062  92
  -2  -5   1 45472.0 866.349   1
  -2  -5   1 39772.7 930.025  91
   2   5  -1 39485.4 942.915  90
   2   5  -1 47084.6 981.248  36
   2   5  -1 47119.4 886.337  34
  -2  -5   0 1587.08 157.088  35
  -2  -5   0 1357.20 164.709  95
  -2  -5   0 1327.83 164.523  96
   2   5   0 1569.76 177.914  94
  -2  -5   0 1464.04 171.749  93
  -2  -5   0 1365.74 163.946  92
  -2  -5   0 1519.99 173.975  91
   2   5   0 1602.73 183.204  90
   2   5   0 1604.86 182.646  36
  -2  -5   0 1564.63 164.266   1
  -2  -5   0 1728.11 168.385  40
   2   5   0 1464.07 168.383  38
   2   5   1 5985.19 306.027  67
  -2  -5  -1 5902.95 323.197  92
  -2  -5  -1 5659.87 269.566  40
  -2  -5  -1 5789.86 318.008  96
  -2  -5  -1 5600.30 316.483  95
  -2  -5  -1 5800.37 321.613  93
   2   5   1 5686.42 318.280  38
   2   5   1 5682.80 323.326  90
  -2  -5  -1 6262.15 322.748   1
   2   5   1 6156.17 342.626  36
  -2  -5  -1 6356.42 327.971  35
   2   5   1 6075.69 332.801  94
  -2  -5  -1 6000.62 325.776  91
  -2  -5  -2 2213.85 190.439  95
   2   5   2 2255.58 184.992  67
  -2  -5  -2 2128.69 185.859  92
  -2  -5  -2 2502.62 213.585  35
  -2  -5  -2 2083.16 184.402  96
   2   5   2 2284.07 196.302  94
   2   5   2 2159.70 192.124  90
  -2  -5  -2 2209.62 190.208  93
   2   5   2 2317.04 204.195  38
  -2  -5  -2 2362.20 195.466   1
  -2  -5  -2 1938.53 176.166  91
   2   5   2 2501.18 219.185  36
  -2  -5  -3 10711.1 398.085  95
  -2  -5  -3 10837.9 399.085  93
  -2  -5  -3 10700.0 395.752  96
   2   5   3 10929.2 406.135  94
  -2  -5  -3 11012.8 401.434  92
   2   5   3 10668.8 403.168  90
   2   5   3 10433.3 401.329  67
  -2  -5  -3 11116.3 425.269   1
  -2  -5  -3 10888.8 400.274  91
  -2  -5  -3 11072.2 460.721  35
   2   5   3 10786.4 461.864  36
   2   5   4 9853.67 405.593  67
  -2  -5  -4 10235.7 461.074  35
  -2  -5  -4 10387.8 414.621   1
   2   5   4 9806.76 451.221  36
   2   5   5 1630.76 197.651  36
   2   5   5 1400.93 171.177   5
   2   5   5 1635.34 171.846  67
  -2  -5  -5 1821.10 201.193  35
  -2  -5  -5 1845.85 173.153   1
   2   5   6 67164.2 1172.58  67
   2   5   6 71991.2 702.148  12
   2   5   6 74253.7 766.247  15
   2   5   6 71915.9 730.529  45
   2   5   6 75208.8 778.506  28
   2   5   6 68047.7 1240.08   5
   2   5   6 72277.8 709.583  58
   2   5   6 74326.9 766.472  84
   2   5   6 75993.8 1357.51  36
  -2  -5  -6 73414.1 1246.51  63
   2   5   6 74687.1 769.546  54
  -2  -5  -6 72215.0 1318.51  35
   2   5   6 73028.7 751.696  51
  -2  -5  -7 7249.12 440.302  65
   2   5   7 6236.39 233.397  15
   2   5   7 6175.32 230.879  25
   2   5   7 6359.61 393.103   5
   2   5   7 5368.12 343.104  67
   2   5   7 6219.25 219.194  71
   2   5   7 5998.91 226.270  26
   2   5   7 6584.41 229.884  84
   2   5   7 6196.51 218.480  12
   2   5   7 6627.35 237.050  54
  -2  -5  -7 6643.51 409.220  35
   2   5   7 6825.80 419.179  36
   2   5   7 6314.03 232.092  51
   2   5   8 9631.00 287.790  51
   2   5   8 10401.8 265.538  71
   2   5   8 9582.13 292.751  15
   2   5   8 9709.13 285.843  25
   2   5   8 9557.14 287.387  26
   2   5   8 9916.28 279.117  12
   2   5   8 10725.2 303.071  54
   2   5   9 65.1844 34.9201  15
   2   5   9 110.449 36.9914  51
   2   5   9 83.1688 32.5438  12
   2   5   9 63.7442 34.2327  54
   2   5   9 89.4888 32.7949  26
   2   5   9 65.7558 28.4039  25
   2   5  10 1629.74 98.3471  12
   2   5  10 1608.42 100.900  54
   2   5  10 1549.51 95.9254  51
   2   5  10 1589.42 97.2064  26
   2   5  11 2538.66 95.2835  12
   2   5  11 2493.88 95.7097  54
   2   6  -6 5731.54 132.140  75
   2   6  -6 5317.24 125.541  41
   2   6  -6 5728.78 134.851  55
   2   6  -6 5392.35 116.701  61
  -2  -6   6 5455.94 145.780  88
  -2  -6   6 5093.77 139.480  18
   2   6  -6 5671.95 135.154  77
   2   6  -5 2467.19 117.182  75
  -2  -6   5 2434.11 117.657  74
  -2  -6   5 2545.01 119.878  49
   2   6  -5 2569.32 111.106  73
  -2  -6   5 2461.92 129.893  18
   2   6  -5 2414.70 113.206  61
  -2  -6   5 2521.24 113.417  22
   2   6  -5 2436.86 114.655  55
  -2  -6   5 2237.35 117.744  89
  -2  -6   5 2444.50 126.907  88
   2   6  -5 2348.09 110.622  79
   2   6  -5 2509.50 118.536  77
  -2  -6   5 2379.66 115.377  48
  -2  -6   4 8270.94 253.447  74
   2   6  -4 8352.11 237.282  73
  -2  -6   4 8471.48 235.862 107
   2   6  -4 8364.24 237.499 105
   2   6  -4 8543.82 247.713  61
  -2  -6   4 8729.84 241.200 101
  -2  -6   4 8420.25 235.290 100
   2   6  -4 8501.83 235.516  98
   2   6  -4 8400.33 228.106  60
   2   6  -4 8461.29 237.730 103
   2   6  -4 8374.57 245.378  75
   2   6  -4 8511.79 242.173  55
  -2  -6   4 8476.37 259.267  89
  -2  -6   4 8643.98 239.646 102
  -2  -6   4 8644.53 273.430  88
  -2  -6   4 9314.48 248.401  22
   2   6  -4 8424.31 234.624  97
   2   6  -4 8426.94 239.436 104
  -2  -6   4 8568.60 255.793  49
  -2  -6   4 8684.76 244.974  19
   2   6  -4 8484.22 243.735  79
  -2  -6   4 8576.80 275.852  18
  -2  -6   4 8377.33 245.534  48
   2   6  -3 6861.64 236.359  75
  -2  -6   3 6832.40 244.448  74
  -2  -6   3 7020.45 244.155 101
  -2  -6   3 6753.62 236.278 107
  -2  -6   3 6589.45 234.747 102
   2   6  -3 6781.09 240.828 105
   2   6  -3 6755.02 237.209  99
   2   6  -3 6705.59 237.466  98
   2   6  -3 6992.16 240.154  61
   2   6  -3 6673.53 235.125  97
   2   6  -3 6742.08 226.870  55
  -2  -6   3 6887.32 247.471  89
  -2  -6   3 7316.34 262.608  88
  -2  -6   3 6904.34 248.149  86
   2   6  -3 6627.78 225.035  60
   2   6  -3 6762.51 240.284 103
  -2  -6   3 6737.16 244.251  19
   2   6  -3 7163.92 240.257  73
   2   6  -3 6821.76 236.210  79
  -2  -6   3 7117.35 248.618  49
  -2  -6   3 6548.04 245.615   7
  -2  -6   3 6839.06 224.205  76
  -2  -6   3 6281.46 227.055  48
  -2  -6   2 37473.4 524.705  33
  -2  -6   2 37389.0 580.932  74
   2   6  -2 37428.3 559.495  73
  -2  -6   2 37001.9 548.997  48
   2   6  -2 36517.5 583.791 105
   2   6  -2 37059.2 577.594  99
   2   6  -2 37254.7 586.980 103
  -2  -6   2 37341.9 577.814 107
  -2  -6   2 36314.4 575.062 101
   2   6  -2 36871.0 573.382  97
   2   6  -2 37094.9 551.298  75
   2   6  -2 36996.4 548.878  60
   2   6  -2 37046.4 526.796  55
   2   6  -2 36636.4 576.039  98
  -2  -6   2 37127.0 568.931  89
  -2  -6   2 39066.6 600.736  88
  -2  -6   2 36082.8 565.568  86
  -2  -6   2 37074.8 579.720 102
  -2  -6   2 37083.3 553.958  76
  -2  -6   2 38236.3 550.641  81
  -2  -6   2 37424.5 597.018  19
   2   6  -2 38123.2 562.365  79
  -2  -6   2 37218.5 575.873  49
  -2  -6   2 35604.9 579.542   7
   2   6  -1 53557.6 639.688  75
  -2  -6   1 53435.0 642.830  33
  -2  -6   1 52029.4 674.790   7
  -2  -6   1 55060.1 695.505  74
   2   6  -1 54181.8 630.014  72
   2   6  -1 52904.8 611.264   6
   2   6  -1 53597.7 699.115  99
   2   6  -1 54861.5 710.804 103
  -2  -6   1 56213.4 712.499 102
   2   6  -1 54125.2 708.896 105
  -2  -6   1 53574.3 665.438  89
   2   6  -1 54235.8 701.375  98
  -2  -6   1 49653.1 1082.25  40
   2   6  -1 53909.0 693.592  97
  -2  -6   1 53690.4 651.070  48
   2   6  -1 53753.9 658.850  60
  -2  -6   1 53751.2 1193.86  96
   2   6  -1 53357.7 658.377  73
  -2  -6   1 54042.7 1205.59  95
   2   6  -1 54948.5 626.744  58
   2   6  -1 53274.7 1215.36  94
  -2  -6   1 52781.0 707.262  19
  -2  -6   1 54828.1 1210.99  93
  -2  -6   1 55232.7 1215.41  92
   2   6  -1 54055.0 622.790  56
   2   6  -1 58753.8 1214.95  38
  -2  -6   1 53970.2 1203.66  91
   2   6  -1 53420.7 1218.86  90
   2   6  -1 53749.6 611.867  55
  -2  -6   1 52935.1 665.721  86
   2   6  -1 59384.9 1239.57  36
  -2  -6   1 54264.3 672.477  81
  -2  -6   1 55225.5 679.686  76
  -2  -6   1 55754.6 709.447 101
  -2  -6   1 54823.8 699.916 107
   2   6  -1 53675.7 654.357  79
  -2  -6   1 50230.1 1132.44  68
  -2  -6   1 53303.2 687.822  49
  -2  -6   0 24988.9 434.041  48
   2   6   0 25146.3 420.682  75
  -2  -6   0 25225.0 442.935  33
  -2  -6   0 26401.5 472.158  74
   2   6   0 25288.1 438.478  72
   2   6   0 26286.2 484.643 103
  -2  -6   0 25187.0 795.594  93
   2   6   0 26079.8 485.178 105
  -2  -6   0 26501.3 482.445 102
   2   6   0 26089.0 471.729  97
  -2  -6   0 26961.5 746.188   1
  -2  -6   0 25892.6 442.694  42
   2   6   0 24562.6 797.045  94
   2   6   0 24118.0 730.148  67
   2   6   0 26325.5 476.014  98
   2   6   0 26091.1 472.362  99
   2   6   0 25142.0 440.781  60
  -2  -6   0 24641.0 781.236  96
  -2  -6   0 24231.9 784.189  95
   2   6   0 25541.4 432.035   6
  -2  -6   0 25661.5 476.874 101
  -2  -6   0 26357.5 465.445  76
   2   6   0 25649.3 435.817  56
  -2  -6   0 23907.3 775.257  92
   2   6   0 26344.7 783.362  38
  -2  -6   0 24103.6 773.564  91
   2   6   0 25478.9 810.000  90
  -2  -6   0 25452.0 444.564  89
   2   6   0 27303.5 830.824  36
  -2  -6   0 24584.2 432.499  86
   2   6   0 26273.4 452.805  73
  -2  -6   0 26496.4 477.016 107
   2   6   0 26019.8 439.781  83
  -2  -6   0 25864.6 462.975  81
   2   6   0 25347.2 431.194  79
  -2  -6   0 25804.5 463.352  49
   2   6   0 24646.2 426.445  58
  -2  -6   0 24799.0 436.572   7
  -2  -6  -1 12867.2 323.491  76
  -2  -6  -1 11774.1 286.447  48
  -2  -6  -1 12915.4 327.051  74
   2   6   1 12579.9 304.646  73
  -2  -6  -1 10988.3 503.724  91
   2   6   1 12495.0 306.222  72
   2   6   1 12418.0 302.654   6
   2   6   1 12161.5 319.572 103
   2   6   1 11538.2 487.645  67
  -2  -6  -1 11896.5 313.905 102
   2   6   1 12293.4 315.131  97
   2   6   1 11787.6 316.230 105
   2   6   1 12434.8 303.777  60
   2   6   1 12553.6 319.128  99
  -2  -6  -1 10774.8 501.534  95
   2   6   1 12419.5 318.399  98
   2   6   1 11064.4 515.003  94
  -2  -6  -1 11335.4 508.509  96
   2   6   1 12267.7 301.098  58
   2   6   1 11894.6 297.149  56
   2   6   1 11952.8 515.946  38
   2   6   1 11026.2 514.889  90
  -2  -6  -1 11328.2 511.616  92
  -2  -6  -1 11890.0 314.361 101
   2   6   1 12433.5 553.284  36
  -2  -6  -1 12603.7 513.258   1
   2   6   1 12562.0 306.996  83
  -2  -6  -1 11077.8 508.627  93
  -2  -6  -1 12275.2 494.021  35
  -2  -6  -1 12190.6 315.558 107
   2   6   1 11935.1 283.951  79
  -2  -6  -1 12463.1 315.549  49
  -2  -6  -2 48379.8 606.398 102
  -2  -6  -2 49765.3 1021.17   1
   2   6   2 49122.1 604.551  56
  -2  -6  -2 47669.7 582.477  16
   2   6   2 49252.3 607.180  72
   2   6   2 49362.2 588.609  73
  -2  -6  -2 43940.6 960.118  93
   2   6   2 50193.6 607.985   6
   2   6   2 49942.8 612.186  83
  -2  -6  -2 46430.1 589.736 104
   2   6   2 49378.7 581.660  45
   2   6   2 48457.9 614.358 105
  -2  -6  -2 48885.7 614.848  49
   2   6   2 48963.8 604.512 100
   2   6   2 49344.9 618.627 103
   2   6   2 44969.9 990.419  94
   2   6   2 47960.6 599.897  99
   2   6   2 48767.0 603.338  98
   2   6   2 49524.0 591.288  60
  -2  -6  -2 48413.4 600.395 107
  -2  -6  -2 42987.7 947.809  96
  -2  -6  -2 43687.7 964.545  95
   2   6   2 48956.6 600.751  97
  -2  -6  -2 44655.5 971.957  92
   2   6   2 46160.5 964.939  67
   2   6   2 46220.6 996.910  38
  -2  -6  -2 43912.7 962.709  91
   2   6   2 45047.3 989.652  90
  -2  -6  -2 47247.7 599.879 101
   2   6   2 49937.9 1104.89  36
  -2  -6  -2 49296.6 1033.31  35
   2   6   2 50110.3 606.244  58
   2   6   3 27473.7 448.227  72
   2   6   3 28009.9 451.282  45
   2   6   3 26311.6 436.016  84
  -2  -6  -3 24355.7 683.535  92
   2   6   3 28054.5 452.218   6
   2   6   3 27774.6 457.010  56
  -2  -6  -3 24466.6 681.869  96
  -2  -6  -3 26393.7 740.821   1
   2   6   3 27510.2 454.890  58
  -2  -6  -3 24128.5 679.685  95
   2   6   3 24070.5 699.166  67
  -2  -6  -3 24117.1 680.565  93
  -2  -6  -3 25701.2 699.776  91
   2   6   3 24865.0 700.247  94
   2   6   3 25365.6 708.425  90
   2   6   3 26845.0 428.230  73
   2   6   3 27444.4 452.434  83
  -2  -6  -3 26830.1 787.469  35
   2   6   3 26589.4 809.231  36
   2   6   3 26296.5 425.740  60
  -2  -6  -3 27748.5 457.771  49
   2   6   4 861.582 130.240  67
   2   6   4 849.567 149.297  36
   2   6   4 994.873 87.2513  72
   2   6   4 941.150 86.3321  45
   2   6   4 1070.96 93.7510  56
   2   6   4 992.457 89.3355  84
   2   6   4 974.785 87.7213  83
   2   6   4 981.835 91.0615  58
  -2  -6  -4 975.671 161.375  35
  -2  -6  -4 858.262 133.181   1
   2   6   4 959.306 85.3309   6
  -2  -6  -5 6475.53 363.419   1
   2   6   5 6613.28 212.555  51
   2   6   5 6684.87 219.444  72
   2   6   5 6481.77 228.812  45
   2   6   5 6445.28 215.777   6
   2   6   5 6315.75 208.229  26
   2   6   5 6461.59 391.889   5
   2   6   5 6625.14 229.614  58
   2   6   5 6906.39 232.143  56
  -2  -6  -5 7221.10 437.358  35
   2   6   5 7028.11 428.307  36
   2   6   5 6663.57 233.494  84
   2   6   5 6117.82 366.931  67
   2   6   6 723.376 140.921   5
   2   6   6 556.203 70.9219  71
   2   6   6 647.338 76.8343  45
   2   6   6 554.298 64.9451   6
  -2  -6  -6 656.721 125.532  63
   2   6   6 666.699 73.6305  26
   2   6   6 812.220 150.580  36
   2   6   6 661.342 80.3051  84
   2   6   6 611.069 71.1216  56
   2   6   6 540.392 70.8040  58
   2   6   6 656.744 74.4827  51
  -2  -6  -6 617.116 144.217  35
   2   6   6 944.782 83.9797  12
   2   6   6 770.199 134.466  67
   2   6   7 19248.8 393.329  51
   2   6   7 19061.2 395.239  26
   2   6   7 20350.8 414.768  84
   2   6   7 19641.0 413.563  25
   2   6   7 20033.8 418.910  54
   2   6   7 20771.2 389.931  12
   2   6   7 20485.6 398.914  58
   2   6   7 19214.2 398.080  71
   2   6   8 6095.24 211.294  12
   2   6   8 5770.80 207.363  71
   2   6   8 5780.78 215.458  26
   2   6   8 5811.42 225.965  54
   2   6   8 5949.38 221.965  25
   2   6   8 5950.36 218.288  51
   2   6   9 4459.16 169.665  12
   2   6   9 4295.99 174.689  26
   2   6   9 4584.95 177.757  25
   2   6   9 4407.49 183.031  54
   2   6   9 4458.69 175.583  51
   2   6  10 221.597 39.1937  26
   2   6  10 261.475 40.1419  51
   2   6  11 13826.6 192.117  26
   2   6  11 13661.0 189.901  51
   2   7  -5 198.091 24.2906  75
  -2  -7   5 209.605 25.0406  30
   2   7  -5 158.499 23.9256  87
   2   7  -5 220.465 24.7950  77
   2   7  -4 1375.54 81.6219  75
  -2  -7   4 1330.44 81.4106  74
   2   7  -4 1457.41 78.8832  73
   2   7  -4 1308.40 71.1414 103
   2   7  -4 1345.46 72.4138 105
  -2  -7   4 1181.22 68.6230  48
   2   7  -4 1254.07 68.6398  98
   2   7  -4 1241.05 64.0456  60
   2   7  -4 1258.50 69.5875  97
   2   7  -4 1347.50 76.0295  55
  -2  -7   4 1227.74 75.1127  88
   2   7  -4 1306.61 78.3621  61
   2   7  -4 1230.78 69.2213 104
   2   7  -4 1269.37 76.9939  79
  -2  -7   4 1348.36 81.7104  49
  -2  -7   4 1373.60 87.9628  18
   2   7  -4 1312.24 77.5990  77
  -2  -7   3 32.9338 23.0525  48
   2   7  -3 63.3487 30.4095  75
  -2  -7   3 19.7647 22.4720  74
   2   7  -3 16.1816 27.0149  73
  -2  -7   3 10.9316 22.6260 102
   2   7  -3 19.6998 24.1848  97
   2   7  -3 26.3709 23.3635 103
   2   7  -3 5.05659 19.4769  98
   2   7  -3 17.1601 22.1126  60
  -2  -7   3 19.2317 26.5218  18
  -2  -7   3 32.4562 22.8547 107
  -2  -7   3 17.4075 22.7566 100
   2   7  -3 26.9862 24.4781  55
  -2  -7   3 8.99040 22.0710  89
  -2  -7   3 3.55487 15.1295  88
  -2  -7   3 5.96950 19.9783 101
   2   7  -3 2.46477 22.7900 105
   2   7  -3 30.2408 22.1189 104
   2   7  -3 8.43081 23.5138  61
   2   7  -3 14.3462 25.5767  79
  -2  -7   3 10.7950 22.6297  19
  -2  -7   3 11.5274 27.2766  49
   2   7  -3 14.4412 24.9730  77
  -2  -7   2 83.3964 32.4349  76
  -2  -7   2 85.9540 27.2057  48
   2   7  -2 73.9333 35.7986  75
  -2  -7   2 96.3043 29.8769  33
   2   7  -2 87.1025 39.7123  73
  -2  -7   2 90.6256 35.9921 102
   2   7  -2 57.2518 32.5589  97
   2   7  -2 67.3274 34.0471  60
  -2  -7   2 164.462 42.0584  74
   2   7  -2 86.7176 36.5422 103
   2   7  -2 58.2482 34.6305  99
  -2  -7   2 93.4618 34.8301 101
   2   7  -2 84.2654 36.3765  61
   2   7  -2 80.1207 32.6570  77
   2   7  -2 57.5366 31.6887  79
  -2  -7   2 63.9965 26.5719  88
   2   7  -2 72.6113 33.2573  55
  -2  -7   2 112.628 38.0335  89
  -2  -7   2 74.6790 31.6527  86
   2   7  -2 89.5374 39.0012 105
  -2  -7   2 56.8054 24.9831  81
  -2  -7   2 62.9188 28.9880  19
  -2  -7   2 71.5954 31.3756 107
   2   7  -2 62.0599 30.5521  98
  -2  -7   2 49.0317 34.7914  49
  -2  -7   2 96.7001 36.1257  18
  -2  -7   1 1413.68 102.805  48
   2   7  -1 1284.43 102.053  75
  -2  -7   1 1344.13 102.646  33
  -2  -7   1 1242.90 109.296  74
   2   7  -1 1352.78 98.3787  72
   2   7  -1 1323.21 106.959  73
   2   7  -1 1295.32 112.789 105
  -2  -7   1 1447.05 117.364 102
  -2  -7   1 1314.49 97.7640  42
  -2  -7   1 1327.36 111.761 101
   2   7  -1 1365.57 112.314  97
   2   7  -1 1412.21 99.4778  55
   2   7  -1 1307.99 112.019  98
   2   7  -1 1396.46 108.540  60
  -2  -7   1 1277.82 108.597 107
  -2  -7   1 1344.31 106.636  86
   2   7  -1 1294.38 110.902 103
  -2  -7   1 1364.70 105.996  89
   2   7  -1 1331.17 103.440  61
  -2  -7   1 1260.35 103.557  81
  -2  -7   1 1269.56 113.284  19
   2   7  -1 1312.43 105.453  79
  -2  -7   1 1336.36 111.323  49
   2   7  -1 1305.34 110.919  99
   2   7  -1 1385.40 98.2742  77
  -2  -7   1 1253.78 103.642  76
  -2  -7   0 16562.2 343.645  48
   2   7   0 16388.6 347.464  75
  -2  -7   0 15164.0 353.853  33
  -2  -7   0 15039.1 376.796  74
   2   7   0 15720.9 361.531  73
   2   7   0 15129.0 344.842   6
   2   7   0 15761.8 345.523  56
   2   7   0 15676.1 385.231 103
   2   7   0 15807.2 386.045 105
  -2  -7   0 15472.8 379.950 102
  -2  -7   0 15727.0 382.711 101
   2   7   0 15861.4 381.131  99
   2   7   0 16019.6 385.204  98
   2   7   0 16130.0 345.773  61
   2   7   0 15317.8 358.166  60
   2   7   0 15408.9 376.690  97
   2   7   0 15292.8 342.197  58
  -2  -7   0 15662.7 346.809  86
  -2  -7   0 15733.0 379.158 107
  -2  -7   0 16234.8 363.658  42
  -2  -7   0 15465.0 370.459  81
   2   7   0 15715.2 352.701  72
  -2  -7   0 15226.9 388.223  19
   2   7   0 16072.9 357.297  79
  -2  -7   0 15565.2 369.936  49
  -2  -7   0 15804.0 374.550  76
  -2  -7  -1 111.848 41.4692  76
   2   7   1 14.7054 26.6326  56
   2   7   1 61.1926 32.4981  75
  -2  -7  -1 2.90696 25.0071  33
  -2  -7  -1 30.4896 27.0588  74
   2   7   1 92.8833 41.7000  73
  -2  -7  -1 26.6340 30.0786 102
   2   7   1 49.9175 30.3221  72
   2   7   1 6.27375 26.9682 103
  -2  -7  -1 50.0291 30.5646 101
  -2  -7  -1 19.1354 30.4618  42
   2   7   1 11.2917 27.0433  99
   2   7   1 62.2585 27.8235  61
   2   7   1 59.6351 33.7553  60
   2   7   1 37.0576 26.2751 105
  -2  -7  -1 29.9125 24.0313  19
   2   7   1 60.3478 32.5744  58
  -2  -7  -1 46.4905 30.7620 107
   2   7   1 1.11873 28.9334  98
   2   7   1 19.5713 23.0906   6
  -2  -7  -1 51.8093 32.6519  81
   2   7   1 8.90113 26.6645  79
   2   7   1 76.8664 38.1834  97
  -2  -7  -1 74.3221 33.8179  49
   2   7   2 133472. 1032.40  73
   2   7   2 129593. 1045.91  72
   2   7   2 133976. 1075.73 105
   2   7   2 128837. 1039.28   6
  -2  -7  -2 129701. 1046.47 101
  -2  -7  -2 132262. 1056.04 102
  -2  -7  -2 129863. 1816.46  95
   2   7   2 133213. 1056.34  98
   2   7   2 133205. 1061.31  99
  -2  -7  -2 131058. 1044.37 107
   2   7   2 131457. 1036.78  60
  -2  -7  -2 127001. 1792.77  92
  -2  -7  -2 126309. 1780.32  96
   2   7   2 134096. 1054.82  97
   2   7   2 128124. 1823.88  94
  -2  -7  -2 131329. 1061.42  49
   2   7   2 129271. 1029.73  58
   2   7   2 131082. 1036.71  56
  -2  -7  -2 125914. 1057.71  19
   2   7   2 133978. 1073.47 103
  -2  -7  -2 127788. 1796.02  93
  -2  -7  -2 132159. 1099.38  74
  -2  -7  -2 127379. 1794.95  91
  -2  -7  -2 126510. 1086.27  76
   2   7   2 126672. 1828.32  90
   2   7   2 148089. 2074.92  36
   2   7   2 126960. 1756.89  67
  -2  -7  -2 148226. 1908.66   1
   2   7   2 134850. 962.218  79
   2   7   3 37267.0 551.233  45
  -2  -7  -3 38609.1 590.361  74
   2   7   3 37805.1 541.552  73
   2   7   3 37537.6 566.727  72
   2   7   3 36478.9 933.739  67
   2   7   3 42118.4 1110.27  36
   2   7   3 38240.6 566.685  56
   2   7   3 38234.5 552.219 105
   2   7   3 38550.2 553.225 103
  -2  -7  -3 38877.5 547.053 101
   2   7   3 38379.6 542.804  99
   2   7   3 38990.3 545.737  98
   2   7   3 38630.5 544.351  97
  -2  -7  -3 38428.0 566.435  49
   2   7   3 37258.6 560.668   6
   2   7   3 38162.0 567.708  58
   2   7   3 38577.3 553.823  60
  -2  -7  -3 38057.4 538.492 107
   2   7   3 38941.5 542.568  84
  -2  -7  -3 42757.1 1026.68   1
  -2  -7  -3 41843.3 1038.37  35
  -2  -7  -3 37860.2 552.201  19
  -2  -7  -3 38796.9 546.218 102
   2   7   4 18859.4 380.679  73
   2   7   4 18358.8 393.374  72
   2   7   4 19266.2 396.103   6
   2   7   4 19020.9 399.000  45
   2   7   4 19407.8 384.612  60
   2   7   4 17195.8 649.591  67
   2   7   4 19005.0 403.202  56
   2   7   4 19304.1 395.292  84
   2   7   4 19194.3 366.647  25
   2   7   4 18831.0 403.083  58
  -2  -7  -4 19315.6 399.433  49
  -2  -7  -4 20973.8 757.749  35
   2   7   5 984.817 92.4605  72
   2   7   5 995.863 91.2444   6
   2   7   5 838.527 89.5154  71
   2   7   5 928.052 92.0342  58
   2   7   5 937.085 93.6414  56
   2   7   5 1074.11 100.483  84
   2   7   5 1067.41 91.3037  25
  -2  -7  -5 1065.54 93.8228  49
   2   7   6 52111.4 614.084  72
   2   7   6 52138.3 607.605   6
   2   7   6 48341.9 644.225  71
   2   7   6 52601.9 661.620  58
   2   7   6 51665.5 591.029  26
   2   7   6 50481.6 639.326  25
   2   7   6 51115.2 640.691  56
   2   7   6 51450.7 663.317  84
   2   7   6 53145.4 594.633  51
  -2  -7  -6 54920.6 620.475  49
   2   7   7 17233.9 370.745  71
   2   7   7 17955.3 353.617  26
   2   7   7 17621.1 371.999  58
   2   7   7 16863.1 367.070  25
   2   7   7 17334.8 354.790  56
   2   7   7 17940.8 388.001  84
   2   7   7 18255.9 355.740  51
   2   7   8 4151.44 169.351  71
   2   7   8 4289.42 167.705  26
   2   7   8 4170.11 164.430  51
   2   7   8 4257.20 177.711  25
   2   7   9 5312.25 170.797  26
   2   7   9 5147.87 159.451  71
   2   7   9 5678.13 183.358  25
   2   7   9 5352.45 170.417  51
   2   7  10 1986.13 87.5913  26
   2   7  10 1996.50 87.3287  51
   2   8  -3 1714.56 74.0778  75
  -2  -8   3 1623.19 75.0938  74
   2   8  -3 1731.16 72.1547 103
   2   8  -3 1666.83 70.0801  98
   2   8  -3 1665.66 70.6472 105
   2   8  -3 1771.84 75.5295  61
   2   8  -3 1640.50 69.5217  97
   2   8  -3 1730.64 71.3695  73
  -2  -8   3 1694.30 77.1493  49
   2   8  -3 1645.30 70.0746 104
   2   8  -3 1709.42 75.0921  79
  -2  -8   3 1501.58 69.8413  18
   2   8  -2 173.031 31.8491  75
  -2  -8   2 198.456 35.4965  74
   2   8  -2 155.484 33.2622  73
   2   8  -2 150.630 31.5264 103
  -2  -8   2 158.742 32.6353 102
  -2  -8   2 211.978 36.6014 107
  -2  -8   2 146.768 31.5179 101
  -2  -8   2 121.362 32.0090 100
   2   8  -2 172.070 30.9767  61
   2   8  -2 152.914 33.5665  98
   2   8  -2 182.630 33.9208  97
   2   8  -2 147.356 31.7525 105
   2   8  -2 160.864 33.2851 104
   2   8  -2 145.104 32.3449  60
   2   8  -2 194.719 35.1616  79
  -2  -8   2 177.068 34.3581  19
  -2  -8   2 166.634 34.5821  49
  -2  -8   2 152.529 29.4671  18
   2   8  -1 5.34041 21.7973  75
  -2  -8   1 2.40939 19.0271  33
   2   8  -1-1.96744 27.9062  73
  -2  -8   1 74.7725 29.8044 107
  -2  -8   1 4.91128 21.8532  74
   2   8  -1 132.131 35.5579 103
  -2  -8   1 33.8245 23.8750 102
   2   8  -1 64.8809 30.6181 105
   2   8  -1 21.3303 19.4274  61
   2   8  -1 67.6210 30.3824  98
   2   8  -1-6.37950 22.2696  60
   2   8  -1 60.9646 27.7834  97
  -2  -8   1 0.76559 22.4510  76
  -2  -8   1 23.2349 22.2480 100
  -2  -8   1 13.0039 19.9590  81
   2   8  -1 9.64641 25.8720  79
  -2  -8   1 28.8451 21.6565  19
   2   8  -1 73.7816 30.0954 104
  -2  -8   1 37.1147 25.3257 101
  -2  -8   1-7.66124 21.9682  49
  -2  -8   1 41.0916 19.1884  18
   2   8   0 8481.52 226.547  75
  -2  -8   0 8473.28 238.714  33
  -2  -8   0 8508.98 253.727  74
  -2  -8   0 8218.50 255.331 101
  -2  -8   0 8660.07 257.356 107
   2   8   0 8544.01 246.158  73
   2   8   0 8471.58 260.985 105
   2   8   0 8734.19 227.527  61
   2   8   0 8443.17 256.602  99
   2   8   0 8474.79 256.233  98
   2   8   0 8232.99 220.517  56
   2   8   0 8051.15 246.029  60
   2   8   0 8589.68 257.690  97
   2   8   0 8843.79 265.708 103
   2   8   0 8180.33 228.372  72
  -2  -8   0 8488.52 248.853  49
  -2  -8   0 8643.36 260.700 102
   2   8   0 8137.96 226.471  43
   2   8   0 8282.73 218.716  58
  -2  -8   0 8665.37 251.025  81
  -2  -8   0 8621.24 265.908  19
   2   8   0 8519.87 236.815  79
  -2  -8   0 8283.09 249.584  76
  -2  -8  -1 1998.59 124.613  33
   2   8   1 2037.94 126.534  73
   2   8   1 2038.78 124.140  72
   2   8   1 1981.08 120.401  56
   2   8   1 2059.99 132.654 103
  -2  -8  -1 2112.47 133.131 101
   2   8   1 2159.06 129.602  43
  -2  -8  -1 2056.60 125.129  42
  -2  -8  -1 2036.35 130.540  74
   2   8   1 2213.24 135.062  99
   2   8   1 2134.70 131.445  98
   2   8   1 2061.19 130.077  60
   2   8   1 2087.57 123.344  58
  -2  -8  -1 1999.64 127.425 107
   2   8   1 2102.71 133.783 105
  -2  -8  -1 2064.77 132.387  81
  -2  -8  -1 1950.43 130.276  19
   2   8   1 2104.22 120.938  79
  -2  -8  -1 2015.97 128.821 102
  -2  -8  -1 2060.94 128.352  49
   2   8   1 1934.10 125.333  97
  -2  -8  -1 2014.21 129.860  76
  -2  -8  -2 16880.5 381.773  76
  -2  -8  -2 16669.7 371.591  33
  -2  -8  -2 17377.9 379.989  74
   2   8   2 16319.0 356.797  73
   2   8   2 16393.5 367.067  72
   2   8   2 17303.4 369.472  99
  -2  -8  -2 16639.8 364.685 102
  -2  -8  -2 16964.5 380.560  42
   2   8   2 16856.5 362.893  56
   2   8   2 16436.4 374.947  43
  -2  -8  -2 16679.8 366.103 101
   2   8   2 17071.2 366.753  97
   2   8   2 17172.6 368.623  98
   2   8   2 16706.2 363.285  60
   2   8   2 16572.8 356.455  58
   2   8   2 16984.6 372.515 103
   2   8   2 16912.9 372.127 105
  -2  -8  -2 16650.9 362.515 107
  -2  -8  -2 16384.1 385.230  81
  -2  -8  -2 16775.1 372.358  19
   2   8   2 17103.8 329.102  79
  -2  -8  -2 16770.6 366.672  49
  -2  -8  -3 5195.28 211.939  76
  -2  -8  -3 5132.64 209.228  33
  -2  -8  -3 5302.93 209.990  74
   2   8   3 5208.29 200.868  73
   2   8   3 4941.02 205.510  72
   2   8   3 4953.03 203.939   6
   2   8   3 4997.98 200.710  58
   2   8   3 5211.01 184.323  71
  -2  -8  -3 5180.45 192.119 107
   2   8   3 4910.18 198.668  60
  -2  -8  -3 5107.83 191.208 102
  -2  -8  -3 5109.13 192.733 101
   2   8   3 5223.61 195.747 103
   2   8   3 5135.27 192.236  99
   2   8   3 5147.98 192.414  98
   2   8   3 4839.88 200.489  56
   2   8   3 5467.19 196.868  97
   2   8   3 5111.77 195.207 105
  -2  -8  -3 5049.84 218.149  81
  -2  -8  -3 4926.14 194.027  19
  -2  -8  -3 5027.32 199.835  49
  -2  -8  -4 29464.8 498.275  76
   2   8   4 29787.3 479.723  60
  -2  -8  -4 30925.9 505.925  74
   2   8   4 30687.2 474.169  73
   2   8   4 29519.3 493.442  72
   2   8   4 30072.4 492.367   6
   2   8   4 29376.4 457.870  71
   2   8   4 29879.7 497.224  56
   2   8   4 30258.7 499.557  58
   2   8   4 32513.2 479.254  84
  -2  -8  -4 32126.5 482.642  49
  -2  -8  -5 8479.97 260.997  76
  -2  -8  -5 9776.78 278.896  74
   2   8   5 8892.90 257.185   6
   2   8   5 9010.41 257.820  71
   2   8   5 8998.98 268.251  43
   2   8   5 9379.92 250.751  73
   2   8   5 9560.05 268.813  84
   2   8   5 9416.28 275.460  56
   2   8   5 8963.47 264.556  72
   2   8   5 9439.54 255.066  60
   2   8   5 9155.28 272.427  58
   2   8   5 9829.74 245.629  25
  -2  -8  -5 9850.69 251.896  49
  -2  -8  -6 716.412 76.2580  74
   2   8   6 786.735 78.8490  71
   2   8   6 741.540 78.3552  56
   2   8   6 694.549 71.4720  43
  -2  -8  -6 705.762 71.6160  76
   2   8   6 745.855 79.0299  58
   2   8   6 752.451 71.4370  25
   2   8   7 4450.60 173.713  71
   2   8   7 4443.79 175.726  58
   2   8   7 4680.91 171.174  25
   2   8   8 209.922 36.3409  71
   2   8   8 229.921 32.7517  26
   2   8   8 230.942 38.9699  25
   2   8   8 221.804 33.1114  51
  -2  -8  -9 59.8105 15.6669  74
   2   8   9 51.8072 18.7099  71
   2   8   9 48.9468 19.7914  25
   2   8   9 45.8740 13.5620  26
   2   8   9 14.2595 11.7118  51
   2   8  10 27.2051 11.1701  17
  -2  -9   1 879.004 52.5338  74
  -2  -9   1 897.751 55.2284  19
  -2  -9   1 868.263 52.7222 101
  -2  -9   1 917.427 53.9765 107
   2   9  -1 963.582 56.0094 105
   2   9  -1 818.662 48.6110  60
  -2  -9   1 898.549 53.7830 102
   2   9  -1 850.199 52.6390  98
  -2  -9   1 919.369 54.7450 100
   2   9  -1 781.781 51.0700  73
   2   9  -1 917.498 54.5434  97
   2   9  -1 834.715 53.5456 104
   2   9  -1 913.340 50.8159  79
  -2  -9   1 848.530 49.9477  49
   2   9  -1 856.223 52.9839 103
  -2  -9   1 813.958 47.3280  76
   2   9   0 10571.0 211.274  73
  -2  -9   0 10889.4 224.432  19
   2   9   0 10928.6 221.877 105
  -2  -9   0 11087.2 219.881 107
   2   9   0 11108.3 222.206  98
   2   9   0 11052.3 223.554 103
  -2  -9   0 10803.9 218.848 101
  -2  -9   0 10602.0 216.332 100
   2   9   0 10703.8 221.434 104
   2   9   0 10912.1 219.329  97
  -2  -9   0 11093.4 221.310 102
   2   9   0 10551.8 211.957  60
  -2  -9   0 10900.9 207.565  49
  -2  -9   0 10844.1 216.355  74
  -2  -9   0 10966.1 215.082  76
  -2  -9  -1 74.6810 25.5650  76
  -2  -9  -1 26.0172 21.2511  33
  -2  -9  -1 0.72289 18.6476  74
   2   9   1 79.3474 27.7360  73
   2   9   1-9.89808 14.5429  58
   2   9   1-4.37018 16.8226  97
   2   9   1-5.59357 18.5636 105
   2   9   1-10.1166 21.1283 104
   2   9   1 8.91352 16.4062  43
   2   9   1 1.24952 20.5016 103
  -2  -9  -1-6.01820 17.3827 101
   2   9   1-9.22134 20.7611  98
  -2  -9  -1 6.72930 14.1686 107
   2   9   1-5.15127 21.7255  60
  -2  -9  -1-5.57992 14.6552 102
  -2  -9  -1-3.56042 17.4810 100
   2   9   1 37.7553 15.5075  56
  -2  -9  -1-4.82427 17.5031  81
  -2  -9  -1 8.02905 18.1638  19
  -2  -9  -1 23.0943 17.9259  49
  -2  -9  -2 3350.67 140.204  74
   2   9   2 3166.74 134.242  73
  -2  -9  -2 3387.01 139.632  33
  -2  -9  -2 3385.97 136.467  19
   2   9   2 3224.12 137.379  43
   2   9   2 3209.59 134.221 104
   2   9   2 3269.28 133.861 103
   2   9   2 2989.97 127.085  56
  -2  -9  -2 3216.05 130.648 102
   2   9   2 3381.35 133.556  98
   2   9   2 3091.87 124.019  58
  -2  -9  -2 3125.46 133.705  42
  -2  -9  -2 3316.94 133.156 101
  -2  -9  -2 3206.80 130.522 100
   2   9   2 3369.73 141.514  60
   2   9   2 3141.53 129.287  97
  -2  -9  -2 3292.05 142.410  81
   2   9   2 3257.68 133.572 105
  -2  -9  -2 3170.77 128.774 107
  -2  -9  -2 3440.78 133.175  49
  -2  -9  -2 3319.71 139.544  76
  -2  -9  -3 105.918 29.3499  76
  -2  -9  -3 114.732 34.7804  33
  -2  -9  -3 62.9232 26.8783  74
   2   9   3 100.493 32.7685  73
  -2  -9  -3 117.461 26.5309 107
  -2  -9  -3 111.498 26.0802 102
  -2  -9  -3 112.334 32.2069  42
  -2  -9  -3 112.360 26.8454 100
   2   9   3 119.207 32.8251  60
   2   9   3 87.8111 29.6437  58
   2   9   3 73.5350 28.9527  56
  -2  -9  -3 115.370 26.0733 101
  -2  -9  -3 84.5020 32.2153  81
  -2  -9  -3 105.911 27.0634  19
   2   9   3 101.020 31.5558  43
  -2  -9  -3 62.9133 23.9543  49
  -2  -9  -4 363.041 52.6221  33
  -2  -9  -4 329.955 49.4312  74
   2   9   4 350.247 47.4408  73
   2   9   4 337.853 39.1260  71
   2   9   4 311.698 47.7320  56
   2   9   4 327.058 50.5059  58
   2   9   4 374.294 51.7635  43
   2   9   4 341.381 48.6200  60
  -2  -9  -4 314.525 49.8299  42
  -2  -9  -4 355.423 54.3088  81
  -2  -9  -4 445.743 49.1123  49
  -2  -9  -4 363.322 50.1612  76
  -2  -9  -5 16822.1 314.203  33
   2   9   5 16338.2 314.330  43
  -2  -9  -5 15780.5 300.227  74
   2   9   5 15979.4 316.302  58
   2   9   5 15775.9 312.614  56
  -2  -9  -5 15710.6 324.164  42
  -2  -9  -5 16086.1 327.282  81
   2   9   5 16442.3 282.040  71
  -2  -9  -5 16198.0 293.034  76
  -2  -9  -6 2572.58 116.009  33
  -2  -9  -6 2468.26 107.881  74
   2   9   6 2538.96 111.909  71
   2   9   6 2583.62 114.969  43
   2   9   6 2556.41 119.608  58
  -2  -9  -6 2444.46 117.270  81
   2   9   6 2568.83 111.335  80
  -2  -9  -6 2173.43 96.5753  76
  -2  -9  -7 10012.4 202.755  33
  -2  -9  -7 8288.24 172.313  74
   2   9   7 10398.0 211.126  71
   2   9   7 9331.47 211.336  58
  -2  -9  -7 9128.66 203.176  81
  -2  -9  -8 18.3353 12.6267  33
   2   9   8 33.7635 16.0832  71
  -2  -9  -8 8.06027 8.94977  81
  -2 -10  -3 38.5254 15.7441  33
   2  10   3 12.8427 12.2238  60
   2  10   3 16.6508 11.2148  43
  -2 -10  -3 26.4814 13.0981  76
  -2 -10  -3 10.2073 10.0942  81
   2  10   3 44.7525 14.8024  80
  -2 -10  -4 93.6430 17.2436  76
  -2 -10  -4 95.3546 19.5434  33
  -2 -10  -4 110.789 22.1934  81
   2  10   4 133.401 22.5383  43
   2  10   4 126.520 21.7176  80
   2  10   4 117.338 19.5334  58
  -2 -10  -5 511.638 38.5615  33
  -2 -10  -5 307.408 32.6295  42
   2  10   5 533.121 40.5320  43
  -2 -10  -5 400.721 37.0904  81
   2  10   5 607.860 41.5801  80
  -2 -10  -6 423.479 37.1242  42
   3  -8  -7 239.701 25.5327  53
  -3   8   6 8030.87 144.043  23
   3  -8  -6 8293.08 172.898  46
   3  -8  -5 43.4485 16.7678  47
   3  -8  -5 47.8875 19.5817  46
   3  -8  -5 50.0353 17.6369  70
  -3   8   5 46.2496 22.8159   9
  -3   8   4 4852.41 139.581  73
   3  -8  -4 5283.58 147.872  47
   3  -8  -4 5516.53 155.342  46
   3  -8  -4 5445.10 150.032  53
   3  -8  -4 5535.62 154.479  70
  -3   8   4 5435.34 143.904  55
  -3   8   4 5545.01 148.823   9
  -3   8   4 5186.21 140.808  75
  -3   8   4 5328.25 148.927  80
  -3   8   3 108.437 26.8560  75
  -3   8   3 72.2041 20.1240  73
   3  -8  -3 97.4938 25.9248  47
   3  -8  -3 80.3523 23.3495  46
   3  -8  -3 95.1243 24.6176  70
   3  -8  -3 75.1001 16.8111  42
  -3   8   3 116.851 26.3181   9
  -3   8   3 78.2461 21.8413  80
  -3   8   3 81.5513 24.2366  55
  -3   8   3 107.831 26.1991  79
  -3   8   2 654.359 51.7613  75
   3  -8  -2 644.378 51.2568  47
   3  -8  -2 629.962 47.6301  46
   3  -8  -2 670.531 50.7452  70
   3  -8  -2 626.125 44.9107  42
  -3   8   2 617.555 47.3652   9
  -3   8   2 653.694 52.2383  79
  -3   8   2 591.680 48.6818  55
  -3   8   1 139.307 24.2896  75
   3  -8  -1 150.904 24.1822  47
   3  -8  -1 156.811 22.2788  42
  -3   8   1 182.575 27.0116  55
  -3   8   1 160.741 25.2804  79
  -3   7   9 19938.3 209.029  71
  -3   7   9 17951.3 206.763  11
  -3   7   8 1404.73 73.5592  23
  -3   7   8 1320.17 70.3823  71
  -3   7   7 1057.71 70.1899  71
   3  -7  -7 1040.64 71.4763  46
  -3   7   7 1146.28 76.5844  23
  -3   7   7 1116.44 79.2883   9
  -3   7   6 1639.26 90.8928  71
   3  -7  -6 1550.43 101.165  46
   3  -7  -6 1550.52 90.1179  70
   3  -7  -6 1624.58 88.4168  47
  -3   7   6 1619.97 96.0701  23
  -3   7   6 1644.81 96.7745  55
  -3   7   6 1648.25 102.717   9
  -3   7   6 1654.23 101.327  80
  -3   7   5 3271.85 148.160  75
  -3   7   5 3534.72 157.030  73
   3  -7  -5 3530.42 146.795  47
   3  -7  -5 3772.31 161.468  46
  -3   7   5 3806.68 135.097  71
  -3   7   5 3694.28 144.986  23
  -3   7   5 3751.43 155.831  55
  -3   7   5 3555.73 155.513   9
  -3   7   5 3731.55 159.852  80
  -3   7   4 7148.53 225.859  75
  -3   7   4 7130.78 227.811  73
   3  -7  -4 7322.55 223.929  47
   3  -7  -4 7481.78 233.111  46
   3  -7  -4 7331.17 201.290  42
  -3   7   4 6926.16 220.464  55
  -3   7   4 7189.51 223.100   9
  -3   7   4 7553.50 200.121  23
  -3   7   4 7061.29 224.138  80
  -3   7   4 7212.40 219.177  79
  -3   7   3 4731.85 187.905  75
  -3   7   3 4769.74 180.944  73
   3  -7  -3 4913.92 187.217  47
   3  -7  -3 4839.65 188.807  46
   3  -7  -3 4771.64 185.640  70
  -3   7   3 4721.19 188.530  60
   3  -7  -3 4815.48 172.449  42
  -3   7   3 4892.41 185.773  55
  -3   7   3 4662.22 179.776  80
  -3   7   3 4763.09 185.724  79
  -3   7   3 4656.99 179.531   9
  -3   7   2 92.8185 35.5850  75
  -3   7   2 74.5819 38.7360  55
  -3   7   2 109.122 32.2631  73
   3  -7  -2 55.2709 28.9635  47
   3  -7  -2 71.8699 27.1711  99
   3  -7  -2 57.8116 29.3548  46
   3  -7  -2 81.2908 29.5753  70
  -3   7   2 72.9443 26.0357 103
  -3   7   2 84.0460 31.8843  60
   3  -7  -2 89.1612 28.8409 107
   3  -7  -2 103.487 28.6738 102
  -3   7   2 99.6489 27.6985 104
  -3   7   2 108.916 28.9166 105
   3  -7  -2 108.197 27.9318 100
   3  -7  -2 73.5508 27.6545  42
  -3   7   2 81.3417 26.0575  97
   3  -7  -2 75.9282 25.8631  53
   3  -7  -2 76.0899 24.8583  20
   3  -7  -2 101.482 28.8627  81
  -3   7   2 97.4032 32.5618  80
  -3   7   2 103.290 33.9614  79
   3  -7  -2 110.604 28.6450 101
  -3   7   1 39909.3 509.416  75
  -3   7   1 42205.0 510.599 104
  -3   7   1 38603.2 421.434  73
   3  -7  -1 40677.1 519.197  47
  -3   7   1 38973.7 516.466  79
   3  -7  -1 40742.1 501.258  99
   3  -7  -1 40046.0 495.121  46
  -3   7   1 40473.0 436.571  80
   3  -7  -1 40210.1 496.928  70
  -3   7   1 40641.3 503.033 106
   3  -7  -1 41346.2 501.492 102
  -3   7   1 40788.4 481.985  61
  -3   7   1 39273.5 499.565  55
  -3   7   1 42362.9 512.412 103
  -3   7   1 42454.6 511.336 105
  -3   7   1 38121.9 454.008  60
  -3   7   1 43077.0 512.040  97
   3  -7  -1 41730.2 506.055  42
   3  -7  -1 41836.5 502.306 107
   3  -7  -1 41145.9 471.374  81
   3  -7  -1 40370.9 495.011  20
   3  -7  -1 41305.6 501.883 101
  -3   7   1 40592.3 468.432  77
   3  -7  -1 41163.6 500.169 100
   3  -7  -1 41275.7 439.267  76
  -3   7   0 2146.69 110.108  55
   3  -7   0 2024.70 101.577  81
  -3   7   0 2107.00 111.781 104
   3  -7   0 2041.63 108.015  47
   3  -7   0 2123.72 111.913  99
  -3   7   0 2145.48 113.286 103
   3  -7   0 2041.42 108.609 107
  -3   7   0 2061.07 108.461  75
   3  -7   0 2164.31 100.557  76
   3  -7   0 2194.07 113.130 101
   3  -7   0 1999.81 106.494  42
  -3   7   0 2162.27 112.288  97
   3  -7   0 2140.22 111.457 102
  -3   7   0 2117.98 113.673 106
  -3   7   0 2115.56 107.421  61
   3  -7   0 2103.30 110.267 100
   3  -7   0 1971.41 107.461  20
  -3   7   0 2092.51 111.371 105
  -3   7   0 2011.96 109.883  79
  -3   7   0 1947.45 100.438  77
  -3   7  -1 1267.44 75.4614  55
   3  -7   1 1268.36 77.5201 107
  -3   7  -1 1364.88 82.6738 105
  -3   7  -1 1381.15 82.0259 104
  -3   7  -1 1250.53 78.7354 103
   3  -7   1 1313.97 79.1922 102
  -3   7  -1 1320.94 75.4366  77
  -3   7  -1 1276.70 77.6178  61
  -3   7  -1 1344.75 80.5361  97
   3  -7   1 1288.74 78.4808 100
   3  -7   1 1274.23 76.4377  42
   3  -7   1 1337.08 74.2664  47
   3  -7   1 1335.08 80.4485  99
  -3   7  -1 1385.50 82.5313 106
   3  -7   1 1272.67 78.0052  20
   3  -7   1 1406.88 82.1104 101
   3  -7   1 1270.41 73.9207  81
  -3   7  -1 1201.63 74.3427  79
  -3   7  -1 1515.68 81.6284  75
   3  -7   1 1274.42 71.1197  76
   3  -7   2 2621.45 87.0011  81
   3  -7   2 2545.09 87.8698  32
   3  -7   2 2869.44 94.6747 101
   3  -7   2 2772.51 93.0436  99
  -3   7  -2 2746.82 94.0260 103
   3  -7   2 2784.06 93.4605 107
   3  -7   2 2947.77 95.6524 100
   3  -7   2 2775.30 92.3064  20
  -3   7  -2 2754.20 92.1677  61
  -3   7  -2 2724.21 92.2407  97
  -3   7  -2 2727.31 92.1968 104
   3  -7   2 2896.86 95.2589 102
  -3   7  -2 2587.67 85.8026  55
  -3   7  -2 2787.94 94.0641 105
   3  -7   2 2664.22 89.7098  42
  -3   7  -2 2725.29 92.7861 106
  -3   7  -2 2812.33 90.3963  77
   3  -7   2 2722.62 85.6616  76
  -3   6   9 849.738 58.9913  71
  -3   6   9 854.172 56.3935  23
  -3   6   9 775.892 59.9556  11
  -3   6   8 212.048 37.3612  17
  -3   6   8 230.718 41.2104  71
  -3   6   8 157.215 34.6854  23
  -3   6   7 10576.7 250.463  17
  -3   6   7 9971.63 254.651  71
  -3   6   7 9717.58 255.031  23
  -3   6   7 9935.92 253.560  55
  -3   6   7 10158.8 269.604   9
  -3   6   7 10038.2 251.560  80
  -3   6   6 7837.12 239.405  75
  -3   6   6 8208.96 261.269  73
  -3   6   6 8242.98 251.661  80
  -3   6   6 8514.45 228.863  17
  -3   6   6 8314.28 256.222   9
  -3   6   6 8103.03 245.523  23
  -3   6   6 7763.37 243.892  55
  -3   6   6 8351.65 241.081  71
  -3   6   5 2100.66 133.353  75
   3  -6  -5 2340.65 132.737  47
  -3   6   5 2186.28 123.814  71
  -3   6   5 2158.29 136.616  55
  -3   6   5 2186.82 125.792  57
  -3   6   5 2226.53 137.118   9
  -3   6   5 2071.75 126.955  23
  -3   6   5 2402.72 145.913  73
  -3   6   5 2146.40 136.228  80
  -3   6   5 2039.95 127.975  79
  -3   6   4 574.996 62.5884  71
  -3   6   4 553.190 75.0106  75
  -3   6   4 553.191 74.8551  60
  -3   6   4 509.763 72.9209  73
   3  -6  -4 620.235 74.1425  47
  -3   6   4 508.352 68.8064  79
  -3   6   4 541.941 66.6538  23
  -3   6   4 529.124 71.7310  55
  -3   6   4 478.268 67.8310   9
  -3   6   4 538.129 73.5400  80
  -3   6   3 3065.94 166.053  75
  -3   6   3 2966.37 159.095  73
   3  -6  -3 3152.95 163.818  47
  -3   6   3 3191.09 169.179  79
   3  -6  -3 3318.82 159.726  42
  -3   6   3 3329.77 155.117  61
  -3   6   3 3089.41 146.861  23
  -3   6   3 2843.33 162.662  60
  -3   6   3 2918.75 162.680  55
  -3   6   3 2996.18 146.451  41
  -3   6   3 2967.83 160.639  80
  -3   6   3 3076.35 148.041  77
  -3   6   2 3510.67 167.274  73
   3  -6  -2 3521.49 175.543  47
   3  -6  -2 3682.19 170.886 107
   3  -6  -2 3564.37 179.322  46
  -3   6   2 3444.37 151.073  69
  -3   6   2 3600.12 173.899  60
  -3   6   2 3530.56 169.304 103
   3  -6  -2 3821.57 175.526 101
  -3   6   2 3627.69 168.468  61
   3  -6  -2 3606.06 170.543  99
  -3   6   2 3479.98 177.001  75
   3  -6  -2 3657.49 157.548  33
  -3   6   2 3613.51 162.575  41
   3  -6  -2 3562.30 168.244 102
  -3   6   2 3668.91 173.355 105
  -3   6   2 3548.69 169.396 106
  -3   6   2 3873.51 178.330 104
   3  -6  -2 3537.72 167.974 100
  -3   6   2 3730.95 172.240  97
   3  -6  -2 3588.92 168.335  20
   3  -6  -2 3709.91 173.366  42
   3  -6  -2 3523.92 162.116  81
  -3   6   2 3478.32 169.200  80
  -3   6   2 3438.33 175.984  79
  -3   6   2 3500.56 163.526  77
  -3   6   2 3666.75 179.465  55
  -3   6   1 758.914 86.1133  75
  -3   6   1 695.646 79.2388  61
  -3   6   1 788.747 78.9336  73
   3  -6  -1 678.221 80.4019  47
   3  -6  -1 738.540 82.2820  46
   3  -6  -1 726.549 81.9484 101
  -3   6   1 748.723 83.3730 103
  -3   6   1 729.158 81.5898 106
   3  -6  -1 770.593 83.1959 107
   3  -6  -1 647.470 75.7844 102
   3  -6  -1 834.702 85.5295  42
   3  -6  -1 740.809 81.7707  70
   3  -6  -1 732.212 80.8985 100
  -3   6   1 710.556 78.8097  41
   3  -6  -1 758.727 83.4945  99
  -3   6   1 724.486 77.5854  60
  -3   6   1 726.365 72.9447  69
  -3   6   1 719.930 72.0067  87
  -3   6   1 725.998 82.0064  97
   3  -6  -1 633.401 75.0407  20
  -3   6   1 723.432 83.1848 105
   3  -6  -1 732.434 79.8038  81
  -3   6   1 690.318 74.1405  80
  -3   6   1 646.504 80.9404  79
   3  -6  -1 703.069 74.1762  33
  -3   6   1 658.907 78.9343 104
  -3   6   1 702.488 77.5273  77
   3  -6  -1 769.670 74.7090  76
  -3   6   1 773.662 85.1905  55
  -3   6   0 21020.9 407.763  75
   3  -6   0 20792.0 414.010  47
   3  -6   0 20632.7 402.868  46
   3  -6   0 21001.8 419.850 100
   3  -6   0 20732.9 396.084  70
  -3   6   0 20208.4 359.247  69
   3  -6   0 20282.5 413.407  99
  -3   6   0 20552.6 421.314 104
  -3   6   0 20847.7 422.817 106
   3  -6   0 20808.8 414.622  42
  -3   6   0 20834.4 388.764  41
  -3   6   0 21280.0 383.350  87
  -3   6   0 20472.8 419.607 103
  -3   6   0 21221.9 423.430  97
  -3   6   0 20417.5 402.042  61
  -3   6   0 20873.3 403.572  55
   3  -6   0 20845.0 419.560 101
   3  -6   0 20857.2 364.012  53
  -3   6   0 21036.9 426.568 105
   3  -6   0 20790.6 416.527  20
   3  -6   0 21192.7 421.412 102
   3  -6   0 20980.7 399.188  81
  -3   6   0 20046.9 362.139  60
  -3   6   0 21318.0 414.586  79
   3  -6   0 21139.2 419.320 107
  -3   6   0 20377.8 397.972  77
   3  -6   0 21317.6 389.904  76
  -3   6  -1 3982.66 167.985  75
   3  -6   1 4153.79 175.433  47
   3  -6   1 3949.22 158.423  30
  -3   6  -1 4076.30 170.958  55
   3  -6   1 4205.28 161.532  70
  -3   6  -1 3962.76 179.275 106
  -3   6  -1 3989.82 180.186 105
  -3   6  -1 4101.02 169.412  41
  -3   6  -1 4048.55 182.533 103
   3  -6   1 4277.33 184.176  99
  -3   6  -1 4143.05 157.794  69
   3  -6   1 4194.03 182.938 102
   3  -6   1 4057.51 175.600  42
  -3   6  -1 4216.70 169.923  87
  -3   6  -1 3991.86 170.377  79
   3  -6   1 4148.61 165.366  46
  -3   6  -1 4177.53 177.472  61
  -3   6  -1 4218.99 182.877  97
   3  -6   1 4242.42 183.568 101
   3  -6   1 4409.50 185.674 107
   3  -6   1 4049.81 178.446  20
  -3   6  -1 4195.77 183.770 104
   3  -6   1 4069.38 172.915  81
  -3   6  -1 4297.52 175.713  77
   3  -6   1 4067.21 179.095 100
   3  -6   1 4077.36 169.349  76
   3  -6   2 60.0998 23.7916  47
   3  -6   2 21.7967 15.5898  30
  -3   6  -2 40.4524 26.5339 103
   3  -6   2 73.7118 29.5438 102
  -3   6  -2 71.9703 31.1481 105
  -3   6  -2 53.6836 29.5733 104
  -3   6  -2 63.2529 32.4049  41
   3  -6   2 28.2991 22.2072 101
   3  -6   2 27.2597 23.3067 100
  -3   6  -2 50.4745 25.6225  61
  -3   6  -2 42.6866 27.5774  97
  -3   6  -2 35.9512 21.9099  75
   3  -6   2 39.4425 21.4518  76
  -3   6  -2 33.4532 23.9309  55
   3  -6   2 60.8737 26.6458 107
  -3   6  -2 71.5586 28.1705  87
  -3   6  -2 50.5406 26.9202  69
   3  -6   2 39.0055 27.2884  99
   3  -6   2 59.6727 27.6250  20
   3  -6   2 22.2591 18.7662  85
   3  -6   2 53.5384 25.2909  81
  -3   6  -2 48.9911 27.1081  79
  -3   6  -2 48.3222 28.0818 106
  -3   6  -2 69.4625 31.1298  77
  -3   6  -3 883.188 66.5150 104
  -3   6  -3 870.135 58.1182  75
  -3   6  -3 917.128 68.0639 103
   3  -6   3 1016.61 71.2799 101
  -3   6  -3 983.253 68.3609  41
   3  -6   3 940.393 68.7531  42
  -3   6  -3 908.358 66.7252  87
   3  -6   3 979.381 68.6880 102
   3  -6   3 857.606 68.6400  32
   3  -6   3 974.360 68.7724 100
  -3   6  -3 947.442 68.4002  61
   3  -6   3 867.827 65.7878  81
  -3   6  -3 905.069 67.2983  97
  -3   6  -3 864.156 65.0983  77
  -3   6  -3 895.994 62.3478  55
   3  -6   3 749.680 58.5283  54
   3  -6   3 947.907 68.7498  99
   3  -6   3 853.238 58.1532  85
   3  -6   3 923.558 66.9049  20
  -3   6  -3 934.939 68.1176 106
   3  -6   3 974.240 68.3764  76
  -3   6  -3 736.821 53.0124  79
   3  -6   3 1009.19 70.6168 107
  -3   6  -3 935.028 68.6261 105
   3  -6   4 3861.07 107.721  32
   3  -6   4 3990.18 105.897  42
  -3   6  -4 4082.91 104.469  41
  -3   6  -4 3967.23 103.531  87
   3  -6   4 3848.08 104.399  81
  -3   6  -4 3618.45 99.0004  77
   3  -6   4 3933.76 103.879  76
  -3   5  10 5024.73 136.864  11
  -3   5   9 19833.7 313.837  71
  -3   5   9 19422.1 332.418  11
  -3   5   8 1704.06 109.285  17
  -3   5   8 1591.85 103.932  71
  -3   5   8 1550.03 100.249  23
  -3   5   8 1578.26 102.503  29
  -3   5   8 1511.45 99.5259  82
  -3   5   8 1610.49 103.642  57
  -3   5   7 8697.51 253.396  17
  -3   5   7 8943.04 260.743  71
  -3   5   7 8692.64 266.699   9
  -3   5   7 8861.90 253.466  29
  -3   5   7 8582.60 242.722  80
  -3   5   7 8649.69 256.054  57
  -3   5   7 8517.96 253.971  23
  -3   5   7 8573.29 258.691  55
  -3   5   7 9482.84 258.449  51
  -3   5   7 9559.23 261.526  26
  -3   5   7 8494.95 246.782  82
  -3   5   6 89.7433 35.6691  75
  -3   5   6 69.8268 32.3738  17
  -3   5   6 62.5837 38.1557  73
  -3   5   6 47.8326 29.1935  71
  -3   5   6 52.8059 29.4831  82
  -3   5   6 31.5055 29.9981  57
  -3   5   6 85.0842 31.9238  26
  -3   5   6 31.2458 25.9689  23
  -3   5   6 83.0517 50.7673  55
  -3   5   6 79.7657 34.8162   9
  -3   5   6 68.1812 33.5903  51
  -3   5   6 18.6332 20.8631  29
  -3   5   6 64.3319 32.5026  80
  -3   5   5 2239.42 143.362  75
  -3   5   5 2417.51 130.228  17
   3  -5  -5 2390.07 134.067  47
  -3   5   5 2240.28 134.460  71
  -3   5   5 2239.89 145.865  73
  -3   5   5 2320.75 142.723  57
  -3   5   5 2101.56 131.671  23
  -3   5   5 2206.14 142.768  55
  -3   5   5 2119.63 138.484   9
  -3   5   5 2217.52 138.948  80
  -3   5   5 2304.45 141.390  79
  -3   5   4 6786.32 249.364  75
  -3   5   4 6932.27 248.308  73
   3  -5  -4 6827.65 234.261  47
  -3   5   4 6962.40 224.153  71
  -3   5   4 6433.21 381.463  67
  -3   5   4 7069.07 223.416  69
   3  -5  -4 8338.17 481.582  39
  -3   5   4 6693.48 229.682  23
  -3   5   4 6916.47 246.500  55
   3  -5  -4 6355.42 395.591  62
  -3   5   4 6966.08 252.584  60
  -3   5   4 7368.40 249.028   9
  -3   5   4 7072.92 246.410  80
  -3   5   4 6994.05 244.181  79
  -3   5   4 8219.25 451.517   3
  -3   5   3 870.950 90.9964  75
  -3   5   3 830.910 86.6733  73
   3  -5  -3 771.742 82.3995  47
  -3   5   3 818.881 74.6111  71
  -3   5   3 724.141 143.406   3
  -3   5   3 920.872 88.8115  41
  -3   5   3 761.673 78.0864  23
  -3   5   3 776.860 89.3904  60
  -3   5   3 787.279 81.0521  61
   3  -5  -3 1034.97 180.592  62
  -3   5   3 815.133 86.0584  80
   3  -5  -3 622.070 133.049  39
  -3   5   3 796.340 82.1448  69
  -3   5   3 817.744 88.4166  55
  -3   5   3 807.998 80.9603  77
  -3   5   3 821.610 88.3641  79
   3  -5  -2 2321.09 249.048  39
  -3   5   2 2179.52 140.100  75
  -3   5   2 1906.62 124.834  73
   3  -5  -2 1975.76 131.143  47
  -3   5   2 1965.25 127.766 104
   3  -5  -2 2025.88 128.622  99
  -3   5   2 1937.70 122.417  69
   3  -5  -2 2055.58 128.106  42
   3  -5  -2 1890.39 214.715  94
  -3   5   2 2034.66 131.311  41
  -3   5   2 2184.28 134.994 106
  -3   5   2 1974.52 128.989  97
  -3   5   2 2130.99 133.806 105
   3  -5  -2 1938.86 219.014  95
   3  -5  -2 1933.16 218.402  93
  -3   5   2 2068.68 120.959  23
   3  -5  -2 2204.89 233.935  92
  -3   5   2 2046.24 135.385  79
   3  -5  -2 2335.08 239.957  91
  -3   5   2 2037.35 135.316  55
  -3   5   2 2108.80 131.679  77
   3  -5  -2 2103.37 223.542  90
  -3   5   2 1993.75 131.836  60
   3  -5  -2 2001.90 128.979 107
  -3   5   2 2020.64 128.785  61
   3  -5  -2 2119.73 131.631 100
   3  -5  -2 1934.04 226.995  62
  -3   5   2 1592.71 208.960  96
   3  -5  -2 1998.25 127.471  20
  -3   5   2 2017.27 131.177  80
  -3   5   2 2277.48 138.712 103
   3  -5  -2 1904.56 126.254 102
  -3   5   2 2088.71 231.515   3
   3  -5  -2 2042.29 129.471 101
   3  -5  -1 3263.68 306.980  62
   3  -5  -1 2740.37 142.111  33
  -3   5   1 2632.87 153.240  75
   3  -5  -1 2555.95 150.917 101
  -3   5   1 2540.63 141.328  73
   3  -5  -1 2564.83 152.503  47
   3  -5  -1 2610.52 148.868  42
   3  -5  -1 2626.61 155.105  46
   3  -5  -1 2457.78 255.132  95
  -3   5   1 2610.23 142.455  69
  -3   5   1 2758.19 157.048 105
  -3   5   1 2625.17 153.618 106
   3  -5  -1 2645.80 152.997 102
  -3   5   1 2627.21 148.491  41
   3  -5  -1 2289.54 248.817  92
  -3   5   1 2737.73 156.827  98
  -3   5   1 2743.34 153.827  61
  -3   5   1 2640.11 148.125  60
  -3   5   1 2583.64 151.009  97
   3  -5  -1 3105.07 292.635  39
   3  -5  -1 2474.65 258.325  94
   3  -5  -1 2473.01 258.858  93
  -3   5   1 2625.68 147.726  77
   3  -5  -1 2137.46 242.062  91
   3  -5  -1 2472.19 253.588  90
  -3   5   1 2571.23 151.089  55
  -3   5   1 2339.02 246.708  96
  -3   5   1 2671.44 155.730 104
  -3   5   1 2525.97 250.767  36
  -3   5   1 2639.72 154.422 103
  -3   5   1 2761.05 145.507  87
   3  -5  -1 2505.59 148.863 100
   3  -5  -1 2539.78 149.726  99
  -3   5   1 3408.62 282.745   3
   3  -5  -1 2700.02 147.314  81
  -3   5   1 2578.37 142.492  80
  -3   5   1 2586.62 152.185  79
   3  -5  -1 2633.78 151.803 107
   3  -5  -1 2792.94 142.742  76
  -3   5   0 4414.36 192.320  41
   3  -5   0 4522.80 189.102  33
  -3   5   0 4358.19 197.516  75
   3  -5   0 4640.38 206.468 107
   3  -5   0 4344.60 197.933  47
   3  -5   0 4573.89 199.801  46
  -3   5   0 4368.40 204.006  98
   3  -5   0 4468.89 194.808  70
  -3   5   0 4726.48 191.706  69
   3  -5   0 4408.67 196.565  42
  -3   5   0 4407.62 203.534 106
  -3   5   0 4321.98 202.695 105
  -3   5   0 4656.40 210.151 104
  -3   5   0 4558.68 208.650 103
   3  -5   0 4270.91 199.833 102
   3  -5   0 4411.82 203.389 101
   3  -5   0 4626.96 206.780 100
  -3   5   0 4365.19 197.040  61
  -3   5   0 4858.62 189.484  60
  -3   5   0 4489.45 204.361  97
  -3   5   0 4632.19 200.097  55
   3  -5   0 4458.41 204.708  99
  -3   5   0 4622.44 193.174  87
   3  -5   0 4725.38 198.821  81
  -3   5   0 4763.76 185.245  80
  -3   5   0 4515.25 198.168  77
  -3   5   0 4545.89 201.711  79
   3  -5   0 4595.34 190.478  76
   3  -5   1 296.782 53.8080  76
  -3   5  -1 300.661 54.1588  75
   3  -5   1 481.444 69.6593  47
   3  -5   1 268.042 52.3372  46
   3  -5   1 329.941 55.5607  30
   3  -5   1 266.037 50.5796  70
   3  -5   1 285.539 55.9075 107
  -3   5  -1 244.189 51.8017 106
   3  -5   1 305.052 55.1431  99
  -3   5  -1 233.064 51.8747 105
  -3   5  -1 281.281 57.5909 104
  -3   5  -1 297.173 57.3365 103
   3  -5   1 229.160 53.1488 101
   3  -5   1 269.964 54.3111  42
   3  -5   1 237.175 53.4719 100
  -3   5  -1 232.634 54.5581  55
  -3   5  -1 305.169 58.2782  61
  -3   5  -1 340.101 62.2795  98
  -3   5  -1 365.723 63.2162  97
  -3   5  -1 333.185 62.3987  41
  -3   5  -1 289.482 56.1468  87
   3  -5   1 238.739 48.6302  20
   3  -5   1 269.702 52.4037  81
   3  -5   1 264.024 54.4293 102
  -3   5  -1 292.591 56.7080  79
  -3   5  -1 280.384 58.0313  69
  -3   5  -1 299.706 57.0808  77
  -3   5  -2 25317.3 439.600  75
   3  -5   2 25146.3 453.231  47
  -3   5  -2 25404.5 410.759  44
   3  -5   2 25475.2 440.462  46
   3  -5   2 26380.2 473.566  30
   3  -5   2 25152.2 412.276  70
  -3   5  -2 24807.1 470.828 106
  -3   5  -2 25487.5 476.825 105
  -3   5  -2 25238.6 434.472  69
  -3   5  -2 25071.3 473.874 104
  -3   5  -2 25568.5 477.719 103
  -3   5  -2 25423.3 452.190  41
   3  -5   2 25438.3 472.282 101
   3  -5   2 25073.9 467.455 100
   3  -5   2 25215.1 471.038  99
  -3   5  -2 24950.4 458.196  61
   3  -5   2 25280.6 469.281 107
  -3   5  -2 25122.5 468.106  97
   3  -5   2 24720.3 463.296  20
   3  -5   2 26010.6 471.504  42
  -3   5  -2 25532.0 442.421  55
   3  -5   2 25524.5 473.516 102
  -3   5  -2 25282.7 455.869  87
   3  -5   2 25110.7 463.207  81
  -3   5  -2 25687.2 445.299  79
  -3   5  -2 25655.2 456.676  77
   3  -5   2 25101.4 453.657  76
   3  -5   3 127.802 38.2149  76
  -3   5  -3 122.559 33.1803  75
   3  -5   3 134.059 37.8056  81
  -3   5  -3 104.950 35.7062 105
   3  -5   3 89.8990 31.2517  30
   3  -5   3 108.760 37.6276 100
  -3   5  -3 99.0241 36.4094  69
   3  -5   3 96.1391 33.2201 107
  -3   5  -3 87.0842 32.2542 106
  -3   5  -3 99.1753 34.8854 103
   3  -5   3 63.2167 28.3853 102
   3  -5   3 125.611 39.1534  42
  -3   5  -3 96.0647 36.7743  61
  -3   5  -3 122.335 42.5973  41
   3  -5   3 92.5252 32.7266  99
  -3   5  -3 119.677 38.0270  97
  -3   5  -3 75.2566 29.3303  55
  -3   5  -3 122.288 40.1017  87
  -3   5  -3 87.5642 31.6954 104
   3  -5   3 109.491 36.5002 101
   3  -5   3 113.816 35.9846  20
   3  -5   3 73.3813 29.2874  47
  -3   5  -3 113.563 33.7852  79
   3  -5   3 81.2191 27.8995  49
  -3   5  -3 139.250 43.4460  77
   3  -5   4 191.524 38.3089  76
  -3   5  -4 270.386 42.4021 104
   3  -5   4 129.937 33.5773  32
   3  -5   4 218.581 42.7621  30
   3  -5   4 217.469 37.8530 102
   3  -5   4 178.399 34.7970 107
  -3   5  -4 285.851 43.2521 103
   3  -5   4 211.537 36.9590 100
   3  -5   4 247.653 39.3725 101
  -3   5  -4 203.703 43.2275  41
  -3   5  -4 244.364 41.3218  97
   3  -5   4 271.363 44.4795  42
  -3   5  -4 220.035 37.8193  55
   3  -5   4 138.639 29.9714  54
  -3   5  -4 419.079 51.4816  69
  -3   5  -4 163.290 38.3977  87
   3  -5   4 193.163 39.4805  85
   3  -5   4 256.300 39.9473  99
   3  -5   4 233.862 38.6585  20
  -3   5  -4 198.203 37.9732  61
  -3   5  -4 261.652 40.0626 105
   3  -5   4 136.694 33.4231  81
  -3   5  -4 285.884 42.2122 106
  -3   5  -4 187.901 36.8214  77
   3  -5   5 1126.80 70.3208  32
   3  -5   5 1113.03 68.1128  42
  -3   5  -5 1127.55 64.1906  69
  -3   5  -5 1016.36 53.1502  61
  -3   5  -5 1130.33 65.8844  87
   3  -5   5 1001.66 57.4398  54
  -3   5  -5 1129.68 66.5253  41
   3  -5   5 1159.58 69.5004  81
   3  -5   5 1149.82 68.9898  85
  -3   5  -5 1115.90 61.8078  77
   3  -5   5 1171.53 67.5789  76
  -3   4  10 24847.8 337.397  29
  -3   4  10 24091.2 331.271  11
  -3   4  10 24363.1 333.688  82
  -3   4   9 1919.01 109.020  17
  -3   4   9 1856.29 110.398  57
  -3   4   9 1786.05 98.4146  71
  -3   4   9 1820.50 110.948  11
  -3   4   9 1783.58 113.156  29
  -3   4   9 1690.55 108.896  82
  -3   4   8 2.92402 18.4022  23
  -3   4   8 29.1128 26.4097  17
  -3   4   8 18.5727 31.6407  57
  -3   4   8 14.1559 24.1813  71
  -3   4   8 1.59235 25.1268  26
  -3   4   8-0.31408 27.6645  51
  -3   4   8 5.56652 23.4258  29
  -3   4   8 27.1137 33.2707  82
  -3   4   7 4953.26 196.724  17
  -3   4   7 4887.16 196.727  71
  -3   4   7 5108.56 191.327  69
  -3   4   7 5054.03 210.351  57
  -3   4   7 5410.14 209.858  26
  -3   4   7 5109.95 209.470   9
  -3   4   7 4925.17 192.629  23
  -3   4   7 5512.64 210.189  51
  -3   4   7 4929.95 210.160  29
  -3   4   7 4626.15 205.298  82
  -3   4   6 6229.96 228.969  75
  -3   4   6 6514.67 224.854  17
  -3   4   6 6461.33 227.857  71
  -3   4   6 6049.88 382.585  67
  -3   4   6 6396.28 218.722  69
  -3   4   6 6676.22 228.810  26
   3  -4  -6 7441.33 443.169  39
  -3   4   6 6260.93 236.268  57
  -3   4   6 6442.83 233.772  55
  -3   4   6 6168.29 233.209  29
  -3   4   6 6383.27 234.353   9
  -3   4   6 6702.85 226.578  51
  -3   4   6 6123.79 232.844  82
  -3   4   6 6322.26 220.539  80
  -3   4   6 6241.08 221.154  23
   3  -4  -5 25.2483 49.5993  62
  -3   4   5 98.8176 35.8573  75
  -3   4   5 88.5821 29.7242  17
  -3   4   5 56.0187 29.9400  73
  -3   4   5 136.887 37.8600  71
  -3   4   5 11.2986 58.3443   3
  -3   4   5 80.6768 36.5630  69
   3  -4  -5 158.221 69.3108  39
  -3   4   5 147.906 45.2787  57
  -3   4   5 105.802 36.0046  23
  -3   4   5 75.4852 36.5469  55
  -3   4   5 129.348 46.0793   9
  -3   4   5 65.0798 34.2789  82
  -3   4   5 145.842 38.6986  51
  -3   4   5 86.0717 35.8847  80
  -3   4   5 134.857 45.7161  79
  -3   4   5 146.276 41.0162  26
  -3   4   4 1498.48 97.7560  17
  -3   4   4 1513.24 111.594  73
  -3   4   4 1485.88 104.112  23
  -3   4   4 1368.71 98.8079  71
  -3   4   4 1388.19 107.523  82
  -3   4   4 1357.85 100.139  69
   3  -4  -4 1526.79 193.203  62
  -3   4   4 1526.72 114.371  60
  -3   4   4 1817.88 189.970  67
   3  -4  -4 1529.81 179.364  66
  -3   4   4 1587.10 109.617  41
  -3   4   4 1551.64 113.654  75
  -3   4   4 1421.57 105.196   9
  -3   4   4 1490.57 112.913  55
   3  -4  -4 1364.92 178.335  39
  -3   4   4 1429.35 107.550  80
  -3   4   4 1404.13 170.681   3
  -3   4   4 1485.93 110.444  79
  -3   4   3 40320.3 557.547  75
   3  -4  -3 40632.6 896.551  66
  -3   4   3 39015.2 542.019  73
   3  -4  -3 37644.7 812.235  92
  -3   4   3 40388.7 560.381  60
  -3   4   3 36288.5 813.917  67
  -3   4   3 37066.9 814.843  96
   3  -4  -3 40536.4 932.975  62
   3  -4  -3 38089.7 820.557  90
   3  -4  -3 36470.5 804.042  91
   3  -4  -3 35981.8 797.277  94
  -3   4   3 40071.3 551.766  55
  -3   4   3 38410.7 513.823  23
   3  -4  -3 37088.2 806.333  95
  -3   4   3 39975.3 912.784   3
   3  -4  -3 37132.4 810.133  93
   3  -4  -3 40542.7 978.734  39
  -3   4   3 39802.6 543.694  80
  -3   4   3 40008.3 552.257  79
   3  -4  -3 42074.7 897.621  64
  -3   4   2 300.634 50.2096  75
   3  -4  -2 191.483 65.3779  94
  -3   4   2-70.6466 40.1688   3
   3  -4  -2-49.3545 41.5373  95
   3  -4  -2 207.192 71.2444  91
   3  -4  -2-36.1520 38.3066  93
   3  -4  -2-66.6462 52.6197  66
   3  -4  -2 49.4848 31.8389  64
  -3   4   2 19.1007 26.8554  55
   3  -4  -2 31.3386 35.6231  92
  -3   4   2-53.3899 40.8367  96
   3  -4  -2 14.3977 22.8151  39
   3  -4  -2-113.429 70.2676  62
   3  -4  -2-10.6120 24.0213  90
  -3   4   2 16.9689 26.2925  67
  -3   4   2 11.5554 25.7464  80
  -3   4   2-6.71901 28.3120  79
  -3   4   1 21239.3 399.099  75
   3  -4  -1 19838.1 390.832  47
   3  -4  -1 18249.4 633.452  94
   3  -4  -1 20742.0 400.229  46
   3  -4  -1 18486.3 637.751  93
  -3   4   1 20414.2 401.744 104
  -3   4   1 20431.9 376.705  69
   3  -4  -1 17581.3 622.230  91
   3  -4  -1 20852.0 678.206  64
   3  -4  -1 20624.6 400.243 101
   3  -4  -1 20457.7 396.986 100
  -3   4   1 19856.8 398.782  98
  -3   4   1 20998.0 391.605  61
   3  -4  -1 20290.8 397.542 102
   3  -4  -1 17816.5 624.889  95
  -3   4   1 20641.8 400.133  97
   3  -4  -1 21280.3 716.630  39
   3  -4  -1 18156.6 632.887  92
  -3   4   1 19557.1 573.449  67
   3  -4  -1 18171.1 633.625  90
  -3   4   1 20260.0 386.684  41
  -3   4   1 20114.8 399.847 103
   3  -4  -1 20545.0 397.799 107
  -3   4   1 20353.4 401.300 105
  -3   4   1 20926.7 393.191  55
   3  -4  -1 20929.6 656.007  66
  -3   4   1 20117.7 378.253  80
  -3   4   1 20010.2 397.751  79
  -3   4   1 18222.1 638.426  96
  -3   4   1 20837.6 653.831   3
   3  -4  -1 20920.3 692.787  62
  -3   4   1 20604.0 387.118  77
   3  -4   0 6506.43 213.466  33
  -3   4   0 6602.58 224.663  75
   3  -4   0 6654.27 232.086  47
   3  -4   0 5957.99 379.175  92
   3  -4   0 7023.92 395.107  66
   3  -4   0 6717.14 235.877 107
   3  -4   0 6563.30 230.806  46
  -3   4   0 7062.82 228.230  69
   3  -4   0 6500.00 227.609  42
  -3   4   0 6605.97 238.775 105
  -3   4   0 6232.23 231.666 104
  -3   4   0 6835.49 241.316 103
   3  -4   0 6698.95 404.551  62
  -3   4   0 6624.89 398.694  65
   3  -4   0 6617.31 235.613 102
   3  -4   0 6606.19 235.522 101
   3  -4   0 6735.20 237.696 100
  -3   4   0 6903.03 232.128  41
  -3   4   0 6699.01 239.208  98
  -3   4   0 6961.72 233.827  61
  -3   4   0 6901.19 240.506  97
  -3   4   0 5778.10 377.987  96
   3  -4   0 5779.05 369.420  95
   3  -4   0 6452.00 405.305  39
   3  -4   0 5963.34 375.747  91
  -3   4   0 6722.90 224.310  55
   3  -4   0 6381.77 392.546  90
  -3   4   0 6679.42 224.380  87
   3  -4   0 5785.44 372.506  94
   3  -4   0 6847.96 405.463  64
   3  -4   0 6329.08 218.805  81
  -3   4   0 6449.10 209.505  80
  -3   4   0 6898.85 232.983  79
  -3   4   0 6270.56 349.847  37
  -3   4   0 7228.74 384.838   3
  -3   4   0 6789.11 229.335  77
   3  -4   0 5878.33 376.825  93
   3  -4   0 6331.38 212.286  76
   3  -4   1 35455.1 521.306  33
  -3   4  -1 35216.4 505.237  44
  -3   4  -1 35453.9 526.084  75
   3  -4   1 33794.5 930.229  91
   3  -4   1 36912.8 943.381  66
   3  -4   1 35501.6 543.821  47
   3  -4   1 34518.0 945.760  93
   3  -4   1 39679.5 1018.05  39
   3  -4   1 35702.6 541.752  46
   3  -4   1 36157.3 546.193  30
   3  -4   1 34980.9 519.377  70
  -3   4  -1 38880.1 1007.28  65
  -3   4  -1 35619.5 565.043 104
   3  -4   1 33867.3 936.119  92
  -3   4  -1 35412.7 534.237  87
   3  -4   1 34198.9 942.643  94
   3  -4   1 34551.9 552.947 102
   3  -4   1 35357.6 557.423 101
   3  -4   1 34905.7 551.079 100
   3  -4   1 34966.9 951.313  95
   3  -4   1 40942.3 1026.32  62
  -3   4  -1 36538.4 543.765  41
  -3   4  -1 35431.2 562.672  98
   3  -4   1 35537.7 544.587  42
  -3   4  -1 35745.1 560.802  97
  -3   4  -1 33531.8 938.097  96
   3  -4   1 34229.9 944.456  90
  -3   4  -1 35488.1 523.374  55
  -3   4  -1 38955.2 944.341  37
   3  -4   1 35058.5 499.019  53
  -3   4  -1 35995.0 526.575  69
   3  -4   1 35570.6 555.855 107
  -3   4  -1 35667.3 567.655 103
   3  -4   1 35355.0 541.286  81
  -3   4  -1 34454.6 525.384  79
  -3   4  -1 35577.0 540.501  61
  -3   4  -1 35568.6 565.844 105
  -3   4  -1 36089.7 539.824  77
   3  -4   1 34297.1 527.078  76
  -3   4  -1 39127.7 873.570   3
  -3   4  -2 13591.7 324.983  75
   3  -4   2 13272.6 337.101  47
   3  -4   2 13344.9 332.392  46
   3  -4   2 13026.0 346.037  30
   3  -4   2 13157.7 315.791  70
  -3   4  -2 13576.5 331.648  69
  -3   4  -2 13098.3 346.958 106
  -3   4  -2 13048.4 348.506 105
  -3   4  -2 12792.9 346.411 103
   3  -4   2 13046.2 345.157 102
   3  -4   2 13563.7 347.439  42
   3  -4   2 12856.8 341.920 101
  -3   4  -2 13128.7 349.600 104
   3  -4   2 13059.9 343.604 100
   3  -4   2 13341.2 347.209  99
  -3   4  -2 13271.0 351.536  98
  -3   4  -2 13869.7 343.661  41
  -3   4  -2 13084.6 332.776  61
  -3   4  -2 13268.9 348.536  97
   3  -4   2 12776.2 590.591  95
   3  -4   2 15823.7 655.509  39
   3  -4   2 12577.3 585.493  94
   3  -4   2 12813.4 591.321  93
   3  -4   2 13776.0 613.830  92
   3  -4   2 12687.3 587.168  91
   3  -4   2 12978.1 342.466 107
  -3   4  -2 13593.0 328.710  55
   3  -4   2 13621.5 612.892  90
  -3   4  -2 15231.5 621.180  37
  -3   4  -2 12787.9 331.702  87
  -3   4  -2 15124.0 647.002  65
   3  -4   2 13253.0 341.962  81
  -3   4  -2 12878.6 321.629  79
  -3   4  -2 13373.0 334.321  77
   3  -4   2 13197.5 334.927  76
  -3   4  -3 1685.44 112.133  75
   3  -4   3 1619.20 109.974  74
   3  -4   3 1622.09 117.614  47
  -3   4  -3 1483.10 111.945  69
   3  -4   3 1593.87 114.090  46
   3  -4   3 1489.33 121.815  30
  -3   4  -3 1580.19 122.987 105
  -3   4  -3 1648.42 124.479 104
  -3   4  -3 1634.46 124.596 103
   3  -4   3 1589.42 120.000 102
   3  -4   3 1609.37 123.239  42
   3  -4   3 1483.23 117.067 101
   3  -4   3 1589.77 120.238  99
  -3   4  -3 1681.76 122.987  41
  -3   4  -3 1597.67 116.445  61
  -3   4  -3 1536.69 120.584  97
  -3   4  -3 1584.55 112.576  55
  -3   4  -3 1642.03 122.735  87
   3  -4   3 1506.29 117.225 100
   3  -4   3 1501.79 116.399  20
   3  -4   3 1620.26 120.613 107
  -3   4  -3 1524.09 119.857 106
   3  -4   3 1563.77 121.724  81
  -3   4  -3 1531.46 109.490  79
   3  -4   3 1629.20 111.390  49
  -3   4  -3 1555.42 117.290  77
   3  -4   3 1558.13 118.781  76
   3  -4   4 22865.3 395.375  74
   3  -4   4 22669.2 401.289  47
   3  -4   4 21891.7 445.575  32
   3  -4   4 22689.5 384.429  46
   3  -4   4 22540.7 453.460  30
  -3   4  -4 22394.8 419.257 103
  -3   4  -4 22554.4 403.273  61
   3  -4   4 22935.7 418.744 107
   3  -4   4 22840.5 419.860 102
  -3   4  -4 23069.2 422.369  41
  -3   4  -4 22561.7 415.358  97
  -3   4  -4 23436.9 419.093  69
   3  -4   4 22883.9 419.385 101
  -3   4  -4 23408.1 394.452  55
   3  -4   4 22594.6 413.665 100
  -3   4  -4 21828.5 415.269  87
  -3   4  -4 22150.6 414.969 104
   3  -4   4 22336.8 434.190  42
   3  -4   4 22834.7 414.952  99
   3  -4   4 23126.3 416.836  20
   3  -4   4 22223.9 434.897  81
  -3   4  -4 22724.7 419.620 105
   3  -4   4 23370.5 413.818  49
  -3   4  -4 22755.8 418.435 106
  -3   4  -4 22593.0 410.622  77
   3  -4   4 22804.1 430.495  76
   3  -4   5 3302.68 135.962  74
   3  -4   5 3245.53 155.293  32
  -3   4  -5 3316.28 146.889  44
   3  -4   5 3223.77 154.544  85
   3  -4   5 3171.79 157.415  30
  -3   4  -5 2997.92 127.014 106
   3  -4   5 3372.34 153.102  42
  -3   4  -5 3238.28 131.139  61
  -3   4  -5 3176.94 130.721 105
  -3   4  -5 3257.86 133.311 103
   3  -4   5 3246.43 147.882  76
  -3   4  -5 3308.80 127.855  55
  -3   4  -5 3146.48 130.227 104
   3  -4   5 3304.21 142.558  54
  -3   4  -5 3261.82 144.035  87
   3  -4   5 3304.79 152.490  81
  -3   4  -5 3305.95 145.232  41
  -3   4  -5 3219.43 131.162  97
  -3   4  -5 3271.30 137.998  77
  -3   4  -5 3219.43 142.502  69
  -3   4  -6 70.8434 27.3787  44
   3  -4   6 44.4600 18.8543  32
  -3   4  -6 49.0118 26.2499  69
   3  -4   6 106.560 25.0543  42
  -3   4  -6 88.8728 26.7823  41
   3  -4   6 65.1088 20.2360  54
  -3   4  -6 66.3356 22.0285  87
   3  -4   6 65.1239 26.2233  85
   3  -4   6 69.1138 23.8897  81
  -3   4  -6 46.2344 16.7555  77
   3  -4   6 50.1150 20.2031  76
  -3   3  11 4307.39 107.244  29
  -3   3  11 4272.37 105.964  82
  -3   3  10 12424.9 261.561  29
  -3   3  10 12560.9 249.846  11
  -3   3  10 12725.0 251.032  57
  -3   3  10 12776.2 265.013  82
  -3   3   9 1850.59 121.968  29
  -3   3   9 1909.46 116.701  11
  -3   3   9 1874.47 123.596  82
  -3   3   9 1781.48 116.483  57
  -3   3   8 2526.27 138.393  17
  -3   3   8 2748.36 150.467  26
  -3   3   8 2380.98 142.578  11
  -3   3   8 2760.51 160.709  29
  -3   3   8 2505.12 149.678  57
  -3   3   8 2473.93 151.987  82
  -3   3   8 2797.58 150.419  51
  -3   3   8 2473.42 130.790  71
  -3   3   7 5862.32 215.221  17
  -3   3   7 5779.74 207.915  71
  -3   3   7 5927.12 216.141  69
  -3   3   7 5717.30 226.744  57
  -3   3   7 5958.44 203.408  23
  -3   3   7 5844.30 234.485  29
  -3   3   7 6253.20 226.652  51
  -3   3   7 5707.09 234.843  82
  -3   3   7 6294.26 229.288  26
  -3   3   6 368.636 54.9746  17
  -3   3   6 351.336 55.1995  71
  -3   3   6 244.674 80.3724  67
  -3   3   6 428.481 60.8026  26
  -3   3   6 513.751 72.1269  29
   3  -3  -6 514.120 119.165  66
  -3   3   6 371.751 58.9434  69
   3  -3  -6 515.884 124.650  62
  -3   3   6 288.894 48.9860  41
  -3   3   6 407.966 64.7719   9
  -3   3   6 336.688 58.6613  57
  -3   3   6 322.118 51.2584  23
  -3   3   6 357.633 59.7363  55
   3  -3  -6 450.066 112.622  39
  -3   3   6 358.477 55.3260  51
  -3   3   6 680.667 84.9969  82
  -3   3   6 328.357 50.4684  80
  -3   3   5 1873.88 112.141  17
  -3   3   5 1270.60 102.674  73
  -3   3   5 1234.92 94.1217  71
  -3   3   5 1379.67 161.912  67
  -3   3   5 1314.44 101.637  75
  -3   3   5 1395.61 97.7757  23
   3  -3  -5 1478.50 179.027  39
  -3   3   5 1646.26 106.953  26
  -3   3   5 1280.26 105.097  57
  -3   3   5 1263.65 102.391  55
  -3   3   5 1377.45 101.403   9
  -3   3   5 1647.33 105.958  51
   3  -3  -5 1263.33 163.752  62
   3  -3  -5 1433.06 170.196  66
  -3   3   5 1481.82 170.873   3
  -3   3   5 1234.93 104.750  82
   3  -3  -4 5458.14 318.044  66
   3  -3  -4 5629.71 325.059  62
  -3   3   4 5012.26 286.126  67
   3  -3  -4 5316.68 330.391  39
   3  -3  -4 5625.34 303.830  64
  -3   3   4 5232.95 305.058   3
   3  -3  -3 15167.7 463.329  94
   3  -3  -3 16130.2 540.219  62
   3  -3  -3 16744.0 542.886  66
   3  -3  -3 15667.6 469.771  93
   3  -3  -3 17447.7 531.533  64
  -3   3   3 15920.1 474.383  96
  -3   3   3 16587.4 485.348  67
  -3   3   3 15823.6 465.719  40
   3  -3  -3 16777.1 571.843  39
   3  -3  -3 15255.5 463.002  91
   3  -3  -3 16680.8 486.917  90
  -3   3   3 15796.2 523.480   3
   3  -3  -3 15754.3 470.271  95
   3  -3  -3 15360.1 463.357  92
   3  -3  -2 20080.5 564.089  90
   3  -3  -2 22212.3 610.892  64
  -3   3   2 20663.7 517.987  67
   3  -3  -2 21542.6 624.042  62
   3  -3  -2 20162.5 560.274  91
   3  -3  -2 19443.7 553.865  93
  -3   3   2 20134.3 562.440  96
   3  -3  -2 20507.7 569.600  95
   3  -3  -2 21962.3 641.479  39
   3  -3  -2 20083.0 563.902  94
   3  -3  -2 20033.7 561.539  92
  -3   3   2 21349.2 599.973   3
   3  -3  -2 21693.4 609.135  66
  -3   3   1 6903.98 342.687  63
   3  -3  -1 6947.26 346.801  66
  -3   3   1 6817.45 292.088  67
   3  -3  -1 7264.61 364.484  62
   3  -3  -1 7236.85 360.561  64
   3  -3  -1 6510.09 336.227  95
   3  -3  -1 6964.61 367.243  39
   3  -3  -1 6511.50 335.857  94
   3  -3  -1 6405.31 331.890  93
   3  -3  -1 6477.53 336.072  92
   3  -3  -1 6659.49 337.417  91
   3  -3  -1 6428.91 333.450  90
  -3   3   1 7411.70 300.625  37
  -3   3   1 6622.31 343.276  96
  -3   3   1 7021.41 345.380  65
  -3   3   1 6918.54 335.705   3
   3  -3   0 1585.02 176.417  64
   3  -3   0 1361.64 173.274  39
  -3   3   0 1366.89 133.749  67
   3  -3   0 1703.07 175.022  66
   3  -3   0 1388.56 163.610  62
  -3   3   0 1343.02 160.577  63
  -3   3   0 1323.21 164.106  96
   3  -3   0 1263.31 155.568  92
   3  -3   0 1160.74 149.156  91
   3  -3   0 1299.94 156.688  95
   3  -3   0 1138.20 149.337  90
  -3   3   0 1467.45 149.069  37
   3  -3   0 1376.73 160.871  93
  -3   3   0 1582.86 161.986   3
  -3   3   0 1423.44 164.489  65
   3  -3   0 1043.16 138.738  94
   3  -3   1 15406.6 561.339  66
  -3   3  -1 15436.4 571.976  65
  -3   3  -1 16332.5 585.683  63
   3  -3   1 15853.6 579.070  62
  -3   3  -1 14320.3 557.518  96
   3  -3   1 14449.3 547.131  95
   3  -3   1 15698.1 577.116  39
   3  -3   1 14687.1 552.769  94
   3  -3   1 14601.6 554.802  93
   3  -3   1 14193.3 544.007  92
   3  -3   1 14405.0 551.654  91
   3  -3   1 13793.4 538.879  90
  -3   3  -1 16089.0 541.111  37
  -3   3  -1 15769.6 508.868   3
   3  -3   1 15995.2 583.921  64
  -3   3  -2 23810.4 400.737  75
   3  -3   2 22075.0 714.100  94
   3  -3   2 24744.2 436.142  47
   3  -3   2 24227.5 429.876  46
   3  -3   2 25352.8 457.572  30
   3  -3   2 23942.9 409.137  70
  -3   3  -2 24488.0 447.550 105
   3  -3   2 25346.9 445.040  42
  -3   3  -2 25713.3 745.647  37
  -3   3  -2 24029.8 442.094 104
   3  -3   2 25122.4 760.457  66
  -3   3  -2 24038.1 446.510 103
  -3   3  -2 23904.3 420.594  77
   3  -3   2 24714.1 449.615 102
   3  -3   2 24583.4 446.373 101
  -3   3  -2 24891.3 761.947  63
   3  -3   2 24845.6 443.346 100
   3  -3   2 25258.7 768.018  62
  -3   3  -2 23729.3 442.228  98
  -3   3  -2 24843.6 432.251  41
  -3   3  -2 24151.6 423.752  61
  -3   3  -2 24448.7 444.359  97
  -3   3  -2 21912.6 717.612  96
   3  -3   2 21655.6 708.735  95
   3  -3   2 25697.0 770.603  39
   3  -3   2 22143.8 717.104  93
   3  -3   2 21776.4 710.644  92
   3  -3   2 21969.9 714.466  91
  -3   3  -2 24588.2 409.167  55
   3  -3   2 22812.8 730.511  90
  -3   3  -2 25218.8 771.695  65
  -3   3  -2 24410.3 430.789  87
   3  -3   2 25003.2 450.084 107
   3  -3   2 23978.2 432.769  81
  -3   3  -2 24689.2 422.698  69
  -3   3  -2 23643.3 401.916  79
   3  -3   2 23903.6 427.527  76
  -3   3  -3 1586.21 204.724  65
   3  -3   3 1446.56 103.991  74
   3  -3   3 1538.59 113.663  47
   3  -3   3 1392.50 109.015  99
   3  -3   3 1373.92 106.604  46
  -3   3  -3 1482.67 109.639  61
   3  -3   3 1807.57 217.852   2
  -3   3  -3 1403.09 114.154 106
  -3   3  -3 1423.40 114.301 105
  -3   3  -3 1447.85 114.564 104
   3  -3   3 1540.97 121.988  30
  -3   3  -3 1511.96 116.682 103
   3  -3   3 1510.51 114.308 102
   3  -3   3 1411.74 111.654 101
   3  -3   3 1480.36 115.876  42
  -3   3  -3 1694.06 209.838  63
  -3   3  -3 1595.43 117.111  41
   3  -3   3 1572.45 116.283 107
  -3   3  -3 1486.79 114.245  97
   3  -3   3 1238.90 174.973  95
   3  -3   3 1437.47 192.598  94
   3  -3   3 1659.56 217.274  39
   3  -3   3 1390.60 188.851  93
  -3   3  -3 1449.46 104.330  55
   3  -3   3 1385.93 189.357  92
   3  -3   3 1259.06 176.380  91
   3  -3   3 1169.26 176.774  90
  -3   3  -3 1621.80 201.521  37
   3  -3   3 1486.75 113.473 100
  -3   3  -3 1523.85 114.420  87
  -3   3  -3 1479.39 115.847  98
   3  -3   3 1462.55 112.961  20
   3  -3   3 1464.14 114.866  81
  -3   3  -3 1395.33 193.229  96
   3  -3   3 1469.99 109.169  49
  -3   3  -3 1596.73 117.172  69
  -3   3  -3 1544.74 113.678  77
   3  -3   3 1366.31 108.855  76
   3  -3   4 47951.5 613.290  74
   3  -3   4 47314.6 625.135  47
   3  -3   4 47281.2 612.392  46
   3  -3   4 47500.8 688.041  30
  -3   3  -4 46593.0 625.462 106
  -3   3  -4 47276.0 630.683 105
  -3   3  -4 47191.4 632.268 104
   3  -3   4 46995.5 624.358 102
   3  -3   4 47468.0 625.550 101
   3  -3   4 47451.7 627.692 107
   3  -3   4 47949.6 626.589 100
  -3   3  -4 47096.1 602.910  61
  -3   3  -4 48512.4 631.524  41
  -3   3  -4 48064.8 631.562  97
  -3   3  -4 46785.1 630.365 103
   3  -3   4 48263.4 627.347  99
  -3   3  -4 49454.5 587.060  55
   3  -3   4 46332.5 657.022  42
  -3   3  -4 48042.4 626.087  69
  -3   3  -4 46901.8 627.752  87
   3  -3   4 47610.3 620.336  20
   3  -3   4 46872.4 655.772  81
   3  -3   4 47305.3 623.807  49
  -3   3  -4 47818.9 612.233  77
   3  -3   4 47434.1 648.922  76
   3  -3   5 3875.07 172.698  74
   3  -3   5 3557.66 160.295  47
   3  -3   5 3560.23 182.322  32
   3  -3   5 3877.76 163.231 100
  -3   3  -5 3805.84 165.228 103
   3  -3   5 3557.77 156.478  46
   3  -3   5 3670.39 187.320  30
   3  -3   5 3738.04 161.468 102
  -3   3  -5 3734.17 163.444 106
  -3   3  -5 3880.86 166.294 105
  -3   3  -5 3643.49 161.768 104
   3  -3   5 3677.49 179.592  42
  -3   3  -5 3827.76 160.707  61
  -3   3  -5 3697.04 170.162  41
  -3   3  -5 3798.63 163.809  97
  -3   3  -5 3903.70 176.099  69
   3  -3   5 3593.96 179.309  81
   3  -3   5 3837.13 162.413  99
   3  -3   5 3793.33 172.328  54
  -3   3  -5 3757.29 172.190  87
   3  -3   5 3624.26 159.520 107
   3  -3   5 3568.39 156.303  20
   3  -3   5 3542.72 158.170 101
   3  -3   5 3617.83 172.087  49
  -3   3  -5 3787.95 164.992  77
   3  -3   5 3891.91 180.552  76
   3  -3   6 19402.4 351.858  74
   3  -3   6 19666.1 386.034  32
   3  -3   6 18609.0 383.230  30
   3  -3   6 19263.2 370.201  81
   3  -3   6 19770.0 374.560  42
  -3   3  -6 19481.4 344.142  41
   3  -3   6 18127.7 368.750  24
   3  -3   6 20151.2 395.173  85
   3  -3   6 18958.0 348.507  54
  -3   3  -6 19892.4 357.352  69
  -3   3  -6 19356.0 338.524  87
  -3   3  -6 19292.0 314.553  77
   3  -3   6 19332.4 360.135  76
  -3   3  -7 15432.4 234.452  41
   3  -3   7 15898.9 272.363  42
   3  -3   7 15364.7 266.126  24
   3  -3   7 15478.2 250.824  54
   3  -3   7 16567.2 292.220  85
  -3   3  -7 16082.3 261.604  69
  -3   3  -7 15473.4 270.261  44
   3  -3   7 16336.0 273.176  81
  -3   2  11 19741.6 225.352  29
  -3   2  11 19874.4 223.561  82
  -3   2  10 1195.60 80.1673  11
  -3   2  10 1188.93 83.8072  29
  -3   2  10 1183.37 80.8403  57
  -3   2  10 1192.18 82.2950  82
  -3   2   9 5629.12 206.473  31
  -3   2   9 5816.73 202.272  11
  -3   2   9 5317.35 202.406  57
  -3   2   9 5565.55 213.203  29
  -3   2   9 5625.28 213.521  82
  -3   2   9 5669.84 197.680  59
  -3   2   8 7165.06 225.084  17
  -3   2   8 7306.82 262.385  29
  -3   2   8 7603.16 215.880  71
  -3   2   8 7136.54 247.941  31
  -3   2   8 7672.77 247.150  26
  -3   2   8 7431.49 243.115  59
  -3   2   8 7429.51 256.978  57
  -3   2   8 7162.23 241.266  11
  -3   2   8 7685.44 245.501  51
  -3   2   8 7281.16 261.295  82
  -3   2   7 585.027 68.9562  17
  -3   2   7 544.625 62.8948  71
  -3   2   7 917.216 148.506  67
  -3   2   7 585.630 71.7207  26
   3  -2  -7 422.614 126.341  66
  -3   2   7 523.853 69.5832  11
  -3   2   7 545.097 71.9621  50
  -3   2   7 580.332 70.2471  59
   3  -2  -7 720.436 148.409  39
  -3   2   7 513.436 72.9520  57
  -3   2   7 544.957 69.8861  51
  -3   2   7 645.221 81.6378  82
  -3   2   7 589.807 79.3123  29
  -3   2   7 465.781 103.713  68
  -3   2   6 8140.83 236.035  17
  -3   2   6 8170.79 234.688  71
  -3   2   6 8120.45 247.662  69
  -3   2   6 7848.61 398.398  67
  -3   2   6 7933.57 261.423  29
   3  -2  -6 8519.47 426.026  62
  -3   2   6 8682.94 253.661  26
  -3   2   6 7863.46 256.836  57
   3  -2  -6 8628.29 448.555  66
  -3   2   6 8865.85 253.746  51
   3  -2  -6 8515.72 445.703  39
  -3   2   6 8186.13 263.728  82
  -3   2   6 7548.74 230.405  50
  -3   2   6 7479.13 384.068  68
  -3   2   5 8617.74 378.756  67
   3  -2  -5 9799.33 440.599  66
   3  -2  -5 9512.66 424.052  62
   3  -2  -5 9392.83 380.892  64
   3  -2  -5 9386.24 441.784  39
  -3   2   5 9111.56 377.631  68
  -3   2   5 9547.08 375.854   3
   3  -2  -4 702.810 110.364  39
  -3   2   4 498.931 83.2970  67
   3  -2  -4 588.580 103.532  62
   3  -2  -4 663.843 95.4604  64
  -3   2   4 493.526 90.2477   3
  -3   2   4 493.484 78.3268  40
  -3   2   4 587.831 87.5017  68
   3  -2  -3 72199.7 1003.78  64
   3  -2  -3 71338.3 1046.52  66
  -3   2   3 69433.6 885.019  96
   3  -2  -3 69992.3 884.327  93
   3  -2  -3 72281.8 1072.60  39
   3  -2  -3 71536.2 1053.19  62
  -3   2   3 70925.9 990.663   3
  -3   2   3 70317.4 893.822  91
  -3   2   3 68269.3 877.243  67
  -3   2   3 69179.4 927.996  40
   3  -2  -3 69342.3 878.308  95
   3  -2  -3 70938.0 889.631  90
   3  -2  -3 69486.1 879.504  92
   3  -2  -3 70514.3 885.201  94
   3  -2  -3 73722.5 838.527  34
  -3   2   2 12212.5 342.188  67
  -3   2   2 12432.5 370.962  65
   3  -2  -2 12243.4 412.086  64
   3  -2  -2 11671.1 377.772  95
  -3   2   2 12101.7 370.634  63
  -3   2   2 11531.4 376.693  96
   3  -2  -2 12466.9 431.995  39
   3  -2  -2 11325.4 373.966  94
   3  -2  -2 11519.1 375.485  93
   3  -2  -2 11562.3 376.453  92
   3  -2  -2 11999.9 381.917  91
   3  -2  -2 11962.7 384.320  90
   3  -2  -2 12330.2 428.267  62
  -3   2   2 11957.1 401.902   3
   3  -2  -2 12853.2 354.932  34
   3  -2  -2 12028.2 419.442  66
  -3   2   1 32566.9 527.159  67
  -3   2   1 33536.7 643.800  65
   3  -2  -1 32416.3 679.261  66
   3  -2  -1 33736.6 692.692  64
  -3   2   1 33379.7 653.029  63
   3  -2  -1 32992.1 695.917  62
  -3   2   1 32026.0 664.870  96
   3  -2  -1 30403.6 639.358  95
   3  -2  -1 32923.9 688.869  39
   3  -2  -1 30493.6 641.442  93
   3  -2  -1 30988.3 646.109  94
  -3   2   1 33319.1 524.071  37
   3  -2  -1 30774.1 643.527  92
   3  -2  -1 30427.2 638.856  91
   3  -2  -1 31254.1 651.038  90
  -3   2   1 32011.7 653.383   3
  -3   2   0 208.068 44.0701  67
  -3   2   0 137.728 42.5620   3
  -3   2   0 216.358 51.0354  37
  -3   2   0 149.319 48.3479  63
   3  -2   0 184.579 52.5054  95
   3  -2   0 169.756 54.4871  64
   3  -2   0 53.4108 39.8887  62
  -3   2   0 33.9459 29.2646  96
   3  -2   0 210.782 60.5917  94
   3  -2   0 169.896 67.6305  39
   3  -2   0 75.8855 35.8818  93
  -3   2   0 164.324 52.0555  65
   3  -2   0 149.897 47.7951  92
   3  -2   0 137.653 46.9643  91
   3  -2   0 57.5601 30.5624  90
   3  -2   0 134.587 44.3595  66
  -3   2  -1 229.943 52.7519   3
  -3   2  -1 172.620 54.1371  96
  -3   2  -1 277.465 66.1062  63
   3  -2   1 377.382 77.7508  66
  -3   2  -1 163.322 59.1114  65
   3  -2   1 184.662 56.3425  62
   3  -2   1 60.3708 30.9413  94
   3  -2   1 243.174 70.3197  39
   3  -2   1 203.790 64.0832  93
   3  -2   1 80.8690 37.6964  92
   3  -2   1 204.393 67.3382  90
  -3   2  -1 148.006 48.8010  37
   3  -2   1 210.060 58.2324  91
   3  -2   1 266.781 74.2777  64
   3  -2   1 171.064 53.7759  95
  -3   2  -2 107.791 43.6996   3
   3  -2   2-13.8456 24.3859  66
  -3   2  -2 38.0992 30.0646  65
   3  -2   2 21.4104 36.4891  64
  -3   2  -2-90.9017 40.9317  63
   3  -2   2-96.6629 47.9532  62
  -3   2  -2 5.46442 15.2494  96
   3  -2   2-73.4567 36.7115  95
   3  -2   2 11.5848 17.1224  94
   3  -2   2 116.783 54.4964  39
   3  -2   2 32.9850 26.2905  93
   3  -2   2-50.6190 34.8943  92
   3  -2   2 7.17878 25.0071  91
   3  -2   2 65.4629 45.6052  90
  -3   2  -2 32.0050 37.9793  37
  -3   2  -3 4246.92 308.752  65
  -3   2  -3 3982.44 291.929  96
   3  -2   3 3619.12 273.338  93
   3  -2   3 4316.73 302.949   2
  -3   2  -3 4639.82 314.609  63
   3  -2   3 4516.19 307.914  62
   3  -2   3 3876.25 282.132  95
   3  -2   3 4160.61 291.807  94
   3  -2   3 4914.69 315.622  39
   3  -2   3 3930.46 283.120  92
   3  -2   3 3820.85 278.967  91
   3  -2   3 4164.67 294.425  90
  -3   2  -3 4514.61 312.365  37
   3  -2   4 9493.57 268.807  74
   3  -2   4 9262.63 271.164  47
   3  -2   4 8951.84 266.087  46
   3  -2   4 9359.57 295.124  30
  -3   2  -4 8498.97 441.879  96
  -3   2  -4 9099.90 270.694 105
  -3   2  -4 8825.48 267.513 104
   3  -2   4 8593.09 438.892  91
  -3   2  -4 9094.09 271.164 103
   3  -2   4 8453.32 259.607 102
   3  -2   4 9505.97 286.978  42
   3  -2   4 8869.23 263.642 101
   3  -2   4 8629.37 439.977  92
  -3   2  -4 9983.59 484.948  63
   3  -2   4 9131.45 266.115 100
   3  -2   4 9230.84 265.850  99
  -3   2  -4 9392.11 255.749  61
  -3   2  -4 9619.00 269.470  41
   3  -2   4 9037.05 448.936  94
   3  -2   4 8229.12 429.340  93
  -3   2  -4 8951.12 265.373  97
   3  -2   4 8731.64 441.740  90
   3  -2   4 8270.34 432.015  95
  -3   2  -4 10198.0 508.132  65
   3  -2   4 9533.73 305.299  22
  -3   2  -4 11737.4 543.032  37
  -3   2  -4 8921.92 265.087 106
   3  -2   4 8764.25 260.528 107
  -3   2  -4 9180.86 269.380  87
   3  -2   4 9092.10 262.099  20
   3  -2   4 9154.89 280.593  81
   3  -2   4 9482.77 274.244  49
   3  -2   4 10019.4 492.293   2
  -3   2  -4 9214.66 257.592  77
   3  -2   4 9401.04 278.621  76
   3  -2   5 3134.17 162.287  74
   3  -2   5 2844.07 151.760  47
   3  -2   5 2898.61 167.631  32
   3  -2   5 2937.93 152.895  46
   3  -2   5 2895.75 170.086  30
  -3   2  -5 2963.98 152.567  41
   3  -2   5 2770.29 150.804  54
  -3   2  -5 2775.12 149.100  87
   3  -2   5 2853.65 163.819  81
   3  -2   5 2984.90 166.750  42
   3  -2   5 2992.62 162.719  49
  -3   2  -5 3022.84 147.039  77
   3  -2   5 3108.34 165.748  76
   3  -2   6 10078.3 283.573  74
   3  -2   6 9930.86 259.174  47
   3  -2   6 9488.02 294.532  32
   3  -2   6 9780.45 257.862  46
   3  -2   6 9298.94 295.552  30
   3  -2   6 10049.2 266.550  13
   3  -2   6 9424.15 287.364  42
  -3   2  -6 10123.8 266.962  41
   3  -2   6 9492.03 272.536  54
  -3   2  -6 9969.86 275.060  69
  -3   2  -6 9654.79 258.987  87
   3  -2   6 9969.61 305.434  85
   3  -2   6 9187.67 282.611  81
   3  -2   6 9749.51 280.729  76
   3  -2   7 9081.24 256.378  32
   3  -2   7 9659.63 259.615  42
   3  -2   7 9350.18 228.760  13
  -3   2  -7 9517.67 221.340  41
   3  -2   7 9470.13 265.777  24
  -3   2  -7 9337.60 237.959  69
   3  -2   7 9033.77 239.079  54
   3  -2   7 9708.66 271.652  85
   3  -2   7 9318.09 252.551  81
  -3   2  -8 3015.04 115.556  44
   3  -2   8 3091.15 117.530  24
   3  -2   8 3264.86 118.593  42
   3  -2   8 2732.16 91.4937  13
   3  -2   8 3195.39 110.416  54
  -3   2  -8 3011.89 105.807  69
   3  -2   8 3149.93 122.509  85
  -3   1  10 168.782 35.2555  31
  -3   1  10 152.798 32.6474  29
  -3   1  10 214.702 38.0268  57
  -3   1  10 146.825 31.1922  59
  -3   1  10 193.174 34.4463  82
  -3   1   9 2753.87 153.576  31
  -3   1   9 3191.90 148.868  11
  -3   1   9 3088.84 153.765  59
  -3   1   9 3085.63 152.763  57
  -3   1   9 3057.25 153.487  29
  -3   1   9 2991.06 151.065  82
  -3   1   8 4582.37 204.380  29
  -3   1   8 4635.09 193.975  11
  -3   1   8 4601.03 195.107  21
  -3   1   8 4404.99 198.652  59
  -3   1   8 4586.77 201.495  57
  -3   1   8 4433.60 199.413  82
  -3   1   7 18088.7 351.374  17
  -3   1   7 17029.8 654.012  68
  -3   1   7 17459.3 405.859  29
   3  -1  -7 18834.9 671.495  62
  -3   1   7 18465.0 404.611  59
  -3   1   7 18245.6 377.379  11
  -3   1   7 17123.9 390.234  21
   3  -1  -7 20676.5 749.239  66
  -3   1   7 18102.6 366.261  52
  -3   1   7 19083.0 376.581  51
  -3   1   7 17288.5 404.309  82
  -3   1   7 19054.7 378.705  26
  -3   1   7 17618.3 382.498  50
   3  -1  -7 20565.9 734.407  39
  -3   1   7 17413.1 394.046  57
   3  -1  -6 86.1034 49.3870  39
  -3   1   6 68.1835 26.5011  17
  -3   1   6 73.8916 32.5014  82
  -3   1   6 115.287 29.7608  71
  -3   1   6 28.0205 27.6559  11
  -3   1   6-33.2664 43.2124  68
  -3   1   6 28.0620 24.3975  59
   3  -1  -6 32.4718 61.7862  66
  -3   1   6 30.9847 24.2074  57
   3  -1  -6 52.0237 42.8126  62
  -3   1   6 44.7592 30.0380  26
  -3   1   6 33.9310 23.3227  29
  -3   1   6 110.192 35.1271  44
  -3   1   6 57.5240 31.6543  69
  -3   1   6 93.2065 34.5845  51
  -3   1   6 72.7330 35.2650  50
  -3   1   5 10306.4 411.728  68
  -3   1   5 10386.2 390.649  40
  -3   1   5 11046.6 416.360  67
   3  -1  -5 11003.6 416.747  64
   3  -1  -5 11285.3 474.732  66
  -3   1   5 11142.3 374.080   3
   3  -1  -5 11371.2 477.031  39
   3  -1  -5 10493.1 443.641  62
   3  -1  -4 28772.2 681.775  62
   3  -1  -4 29767.6 651.793  64
  -3   1   4 28322.5 589.767  67
  -3   1   4 27852.0 589.134  68
   3  -1  -4 31423.5 725.116  66
  -3   1   4 28810.3 613.692  40
   3  -1  -4 29530.3 699.638  39
  -3   1   4 29792.7 605.904   3
   3  -1  -4 31622.4 634.159  34
  -3   1   3 117323. 1015.92  68
   3  -1  -3 120985. 1069.79  93
  -3   1   3 114977. 1058.56  91
  -3   1   3 115994. 1044.16  67
   3  -1  -3 117037. 1055.41  95
   3  -1  -3 122816. 1314.90  66
   3  -1  -3 116119. 1279.94  62
   3  -1  -3 116160. 1218.75  64
  -3   1   3 110844. 1161.18  40
  -3   1   3 116364. 1056.68  96
   3  -1  -3 117513. 1282.55  39
   3  -1  -3 117444. 1058.07  90
  -3   1   3 114181. 1157.68   3
   3  -1  -3 116837. 1052.32  94
   3  -1  -3 119144. 1064.56  92
   3  -1  -3 119371. 1147.30  34
  -3   1   2 82375.3 656.933  68
  -3   1   2 80659.4 756.259  67
   3  -1  -2 79149.5 901.769  94
  -3   1   2 81662.2 761.604  65
   3  -1  -2 79416.7 1008.10  66
  -3   1   2 79385.3 943.525   3
  -3   1   2 76852.6 893.481  96
   3  -1  -2 79149.7 975.398  64
  -3   1   2 77757.4 805.318  63
   3  -1  -2 81244.8 1009.99  62
  -3   1   2 78805.5 950.767  40
   3  -1  -2 81344.6 994.178  39
   3  -1  -2 79680.7 904.919  95
   3  -1  -2 77776.9 891.941  93
   3  -1  -2 78609.9 896.796  92
   3  -1  -2 78394.4 885.771  34
   3  -1  -2 80823.0 913.521  90
  -3   1   2 76014.5 899.283  91
   3  -1  -1 8545.53 323.234  66
  -3   1   1 8256.76 305.983  96
   3  -1  -1 8751.39 308.843  93
   3  -1  -1 8919.83 324.245  64
  -3   1   1 8418.21 283.647  63
  -3   1   1 8950.19 215.410  67
   3  -1  -1 8495.70 317.540  62
   3  -1  -1 8655.67 308.774  39
   3  -1  -1 8598.79 308.816  94
   3  -1  -1 8565.07 309.166  90
  -3   1   1 8774.80 309.100   3
  -3   1   1 8759.74 277.642  65
  -3   1   1 8887.78 214.498  37
   3  -1  -1 8581.22 307.019  92
   3  -1  -1 8755.94 311.106  95
   3  -1  -1 9099.86 302.012  34
  -3   1   0 57069.4 497.487  67
   3  -1   0 53538.9 773.013  39
   3  -1   0 55597.8 828.767  66
  -3   1   0 54603.0 811.096  96
   3  -1   0 53786.6 798.578  92
   3  -1   0 56154.5 822.409  64
  -3   1   0 54568.1 776.302  63
  -3   1   0 55859.5 672.617  37
   3  -1   0 53425.8 796.366  95
   3  -1   0 53878.1 800.323  94
   3  -1   0 53979.9 799.950  93
   3  -1   0 54543.1 800.044  91
   3  -1   0 53740.2 799.702  90
  -3   1   0 54878.6 763.018   3
   3  -1   0 54843.3 804.026  62
  -3   1   0 56337.8 768.518  65
   3  -1   0 54925.4 773.995  34
  -3   1  -1 59201.2 874.123  63
   3  -1   1 61721.4 890.251  64
  -3   1  -1 59624.5 804.188  37
   3  -1   1 60635.8 861.951  62
  -3   1  -1 60831.1 872.727  65
  -3   1  -1 57601.9 875.567  96
   3  -1   1 57437.3 867.935  95
   3  -1   1 57789.1 828.373  39
   3  -1   1 58194.3 871.796  94
   3  -1   1 57927.7 869.771  93
   3  -1   1 58075.8 871.467  92
   3  -1   1 58095.4 869.292  91
   3  -1   1 58547.3 876.776  90
  -3   1  -1 59478.2 785.676   3
   3  -1   1 59867.2 895.202  66
  -3   1  -2 395.989 59.4504   3
   3  -1   2 432.455 80.1630  95
   3  -1   2 437.317 86.6641  66
  -3   1  -2 379.377 83.4756  65
   3  -1   2 444.091 82.1647  62
   3  -1   2 470.587 82.8951  64
  -3   1  -2 296.406 64.7990  96
   3  -1   2 366.737 73.5274  94
   3  -1   2 376.026 77.5662  39
   3  -1   2 245.087 60.3429  93
   3  -1   2 322.161 68.6111  92
   3  -1   2 350.249 70.2922  91
   3  -1   2 276.941 65.9961  90
  -3   1  -2 339.038 71.0471  37
  -3   1  -2 426.916 81.5184  63
   3  -1   3 15634.7 513.929   2
  -3   1  -3 16589.7 537.689  63
   3  -1   3 16512.8 519.074  64
  -3   1  -3 14735.6 497.994  96
   3  -1   3 16388.9 546.850  66
  -3   1  -3 16768.2 545.556  37
   3  -1   3 14987.3 496.112  95
   3  -1   3 16667.6 498.407  39
   3  -1   3 15221.9 500.853  94
   3  -1   3 14928.7 497.056  93
  -3   1  -3 16232.4 477.425  38
   3  -1   3 15268.9 500.730  92
   3  -1   3 15264.2 499.094  91
   3  -1   3 14792.0 496.106  90
  -3   1  -3 15901.7 538.596  65
   3  -1   3 16632.9 512.735  62
  -3   1  -4 13.0401 45.4386  38
   3  -1   4-29.8500 46.0323   2
  -3   1  -4 10.2743 35.6295  96
  -3   1  -4 141.411 66.0900  37
  -3   1  -4 156.911 61.9991  65
   3  -1   4-18.4468 21.0032  94
   3  -1   4-184.667 65.0656  90
   3  -1   4 89.1253 43.9815  95
   3  -1   4-10.1905 18.0758  93
   3  -1   4 101.305 48.4225  91
  -3   1  -4 81.2318 44.9380  63
   3  -1   4 67.3379 36.3884  92
   3  -1   5 24301.8 441.368  74
   3  -1   5 23321.1 427.270  47
   3  -1   5 24475.9 468.183  32
   3  -1   5 23597.8 433.942  46
   3  -1   5 24197.0 469.328  30
  -3   1  -5 25792.1 796.555  65
   3  -1   5 26440.7 791.880   2
   3  -1   5 23599.6 450.805  42
  -3   1  -5 24423.3 412.005  41
  -3   1  -5 25864.5 763.514  38
   3  -1   5 24580.9 480.308  22
  -3   1  -5 26661.5 827.711  37
   3  -1   5 23479.5 421.360  54
  -3   1  -5 25859.0 751.590  63
  -3   1  -5 23893.5 411.483  87
   3  -1   5 24326.4 456.609  81
   3  -1   5 23949.6 447.513  49
   3  -1   5 24689.3 448.398  76
   3  -1   6 526.926 70.2739  74
   3  -1   6 533.933 69.0116  47
   3  -1   6 467.937 70.9636  32
   3  -1   6 544.679 68.9716  46
  -3   1  -6 550.387 64.6705  41
   3  -1   6 547.376 74.4684  30
   3  -1   6 500.690 70.4938  42
   3  -1   6 501.009 64.0835  13
   3  -1   6 512.545 73.0217  22
   3  -1   6 639.566 73.8607  54
   3  -1   6 606.950 74.5729  76
   3  -1   6 507.014 72.0270  81
   3  -1   6 553.514 76.6820  85
   3  -1   7 8098.65 267.574  32
  -3   1  -7 8082.70 236.457  69
   3  -1   7 8685.65 252.204  13
   3  -1   7 8206.52 274.902  24
   3  -1   7 8379.03 252.694  54
   3  -1   7 8329.82 272.291  85
   3  -1   7 8529.77 265.748  81
   3  -1   7 8231.54 263.610  42
  -3   1  -8 1718.19 94.5780  69
   3  -1   8 1693.08 108.000  85
   3  -1   8 1744.81 106.524  42
   3  -1   8 1706.28 99.0665  13
   3  -1   8 1623.23 107.306  24
   3  -1   8 1673.42 99.0145  54
  -3   1  -9 1949.31 76.7392  44
   3  -1   9 1954.75 72.5486  13
  -3   0  10 133.421 25.1311  29
  -3   0  10 156.547 30.5312  59
  -3   0  10 182.837 34.6465  31
  -3   0  10 175.281 31.9643  57
  -3   0  10 159.312 27.7781  82
  -3   0   9 694.276 68.9717  29
  -3   0   9 671.966 76.6774  31
  -3   0   9 706.984 73.6586  57
  -3   0   9 662.309 74.4470  59
  -3   0   9 827.935 73.6062  82
  -3   0   8 130.716 38.5412  29
  -3   0   8 122.262 45.2031  57
  -3   0   8 107.536 42.0231  59
  -3   0   8 111.446 42.7907  11
  -3   0   8 161.467 43.3814  21
  -3   0   8 120.912 40.8951  82
  -3   0   7 17311.4 404.268  59
  -3   0   7 18642.3 381.652  11
  -3   0   7 17024.7 384.687  57
   3   0  -7 18226.3 684.889  62
  -3   0   7 16543.1 396.972  21
  -3   0   7 16600.0 372.482  52
  -3   0   7 17739.9 392.457  82
  -3   0   7 17473.8 391.320  29
  -3   0   6 975.691 133.801   2
  -3   0   6 667.260 75.1922  52
   3   0  -6 861.191 147.804  66
  -3   0   6 624.799 67.4174  26
   3   0  -6 498.856 113.804  62
  -3   0   6 687.846 74.1990  11
   3   0  -6 766.093 122.940  64
  -3   0   6 682.693 79.2012  59
  -3   0   6 701.889 78.1616  57
  -3   0   6 551.759 70.0938  29
  -3   0   6 712.569 73.4082  51
  -3   0   6 636.489 74.8837  82
  -3   0   6 636.351 126.886  68
  -3   0   6 613.357 75.0691  50
  -3   0   6 613.389 70.2598  78
   3   0  -6 689.147 127.693  34
   3   0  -5 2047.82 185.189  64
   3   0  -5 1677.11 181.618  62
  -3   0   5 1521.36 167.486  68
  -3   0   5 1794.33 174.253   4
   3   0  -5 1727.65 187.305  66
  -3   0   5 1563.70 166.512  40
   3   0  -5 1911.85 192.757  34
  -3   0   4 534.633 86.7104  40
  -3   0   4 395.812 69.2398   3
   3   0  -4 295.680 73.8059  62
  -3   0   4 493.528 81.3918  68
   3   0  -4 571.313 91.2042  64
   3   0  -4 498.544 98.0501  66
  -3   0   4 501.675 83.7405   4
   3   0  -4 421.759 63.0727  38
   3   0  -4 403.562 80.3815  34
  -3   0   3 3216.10 177.628  93
   3   0  -3 3492.97 222.773  66
   3   0  -3 3202.13 175.473  90
  -3   0   3 2970.67 177.776  68
   3   0  -3 3137.92 172.101  94
  -3   0   3 3125.67 166.195  67
   3   0  -3 3125.30 173.196  95
  -3   0   3 3010.79 169.194   4
   3   0  -3 3007.93 199.410  64
   3   0  -3 3043.18 205.940  62
  -3   0   3 2797.60 187.053  40
   3   0  -3 3088.82 172.604  92
  -3   0   3 3097.69 184.031   3
   3   0  -3 2799.20 145.704  38
  -3   0   3 3160.10 174.149  96
  -3   0   3 2946.90 168.032  91
   3   0  -3 3288.01 205.677  34
   3   0  -2 171942. 1282.46  94
  -3   0   2 168503. 1000.52  63
   3   0  -2 170734. 1282.53  90
  -3   0   2 172622. 1108.97  68
  -3   0   2 180669. 1031.17  67
   3   0  -2 167494. 1347.59  39
   3   0  -2 170132. 1396.97  64
  -3   0   2 170319. 1279.20  96
   3   0  -2 169651. 1276.30  95
   3   0  -2 172636. 1423.72  66
  -3   0   2 169957. 1292.93  91
  -3   0   2 167443. 1379.56  40
   3   0  -2 168521. 1269.66  93
  -3   0   2 166702. 1306.44   3
   3   0  -2 169448. 1274.83  92
   3   0  -2 171721. 947.954  38
  -3   0   2 173458. 1063.24   4
   3   0  -2 167276. 1397.76  62
   3   0  -2 156593. 1306.84  34
   3   0  -1 4463.04 209.577  93
  -3   0   1 4591.40 118.297  67
   3   0  -1 4432.14 217.871  66
  -3   0   1 4813.83 136.708   4
   3   0  -1 4439.56 218.128  64
   3   0  -1 4352.70 208.274  95
  -3   0   1 4263.97 181.613  63
   3   0  -1 4523.33 215.272  62
   3   0  -1 4536.01 211.832  94
  -3   0   1 4340.18 210.748  96
   3   0  -1 4424.33 198.657  39
  -3   0   1 4560.65 210.574   3
  -3   0   1 4436.62 212.389  91
  -3   0   1 4352.95 122.805  37
   3   0  -1 4454.23 210.842  90
  -3   0   1 4758.63 142.759  68
  -3   0   1 4701.78 169.071  65
  -3   0   1 4399.99 209.951  35
   3   0  -1 4371.63 207.882  92
   3   0  -1 4522.27 212.885  34
  -3   0   0 6554.93 243.526  63
  -3   0   0 6522.92 261.588  96
   3   0   0 6501.65 258.742  94
  -3   0   0 6508.58 263.101  91
   3   0   0 6256.11 253.639  64
   3   0   0 6383.25 254.355  66
  -3   0   0 6263.86 225.487  65
   3   0   0 6605.57 249.042  62
   3   0   0 6511.21 259.806  92
   3   0   0 6268.23 254.578  95
   3   0   0 6503.80 228.643  39
  -3   0   0 6740.42 252.393   3
  -3   0   0 6513.37 203.024  37
   3   0   0 6683.64 264.743  90
  -3   0   0 6286.92 237.049  35
   3   0   0 6429.42 256.787  93
   3   0   0 6347.48 255.100  34
   3   0   1 665.216 89.2886  93
  -3   0  -1 655.548 82.9322  63
   3   0   1 628.417 87.7978  92
   3   0   1 612.447 88.3825  95
   3   0   1 731.441 91.0990  64
   3   0   1 621.149 80.4555  62
   3   0   1 638.350 72.5412  39
  -3   0  -1 730.198 83.2997   3
   3   0   1 646.010 87.5849  90
   3   0   1 597.526 80.5810  66
  -3   0  -1 616.675 82.3985  65
   3   0   1 708.515 92.4760  94
  -3   0  -1 606.277 72.1534  35
  -3   0  -1 600.348 84.2350  96
   3   0   1 658.651 88.5979  34
  -3   0  -2 3984.08 217.165  37
   3   0   2 4020.86 224.066  66
   3   0   2 4317.67 218.033  64
  -3   0  -2 3902.51 225.955  63
   3   0   2 3932.24 200.722  62
   3   0   2 3991.52 220.617  95
   3   0   2 3990.10 188.728  39
   3   0   2 3846.01 216.547  94
   3   0   2 3990.30 219.704  93
  -3   0  -2 3593.88 208.731  96
   3   0   2 3783.16 213.757  92
  -3   0  -2 4185.24 190.162   3
   3   0   2 4008.51 220.858  90
  -3   0  -2 3946.20 222.581  65
  -3   0  -2 3864.60 169.655  35
   3   0   3 40016.2 727.704   2
  -3   0  -3 41994.8 798.787  37
  -3   0  -3 41879.3 784.700  63
   3   0   3 41382.0 690.394  62
   3   0   3 39361.4 727.178  93
   3   0   3 40572.2 739.342  94
   3   0   3 41608.6 648.177  39
   3   0   3 40241.8 734.738  92
   3   0   3 41780.6 778.415  66
   3   0   3 40160.5 737.646  90
  -3   0  -3 38000.6 720.826  96
   3   0   3 39595.5 730.102  95
  -3   0  -3 40739.1 790.754  65
   3   0   3 42879.0 726.956  64
  -3   0  -4 7020.10 348.328  63
  -3   0  -4 6749.37 316.871  96
   3   0   4 7057.05 323.056  94
   3   0   4 6662.86 334.483   2
  -3   0  -4 6913.45 361.557  65
   3   0   4 6967.04 322.860  93
   3   0   4 6482.03 310.057  95
   3   0   4 7100.21 323.745  92
  -3   0  -4 7442.76 375.389  37
   3   0   4 6696.31 317.317  90
   3   0   5 392.606 53.7691  47
   3   0   5 447.535 57.9750  74
   3   0   5 303.659 53.2120  32
   3   0   5 367.824 54.0267  46
   3   0   5 388.555 58.0284  30
  -3   0  -5 337.839 87.0678  63
   3   0   5 412.131 58.7567  42
  -3   0  -5 386.264 91.4622  65
  -3   0  -5 462.398 112.169  37
   3   0   5 347.810 58.8189  85
   3   0   5 365.255 58.7275  81
   3   0   5 312.147 102.378   2
   3   0   5 483.238 62.0063  76
   3   0   6 20053.0 411.477  74
   3   0   6 19506.2 393.908  47
   3   0   6 19462.2 422.852  32
   3   0   6 20405.8 435.094  31
   3   0   6 19284.6 394.450  46
   3   0   6 17847.7 403.469  30
  -3   0  -6 21320.0 727.361  65
   3   0   6 21217.1 713.957   2
   3   0   6 19638.4 416.312  42
   3   0   6 19915.5 394.139  13
   3   0   6 19742.3 415.012  59
   3   0   6 19263.3 423.439  24
   3   0   6 19099.3 384.763  54
  -3   0  -6 20433.9 720.570  38
   3   0   6 19513.7 418.664  22
  -3   0  -6 23086.7 785.420  37
   3   0   6 20094.7 427.598  85
   3   0   6 19419.8 412.100  81
   3   0   6 18883.9 394.865  76
   3   0   7 702.225 72.3551  47
   3   0   7 780.699 79.5317  46
   3   0   7 781.111 86.8315  42
   3   0   7 760.583 83.7631  81
   3   0   7 798.843 83.1024  13
   3   0   7 869.183 90.3462  59
   3   0   7 718.580 86.2088  24
   3   0   7 906.714 93.7875  85
   3   0   7 788.233 81.7009  54
   3   0   8 3858.20 168.259  13
  -3   0  -8 3722.90 145.034  69
   3   0   8 3820.55 174.202  42
   3   0   8 3693.06 177.973  24
   3   0   8 3848.77 164.829  54
   3   0   8 3857.53 175.657  85
   3   0   9 8.08022 20.4191  24
   3   0   9 2.65932 15.7312  54
  -3   0  -9-6.53760 18.3954  44
  -3  -1  10 1806.94 80.9376  31
  -3  -1  10 1821.76 77.8179  59
  -3  -1   9 21179.2 387.613  31
  -3  -1   9 23615.8 323.747  29
  -3  -1   9 21919.5 375.964  59
  -3  -1   9 22759.2 353.840  57
  -3  -1   9 22967.7 316.272  82
  -3  -1   8 1247.13 106.925  21
  -3  -1   8 1224.26 93.6354  29
  -3  -1   8 1202.76 97.3351  57
  -3  -1   8 1045.16 98.4868  59
  -3  -1   8 1247.45 93.4720  82
  -3  -1   8 1134.70 89.7867  48
  -3  -1   7 1255.55 101.281  48
  -3  -1   7 1190.96 98.4323  29
  -3  -1   7 1198.31 110.552  59
  -3  -1   7 1205.38 104.556  88
  -3  -1   7 1044.00 105.075  21
  -3  -1   7 1192.13 100.783  57
  -3  -1   7 1209.01 100.371  82
  -3  -1   7 1076.12 100.360  52
  -3  -1   6 8528.13 254.661  29
  -3  -1   6 7758.78 256.190  52
  -3  -1   6 8243.73 461.809  68
   3   1  -6 9690.59 503.010  66
   3   1  -6 7971.66 426.237  64
  -3  -1   6 8451.38 442.170   4
  -3  -1   6 7534.02 412.558  40
  -3  -1   6 8347.55 276.829  59
  -3  -1   6 8291.54 258.426  57
  -3  -1   6 7987.87 277.308  21
  -3  -1   6 8426.37 255.302  82
  -3  -1   6 8076.75 262.370  50
  -3  -1   6 7911.93 253.237  78
  -3  -1   6 9090.62 258.777  11
   3   1  -6 9182.45 482.288  34
  -3  -1   6 8084.28 245.573  48
   3   1  -5 32505.6 806.830  64
   3   1  -5 34241.9 869.610  66
  -3  -1   5 30954.8 768.535   4
  -3  -1   5 30118.9 796.627  68
  -3  -1   5 31977.6 797.513  40
   3   1  -5 35658.8 777.464  38
   3   1  -5 34796.6 863.209  34
  -3  -1   5 36536.9 728.589   2
   3   1  -4 3126.04 235.609  66
  -3  -1   4 3225.94 220.455   4
   3   1  -4 3469.85 244.837  64
  -3  -1   4 3199.88 231.250  40
  -3  -1   4 3354.72 198.986   3
   3   1  -4 3600.33 221.407  38
  -3  -1   4 3229.86 231.513  68
   3   1  -4 3200.03 243.467  34
  -3  -1   4 3505.01 199.992   2
   3   1  -3 662.075 86.5771  90
  -3  -1   3 631.890 91.6169  68
   3   1  -3 820.422 115.101  66
   3   1  -3 709.679 103.977  64
  -3  -1   3 671.867 89.9154   4
  -3  -1   3 612.175 94.3759  40
  -3  -1   3 679.736 88.4205  96
  -3  -1   3 783.142 94.1217   3
   3   1  -3 727.644 88.5236  94
  -3  -1   3 763.288 91.5773  93
   3   1  -3 718.006 87.4492  38
  -3  -1   3 735.869 90.2712  91
   3   1  -3 750.030 111.412  34
   3   1  -3 724.783 89.5450  95
  -3  -1   2 735.393 87.9222  68
  -3  -1   2 739.323 91.2727  93
   3   1  -2 791.307 92.2370  95
  -3  -1   2 809.095 101.798  40
  -3  -1   2 656.724 84.4944  91
   3   1  -2 692.939 87.2533  92
  -3  -1   2 807.376 86.3169   1
  -3  -1   2 711.317 80.2950   4
   3   1  -2 775.657 105.005  64
   3   1  -2 665.445 78.6075  38
   3   1  -2 754.221 90.9271  90
  -3  -1   2 809.671 94.3046  96
   3   1  -2 774.784 90.2634  94
   3   1  -2 827.212 99.7222  66
  -3  -1   2 808.055 67.5629  63
  -3  -1   2 1195.21 118.100  35
   3   1  -2 819.758 105.367  34
  -3  -1   1 18347.3 288.266  65
   3   1  -1 17008.7 261.548  36
  -3  -1   1 18478.4 434.657  91
   3   1  -1 18381.0 430.238  94
   3   1  -1 18195.6 440.242  64
   3   1  -1 19241.9 425.191  66
   3   1  -1 18296.4 421.911  62
  -3  -1   1 17443.4 357.706  63
  -3  -1   1 18799.5 362.808  68
  -3  -1   1 18212.0 444.794  40
  -3  -1   1 18522.4 434.033  96
   3   1  -1 18434.8 432.061  95
  -3  -1   1 18458.0 434.130  93
   3   1  -1 18397.9 430.179  92
   3   1  -1 18442.4 369.404  38
   3   1  -1 18366.1 432.212  90
  -3  -1   1 17915.5 392.968   1
  -3  -1   1 18038.6 429.791  35
   3   1  -1 19079.0 452.277  34
   3   1   0 1511.71 112.645  62
  -3  -1   0 1393.85 119.994  40
   3   1   0 1496.01 113.016  66
  -3  -1   0 1565.64 116.536  63
   3   1   0 1511.39 121.038  64
  -3  -1   0 1414.85 121.564  96
  -3  -1   0 1484.31 113.106   1
   3   1   0 1571.79 98.3409  39
   3   1   0 1435.91 122.087  95
   3   1   0 1599.88 127.400  94
   3   1   0 1540.97 124.279  93
   3   1   0 1584.55 127.364  92
  -3  -1   0 1549.53 127.936  91
   3   1   0 1510.59 127.598  90
   3   1   0 1419.05 95.7378  36
  -3  -1   0 1456.51 117.953  35
  -3  -1   0 1354.65 97.1657  65
   3   1   0 1543.71 107.327  38
   3   1   0 1523.92 125.629  34
   3   1   1 2809.79 156.850  36
  -3  -1  -1 2755.66 166.059  63
   3   1   1 2867.60 156.867  66
   3   1   1 2919.91 145.743  62
  -3  -1  -1 2858.47 174.099  96
   3   1   1 2997.93 177.317  95
   3   1   1 2816.43 119.329  39
   3   1   1 3047.18 178.030  94
   3   1   1 2805.91 171.189  92
  -3  -1  -1 2775.31 155.386   1
  -3  -1  -1 3004.97 179.186  91
   3   1   1 3040.05 176.920  90
  -3  -1  -1 2766.07 159.496  65
   3   1   1 2656.68 153.475  64
  -3  -1  -1 2898.87 160.882  35
   3   1   1 2789.47 170.218  93
   3   1   1 2862.42 172.732  34
   3   1   2 1129.73 93.9820   2
   3   1   2 1327.55 73.4278   5
   3   1   2 1183.46 116.344  92
   3   1   2 1235.61 104.001  64
  -3  -1  -2 1142.44 118.258  63
   3   1   2 1149.86 90.8003  62
   3   1   2 1196.55 74.6289  39
   3   1   2 1267.61 110.529  66
  -3  -1  -2 1310.57 118.538  96
  -3  -1  -2 1047.64 110.599  65
   3   1   2 1262.01 119.671  95
  -3  -1  -2 1260.99 104.160   3
   3   1   2 1111.17 112.918  94
   3   1   2 1133.53 114.028  93
   3   1   2 1220.74 116.401  90
   3   1   2 1116.74 113.046  36
  -3  -1  -2 1156.04 102.553  35
  -3  -1  -2 1385.89 123.127  91
  -3  -1  -2 1361.13 110.135   1
   3   1   2 1157.62 120.165  34
  -3  -1  -3 18826.4 383.019   3
   3   1   3 17266.1 449.124  93
   3   1   3 17254.8 452.360  90
  -3  -1  -3 18596.2 508.443  65
   3   1   3 17749.0 456.480  95
   3   1   3 17630.5 423.535   2
  -3  -1  -3 18451.7 497.169  63
   3   1   3 17956.8 367.982  62
   3   1   3 18406.1 457.330  66
   3   1   3 19209.6 416.593  64
  -3  -1  -3 17629.6 455.195  96
   3   1   3 17560.7 452.696  94
   3   1   3 17644.0 454.913  92
  -3  -1  -3 17671.5 456.567  91
  -3  -1  -3 18467.7 505.771  37
   3   1   3 18722.8 511.257  36
  -3  -1  -3 18358.1 400.416  35
   3   1   4 33235.3 647.980  93
  -3  -1  -4 35653.5 781.449  65
  -3  -1  -4 34466.0 739.080  63
   3   1   4 33804.2 673.029   2
   3   1   4 33474.1 648.100  95
  -3  -1  -4 33357.7 650.523  96
   3   1   4 34709.7 654.587  94
   3   1   4 33068.3 643.655  92
  -3  -1  -4 35369.5 786.155  37
   3   1   4 34485.6 659.071  90
  -3  -1  -4 33546.3 652.685  91
   3   1   4 34619.7 778.297  36
  -3  -1  -5 3488.32 251.158  63
   3   1   5 3049.48 229.476   2
  -3  -1  -5 3107.09 259.852  37
  -3  -1  -5 3422.56 264.458  65
   3   1   6 14944.2 338.438  47
   3   1   6 16485.7 392.296  31
   3   1   6 14874.3 352.989  42
   3   1   6 15010.6 344.173  46
   3   1   6 15728.8 349.497  13
  -3  -1  -6 16338.5 621.242  65
   3   1   6 15872.9 579.213   2
   3   1   6 15581.7 372.194  59
   3   1   6 15402.2 364.856  24
  -3  -1  -6 15853.1 630.079  37
   3   1   6 15052.0 330.839  54
   3   1   6 15997.9 369.633  85
   3   1   6 14790.0 350.021  81
   3   1   7 21983.4 410.798  47
   3   1   7 21634.1 468.924  31
   3   1   7 20521.3 410.839  46
   3   1   7 21373.9 437.870  85
   3   1   7 21702.8 426.714  13
   3   1   7 21503.6 451.470  59
   3   1   7 20400.2 442.572  24
   3   1   7 21202.0 438.203  42
   3   1   7 21545.5 412.458  54
   3   1   7 20751.3 430.112  81
   3   1   8 8418.08 246.324  46
   3   1   8 8322.48 277.288  24
   3   1   8 8236.61 259.633  13
   3   1   8 7929.69 260.989  42
   3   1   8 8018.11 258.635  85
   3   1   8 8251.85 250.885  54
   3   1   9 2001.79 111.816  15
   3   1   9 2222.86 128.084  24
   3   1   9 2123.81 119.465  13
   3   1   9 2139.82 113.157  54
   3   1  10 1287.03 65.1346  54
   3   1  10 1311.42 70.5379  13
   3   2  -9 72.5220 19.4230  75
  -3  -2   9 25.7614 18.6419  31
  -3  -2   9 20.8188 16.2024  59
  -3  -2   8 19067.0 395.586  31
  -3  -2   8 19520.2 382.156  59
  -3  -2   8 20137.1 363.855  48
  -3  -2   7 9633.90 298.545  59
  -3  -2   7 10672.0 284.279  57
  -3  -2   7 9492.14 301.943  21
  -3  -2   7 9763.26 282.743  89
  -3  -2   7 10373.4 314.166  88
  -3  -2   7 9585.96 292.572  52
  -3  -2   7 9827.74 270.338   7
  -3  -2   7 10069.6 289.162  48
  -3  -2   6 22852.3 438.239   7
  -3  -2   6 22290.9 472.299  21
   3   2  -6 22778.3 764.363  64
  -3  -2   6 21424.5 745.274  40
  -3  -2   6 22661.0 462.675  59
  -3  -2   6 22189.3 446.994  52
  -3  -2   6 23594.9 423.028  57
   3   2  -6 24507.5 770.318  38
  -3  -2   6 22670.5 439.994  89
  -3  -2   6 22676.9 413.533  86
   3   2  -6 26501.0 853.769  66
  -3  -2   6 21423.7 436.101  78
   3   2  -6 27161.4 871.988  34
  -3  -2   6 22614.9 437.817  48
  -3  -2   5 184.178 66.4143  40
  -3  -2   5 218.470 46.6206   7
  -3  -2   5 189.023 41.7680  59
  -3  -2   5 224.396 72.4203  68
  -3  -2   5 234.155 45.7034  57
  -3  -2   5 234.852 76.8706   4
  -3  -2   5 193.457 45.9467  52
   3   2  -5-83.2477 41.3296  38
  -3  -2   5 200.899 41.5985  89
  -3  -2   5 174.073 47.3324  21
  -3  -2   5 233.958 47.1864  86
  -3  -2   5 205.817 45.1393  50
  -3  -2   5 156.516 44.5894   8
  -3  -2   5 207.652 49.8400  78
   3   2  -5 216.182 93.3230  34
  -3  -2   4 78173.8 1045.34  96
  -3  -2   4 76448.2 1239.62  68
  -3  -2   4 76280.3 1245.55  40
  -3  -2   4 77798.0 1049.17  93
   3   2  -4 84081.5 1215.93  38
  -3  -2   4 79329.3 1058.10  92
  -3  -2   4 80339.0 1062.29  91
   3   2  -4 85546.9 1329.24  34
  -3  -2   4 74971.2 1179.59   4
  -3  -2   3 17616.9 485.174  93
  -3  -2   3 16911.7 517.776  68
  -3  -2   3 17424.2 539.892  40
  -3  -2   3 17056.5 478.153  92
  -3  -2   3 17714.8 503.229   4
  -3  -2   3 17804.6 482.844  96
   3   2  -3 17676.6 491.361  95
   3   2  -3 17991.1 494.743  94
   3   2  -3 18204.5 513.871  38
  -3  -2   3 17152.3 476.098  91
   3   2  -3 17305.4 490.099  90
   3   2  -3 18674.5 537.943  66
  -3  -2   3 17999.8 416.193   1
   3   2  -3 16442.6 534.025  34
  -3  -2   2 225.291 36.7811  63
   3   2  -2 338.893 64.7485  38
  -3  -2   2 262.413 56.2287  68
  -3  -2   2 235.946 63.2741  40
   3   2  -2 251.886 61.9770  66
   3   2  -2 227.055 58.5321  95
   3   2  -2 225.641 53.1969  94
  -3  -2   2 262.163 56.2496  96
  -3  -2   2 234.095 58.7358  93
  -3  -2   2 237.099 52.9104  92
  -3  -2   2 175.517 45.6594  91
   3   2  -2 162.809 48.7700  90
  -3  -2   2 173.630 46.2766  35
  -3  -2   2 206.308 46.6289   1
   3   2  -2 245.917 64.0846  34
  -3  -2   1 62013.7 562.404  65
   3   2  -1 66735.8 783.815  66
   3   2  -1 63463.9 860.068  94
  -3  -2   1 62119.9 720.995  63
  -3  -2   1 62561.8 871.491  40
  -3  -2   1 64845.2 864.151  96
   3   2  -1 62570.4 857.865  95
   3   2  -1 62640.6 854.090  92
  -3  -2   1 64182.4 863.686  91
   3   2  -1 62983.1 860.717  90
  -3  -2   1 64421.8 868.300  93
   3   2  -1 61700.8 640.474  36
  -3  -2   1 64522.8 851.827  35
  -3  -2   1 62731.8 774.150   1
   3   2  -1 65242.5 884.234  34
   3   2   0 91762.5 963.632  64
   3   2   0 91993.7 831.331  66
  -3  -2   0 90422.4 819.627  65
  -3  -2   0 93110.7 927.992  63
   3   2   0 93084.6 1019.77  92
  -3  -2   0 93780.6 999.566  40
   3   2   0 93347.8 1020.95  95
   3   2   0 91655.8 1012.42  94
  -3  -2   0 93999.9 1022.53  93
   3   2   0 93618.2 953.404  38
  -3  -2   0 93256.9 1017.08  91
   3   2   0 92546.5 1019.66  90
  -3  -2   0 93434.2 936.935   1
   3   2   0 92953.1 847.909  36
  -3  -2   0 93538.4 1009.34  35
  -3  -2   0 94508.2 1017.42  96
   3   2   0 96246.3 1015.70  34
   3   2   1 422.825 65.2541  38
  -3  -2  -1 370.413 63.9720  96
   3   2   1 393.212 59.1380  64
  -3  -2  -1 372.136 62.4801  65
   3   2   1 419.836 53.5654  66
  -3  -2  -1 409.261 68.4525  63
   3   2   1 422.003 52.3120  62
  -3  -2  -1 398.346 65.3624  40
   3   2   1 405.601 68.9309  95
   3   2   1 433.100 74.1605  94
  -3  -2  -1 347.198 63.0283  93
   3   2   1 489.560 77.1062  92
  -3  -2  -1 369.476 62.5734  91
   3   2   1 332.411 63.0018  90
  -3  -2  -1 401.310 64.6502   1
   3   2   1 388.131 62.2138  36
  -3  -2  -1 316.992 61.2815  35
   3   2   1 421.519 70.6024  34
   3   2   2 541.567 53.6383   2
  -3  -2  -2 519.790 78.0223  65
   3   2   2 571.988 66.8559  64
  -3  -2  -2 537.985 83.1094  63
  -3  -2  -2 698.735 89.2122  91
   3   2   2 582.159 51.1599  62
   3   2   2 738.315 92.2217  94
   3   2   2 758.886 93.6624  92
   3   2   2 716.570 90.4083  90
   3   2   2 506.523 78.6452  36
  -3  -2  -2 866.608 97.7962  96
  -3  -2  -2 655.524 86.5570  35
   3   2   2 748.648 95.7929  95
  -3  -2  -2 606.348 76.3804   1
   3   2   2 561.184 62.7359  66
   3   2   2 665.696 90.1538  34
  -3  -2  -3 1122.68 128.312  65
   3   2   3 1115.89 97.7093  66
   3   2   3 1272.99 102.579   5
  -3  -2  -3 1448.73 127.035  96
  -3  -2  -3 1169.67 126.952  63
  -3  -2  -3 1247.42 111.721   1
   3   2   3 1571.37 134.565  90
   3   2   3 1488.87 132.189  95
   3   2   3 1339.85 125.850  94
   3   2   3 1269.69 121.231  92
  -3  -2  -3 1224.23 117.427  91
   3   2   3 1242.96 92.3911  64
   3   2   3 1265.07 134.718  36
   3   2   3 1264.12 99.4622   2
  -3  -2  -3 1084.83 113.901  35
   3   2   4 28755.0 516.545   5
  -3  -2  -4 28080.3 660.406  63
  -3  -2  -4 28595.3 688.615  65
   3   2   4 28785.6 558.111   2
   3   2   4 27817.4 563.256  95
   3   2   4 27660.9 558.801  94
   3   2   4 27429.0 561.352  92
  -3  -2  -4 27764.5 560.450  91
  -3  -2  -4 27214.9 552.750  96
  -3  -2  -4 29082.4 524.966   1
   3   2   4 28226.2 687.345  36
   3   2   4 27728.4 562.361  90
  -3  -2  -4 29427.3 589.319  35
  -3  -2  -5 10377.0 428.320  63
  -3  -2  -5 10204.6 447.679  65
   3   2   5 10203.2 386.162   2
  -3  -2  -5 10163.8 455.873  37
   3   2   5 9957.56 449.027  36
   3   2   6 34667.3 509.277  47
   3   2   6 37681.7 586.132  31
   3   2   6 36378.9 528.518  46
   3   2   6 36340.1 526.406  13
   3   2   6 33543.2 484.522  28
   3   2   6 35611.7 531.059  42
  -3  -2  -6 36980.1 843.603  63
   3   2   6 37006.7 563.472  59
   3   2   6 36609.8 820.615   2
   3   2   6 35780.9 539.665  24
  -3  -2  -6 35127.3 922.523  37
   3   2   6 34395.2 486.057  54
   3   2   6 36333.3 540.843  85
  -3  -2  -6 36645.7 915.670  65
   3   2   6 34739.0 498.163  51
   3   2   7 356.879 120.056   2
   3   2   7 104.849 36.6799  47
   3   2   7 44.7759 27.8622  31
   3   2   7 59.0321 30.3309  42
   3   2   7 26.0034 21.5125  46
   3   2   7 54.4480 31.2585  13
  -3  -2  -7 478.804 130.219  65
   3   2   7 36.6792 31.5200  24
   3   2   7 79.1167 36.5882  59
   3   2   7 73.8438 33.0593  54
  -3  -2  -7-271.858 92.2050  37
   3   2   7 70.7469 36.0128  85
   3   2   7 45.1408 27.0262  51
   3   2   8 356.026 59.9637  24
   3   2   8 435.451 61.4114  46
   3   2   8 341.685 58.7945  13
   3   2   8 413.050 69.1285  59
   3   2   8 411.175 59.1528  54
   3   2   8 448.569 65.3122  85
   3   2   9 9616.48 264.742  15
   3   2   9 9522.71 268.571  13
   3   2   9 9892.11 255.327  54
   3   2   9 9549.63 276.652  24
   3   2  10 136.501 28.2636  15
   3   2  10 147.656 32.3133  13
   3   2  10 137.818 28.0825  54
  -3  -3   9 1149.99 59.1966  22
   3   3  -8 7282.40 174.983  73
  -3  -3   8 7413.35 202.619  31
  -3  -3   8 7646.38 195.681  59
  -3  -3   8 8037.94 213.656  88
  -3  -3   8 7884.57 205.536  48
  -3  -3   7 5104.67 196.555  59
  -3  -3   7 4978.39 198.924  89
  -3  -3   7 5125.71 212.919  88
   3   3  -7 4801.35 167.544  79
  -3  -3   7 4961.04 183.922   7
  -3  -3   7 5259.98 202.699  48
  -3  -3   6 3314.56 166.251  86
   3   3  -6 3419.34 157.206  60
  -3  -3   6 3253.53 169.911  59
  -3  -3   6 3663.36 160.099  57
  -3  -3   6 3180.78 178.674  21
  -3  -3   6 3438.81 178.718  89
  -3  -3   6 3623.86 195.690  88
  -3  -3   6 3271.59 171.045  52
  -3  -3   6 3267.05 172.020  48
  -3  -3   6 3338.33 171.435   7
  -3  -3   5 464.097 68.7702   7
  -3  -3   5 466.989 70.7410  59
  -3  -3   5 361.129 104.304   4
  -3  -3   5 393.516 102.503  40
   3   3  -5 716.687 141.337  38
  -3  -3   5 468.291 71.3826  21
  -3  -3   5 416.415 65.4715  89
  -3  -3   5 495.778 68.4904  86
  -3  -3   5 472.182 68.0035  52
  -3  -3   5 515.718 119.385  68
  -3  -3   5 589.140 75.9838  78
   3   3  -5 98.6996 56.3607  34
  -3  -3   5 426.345 69.4506  48
  -3  -3   4 2521.29 143.122  48
  -3  -3   4 2311.19 205.454  93
  -3  -3   4 2375.36 136.760  86
  -3  -3   4 2396.61 211.014  95
  -3  -3   4 2499.89 234.798   4
  -3  -3   4 2280.84 237.892  40
  -3  -3   4 2584.28 213.484  96
  -3  -3   4 2570.83 146.400  59
   3   3  -4 2604.95 242.530  38
  -3  -3   4 2197.04 201.900  92
  -3  -3   4 2212.99 200.311  91
  -3  -3   4 2739.17 153.661  21
  -3  -3   4 2390.33 140.111  89
  -3  -3   4 2259.27 138.242   8
  -3  -3   4 2586.73 143.193  52
  -3  -3   4 2315.53 233.430  68
  -3  -3   4 2426.38 135.299  50
  -3  -3   4 2448.29 141.298  78
   3   3  -4 2168.06 227.082  34
   3   3  -3 25201.0 662.372  94
  -3  -3   3 25081.7 705.552  68
  -3  -3   3 24422.9 706.726  40
  -3  -3   3 25145.4 674.500   4
  -3  -3   3 24694.6 646.611  96
  -3  -3   3 24468.8 651.991  93
   3   3  -3 26486.0 705.012  38
  -3  -3   3 24847.2 652.320  92
  -3  -3   3 25660.2 662.327  91
   3   3  -3 24388.0 653.023  90
  -3  -3   3 27160.3 622.366  35
   3   3  -3 27249.8 743.156  34
  -3  -3   2 11099.0 417.116  92
  -3  -3   2 10909.2 424.680  68
   3   3  -2 11103.3 419.174  94
  -3  -3   2 11018.0 436.919  40
  -3  -3   2 11577.7 398.864  35
   3   3  -2 11595.7 430.504  95
  -3  -3   2 10639.4 410.716  93
   3   3  -2 12096.4 439.681  38
   3   3  -2 11213.3 425.506  90
  -3  -3   2 11501.1 422.702  91
  -3  -3   2 11950.6 374.611   1
   3   3  -2 12448.8 402.914  66
   3   3  -2 11705.1 445.546  34
  -3  -3   2 10983.3 412.177  96
   3   3  -1 15018.0 380.422  66
  -3  -3   1 14088.5 452.604  91
  -3  -3   1 13878.1 447.571  96
  -3  -3   1 13834.4 446.199  40
   3   3  -1 14222.1 455.416  95
  -3  -3   1 13663.1 445.838  92
   3   3  -1 14317.2 456.439  94
  -3  -3   1 14268.1 453.887  93
   3   3  -1 14504.2 448.765  38
  -3  -3   1 14365.9 407.060   1
   3   3  -1 14551.7 460.433  90
   3   3  -1 14928.9 386.832  36
  -3  -3   1 14532.2 436.205  35
   3   3  -1 14550.9 451.035  34
   3   3   0 67724.1 935.784  38
  -3  -3   0 68212.4 878.846   1
   3   3   0 65877.5 951.299  95
  -3  -3   0 67227.0 902.513  40
  -3  -3   0 65692.5 936.661  96
   3   3   0 66764.3 953.976  94
  -3  -3   0 66753.5 946.828  93
   3   3   0 65325.0 953.499  90
   3   3   0 68144.9 852.885  36
   3   3   0 70788.2 688.182  66
  -3  -3   0 65062.0 937.828  91
  -3  -3   0 69318.3 944.835  35
   3   3   0 67475.4 906.193  34
  -3  -3  -1 14705.7 409.206   1
   3   3   1 14690.3 375.508  64
   3   3   1 15370.4 302.190  67
  -3  -3  -1 14291.4 422.279  96
   3   3   1 14598.2 433.882  95
   3   3   1 14249.5 425.977  94
  -3  -3  -1 14005.6 419.783  93
   3   3   1 14711.1 434.680  92
   3   3   1 14792.1 433.701  38
  -3  -3  -1 14772.4 393.262  40
  -3  -3  -1 14556.6 426.647  91
   3   3   1 14455.4 432.650  90
   3   3   1 14867.8 415.858  36
  -3  -3  -1 15002.1 443.067  35
   3   3   1 14791.2 404.390  34
   3   3   2 872.503 74.6264  67
   3   3   2 783.132 98.5311  94
  -3  -3  -2 758.572 96.0734  96
  -3  -3  -2 671.202 91.7813  91
  -3  -3  -2 858.149 109.724  63
  -3  -3  -2 951.766 104.623   1
   3   3   2 741.753 76.3579  64
  -3  -3  -2 721.767 82.5432  40
   3   3   2 859.312 105.059  95
  -3  -3  -2 821.803 101.928  93
   3   3   2 874.429 103.714  92
   3   3   2 823.247 102.024  90
   3   3   2 705.556 101.894  36
  -3  -3  -2 936.808 117.230  35
   3   3   2 767.844 93.7115  34
  -3  -3  -3 17614.8 454.770  96
  -3  -3  -3 18325.7 518.724  63
  -3  -3  -3 19348.7 405.496  40
  -3  -3  -3 17890.8 451.973   1
   3   3   3 17141.2 458.010  95
   3   3   3 17251.2 456.293  94
  -3  -3  -3 17651.3 458.992  93
   3   3   3 17550.2 462.205  92
  -3  -3  -3 17677.8 457.867  91
   3   3   3 17252.8 459.341  90
   3   3   3 18510.3 524.358  36
  -3  -3  -3 17828.3 504.861  35
   3   3   3 18023.8 463.007  34
   3   3   4 69653.5 924.975   5
  -3  -3  -4 72972.9 1131.12  65
  -3  -3  -4 71511.4 1080.38  63
  -3  -3  -4 70919.6 897.618  96
   3   3   4 69104.2 904.450  95
   3   3   4 69121.6 896.910  94
   3   3   4 72752.3 806.753   2
  -3  -3  -4 70550.3 904.490  93
   3   3   4 68147.4 904.535  92
  -3  -3  -4 70396.1 897.178  91
   3   3   4 69804.0 907.706  90
   3   3   4 73217.1 1142.33  36
  -3  -3  -4 75146.4 927.666   1
  -3  -3  -4 72545.6 1046.31  35
  -3  -3  -5 3884.18 282.603  65
   3   3   5 3553.40 220.772   5
  -3  -3  -5 3744.32 261.372  63
   3   3   5 3697.61 215.129   2
   3   3   5 3343.08 262.223  36
  -3  -3  -5 4067.58 257.024  35
   3   3   6 13114.0 315.365  47
   3   3   6 13595.5 324.813  46
   3   3   6 13079.3 313.989  28
  -3  -3  -6 14029.2 573.217  65
  -3  -3  -6 13644.9 520.293  63
   3   3   6 14114.6 343.774  59
   3   3   6 13697.1 324.686  24
   3   3   6 12624.6 317.030  85
   3   3   6 13792.3 474.390   2
  -3  -3  -6 12966.5 558.365  37
   3   3   6 13538.9 304.023  54
   3   3   6 14112.4 334.187  13
   3   3   6 13073.7 304.675  53
   3   3   6 13915.1 573.951  36
   3   3   6 13517.5 323.774  51
   3   3   7 12322.0 322.358  46
   3   3   7 12065.3 315.946  51
   3   3   7 12741.2 316.464  28
   3   3   7 13093.5 348.504  59
  -3  -3  -7 13414.4 599.811  37
   3   3   7 13020.8 506.052   2
   3   3   7 12416.4 307.525  54
   3   3   7 12292.7 329.345  24
   3   3   7 11771.2 314.946  85
  -3  -3  -7 13735.1 593.990  65
   3   3   7 12683.4 333.633  13
   3   3   8 19921.2 412.188  46
   3   3   8 20923.7 384.396  28
   3   3   8 19160.1 413.637  15
   3   3   8 19969.4 423.259  13
   3   3   8 19314.2 385.884  26
   3   3   8 20589.6 431.869  24
   3   3   8 20307.0 401.909  54
   3   3   8 20321.4 394.331  51
   3   3   9 117.073 31.4746  26
   3   3   9 195.550 40.9339  54
   3   3   9 141.627 38.7783  13
   3   3   9 112.645 33.4664  51
   3   3   9 82.2636 31.0715  15
   3   3  10 83.9212 28.1521  15
   3   3  10 74.4599 26.8703  12
   3   3  10 67.8129 24.2108  54
   3   3  11 1287.91 57.1756  12
   3   4  -8 15.0948 9.25588  75
  -3  -4   8 35.0279 16.6137  22
   3   4  -8 49.4238 19.3980  55
  -3  -4   8 43.7135 15.0335  88
  -3  -4   7 218.239 42.2916  48
   3   4  -7 177.424 36.5320  75
   3   4  -7 209.591 37.5785  73
  -3  -4   7 203.519 34.5545  31
  -3  -4   7 171.412 29.7897  59
   3   4  -7 191.598 31.2871  61
  -3  -4   7 245.144 44.2265  88
   3   4  -7 159.914 29.3624  79
   3   4  -6 21414.7 390.977  73
  -3  -4   6 21863.6 459.890  88
   3   4  -6 22134.1 365.380  60
  -3  -4   6 22809.9 390.287  59
  -3  -4   6 21937.7 431.906  89
  -3  -4   6 21780.5 409.868  86
  -3  -4   6 21305.4 401.860  52
   3   4  -6 22393.6 386.899  79
  -3  -4   6 21686.8 417.010   7
  -3  -4   6 21938.1 421.208  48
  -3  -4   5 462.151 68.1402   7
  -3  -4   5 574.656 69.3381  74
  -3  -4   5 568.456 71.2876  59
  -3  -4   5 478.576 72.3325  21
  -3  -4   5 428.429 69.9505  89
  -3  -4   5 569.690 75.9665  86
  -3  -4   5 552.424 72.5161  52
   3   4  -5 518.801 67.3370  60
  -3  -4   5 535.868 66.8998  49
  -3  -4   5 469.210 70.5227  48
  -3  -4   4 703.631 82.9544  48
  -3  -4   4 695.340 84.5956   7
  -3  -4   4 689.675 75.7741  74
  -3  -4   4 561.189 77.2668  21
  -3  -4   4 686.458 73.2058 101
   3   4  -4 856.887 83.7158  60
  -3  -4   4 843.971 155.080  40
  -3  -4   4 727.044 78.8065  59
   3   4  -4 734.881 74.5390  58
  -3  -4   4 432.107 106.737  68
   3   4  -4 959.017 159.087  38
  -3  -4   4 675.435 84.9010  89
  -3  -4   4 733.568 74.4076 107
  -3  -4   4 660.005 72.9157 102
  -3  -4   4 769.283 138.288   4
  -3  -4   4 744.800 82.3386  86
  -3  -4   4 698.085 79.3064  52
  -3  -4   4 614.941 78.0776  78
  -3  -4   4 727.465 78.9999  49
   3   4  -4 706.008 135.994  34
  -3  -4   3 10156.3 288.368  48
   3   4  -3 9822.16 277.441 103
  -3  -4   3 10264.1 272.346  74
  -3  -4   3 10649.8 307.271   7
  -3  -4   3 9734.71 264.960  16
  -3  -4   3 9967.92 276.637  59
  -3  -4   3 9413.53 479.409  68
  -3  -4   3 9763.16 270.611 104
  -3  -4   3 9746.73 278.821 102
   3   4  -3 10119.9 276.497 100
   3   4  -3 10153.4 276.543  98
  -3  -4   3 9803.71 276.251 107
  -3  -4   3 9234.35 476.318  40
   3   4  -3 9732.84 269.806  97
   3   4  -3 10083.5 263.894  58
   3   4  -3 10393.0 279.585  60
  -3  -4   3 9073.02 448.541   4
  -3  -4   3 9306.90 448.704  96
  -3  -4   3 9463.64 453.196  95
   3   4  -3 9824.29 465.138  94
  -3  -4   3 9464.38 452.717  93
   3   4  -3 10585.5 495.230  38
  -3  -4   3 9696.68 457.637  92
  -3  -4   3 9364.69 452.304  91
   3   4  -3 9317.39 452.320  90
  -3  -4   3 10098.9 284.226  21
  -3  -4   3 10241.0 299.495  89
  -3  -4   3 10113.9 288.306  86
  -3  -4   3 9875.26 270.317  52
   3   4  -3 10059.4 273.962  99
  -3  -4   3 9899.90 278.329  78
   3   4  -3 10665.4 502.951  34
  -3  -4   3 10001.5 273.179  49
  -3  -4   2 11165.2 485.194  40
  -3  -4   2 11779.7 484.703  96
   3   4  -2 11433.8 484.149  94
  -3  -4   2 11763.0 487.729  93
  -3  -4   2 13497.4 440.394   1
   3   4  -2 13629.6 529.797  38
  -3  -4   2 12053.3 494.010  92
  -3  -4   2 11644.2 484.382  91
   3   4  -2 12081.8 500.631  90
  -3  -4   2 13153.2 525.805  68
  -3  -4   2 13420.2 451.068  35
   3   4  -2 14164.1 530.173  34
  -3  -4   1 781.588 123.113  92
  -3  -4   1 689.841 115.488  96
  -3  -4   1 812.969 111.405   1
  -3  -4   1 710.587 114.146  40
   3   4  -1 860.677 131.511  95
  -3  -4   1 794.067 123.567  93
   3   4  -1 895.857 128.296  38
  -3  -4   1 653.973 106.668  91
   3   4  -1 712.413 119.114  90
   3   4  -1 743.331 117.384  94
   3   4  -1 729.017 109.174  36
  -3  -4   1 715.443 105.548  35
   3   4  -1 806.754 115.984  34
  -3  -4   0 15991.6 481.619   1
  -3  -4   0 15510.5 474.992  40
  -3  -4   0 15268.1 506.551  96
   3   4   0 15108.1 511.447  95
  -3  -4   0 14998.4 504.669  93
  -3  -4   0 14797.3 500.595  92
   3   4   0 12864.0 468.693  38
  -3  -4   0 15429.2 511.176  91
   3   4   0 15240.5 516.104  90
   3   4   0 15103.8 509.676  94
   3   4   0 16240.8 488.590  36
  -3  -4   0 15793.8 498.369  35
   3   4   0 17272.4 494.158  34
  -3  -4  -1 7875.06 336.907   1
  -3  -4  -1 8125.85 314.393  40
   3   4   1 8276.85 285.831  67
  -3  -4  -1 7322.42 338.112  96
   3   4   1 7473.00 347.290  95
   3   4   1 7763.22 351.701  94
  -3  -4  -1 7260.38 338.951  93
  -3  -4  -1 7319.17 340.478  92
   3   4   1 7817.26 355.536  38
  -3  -4  -1 7951.54 352.987  91
   3   4   1 7234.66 342.007  90
   3   4   1 8268.51 351.930  36
  -3  -4  -1 7750.51 352.525  35
   3   4   1 8484.83 320.840  34
  -3  -4  -2 1489.28 149.936   1
  -3  -4  -2 1373.98 119.468  40
  -3  -4  -2 1407.17 142.589  96
   3   4   2 1306.44 141.022  95
   3   4   2 1167.12 135.077  94
  -3  -4  -2 1469.14 148.423  93
  -3  -4  -2 1473.95 149.018  92
   3   4   2 1354.22 154.064  38
  -3  -4  -2 1230.41 134.343  91
   3   4   2 1289.53 141.780  90
   3   4   2 1441.23 157.409  36
   3   4   2 1519.43 124.319  67
  -3  -4  -2 1402.86 155.135  35
   3   4   2 1436.43 116.007  64
   3   4   2 1154.46 116.255  34
  -3  -4  -3 20691.0 606.155  35
  -3  -4  -3 19489.7 525.209   1
  -3  -4  -3 18925.8 512.808  91
   3   4   3 19947.9 449.353  67
  -3  -4  -3 19172.1 513.309  96
   3   4   3 18964.4 522.568  95
   3   4   3 18597.8 516.052  94
  -3  -4  -3 19055.3 518.380  93
  -3  -4  -3 18985.2 514.804  92
   3   4   3 18836.9 521.995  90
   3   4   3 18791.2 576.151  36
   3   4   3 19152.6 460.081  34
  -3  -4  -4 64455.1 1089.28  35
  -3  -4  -4 65820.0 969.823   1
  -3  -4  -4 63966.7 1086.50  63
  -3  -4  -4 61368.5 895.112  96
   3   4   4 60555.0 903.524  95
  -3  -4  -4 61859.1 898.694  93
  -3  -4  -4 60560.3 885.613  92
  -3  -4  -4 61241.1 891.633  91
   3   4   4 61092.8 909.624  90
   3   4   4 63967.5 1118.50  36
   3   4   4 61742.2 904.451  94
  -3  -4  -5 7075.50 397.137  65
   3   4   5 6150.21 324.209   5
  -3  -4  -5 6398.79 359.128  63
  -3  -4  -5 6947.35 312.098   1
   3   4   5 6909.93 389.620  36
  -3  -4  -5 6580.64 361.691  35
   3   4   6 24896.1 449.230  46
  -3  -4  -6 25840.6 797.401  65
   3   4   6 23955.2 436.298  15
   3   4   6 25866.9 464.099  13
   3   4   6 26108.1 454.205  28
   3   4   6 24333.2 679.360   5
  -3  -4  -6 24898.7 732.883  63
   3   4   6 26577.6 432.289  54
   3   4   6 25699.4 443.329  53
   3   4   6 24681.7 420.579  84
   3   4   6 26029.4 805.224  36
  -3  -4  -6 26756.8 742.643  35
   3   4   6 25211.5 453.071  51
   3   4   7 621.841 77.2529  46
   3   4   7 559.446 73.3527  15
   3   4   7 653.713 76.3444  28
  -3  -4  -7 951.309 173.019  65
   3   4   7 637.631 81.7793  13
   3   4   7 657.429 74.0198  54
  -3  -4  -7 448.025 109.274  37
   3   4   7 587.553 69.1716  53
   3   4   7 977.770 166.927  36
   3   4   7 723.690 84.0903  51
   3   4   8 1389.46 113.559  15
   3   4   8 1454.34 109.673  28
   3   4   8 1335.63 113.680  13
   3   4   8 1357.41 108.776  26
   3   4   8 1557.18 107.416  25
   3   4   8 1499.01 109.080  54
   3   4   8 1425.52 111.470  51
   3   4   9 247.214 46.2823  26
   3   4   9 228.624 47.6707  15
   3   4   9 187.099 40.8869  54
   3   4   9 264.202 46.0838  51
   3   4  10 1379.38 91.1754  15
   3   4  10 1362.13 83.5041  54
   3   4  10 1326.96 83.8455  12
   3   4  11 1390.29 61.8503  12
   3   5  -7 5777.85 132.193  75
  -3  -5   7 5480.74 138.901  22
   3   5  -7 5669.92 135.912  55
  -3  -5   7 6163.93 158.106  88
   3   5  -7 5797.42 133.756  77
  -3  -5   7 5890.84 145.323  48
   3   5  -6 2251.79 113.358  75
   3   5  -6 2334.21 111.124  73
   3   5  -6 2266.18 106.626  61
   3   5  -6 2399.94 114.990  55
  -3  -5   6 2291.25 123.376  89
  -3  -5   6 2529.20 133.903  88
  -3  -5   6 2212.30 118.422  22
   3   5  -6 2290.22 106.629  79
  -3  -5   6 2307.19 123.212  18
  -3  -5   6 2271.50 119.743  48
  -3  -5   5 388.343 55.3083  74
   3   5  -5 442.999 61.5306  73
  -3  -5   5 487.283 70.0879  89
  -3  -5   5 356.107 62.1175  88
  -3  -5   5 456.867 65.8545   7
  -3  -5   5 398.882 62.4052  86
   3   5  -5 409.281 55.4826  60
   3   5  -5 484.834 62.6479  79
  -3  -5   5 313.587 51.1453  49
  -3  -5   5 437.104 63.4260  48
  -3  -5   4 22283.3 426.069  74
   3   5  -4 21627.6 423.178  73
   3   5  -4 21973.7 413.316  60
  -3  -5   4 22708.7 414.586 107
   3   5  -4 23282.1 426.496 105
   3   5  -4 23069.4 423.835 103
   3   5  -4 22847.1 415.750  99
  -3  -5   4 22514.2 412.674 101
   3   5  -4 22632.0 412.248  97
   3   5  -4 23117.9 417.888  98
  -3  -5   4 21725.0 456.483  89
  -3  -5   4 22923.9 418.245 102
  -3  -5   4 22340.0 450.057  86
  -3  -5   4 22064.1 407.503  52
  -3  -5   4 22917.9 426.808  19
   3   5  -4 22603.2 430.487  79
  -3  -5   4 21903.1 424.586  49
  -3  -5   4 22549.9 462.923   7
  -3  -5   4 21751.4 445.475  48
  -3  -5   3 6658.24 247.548  48
  -3  -5   3 7075.85 263.077   7
  -3  -5   3 7072.37 243.143  74
   3   5  -3 6747.08 239.338  73
   3   5  -3 7094.43 242.899  97
  -3  -5   3 7084.27 243.277 107
  -3  -5   3 7064.62 244.225 101
   3   5  -3 6995.66 246.492 105
   3   5  -3 6694.94 240.985 103
  -3  -5   3 7301.12 249.099 102
  -3  -5   3 6734.57 227.871  52
   3   5  -3 6927.62 240.339  99
   3   5  -3 6971.90 242.880  98
  -3  -5   3 6025.31 388.766  96
  -3  -5   3 6276.39 391.746  95
   3   5  -3 7131.10 226.589  58
  -3  -5   3 6493.82 407.883  93
  -3  -5   3 6295.27 402.910  92
   3   5  -3 7897.75 465.329  38
  -3  -5   3 6516.74 414.283  91
   3   5  -3 6752.57 236.786  60
  -3  -5   3 7184.50 242.638  21
  -3  -5   3 6288.51 250.240  89
  -3  -5   3 6687.39 249.021  86
  -3  -5   3 6593.81 232.848  78
   3   5  -3 7643.78 444.089  34
  -3  -5   3 7105.15 247.146  49
  -3  -5   2 27218.2 479.993  48
  -3  -5   2 28165.3 471.326  74
  -3  -5   2 27801.3 503.588   7
  -3  -5   2 27767.5 470.591  16
   3   5  -2 27542.0 469.182  73
  -3  -5   2 26844.8 479.498 107
   3   5  -2 27155.9 431.198  72
  -3  -5   2 27365.4 478.173 104
  -3  -5   2 26542.9 489.048 102
   3   5  -2 27329.8 480.289  99
   3   5  -2 27074.5 479.801  98
   3   5  -2 27458.4 464.406  60
   3   5  -2 28005.4 487.129 100
  -3  -5   2 25651.4 792.754  96
   3   5  -2 27527.2 491.412 103
  -3  -5   2 25780.5 798.970  95
   3   5  -2 27942.8 452.293  58
   3   5  -2 25781.5 806.044  94
  -3  -5   2 25790.9 799.768  93
   3   5  -2 27323.2 440.208  56
  -3  -5   2 25270.0 790.049  92
  -3  -5   2 25710.4 800.135  91
   3   5  -2 25448.8 802.578  90
  -3  -5   2 27535.5 494.989  89
  -3  -5   2 27290.6 485.528  86
  -3  -5   2 26735.5 434.321  52
   3   5  -2 27107.2 477.897  97
  -3  -5   2 26637.4 825.483  68
  -3  -5   2 25472.7 793.928  40
  -3  -5   2 26084.5 443.330  78
   3   5  -2 28897.7 818.130  34
  -3  -5   2 27507.3 468.688  49
   3   5  -2 29369.6 862.008  38
  -3  -5   1 56.0755 36.4585  48
  -3  -5   1 20.9371 22.2801  74
   3   5  -1 58.8928 38.5615  99
  -3  -5   1 323.969 54.8689   7
   3   5  -1 70.2414 31.0769  73
   3   5  -1 52.6052 27.8189  72
  -3  -5   1 24.8915 21.4220  16
  -3  -5   1-46.5324 50.0250   1
  -3  -5   1 73.9714 36.3106  96
  -3  -5   1 56.3498 27.1694 107
  -3  -5   1 77.0613 55.8143  95
   3   5  -1 63.0282 30.0875 103
  -3  -5   1 96.9458 49.8480  92
   3   5  -1 22.7264 23.1995 100
   3   5  -1 33.6404 26.3303  98
   3   5  -1 65.1797 29.4237  60
   3   5  -1 29.1827 25.8210  97
  -3  -5   1 48.1337 29.6516 102
  -3  -5   1-171.810 64.4344  40
   3   5  -1 43.5253 32.6002  58
   3   5  -1 95.9037 59.0349  94
   3   5  -1 89.8650 54.8305  38
   3   5  -1 38.7717 20.3180  56
  -3  -5   1-94.5984 50.7290  91
   3   5  -1 39.5745 42.5174  90
  -3  -5   1 197.646 47.9635  89
  -3  -5   1 43.3088 31.6082 104
  -3  -5   1 59.2357 34.9423  86
   3   5  -1 103.612 46.3395  36
  -3  -5   1-33.2298 34.6676  93
  -3  -5   1 16.2140 28.9461  68
  -3  -5   1 67.4081 30.7317  49
   3   5  -1-86.5557 54.4416  34
  -3  -5   0 1985.96 192.871   1
  -3  -5   0 2011.28 190.826  40
  -3  -5   0 2111.90 211.053  96
   3   5   0 1789.56 199.938  94
  -3  -5   0 1742.68 194.277  93
  -3  -5   0 1942.03 207.551  92
  -3  -5   0 2027.95 209.663  91
   3   5   0 2158.28 219.626  38
   3   5   0 1733.64 196.716  90
   3   5   0 2065.87 198.535  36
  -3  -5   0 1977.50 191.343  35
   3   5   0 1740.61 169.794  34
  -3  -5  -1 19495.6 590.312   1
  -3  -5  -1 17891.7 596.736  93
  -3  -5  -1 19779.8 537.074  40
  -3  -5  -1 17953.0 594.619  96
   3   5   1 18374.3 614.893  95
   3   5   1 18179.7 607.924  94
  -3  -5  -1 18543.8 607.241  92
   3   5   1 19780.3 639.427  38
  -3  -5  -1 18378.6 603.231  91
   3   5   1 18446.1 615.328  90
   3   5   1 20449.7 629.739  36
   3   5   1 19464.4 527.204  67
  -3  -5  -1 20767.2 630.570  35
  -3  -5  -2 23444.4 648.449   1
  -3  -5  -2 21780.0 632.496  92
  -3  -5  -2 22295.8 635.317  96
   3   5   2 22271.4 650.549  95
  -3  -5  -2 21773.5 632.351  93
   3   5   2 22823.2 684.645  38
  -3  -5  -2 21560.9 629.653  91
   3   5   2 21963.7 645.767  90
   3   5   2 22158.5 648.321  94
   3   5   2 24195.9 695.080  36
   3   5   2 23332.0 567.486  67
  -3  -5  -2 23548.3 690.318  35
  -3  -5  -3 6932.55 352.948   1
  -3  -5  -3 6166.92 324.118  91
   3   5   3 6169.51 328.158  94
   3   5   3 6831.81 382.377  36
  -3  -5  -3 6708.50 335.747  96
   3   5   3 6340.43 335.735  95
  -3  -5  -3 6861.69 345.877  93
  -3  -5  -3 6429.99 333.497  92
   3   5   3 6009.74 324.569  90
   3   5   3 6416.55 298.407  67
  -3  -5  -3 6773.27 381.025  35
  -3  -5  -4 1334.83 155.345   1
   3   5   4 1417.75 153.400  95
   3   5   4 1327.47 144.465  94
   3   5   4 1290.86 147.741  90
  -3  -5  -4 1420.17 182.222  35
   3   5   4 1331.78 178.049  36
   3   5   5 4168.39 172.425  15
   3   5   5 4278.01 176.662  45
   3   5   5 4352.94 183.128  28
   3   5   5 3929.71 287.759   5
  -3  -5  -5 4678.92 329.894  63
  -3  -5  -5 4408.36 276.764   1
   3   5   5 4246.79 181.901  53
   3   5   5 4386.88 329.461  36
   3   5   5 4665.89 190.715  84
  -3  -5  -5 4388.50 322.388  35
   3   5   5 4216.21 179.886  51
   3   5   6 22580.8 710.567   5
   3   5   6 23821.0 420.544  45
   3   5   6 23871.6 439.256  15
   3   5   6 25116.9 459.760  28
  -3  -5  -6 26145.5 832.030  65
  -3  -5  -6 24329.3 759.836  63
   3   5   6 24605.9 435.804  54
   3   5   6 23877.8 443.239  53
   3   5   6 26678.8 847.990  36
   3   5   6 24156.4 441.635  84
  -3  -5  -6 24813.4 779.983  35
   3   5   6 22913.0 437.264  51
   3   5   7 1081.68 90.7808  71
   3   5   7 1087.50 93.8859  45
   3   5   7 922.322 90.7796  15
   3   5   7 1064.95 99.5654  28
   3   5   7 1116.78 90.3176  12
   3   5   7 1327.58 104.085  54
   3   5   7 1129.27 96.5805  84
   3   5   7 1083.04 100.301  51
   3   5   8 15763.9 367.872  15
   3   5   8 14913.5 357.807  26
   3   5   8 14535.2 323.817  12
   3   5   8 15501.0 352.634  25
   3   5   8 15773.0 347.809  54
   3   5   8 16267.0 334.917  84
   3   5   8 15822.2 367.182  51
   3   5   9 2296.56 133.480  15
   3   5   9 2355.27 131.851  26
   3   5   9 2331.14 122.230  12
   3   5   9 2497.53 123.797  25
   3   5   9 2424.25 129.943  54
   3   5   9 2318.01 130.085  51
   3   5  10 57.4952 23.2354  26
   3   5  10 22.5076 19.2133  12
   3   5  10 37.4218 21.1461  54
   3   5  10 39.0085 20.1743  51
  -3  -6   6 109.803 22.7521  48
   3   6  -6 149.781 23.7848  75
   3   6  -6 137.607 20.6132  61
   3   6  -6 114.043 20.8624  55
  -3  -6   6 91.4332 21.4567  88
   3   6  -6 104.089 21.6490  77
  -3  -6   6 88.5902 20.5779  18
   3   6  -5 13109.6 261.679  75
   3   6  -5 12900.6 252.605  73
   3   6  -5 12801.2 227.188  60
  -3  -6   5 12310.6 235.862  22
   3   6  -5 12928.3 248.558  55
  -3  -6   5 12378.5 270.942  89
  -3  -6   5 13103.5 287.434  88
   3   6  -5 12720.0 251.221  79
   3   6  -5 12582.2 251.418  61
  -3  -6   5 13242.8 290.203  18
  -3  -6   5 12534.3 263.598  48
   3   6  -4 881.562 80.7957  75
  -3  -6   4 868.063 79.4695  74
   3   6  -4 864.997 80.5076  73
   3   6  -4 859.524 75.4823 105
   3   6  -4 802.905 73.4004 103
   3   6  -4 842.659 73.5416  99
   3   6  -4 916.074 77.9715  98
   3   6  -4 871.875 80.6394  61
   3   6  -4 752.365 70.5590  97
   3   6  -4 869.761 76.8102  55
  -3  -6   4 810.426 82.0060  89
  -3  -6   4 823.656 85.2550  88
  -3  -6   4 851.765 84.7922  86
   3   6  -4 771.638 75.4888  79
  -3  -6   4 844.793 79.0222  49
   3   6  -4 903.851 79.0109  60
  -3  -6   4 799.620 81.4749   7
  -3  -6   4 816.101 81.0796  48
  -3  -6   3 10819.2 302.678  48
   3   6  -3 11045.5 292.542  75
  -3  -6   3 10854.8 296.700  74
   3   6  -3 10642.4 293.967  73
   3   6  -3 11214.4 306.082 103
   3   6  -3 10914.6 303.214 105
  -3  -6   3 11105.7 303.265 102
  -3  -6   3 11239.6 330.865  88
  -3  -6   3 10786.7 300.642 101
   3   6  -3 10779.3 295.840  98
   3   6  -3 11154.9 299.709  97
   3   6  -3 11274.9 298.347  60
   3   6  -3 11016.9 276.193  55
  -3  -6   3 10443.5 306.333  89
  -3  -6   3 11014.3 298.610 107
  -3  -6   3 10698.6 307.398  86
   3   6  -3 11050.6 297.616  99
  -3  -6   3 10737.3 305.369  19
   3   6  -3 11152.2 300.333  79
  -3  -6   3 10830.2 300.476  49
  -3  -6   3 10725.2 311.956   7
  -3  -6   2 6705.30 252.191   7
  -3  -6   2 6596.12 241.216  48
   3   6  -2 6696.95 230.421  75
  -3  -6   2 6829.03 241.917  74
   3   6  -2 6221.89 229.098  73
   3   6  -2 6720.97 214.996  72
   3   6  -2 6641.04 244.700  97
   3   6  -2 6129.75 240.437 105
   3   6  -2 6412.94 243.082 103
  -3  -6   2 6666.25 246.814 102
  -3  -6   2 6820.69 249.993 101
   3   6  -2 6583.97 221.131  58
   3   6  -2 6396.11 240.822  98
  -3  -6   2 6760.87 247.762 107
   3   6  -2 6131.41 227.782  60
   3   6  -2 6656.85 213.807  56
   3   6  -2 6554.58 212.532  55
  -3  -6   2 6264.32 242.734  89
  -3  -6   2 6554.56 243.849  86
   3   6  -2 6502.26 242.116  99
   3   6  -2 6470.48 233.036  79
  -3  -6   2 6669.21 241.107  49
  -3  -6   2 6760.67 229.066  76
  -3  -6   1 5187.04 209.541  76
  -3  -6   1 4934.02 206.341  48
  -3  -6   1 5378.46 220.382   7
   3   6  -1 5439.89 201.350  75
  -3  -6   1 5426.86 218.771  74
   3   6  -1 5294.33 209.820  73
   3   6  -1 5208.31 199.668  72
   3   6  -1 5620.63 197.119   6
  -3  -6   1 4664.98 360.609  68
  -3  -6   1 5157.70 376.183  95
   3   6  -1 5445.65 228.512 105
   3   6  -1 5373.13 226.077 103
  -3  -6   1 5361.15 225.110 102
  -3  -6   1 5453.24 225.359 101
   3   6  -1 5174.38 388.632  94
   3   6  -1 5216.62 221.082  98
  -3  -6   1 4840.68 354.074  40
   3   6  -1 5870.98 405.662  38
  -3  -6   1 5047.82 372.387  96
   3   6  -1 5345.59 205.508  58
   3   6  -1 5263.27 208.837  60
  -3  -6   1 5229.27 379.186  93
   3   6  -1 5323.24 202.438  56
  -3  -6   1 5573.91 390.010  92
   3   6  -1 5432.39 223.168  97
  -3  -6   1 5225.94 378.652  91
   3   6  -1 5714.42 406.375  90
  -3  -6   1 5165.01 217.114  89
  -3  -6   1 5408.66 217.345  86
   3   6  -1 5090.96 218.089  99
   3   6  -1 5441.93 199.777  83
  -3  -6   1 5445.04 204.641  81
   3   6  -1 5358.72 208.196  79
  -3  -6   1 5093.83 216.622 107
  -3  -6   1 5282.90 215.623  49
  -3  -6   0 406.276 61.6172  76
  -3  -6   0 391.137 62.6791  48
   3   6   0 497.776 63.7578  75
  -3  -6   0 470.562 65.4194   7
  -3  -6   0 378.979 57.1900  33
  -3  -6   0 430.940 67.3900  74
  -3  -6   0 527.022 71.2443  16
  -3  -6   0 415.986 100.514   1
   3   6   0 547.073 69.4434  73
   3   6   0 381.581 59.9420  72
   3   6   0 414.801 59.9495   6
  -3  -6   0 550.979 73.3201 104
  -3  -6   0 535.268 74.2499 102
   3   6   0 457.951 67.6756  98
   3   6   0 437.126 66.2953  97
   3   6   0 488.242 70.2164  99
   3   6   0 511.659 69.7500 103
   3   6   0 390.873 58.1437  60
  -3  -6   0 518.400 119.425  96
  -3  -6   0 530.138 121.580  95
   3   6   0 441.249 66.3892 100
   3   6   0 369.340 61.7194  58
   3   6   0 431.872 105.998  94
  -3  -6   0 530.808 120.158  93
   3   6   0 452.788 62.6225  56
  -3  -6   0 378.383 107.823  92
   3   6   0 372.022 102.369  38
  -3  -6   0 328.832 96.3161  91
   3   6   0 166.730 67.7277  90
  -3  -6   0 433.853 68.6510  89
  -3  -6   0 436.051 70.1991  86
  -3  -6   0 460.077 67.0428 107
   3   6   0 347.763 82.9326  67
   3   6   0 328.096 89.8129  36
   3   6   0 462.326 63.0514  83
  -3  -6   0 472.263 67.0692  81
   3   6   0 527.171 68.0027  79
  -3  -6   0 421.045 66.7715  49
  -3  -6  -1 2944.79 154.258  48
  -3  -6  -1 2972.31 161.933  74
  -3  -6  -1 3178.49 162.585  16
   3   6   1 2893.73 147.431  73
  -3  -6  -1 3019.29 261.523   1
   3   6   1 3042.68 155.193  72
   3   6   1 2958.08 158.184 100
   3   6   1 2879.76 142.091  45
  -3  -6  -1 3014.96 162.542 107
   3   6   1 3265.13 170.271 103
   3   6   1 3022.16 161.544  99
   3   6   1 3092.40 163.699  98
   3   6   1 2991.17 151.696  60
   3   6   1 2974.11 159.917  97
  -3  -6  -1 2644.52 255.955  96
   3   6   1 3086.64 246.291  67
  -3  -6  -1 2799.62 267.365  95
   3   6   1 2627.40 255.813  94
  -3  -6  -1 3036.35 273.067  93
   3   6   1 2938.20 152.785  56
  -3  -6  -1 2813.11 265.649  92
   3   6   1 3042.29 278.343  38
  -3  -6  -1 2780.61 262.348  91
   3   6   1 2775.93 266.568  90
  -3  -6  -1 2804.56 153.418  89
   3   6   1 3147.19 156.696   6
   3   6   1 3194.56 288.497  36
   3   6   1 3087.49 155.143  58
  -3  -6  -1 2961.04 162.042 102
  -3  -6  -1 2908.03 151.744  86
   3   6   1 3105.62 156.536  83
  -3  -6  -1 2940.75 157.067 104
  -3  -6  -1 3130.95 264.069  35
   3   6   1 2861.94 138.587  79
  -3  -6  -1 2805.86 157.760  49
  -3  -6  -2 1672.46 198.421   1
  -3  -6  -2 1572.78 114.102  48
  -3  -6  -2 1621.07 111.729  16
   3   6   2 1646.27 107.624  73
   3   6   2 1692.10 115.379  72
   3   6   2 1622.38 116.025  99
  -3  -6  -2 1424.20 182.130  92
  -3  -6  -2 1357.69 174.617  96
   3   6   2 1669.32 111.579  45
   3   6   2 1596.63 176.268  67
  -3  -6  -2 1589.93 188.431  95
  -3  -6  -2 1664.22 118.714 104
   3   6   2 1721.99 112.994  60
   3   6   2 1577.66 113.904  58
   3   6   2 1597.07 114.831  98
   3   6   2 1437.13 187.393  94
  -3  -6  -2 1434.68 184.744  93
   3   6   2 1588.33 112.300  56
   3   6   2 1479.84 111.294  97
   3   6   2 1323.85 189.229  38
  -3  -6  -2 1535.77 183.126  91
   3   6   2 1413.17 179.423  90
  -3  -6  -2 1469.85 109.780  89
   3   6   2 1520.76 111.417 100
  -3  -6  -2 1473.46 106.197  86
   3   6   2 2105.09 226.256  36
  -3  -6  -2 1533.72 112.229 107
   3   6   2 1637.78 114.973  83
  -3  -6  -2 1448.62 180.402  35
   3   6   2 1543.38 115.616 103
  -3  -6  -2 1661.88 118.074 102
   3   6   2 1487.88 106.456  84
  -3  -6  -2 1560.21 118.397  49
  -3  -6  -3 15137.8 342.197  48
  -3  -6  -3 15579.5 584.927   1
  -3  -6  -3 14038.3 316.633  16
   3   6   3 15262.7 337.185  72
   3   6   3 15529.4 343.962  45
  -3  -6  -3 14739.9 330.114 107
   3   6   3 15151.4 343.334  83
   3   6   3 15480.8 320.620  28
   3   6   3 14542.2 334.651 103
  -3  -6  -3 13931.3 536.597  91
   3   6   3 14700.0 328.945  99
  -3  -6  -3 14306.1 328.836 102
   3   6   3 14552.6 329.064  98
   3   6   3 16281.7 325.730  60
   3   6   3 14495.9 326.034  97
  -3  -6  -3 14246.2 323.919 104
  -3  -6  -3 13698.6 532.070  96
   3   6   3 15480.2 346.271  58
  -3  -6  -3 13979.2 541.355  95
   3   6   3 13185.7 531.499  94
  -3  -6  -3 14233.2 545.978  93
   3   6   3 14922.6 339.987  56
  -3  -6  -3 13704.3 535.803  92
   3   6   3 13996.1 551.369  90
  -3  -6  -3 14923.7 335.657  89
   3   6   3 14428.4 327.084 100
   3   6   3 14843.9 618.558  36
   3   6   3 14842.6 336.920  84
  -3  -6  -3 15881.9 625.721  35
   3   6   4 32650.1 490.784  72
  -3  -6  -4 34334.5 862.966   1
   3   6   4 33554.3 515.293  45
   3   6   4 32833.9 497.686  28
   3   6   4 32680.1 508.378  58
   3   6   4 32903.4 505.292  56
   3   6   4 35188.3 970.525  36
   3   6   4 32949.1 516.823  84
   3   6   4 32811.9 505.228  83
  -3  -6  -4 34618.8 950.338  35
   3   6   4 31085.3 456.705  51
   3   6   5 2636.24 137.873  72
   3   6   5 2592.09 147.828  45
   3   6   5 2641.24 148.453  28
  -3  -6  -5 2661.14 236.829   1
   3   6   5 2431.03 241.122   5
  -3  -6  -5 2408.45 258.117  63
   3   6   5 2657.78 146.125  58
   3   6   5 2754.84 146.795  56
   3   6   5 2592.09 265.973  36
   3   6   5 2629.01 150.617  84
   3   6   5 2495.83 137.186  83
  -3  -6  -5 3034.10 295.132  35
   3   6   5 2560.55 139.407  51
   3   6   6 29717.9 494.809  45
   3   6   6 29051.9 501.703  28
   3   6   6 29406.5 471.460  58
   3   6   6 29014.6 455.566   6
   3   6   6 28631.0 494.379  84
   3   6   6 27940.9 475.012  51
   3   6   7 8748.43 267.894  15
   3   6   7 8086.68 254.199  71
   3   6   7 8597.56 260.585  45
   3   6   7 8949.82 241.236  12
   3   6   7 8627.60 269.266  84
   3   6   7 8306.99 262.651  51
   3   6   7 8173.26 259.978  26
   3   6   8 1762.38 110.462  71
   3   6   8 1912.84 124.707  26
   3   6   8 1898.98 123.180  25
   3   6   8 2108.06 126.916  54
   3   6   8 1963.16 111.721  12
   3   6   8 1830.05 116.278  84
   3   6   8 1954.18 124.670  51
   3   6   9 3701.96 150.275  25
   3   6   9 3525.28 153.351  26
   3   6   9 3724.13 141.141  12
   3   6   9 3536.11 152.377  51
   3   6  10 612.181 54.5971  26
   3   6  10 657.211 55.2608  51
   3   7  -4 9865.28 205.826  75
   3   7  -4 9324.61 200.015  73
   3   7  -4 8717.95 171.457 105
   3   7  -4 8749.69 172.478 104
   3   7  -4 8852.50 172.407 103
   3   7  -4 9120.77 173.550  98
   3   7  -4 9097.01 183.884  60
   3   7  -4 8695.61 168.816  97
  -3  -7   4 9231.97 208.304  89
  -3  -7   4 8870.71 201.960  88
   3   7  -4 9216.86 201.786  79
  -3  -7   4 9254.35 198.647  49
   3   7  -4 9466.64 203.835  61
  -3  -7   4 9433.99 223.769  18
   3   7  -4 9686.67 198.286  77
  -3  -7   4 9250.81 199.572  48
   3   7  -3 25604.9 385.652  75
  -3  -7   3 24703.1 392.202  74
   3   7  -3 25210.6 395.973 104
   3   7  -3 25842.5 397.256  73
  -3  -7   3 25561.7 390.943 107
   3   7  -3 25302.0 395.069 105
  -3  -7   3 24951.1 389.294 102
  -3  -7   3 24996.7 389.232 101
   3   7  -3 25050.9 389.228  99
   3   7  -3 25142.2 389.971  98
   3   7  -3 26017.3 395.492  61
   3   7  -3 24369.0 379.393  60
   3   7  -3 25268.8 389.007  97
  -3  -7   3 25336.8 405.154  89
   3   7  -3 25199.1 394.555 103
  -3  -7   3 26071.4 405.172  88
  -3  -7   3 24330.4 397.536  86
  -3  -7   3 25132.3 389.391 100
  -3  -7   3 25642.0 404.309  19
   3   7  -3 25560.1 397.293  79
  -3  -7   3 25325.3 396.034  49
  -3  -7   3 25832.5 436.969  18
  -3  -7   3 24888.4 386.394  48
  -3  -7   2 471.878 62.0764  48
   3   7  -2 454.225 58.0848  75
  -3  -7   2 452.498 64.1264  74
   3   7  -2 540.217 68.9127  73
  -3  -7   2 549.134 67.5261 107
   3   7  -2 509.865 68.6472 105
   3   7  -2 481.594 63.5966 103
  -3  -7   2 560.441 69.5407 102
  -3  -7   2 494.842 64.6094 101
   3   7  -2 489.421 66.8922  99
   3   7  -2 478.758 66.0181  98
   3   7  -2 537.808 65.7831  61
   3   7  -2 452.911 63.7107  60
   3   7  -2 446.339 63.1263  97
  -3  -7   2 492.324 67.8916  89
  -3  -7   2 658.515 72.6179  88
  -3  -7   2 493.631 68.6543  86
  -3  -7   2 555.305 71.0010  19
   3   7  -2 467.366 62.5160  79
  -3  -7   2 477.086 62.9999   7
  -3  -7   2 530.784 67.8838  49
  -3  -7   2 456.912 56.2438  76
  -3  -7   1 4613.07 192.116  48
   3   7  -1 4803.26 183.027  75
  -3  -7   1 4749.09 178.191  33
  -3  -7   1 4518.90 198.087  74
  -3  -7   1 4641.67 204.451 107
   3   7  -1 4716.27 195.398  73
   3   7  -1 4628.94 181.443  72
   3   7  -1 4654.40 207.375 105
   3   7  -1 4581.25 205.268 103
  -3  -7   1 4713.37 207.466 102
  -3  -7   1 4476.34 202.091 101
   3   7  -1 4760.48 206.209  99
   3   7  -1 4488.16 199.966  98
   3   7  -1 4480.07 190.940  60
   3   7  -1 4422.52 197.948  97
   3   7  -1 4636.28 183.528  58
   3   7  -1 4467.86 178.346  56
  -3  -7   1 4847.51 200.227  89
  -3  -7   1 4653.29 194.928  86
  -3  -7   1 4416.64 181.769  81
  -3  -7   1 4775.43 214.174  19
   3   7  -1 4687.98 189.374  79
  -3  -7   1 4640.16 200.394  49
  -3  -7   1 4649.70 192.729   7
  -3  -7   1 4738.54 193.633  76
  -3  -7   0 3823.60 183.709  76
  -3  -7   0 3952.91 180.142  48
   3   7   0 3933.21 162.553  75
  -3  -7   0 3737.00 168.632  33
  -3  -7   0 3893.09 187.932  74
   3   7   0 3780.26 175.396  73
   3   7   0 3916.43 177.337  72
   3   7   0 3996.53 174.177   6
   3   7   0 3833.15 191.320 103
  -3  -7   0 3965.94 193.897 102
  -3  -7   0 3956.20 192.662 101
   3   7   0 3986.04 191.606  99
   3   7   0 3741.87 185.852  98
   3   7   0 3830.13 179.394  60
   3   7   0 3707.40 184.801  97
   3   7   0 3827.83 174.414  56
   3   7   0 3897.00 176.258  58
  -3  -7   0 3847.42 180.124  89
  -3  -7   0 3865.05 177.521  86
  -3  -7   0 4035.03 192.312 107
   3   7   0 3875.58 192.321 105
  -3  -7   0 3727.42 177.596  81
   3   7   0 3976.53 173.410  79
  -3  -7   0 3868.98 187.940  49
  -3  -7   0 3991.90 173.780   7
  -3  -7  -1 7233.52 256.992  76
  -3  -7  -1 7147.92 239.081  48
  -3  -7  -1 6877.22 237.789  33
  -3  -7  -1 7044.50 257.035  74
   3   7   1 6818.19 231.894  73
   3   7   1 6858.84 240.658  72
   3   7   1 6739.48 235.114   6
   3   7   1 6990.41 257.085 105
   3   7   1 6958.78 251.782  99
   3   7   1 7344.68 262.989 103
  -3  -7  -1 7484.07 263.002 102
   3   7   1 6983.45 252.712  98
   3   7   1 6796.22 238.126  56
   3   7   1 6887.88 238.534  60
   3   7   1 6870.74 249.268  97
   3   7   1 7074.84 241.046  58
  -3  -7  -1 6881.96 252.927 101
  -3  -7  -1 7268.91 240.762  89
  -3  -7  -1 7312.05 237.806  86
   3   7   1 6962.47 241.372  83
  -3  -7  -1 7163.83 255.202 107
  -3  -7  -1 6693.10 245.926  81
   3   7   1 7298.20 227.761  79
  -3  -7  -1 7304.86 255.811  49
  -3  -7  -2 746.712 81.3546  48
  -3  -7  -2 777.323 91.9722  74
   3   7   2 746.331 79.9608  73
   3   7   2 718.578 81.1992  72
   3   7   2 793.899 81.3666  45
   3   7   2 762.565 84.3534   6
   3   7   2 767.103 86.4058 105
  -3  -7  -2 719.426 82.1400 101
   3   7   2 948.961 92.5133  98
  -3  -7  -2 737.952 84.4133 102
   3   7   2 781.563 87.6319 103
  -3  -7  -2 766.650 83.3846 107
   3   7   2 892.075 87.1761  60
   3   7   2 796.703 85.0783  97
   3   7   2 763.010 83.6656  58
  -3  -7  -2 710.817 78.6729  89
   3   7   2 877.434 89.9117  99
   3   7   2 837.347 87.6289  56
   3   7   2 808.465 79.0389  84
   3   7   2 749.863 82.5823  83
  -3  -7  -2 801.233 91.3255  49
  -3  -7  -3 17905.9 374.986  48
  -3  -7  -3 17970.5 412.508  74
   3   7   3 18258.1 364.593  73
   3   7   3 17811.6 387.749  72
   3   7   3 17423.4 379.416  45
   3   7   3 17364.7 382.744   6
  -3  -7  -3 17985.3 378.808 101
   3   7   3 17708.1 381.281 105
   3   7   3 17717.5 379.998 103
  -3  -7  -3 18446.5 383.950 102
   3   7   3 17528.9 373.937  99
   3   7   3 17880.6 376.243  98
   3   7   3 18284.0 367.768  60
   3   7   3 17131.6 383.118  58
   3   7   3 17000.6 382.994  56
  -3  -7  -3 18002.3 377.177 107
   3   7   3 17779.6 374.400  97
   3   7   3 17685.5 372.329  84
   3   7   3 17477.8 390.355  83
  -3  -7  -3 17417.3 391.147  49
  -3  -7  -4 4091.81 176.203  48
   3   7   4 3872.58 179.826  72
   3   7   4 4037.14 186.068  45
   3   7   4 3985.47 183.226   6
   3   7   4 3966.42 186.285  58
   3   7   4 3946.46 183.637  56
   3   7   4 3962.86 184.060  84
   3   7   4 4094.97 187.124  83
  -3  -7  -4 4285.51 193.950  49
  -3  -7  -5 3258.48 154.764  48
   3   7   5 2949.37 150.831  72
   3   7   5 3027.91 162.897  45
   3   7   5 3006.26 156.105   6
   3   7   5 3023.19 157.863  56
   3   7   5 2938.50 158.269  58
   3   7   5 2743.27 155.813  84
  -3  -7  -6 725.154 74.3272  48
   3   7   6 607.022 65.2864  72
   3   7   6 646.819 77.8431  45
   3   7   6 607.941 68.3963   6
   3   7   6 570.203 66.3120  26
   3   7   6 624.604 73.3102  58
   3   7   6 666.298 74.4221  56
   3   7   6 572.154 74.1990  84
   3   7   6 718.750 72.8485  51
  -3  -7  -7 7476.44 215.294  48
   3   7   7 6762.94 225.327  71
   3   7   7 6880.06 217.275  58
   3   7   7 6638.19 217.008  26
   3   7   7 6853.63 232.266  25
   3   7   7 7315.20 241.704  84
   3   7   7 6886.42 218.920  51
   3   7   8 64.4814 26.2276  71
   3   7   8 54.0320 24.8292  25
   3   7   8 56.2424 27.2207  26
   3   7   8 92.6570 33.2774  51
   3   7   9 4108.33 148.011  25
   3   7   9 3782.32 139.474  26
   3   7   9 3962.57 141.395  51
   3   7  10 886.049 54.6892  26
   3   7  10 957.190 56.5418  51
  -3  -8   3 2372.80 83.8109  74
   3   8  -3 2403.75 86.0514  73
   3   8  -3 2188.47 76.8834 105
   3   8  -3 2187.87 77.2524 104
   3   8  -3 2269.83 78.3131 103
   3   8  -3 2270.20 77.6113  98
   3   8  -3 2474.94 86.7837  61
   3   8  -3 2238.79 77.8893  60
   3   8  -3 2194.86 76.3061  97
   3   8  -3 2562.66 89.4631  79
  -3  -8   3 2436.03 87.6676  49
  -3  -8   3 2185.36 84.9613  18
  -3  -8   2 27023.5 364.703  74
   3   8  -2 28221.6 364.540  73
  -3  -8   2 27291.8 367.778 107
   3   8  -2 27669.7 376.741 105
   3   8  -2 28004.8 378.202 103
  -3  -8   2 28061.8 374.228 102
  -3  -8   2 27793.1 373.262 101
  -3  -8   2 27176.9 368.445 100
   3   8  -2 27444.7 373.275  98
   3   8  -2 27770.7 348.423  61
   3   8  -2 26863.1 355.045  60
   3   8  -2 27311.5 369.451  97
  -3  -8   2 26703.8 329.629  89
  -3  -8   2 27908.4 382.998  19
   3   8  -2 26804.4 373.005 104
   3   8  -2 27573.9 359.069  79
  -3  -8   2 28013.8 371.720  49
  -3  -8   2 27390.9 366.831  18
  -3  -8   2 27117.8 320.649  48
  -3  -8   1 1823.89 109.942  74
   3   8  -1 1750.00 105.670  73
   3   8  -1 1762.29 89.9945  72
   3   8  -1 1821.06 112.684 103
  -3  -8   1 1856.50 112.663 102
  -3  -8   1 1811.62 111.687 101
   3   8  -1 1867.93 112.143  98
   3   8  -1 1737.68 97.3510  61
   3   8  -1 1763.42 106.907  60
   3   8  -1 1848.11 111.514  97
   3   8  -1 1727.38 89.4792  58
  -3  -8   1 1643.36 93.8247  89
   3   8  -1 1753.08 108.775  99
   3   8  -1 1824.15 111.870 105
  -3  -8   1 1794.72 100.013  86
  -3  -8   1 1892.88 112.172 107
  -3  -8   1 1756.61 112.302  19
   3   8  -1 1883.29 105.192  79
  -3  -8   1 1822.39 109.609  49
  -3  -8   1 1789.17 104.486  18
  -3  -8   1 1737.95 101.639  76
  -3  -8   1 1880.58 99.3130  48
  -3  -8   0 7074.32 202.793  48
  -3  -8   0 6944.84 205.042  33
  -3  -8   0 7333.93 235.577  74
   3   8   0 7065.44 220.618  73
   3   8   0 6748.42 208.763  72
  -3  -8   0 6943.32 228.296 107
   3   8   0 7364.66 211.775  43
   3   8   0 7044.84 234.768 103
  -3  -8   0 6942.68 231.476 102
  -3  -8   0 6988.10 233.466 101
   3   8   0 7043.32 232.738  99
   3   8   0 7318.84 236.059  98
   3   8   0 7183.73 225.895  60
   3   8   0 7168.54 232.303  97
   3   8   0 6173.76 195.546  58
   3   8   0 6987.48 209.997  56
  -3  -8   0 6981.27 202.424  89
  -3  -8   0 7021.24 203.807  86
  -3  -8   0 6907.88 212.054  81
  -3  -8   0 7011.69 237.859  19
   3   8   0 6863.25 205.129  79
   3   8   0 7133.28 237.727 105
  -3  -8   0 6901.07 227.222  49
  -3  -8   0 6724.08 219.123  76
  -3  -8  -1 7592.74 216.889  48
  -3  -8  -1 7537.58 231.280  33
  -3  -8  -1 7878.89 251.286  74
   3   8   1 7751.63 236.611  73
   3   8   1 7264.28 228.437   6
   3   8   1 7435.46 234.756  72
  -3  -8  -1 7631.23 246.247 107
   3   8   1 7582.89 250.814 103
  -3  -8  -1 7918.63 253.446 102
  -3  -8  -1 7700.83 251.600 101
   3   8   1 7579.71 245.786  99
   3   8   1 7549.97 246.282  98
   3   8   1 7764.69 238.919  60
   3   8   1 7623.95 246.564  97
   3   8   1 7660.55 235.599  58
   3   8   1 7516.09 234.454  56
  -3  -8  -1 7525.88 240.708  81
   3   8   1 7558.75 251.434 105
  -3  -8  -1 7318.90 250.168  19
   3   8   1 7738.52 216.447  79
  -3  -8  -1 7546.22 245.581  49
  -3  -8  -1 7838.14 250.114  76
  -3  -8  -2 7813.55 257.119  76
  -3  -8  -2 7889.48 225.360  48
  -3  -8  -2 7687.72 244.698  33
  -3  -8  -2 7460.91 258.886  74
   3   8   2 7499.59 231.469  73
   3   8   2 7586.34 247.627  72
   3   8   2 7374.11 241.418   6
   3   8   2 7403.59 210.373  71
  -3  -8  -2 7640.46 244.742 102
   3   8   2 7562.04 249.061 105
  -3  -8  -2 7697.01 247.461 101
  -3  -8  -2 7407.42 235.886  42
  -3  -8  -2 7646.95 243.210 107
   3   8   2 7661.35 247.240  99
   3   8   2 7769.16 247.233  98
   3   8   2 7798.76 242.756  60
   3   8   2 7528.21 241.632  97
   3   8   2 7430.59 241.336  58
   3   8   2 7758.14 244.842  56
  -3  -8  -2 8027.35 259.974  81
  -3  -8  -2 7708.73 252.448  19
   3   8   2 7524.11 246.914 103
  -3  -8  -2 7856.05 253.300  49
  -3  -8  -3 2835.17 158.368  76
  -3  -8  -3 2679.47 157.423  74
   3   8   3 2983.30 144.180  73
   3   8   3 2734.45 148.472  72
   3   8   3 2849.32 153.593   6
   3   8   3 2880.00 146.350 105
   3   8   3 2927.39 147.104 103
  -3  -8  -3 2922.40 146.426 101
   3   8   3 2958.48 146.507  99
   3   8   3 2960.50 145.525  98
   3   8   3 2858.89 146.359  60
   3   8   3 3091.38 148.267  97
  -3  -8  -3 3087.84 149.261 102
   3   8   3 2950.17 155.405  58
   3   8   3 2838.89 152.547  56
   3   8   3 2994.02 141.583  84
  -3  -8  -3 2924.35 144.700 107
  -3  -8  -3 2931.39 149.734  19
  -3  -8  -3 2825.77 154.044  49
  -3  -8  -4 95.3018 37.6553  76
  -3  -8  -4 74.8214 37.2375  74
   3   8   4 126.521 37.1793  72
   3   8   4 131.400 35.5269  71
   3   8   4 88.4120 34.1460   6
   3   8   4 78.8305 35.4136  60
   3   8   4 87.9475 37.2438  58
   3   8   4 102.063 39.1239  56
   3   8   4 148.669 36.6375  84
  -3  -8  -4 105.439 41.1200  49
  -3  -8  -5 5429.47 212.998  74
   3   8   5 5388.29 197.145  72
   3   8   5 5160.89 194.229   6
   3   8   5 5120.10 195.467  71
   3   8   5 5468.58 205.827  58
   3   8   5 5244.92 183.260  25
   3   8   5 5402.84 203.212  56
   3   8   5 5481.44 202.410  84
  -3  -8  -5 5497.31 202.192  49
   3   8   6 2052.12 113.323  72
   3   8   6 2079.88 115.466   6
   3   8   6 2099.14 124.263  71
   3   8   6 2314.71 127.990  58
   3   8   6 2037.49 117.104  25
   3   8   6 2148.31 122.661  56
   3   8   6 2281.43 131.398  84
  -3  -8  -6 2146.63 118.122  49
   3   8   7 108.626 31.0999  71
   3   8   7 140.386 36.5550  25
   3   8   7 129.851 26.3696  26
   3   8   7 106.726 31.2092  58
   3   8   7 151.203 28.2783  51
  -3  -8  -7 95.7445 30.2501  49
   3   8   8 1519.36 88.2907  71
   3   8   8 1584.45 80.5284  26
   3   8   8 1548.77 78.7194  51
   3   8   8 1714.94 95.2517  25
   3   8   9 45.7692 15.2902  26
   3   8   9 80.6107 21.7684  25
   3   8   9 60.0086 16.1759  51
  -3  -9   1 4897.95 119.852  74
   3   9  -1 4932.87 121.275  73
   3   9  -1 5136.50 126.424 105
  -3  -9   1 5274.84 126.770 100
  -3  -9   1 5312.18 127.138 101
   3   9  -1 4904.47 124.929 104
   3   9  -1 5249.19 127.739 103
  -3  -9   1 5227.97 126.080 102
   3   9  -1 5195.47 126.318  98
   3   9  -1 4847.07 121.927  97
  -3  -9   1 5294.00 126.207 107
  -3  -9   1 5197.13 128.964  19
   3   9  -1 4807.22 119.300  60
  -3  -9   1 5114.75 122.931  49
  -3  -9   0 56.5692 20.1636  76
  -3  -9   0 37.0594 20.0448  74
   3   9   0 49.0572 19.9992  73
  -3  -9   0 50.2147 19.9925 107
   3   9   0 55.4176 22.6990 105
   3   9   0 31.2134 19.4007 104
   3   9   0 41.2013 21.3499 103
  -3  -9   0 24.2081 14.5686 102
  -3  -9   0 19.5485 14.9512 101
  -3  -9   0 42.7977 19.3562 100
   3   9   0 49.2346 22.9504  60
   3   9   0 67.6733 24.6105  98
   3   9   0 30.4603 19.8554  97
  -3  -9   0 41.0592 18.6050  19
  -3  -9   0 43.6235 22.3438  49
  -3  -9  -1 7296.07 193.286  74
   3   9   1 6742.08 179.593  73
   3   9   1 6856.34 190.458 104
   3   9   1 6711.53 172.805  43
   3   9   1 7142.04 192.807 103
  -3  -9  -1 7024.84 188.305 102
  -3  -9  -1 6936.70 188.901 101
   3   9   1 6715.20 182.821  60
  -3  -9  -1 6997.24 188.828 100
   3   9   1 7035.32 189.258  98
   3   9   1 7194.19 190.523  97
   3   9   1 6958.17 188.095  99
   3   9   1 6267.49 165.929  56
   3   9   1 6963.57 191.675 105
   3   9   1 6559.88 166.243  58
  -3  -9  -1 7092.16 187.393 107
  -3  -9  -1 6995.59 192.485  19
  -3  -9  -1 6925.43 186.189  49
  -3  -9  -1 6944.78 187.662  76
  -3  -9  -2 71.9305 28.9029  76
  -3  -9  -2 75.7051 26.7811  33
  -3  -9  -2 97.1871 29.3902  74
   3   9   2 51.1496 22.4495  73
   3   9   2 90.4747 26.6020  72
  -3  -9  -2 114.694 27.5615 107
   3   9   2 70.0287 25.4561 105
   3   9   2 72.6724 27.0678 104
   3   9   2 125.540 29.5789 103
  -3  -9  -2 179.088 34.1661 102
  -3  -9  -2 154.216 33.6709 101
   3   9   2 87.0243 28.4141  43
  -3  -9  -2 133.140 29.7819 100
   3   9   2 108.921 29.4423  99
   3   9   2 103.997 29.3512  98
   3   9   2 60.7400 26.2975  60
   3   9   2 106.415 29.1843  97
   3   9   2 78.3985 24.7863  58
   3   9   2 66.1879 25.8784  56
  -3  -9  -2 85.7104 30.7317  81
  -3  -9  -2 146.203 31.4584  19
  -3  -9  -2 71.2874 27.0105  49
  -3  -9  -3 18708.7 329.522  33
  -3  -9  -3 18675.1 336.218  74
   3   9   3 17522.8 326.556  72
   3   9   3 17163.6 319.302  58
   3   9   3 17945.4 333.684  43
  -3  -9  -3 17935.4 291.544 102
  -3  -9  -3 17738.2 290.694 101
  -3  -9  -3 17578.4 288.844 100
  -3  -9  -3 17776.6 288.833 107
   3   9   3 17562.6 324.325  56
  -3  -9  -3 17095.1 331.481  81
  -3  -9  -3 18039.1 297.322  19
   3   9   3 17769.0 304.552  60
  -3  -9  -3 17788.5 312.985  49
  -3  -9  -3 17965.8 333.057  76
  -3  -9  -4 3038.48 135.334  76
  -3  -9  -4 3131.98 137.456  33
  -3  -9  -4 2903.31 134.618  74
   3   9   4 2907.16 132.450  72
   3   9   4 2897.54 116.800  71
   3   9   4 2897.26 134.296  58
  -3  -9  -4 2721.68 130.163  42
   3   9   4 3000.89 134.963  56
   3   9   4 2941.64 136.634  43
  -3  -9  -4 2936.66 138.543  81
  -3  -9  -4 3011.05 128.072  49
  -3  -9  -5 20.2074 20.2807  76
  -3  -9  -5 35.6653 26.4907  33
  -3  -9  -5 14.1804 22.9589  74
   3   9   5 14.1913 17.4313  71
   3   9   5 37.2331 24.0342  43
   3   9   5 39.0267 27.4502  58
   3   9   5 25.1526 24.4651  56
  -3  -9  -5 7.63042 20.1391  81
  -3  -9  -5 74.5877 24.0803  49
  -3  -9  -6 742.650 59.9779  76
  -3  -9  -6 754.167 64.2531  74
   3   9   6 719.664 60.4508  71
   3   9   6 749.343 60.4967  43
   3   9   6 724.695 61.8976  56
   3   9   6 719.851 50.5834  25
   3   9   6 734.138 63.5049  58
  -3  -9  -6 682.073 51.0477  49
   3   9   7 10919.6 210.586  71
   3   9   7 10727.1 189.468  25
  -3  -9  -8 8.53068 10.1174  33
  -3  -9  -8 11.6100 10.1138  74
   3   9   8 6.34843 9.82330  25
   3   9   8 15.4820 13.3622  71
  -3  -9  -8 13.4739 12.2089  81
  -3 -10  -3 55.1733 15.0785  76
  -3 -10  -3 56.0088 14.9066  33
  -3 -10  -3 42.4457 15.8981  74
   3  10   3 51.4764 14.3223  43
  -3 -10  -3 56.6334 14.8092  81
   3  10   3 67.9238 16.2087  80
  -3 -10  -4 3531.83 99.4684  33
  -3 -10  -4 2417.61 82.2113  74
   3  10   4 3403.83 101.935  43
   3  10   4 3295.92 96.6476  58
  -3 -10  -4 2511.53 87.9945  81
   3  10   4 3690.02 101.624  80
  -3 -10  -4 2723.12 87.7043  76
  -3 -10  -5 779.383 47.0400  33
   3  10   5 685.199 45.6818  58
   3  10   5 736.167 45.5743  43
   3  10   5 747.493 43.4163  80
  -4   7   7 757.565 42.9139  71
   4  -7  -7 696.070 42.1997  53
  -4   7   6 35344.3 302.914  71
   4  -7  -6 35265.5 354.904  46
  -4   7   6 37090.2 364.075  23
  -4   7   6 36509.4 368.728  55
  -4   7   6 36567.4 355.264   9
   4  -7  -6 35866.4 377.276  53
  -4   7   5 14623.5 257.342  75
   4  -7  -5 14313.9 216.686  47
   4  -7  -5 15253.0 266.502  46
   4  -7  -5 14764.0 247.907  70
  -4   7   5 15518.2 266.455  55
  -4   7   5 15884.2 250.432   9
   4  -7  -5 15817.9 275.866  53
  -4   7   4 8697.99 210.419  75
   4  -7  -4 9030.30 197.312  47
   4  -7  -4 9243.86 218.367  46
   4  -7  -4 9018.58 210.671  70
  -4   7   4 9286.27 213.809  55
  -4   7   4 9532.56 197.533   9
   4  -7  -4 9542.68 219.907  53
  -4   7   3 130.274 33.7552  75
   4  -7  -3 121.406 28.3115  47
  -4   7   3 185.617 35.8973  55
   4  -7  -3 110.477 28.9984  46
   4  -7  -3 167.379 32.8338  70
   4  -7  -3 114.473 28.7342  53
  -4   7   3 149.840 29.5865   9
  -4   7   3 128.369 33.3962  79
  -4   7   2 5127.70 158.528  75
   4  -7  -2 5155.01 157.248  47
   4  -7  -2 5352.88 160.726  46
   4  -7  -2 5249.64 159.818  70
   4  -7  -2 4693.98 129.758 107
   4  -7  -2 4891.25 133.573 101
   4  -7  -2 4936.15 133.324 100
   4  -7  -2 4709.14 130.506 102
  -4   7   2 5227.39 157.626  55
  -4   7   2 5050.51 131.901   9
   4  -7  -2 5002.58 132.382  20
   4  -7  -2 5028.25 133.776  99
  -4   7   2 5078.17 160.566  79
  -4   7   1 15290.8 254.065  75
   4  -7  -1 15853.5 261.827  47
   4  -7  -1 16198.5 254.756  46
   4  -7  -1 16149.9 254.200  70
   4  -7  -1 15594.3 239.924  99
   4  -7  -1 15419.1 238.379 100
   4  -7  -1 15738.9 242.164 101
  -4   7   1 15531.9 253.521  55
   4  -7  -1 15338.9 238.384 107
   4  -7  -1 15588.5 238.463  20
  -4   7   1 14914.8 254.642  79
   4  -7  -1 15679.5 241.213 102
  -4   7   0 1039.25 57.8023  75
   4  -7   0 1228.43 64.6388  47
   4  -7   0 1178.32 62.0159  99
  -4   7   0 1146.47 60.9599  61
  -4   7   0 1221.48 63.6803 104
  -4   7   0 1206.50 63.5755 105
   4  -7   0 1126.73 60.9458 102
   4  -7   0 1191.89 62.6308 101
   4  -7   0 1141.59 60.8592 100
  -4   7   0 1184.70 63.0866 103
  -4   7   0 1146.86 61.9052 106
  -4   7   0 1085.14 59.9830  55
  -4   7   0 1195.03 62.6633  97
   4  -7   0 1215.87 61.9565  20
   4  -7   0 1160.99 61.5949 107
  -4   7   0 1049.57 58.6819  79
  -4   6   9 9299.50 141.756  71
  -4   6   8 19.4841 16.2491  71
  -4   6   8 3.44703 16.4998  11
  -4   6   8 7.91263 16.0660  23
  -4   6   7 1423.07 85.9771  23
   4  -6  -7 1250.67 70.6157  46
   4  -6  -7 1265.40 76.1266  53
  -4   6   6 13875.0 270.169  71
   4  -6  -6 13232.1 272.155  46
  -4   6   6 13158.0 280.321  23
  -4   6   6 13097.7 286.368  55
  -4   6   6 13842.7 281.727   9
  -4   6   5 79.4327 33.8346  75
  -4   6   5 118.902 32.2265  71
   4  -6  -5 103.998 32.7202  46
   4  -6  -5 109.985 26.8045  70
  -4   6   5 127.863 35.4121  23
  -4   6   5 49.3389 31.0007  57
  -4   6   5 140.645 41.4207  55
  -4   6   5 93.1230 37.5325   9
  -4   6   5 83.2554 33.1465  80
  -4   6   4 19631.3 388.774  75
  -4   6   4 19148.8 366.084  73
   4  -6  -4 19587.5 355.479  47
  -4   6   4 20327.7 312.553  71
   4  -6  -4 19998.8 383.845  46
   4  -6  -4 19522.4 372.100  70
  -4   6   4 19884.6 354.649  23
  -4   6   4 18441.4 356.242  57
  -4   6   4 19469.4 385.439  55
  -4   6   4 20333.1 361.948   9
  -4   6   4 19959.1 386.146  80
  -4   6   4 19332.9 383.294  79
  -4   6   3 11.7840 27.7072  75
  -4   6   3-8.67780 21.9899  73
   4  -6  -3 46.9567 26.4134  47
   4  -6  -3 69.1754 35.2435  46
   4  -6  -3 11.6429 22.8538  70
  -4   6   3 58.9404 32.9077  55
  -4   6   3 0.24195 18.3053  23
  -4   6   3 29.4881 30.0041   9
  -4   6   3 9.15394 26.7907  80
  -4   6   3 50.8206 35.8627  79
  -4   6   3 9.15433 21.5800  77
  -4   6   2 16838.9 355.844  75
  -4   6   2 16131.6 301.958  73
   4  -6  -2 16252.8 342.745  47
   4  -6  -2 16307.8 328.809 107
   4  -6  -2 16495.8 352.167  46
   4  -6  -2 16586.7 351.795  70
  -4   6   2 16544.0 335.358 105
  -4   6   2 17130.7 342.080 103
  -4   6   2 16697.1 336.065 104
   4  -6  -2 16062.8 326.276  99
   4  -6  -2 16238.2 329.925 101
   4  -6  -2 16237.6 328.222 100
  -4   6   2 16648.3 325.664  41
  -4   6   2 17118.3 336.762  97
  -4   6   2 16522.7 351.004  55
  -4   6   2 16542.1 332.697  61
   4  -6  -2 16651.4 346.052  53
  -4   6   2 16715.7 316.680   9
   4  -6  -2 16383.5 327.778  20
  -4   6   2 16402.6 328.679  80
   4  -6  -2 16312.2 329.457 102
  -4   6   2 16463.2 334.940 106
  -4   6   2 16191.9 351.475  79
  -4   6   2 16268.7 328.698  77
  -4   6   1 4517.79 178.355  75
   4  -6  -1 4312.19 177.020  47
   4  -6  -1 4620.14 182.938  46
   4  -6  -1 4472.09 169.563  53
   4  -6  -1 4452.43 178.091  70
   4  -6  -1 4579.19 179.141 107
   4  -6  -1 4886.18 184.484 100
  -4   6   1 4357.26 175.727 104
  -4   6   1 4857.65 186.054 103
   4  -6  -1 4718.75 181.510 102
  -4   6   1 4592.66 171.783  41
   4  -6  -1 4637.88 180.771  99
  -4   6   1 4426.45 160.659  69
  -4   6   1 4593.51 177.520  61
  -4   6   1 4441.86 176.370  55
  -4   6   1 4587.13 180.798 106
  -4   6   1 4522.91 178.725 105
  -4   6   1 4290.78 153.398   9
   4  -6  -1 4723.19 181.329  20
   4  -6  -1 4751.02 182.588 101
  -4   6   1 4595.19 179.766  97
   4  -6  -1 4516.09 164.162  42
  -4   6   1 4491.80 157.439  80
  -4   6   1 4476.47 181.909  79
  -4   6   1 4495.70 175.024  77
  -4   6   0 3946.90 155.194  75
   4  -6   0 4194.58 166.041  47
   4  -6   0 4012.16 159.326  46
   4  -6   0 4108.64 158.239  70
  -4   6   0 3889.29 143.849  69
  -4   6   0 4162.12 169.120 106
  -4   6   0 4237.66 170.378 104
  -4   6   0 4207.94 170.628 103
   4  -6   0 4274.62 168.531 102
   4  -6   0 4018.17 164.386 101
   4  -6   0 4176.10 167.111 100
  -4   6   0 4015.56 155.187  41
  -4   6   0 4059.66 162.998  61
  -4   6   0 4127.03 167.184  97
  -4   6   0 4241.53 169.753 105
  -4   6   0 3985.51 157.033  55
   4  -6   0 4091.35 152.161  42
   4  -6   0 4160.75 166.086  20
   4  -6   0 4150.66 145.966  81
  -4   6   0 4104.23 162.195  79
   4  -6   0 4210.15 166.747  99
   4  -6   0 4093.34 164.443 107
  -4   6   0 4130.24 160.044  77
   4  -6   0 4194.00 141.129  76
  -4   6  -1 3188.36 124.556  75
   4  -6   1 3344.92 136.026  47
   4  -6   1 3111.57 123.753  32
   4  -6   1 3370.73 139.219 107
   4  -6   1 3318.47 139.026 101
   4  -6   1 3372.20 129.515  46
  -4   6  -1 3275.58 138.905 106
  -4   6  -1 3269.09 137.970 104
   4  -6   1 3156.97 135.044 102
  -4   6  -1 3342.78 140.848 103
  -4   6  -1 3428.52 128.547  87
  -4   6  -1 3463.16 132.993  41
   4  -6   1 3332.14 139.151  99
  -4   6  -1 3195.22 138.065  61
  -4   6  -1 3490.88 142.414  97
  -4   6  -1 3248.91 127.142  55
  -4   6  -1 3519.23 143.258 105
   4  -6   1 3277.44 137.305 100
   4  -6   1 3390.45 130.268  42
   4  -6   1 3397.90 140.028  20
   4  -6   1 3249.62 122.080  81
  -4   6  -1 3026.03 124.812  79
  -4   6  -1 3351.78 134.525  77
   4  -6   1 3345.49 121.578  76
  -4   6  -2 1143.36 63.3514  55
  -4   6  -2 1023.16 56.3908  75
   4  -6   2 1229.40 69.2887  47
   4  -6   2 1159.20 66.9696  32
   4  -6   2 1337.85 76.6202 102
  -4   6  -2 1179.62 72.1086 105
  -4   6  -2 1307.38 76.9198 103
   4  -6   2 1174.80 68.5136  42
   4  -6   2 1356.55 76.6250 100
  -4   6  -2 1300.64 75.7129 104
  -4   6  -2 1252.52 71.3739  41
  -4   6  -2 1185.47 71.6435  61
  -4   6  -2 1191.71 72.5950  97
   4  -6   2 1351.17 77.0066 101
  -4   6  -2 1280.04 70.4965  87
   4  -6   2 1310.51 75.6586  20
   4  -6   2 1299.64 75.6291  99
   4  -6   2 1279.81 75.0878 107
   4  -6   2 1178.87 65.7205  81
  -4   6  -2 1012.54 55.4813  79
  -4   6  -2 1237.16 74.9268 106
  -4   6  -2 1239.11 73.0345  77
   4  -6   2 1180.33 64.7168  76
  -4   5   9 330.335 35.6096  71
  -4   5   9 336.602 37.3343  11
  -4   5   8 5597.45 171.987  71
  -4   5   8 5520.67 164.376  23
  -4   5   8 5295.89 169.165  57
  -4   5   7 3783.45 157.027  71
  -4   5   7 3853.11 157.763  23
  -4   5   7 3719.91 160.568  57
  -4   5   6 497.133 62.4133  71
   4  -5  -6 562.977 63.7302  46
  -4   5   6 531.432 69.0432   9
  -4   5   6 485.567 63.9257  23
  -4   5   6 519.096 68.3890  57
  -4   5   6 530.129 71.0373  55
  -4   5   6 499.586 62.7394  82
  -4   5   6 484.244 62.0534  29
  -4   5   5 11569.3 318.228  75
  -4   5   5 12377.2 296.770  71
   4  -5  -5 11995.3 305.137  46
   4  -5  -5 12055.8 290.754  70
  -4   5   5 12088.5 292.265  69
  -4   5   5 11877.5 285.934  41
  -4   5   5 12787.4 315.015  23
  -4   5   5 11847.2 317.176  57
  -4   5   5 11351.2 315.608  55
  -4   5   5 12145.5 301.629   9
  -4   5   5 10706.1 290.199  82
  -4   5   5 11606.8 310.689  80
  -4   5   4 4841.34 210.437  75
  -4   5   4 5000.01 205.266  73
   4  -5  -4 4926.57 191.221  47
  -4   5   4 4796.87 179.381  71
   4  -5  -4 4882.77 202.213  46
   4  -5  -4 4823.86 197.417  70
  -4   5   4 4707.82 188.950  69
  -4   5   4 4792.81 192.285  41
  -4   5   4 4688.39 191.064  23
  -4   5   4 4451.50 199.928  55
  -4   5   4 4636.57 188.484   9
  -4   5   4 4680.53 201.788  80
  -4   5   4 4506.61 203.111  79
  -4   5   4 5006.30 193.421  77
  -4   5   3 40228.6 601.593  75
  -4   5   3 41231.2 571.660  73
   4  -5  -3 41131.4 573.925  47
   4  -5  -3 40408.8 593.520  46
   4  -5  -3 40787.4 589.997  70
  -4   5   3 41373.8 576.268  41
  -4   5   3 39244.7 594.399  55
  -4   5   3 41396.5 557.959   9
  -4   5   3 41317.7 572.432  61
  -4   5   3 40247.5 555.139  69
  -4   5   3 40993.3 590.625  80
  -4   5   3 39342.8 605.510  79
  -4   5   3 40108.7 546.630  23
  -4   5   3 41146.7 571.638  77
  -4   5   2 3398.23 175.974  75
   4  -5  -2 3280.42 163.247 100
  -4   5   2 3361.61 160.457  73
  -4   5   2 3253.44 166.224  61
   4  -5  -2 3193.44 165.567  47
   4  -5  -2 3151.47 160.927 101
   4  -5  -2 3244.68 170.857  46
   4  -5  -2 3260.26 169.260  70
  -4   5   2 3218.84 164.120 106
  -4   5   2 3223.63 159.884  69
   4  -5  -2 3215.75 160.664 107
  -4   5   2 3428.19 167.001  97
  -4   5   2 3319.65 166.857 104
  -4   5   2 3345.34 169.742  41
   4  -5  -2 3360.14 164.987 102
   4  -5  -2 3357.13 165.578  99
  -4   5   2 3726.49 161.815  23
  -4   5   2 3272.42 171.367  55
  -4   5   2 3443.79 170.211 103
  -4   5   2 3340.49 157.072   9
   4  -5  -2 3264.75 162.758  20
  -4   5   2 3070.97 161.568  80
  -4   5   2 3314.62 167.562 105
  -4   5   2 3196.49 174.137  79
  -4   5   2 3210.76 165.182  77
   4  -5  -1 9160.77 281.459 100
  -4   5   1 9153.14 281.748  75
  -4   5   1 9242.74 284.735 105
   4  -5  -1 9000.95 278.007  47
   4  -5  -1 8962.67 282.089  46
   4  -5  -1 9055.49 278.728  70
  -4   5   1 9020.62 265.906  69
  -4   5   1 8894.50 277.448  55
   4  -5  -1 9054.37 279.942 107
   4  -5  -1 9621.53 265.355  42
   4  -5  -1 9383.43 262.946  27
   4  -5  -1 9099.96 280.251  99
  -4   5   1 9452.83 282.061  41
  -4   5   1 9256.77 280.221  61
   4  -5  -1 9133.63 281.286 101
  -4   5   1 9298.48 285.077 106
  -4   5   1 9205.95 262.089  87
   4  -5  -1 8903.56 272.869  53
  -4   5   1 9000.61 280.218  97
   4  -5  -1 9023.09 277.031  20
   4  -5  -1 9198.11 281.297 102
  -4   5   1 9258.89 284.157 104
  -4   5   1 9222.29 262.117  80
  -4   5   1 8911.27 281.808  79
  -4   5   1 9297.96 286.553 103
  -4   5   1 8788.85 275.723  77
  -4   5   0 1705.46 119.269  75
   4  -5   0 1673.55 122.125  47
   4  -5   0 1638.10 122.195  99
  -4   5   0 1818.12 129.566 103
   4  -5   0 1756.13 124.521 107
   4  -5   0 1823.94 126.677  46
   4  -5   0 1790.15 122.748  70
  -4   5   0 1638.82 115.324  69
   4  -5   0 1802.33 117.629  53
  -4   5   0 1766.51 127.170 106
  -4   5   0 1757.96 127.931 104
   4  -5   0 1618.02 119.976 102
   4  -5   0 1758.69 125.567 101
   4  -5   0 1630.73 120.034 100
  -4   5   0 1706.91 120.857  41
  -4   5   0 1698.57 116.103  87
  -4   5   0 1735.83 125.321  97
  -4   5   0 1701.67 120.554  55
   4  -5   0 1772.98 116.319  42
  -4   5   0 1776.92 127.223 105
   4  -5   0 1604.80 119.963  20
  -4   5   0 1605.63 119.633  61
   4  -5   0 1755.35 113.505  81
  -4   5   0 1752.60 122.896  79
  -4   5   0 1739.36 121.713  77
   4  -5   0 1854.46 113.830  76
  -4   5  -1 23310.5 407.086  75
   4  -5   1 22469.8 425.288  47
   4  -5   1 22557.9 418.850  46
   4  -5   1 22803.5 405.633  70
   4  -5   1 22426.0 433.175 107
  -4   5  -1 22669.0 401.740  69
  -4   5  -1 22655.1 439.443 106
  -4   5  -1 22967.6 444.227 105
   4  -5   1 23186.5 413.106  42
  -4   5  -1 23203.7 443.754 104
  -4   5  -1 23195.2 445.788 103
   4  -5   1 23099.8 438.362 102
   4  -5   1 22349.5 432.921 100
  -4   5  -1 22748.7 425.616  61
  -4   5  -1 22677.6 440.120  97
  -4   5  -1 22743.8 404.110  55
   4  -5   1 22350.8 434.705 101
  -4   5  -1 22795.0 412.982  87
   4  -5   1 22131.4 428.688  20
   4  -5   1 22804.5 403.054  81
  -4   5  -1 22974.1 412.274  79
   4  -5   1 23035.5 438.488  99
  -4   5  -1 22135.9 420.610  77
  -4   5  -1 22716.9 417.534  41
   4  -5   1 23347.1 399.904  76
  -4   5  -2 1167.29 84.2076  75
   4  -5   2 1218.27 94.3549  47
   4  -5   2 1143.74 91.8911  32
   4  -5   2 1270.17 93.2975  46
  -4   5  -2 1256.47 92.0571  69
  -4   5  -2 1270.82 100.930 103
  -4   5  -2 1257.26 99.9441 106
   4  -5   2 1300.26 100.039 102
   4  -5   2 1237.54 97.4915 101
  -4   5  -2 1295.63 97.1107  41
  -4   5  -2 1264.47 99.3885  97
  -4   5  -2 1093.16 88.5668  61
   4  -5   2 1193.76 94.8092 107
  -4   5  -2 1304.16 99.8679 104
  -4   5  -2 1282.31 99.9947 105
  -4   5  -2 1372.77 98.8538  87
   4  -5   2 1266.97 94.8032  42
   4  -5   2 1278.77 98.3378  20
   4  -5   2 1340.94 100.727  99
   4  -5   2 1344.93 95.4133  81
  -4   5  -2 1175.76 85.7951  79
   4  -5   2 1391.69 101.758 100
  -4   5  -2 1259.65 95.9602  77
  -4   5  -2 1295.74 90.3697  55
   4  -5   2 1317.12 93.6737  76
   4  -5   3 5868.18 173.475  47
   4  -5   3 5782.48 183.775  32
  -4   5  -3 5756.49 181.186 106
   4  -5   3 5913.23 182.292  99
   4  -5   3 5870.14 182.437 107
  -4   5  -3 5696.18 175.276  61
   4  -5   3 6010.25 184.620 102
   4  -5   3 5820.39 179.281  42
   4  -5   3 5910.32 182.634 101
  -4   5  -3 5964.14 174.669  69
   4  -5   3 6110.87 184.959 100
  -4   5  -3 5773.32 181.512  97
  -4   5  -3 5826.53 182.327 104
  -4   5  -3 5774.79 183.243 103
  -4   5  -3 5664.64 155.984  55
  -4   5  -3 5635.87 180.128 105
  -4   5  -3 5821.28 179.600  87
   4  -5   3 5911.26 161.803  85
   4  -5   3 5912.10 181.121  20
  -4   5  -3 6023.07 181.999  41
   4  -5   3 5966.46 179.609  81
  -4   5  -3 5715.60 174.999  77
   4  -5   3 5885.45 176.993  76
  -4   5  -4 1491.90 68.5788  61
  -4   5  -4 1581.02 78.1508  41
   4  -5   4 1596.95 79.8450  32
  -4   5  -4 1542.65 71.0887 103
  -4   5  -4 1642.86 76.4949  69
  -4   5  -4 1530.13 71.0525 105
  -4   5  -4 1514.87 69.5893 104
   4  -5   4 1667.47 79.4891  42
  -4   5  -4 1522.39 70.3279 106
  -4   5  -4 1603.29 77.5028  87
   4  -5   4 1520.01 65.4803  85
   4  -5   4 1582.23 77.9325  81
  -4   5  -4 1445.25 68.2590  97
  -4   5  -4 1630.15 74.8138  77
   4  -5   4 1608.98 77.6959  76
  -4   4  10 12341.5 188.327  29
  -4   4  10 12433.5 177.564  11
  -4   4  10 12113.2 185.798  82
  -4   4   9 562.943 50.3708  71
  -4   4   9 528.217 54.7402  29
  -4   4   9 577.586 55.7065  11
  -4   4   9 615.728 58.5331  57
  -4   4   9 633.136 59.8478  82
  -4   4   8 765.726 70.8162  71
  -4   4   8 684.315 74.0348  29
  -4   4   8 533.460 61.6321  11
  -4   4   8 668.215 71.2825  57
  -4   4   8 710.210 74.2635  82
  -4   4   7 7215.01 229.650  71
  -4   4   7 7305.21 227.433  69
  -4   4   7 7131.32 244.109  29
  -4   4   7 7516.74 228.772  23
  -4   4   7 6919.42 240.750  57
  -4   4   7 7346.81 246.861  82
  -4   4   6 21508.7 400.978  17
  -4   4   6 20934.2 402.042  71
  -4   4   6 20149.1 396.305  69
  -4   4   6 18722.3 417.827  29
  -4   4   6 21161.6 403.608   9
  -4   4   6 19464.4 421.732  57
  -4   4   6 20340.4 395.021  23
  -4   4   6 19975.8 417.636  55
  -4   4   6 20234.1 387.590  41
  -4   4   6 19850.9 417.488  82
  -4   4   5 3482.44 160.335  17
  -4   4   5 3223.69 172.512  75
  -4   4   5 3392.82 163.197  71
  -4   4   5 3460.96 169.143  69
  -4   4   5 3494.43 168.523  41
  -4   4   5 3508.60 168.305  23
  -4   4   5 3257.83 175.201  57
  -4   4   5 3503.25 177.584  55
  -4   4   5 3601.62 167.551   9
  -4   4   5 3301.67 176.163  82
  -4   4   5 3343.94 167.756  80
  -4   4   5 3429.58 161.479  77
  -4   4   4 409.320 67.7647  75
  -4   4   4 525.008 73.6316  73
  -4   4   4 555.671 68.8926  61
  -4   4   4 659.563 140.859   3
  -4   4   4 553.910 67.3017  71
   4  -4  -4 552.413 67.2372  70
  -4   4   4 464.034 69.3025  69
   4  -4  -4 922.547 173.010  66
  -4   4   4 560.448 72.7401  41
   4  -4  -4 751.099 158.723  39
  -4   4   4 475.964 64.4352  23
  -4   4   4 579.756 77.6860  55
  -4   4   4 552.802 69.1523   9
  -4   4   4 539.487 71.6354  80
  -4   4   4 862.458 90.8812  79
  -4   4   4 544.553 70.3648  77
   4  -4  -4 515.649 132.376  62
  -4   4   3 26436.3 486.448  75
  -4   4   3 27291.0 463.380  73
   4  -4  -3 26769.8 445.978  47
  -4   4   3 27357.5 426.105  71
   4  -4  -3 26619.0 468.225  46
   4  -4  -3 26021.2 458.836  70
  -4   4   3 26975.6 467.197  69
   4  -4  -3 28716.5 828.762  64
   4  -4  -3 28083.2 832.439  66
   4  -4  -3 30160.1 896.148  62
  -4   4   3 26768.0 472.041  41
  -4   4   3 27665.8 465.871  61
   4  -4  -3 30510.8 928.996  39
  -4   4   3 26384.8 449.805  23
  -4   4   3 26106.3 474.322  55
  -4   4   3 26435.3 436.721   9
  -4   4   3 30334.1 865.384   3
  -4   4   3 25860.9 466.237  80
  -4   4   3 26612.1 490.300  79
  -4   4   3 26768.4 467.076  77
  -4   4   2 3465.18 175.317  75
  -4   4   2 3605.48 165.627  73
   4  -4  -2 3494.76 167.643  47
   4  -4  -2 3659.51 177.232  46
   4  -4  -2 3466.36 171.631  70
   4  -4  -2 3447.37 168.602 107
  -4   4   2 3481.79 170.598  69
  -4   4   2 3831.65 176.151 106
  -4   4   2 3533.16 170.492 105
  -4   4   2 3955.80 179.931 103
  -4   4   2 3521.16 160.639  87
   4  -4  -2 3406.48 166.364 102
   4  -4  -2 4203.01 332.850  66
   4  -4  -2 4283.64 328.306  64
   4  -4  -2 3517.26 169.090 101
   4  -4  -2 3517.42 168.754 100
  -4   4   2 3679.34 176.448  41
   4  -4  -2 3995.35 326.762  62
   4  -4  -2 3657.68 172.239  99
  -4   4   2 3601.21 174.696  61
  -4   4   2 3534.54 169.569  97
  -4   4   2 3404.60 286.049  96
  -4   4   2 3721.99 174.300 104
   4  -4  -2 3878.03 303.476  95
   4  -4  -2 3788.45 332.527  39
   4  -4  -2 3382.47 284.574  94
  -4   4   2 3509.69 160.952  23
   4  -4  -2 3092.23 275.426  93
   4  -4  -2 3510.10 288.935  92
   4  -4  -2 3266.96 281.226  90
   4  -4  -2 3552.51 168.451  20
  -4   4   2 3561.33 175.386  55
  -4   4   2 3571.21 171.922  80
  -4   4   2 3908.75 309.749   3
  -4   4   2 3526.44 177.486  79
  -4   4   2 3612.42 176.323  77
   4  -4  -1 134351. 1843.99  66
  -4   4   1 116697. 999.116  75
   4  -4  -1 117183. 997.674  47
   4  -4  -1 116490. 1012.05  46
   4  -4  -1 118899. 1006.19  70
   4  -4  -1 117311. 1011.63 107
  -4   4   1 118521. 983.769  69
  -4   4   1 120049. 1022.71 106
  -4   4   1 120813. 1034.40 105
  -4   4   1 120032. 1026.92 104
  -4   4   1 121303. 1039.94 103
   4  -4  -1 116166. 1747.66  95
   4  -4  -1 117640. 1011.84 102
  -4   4   1 115045. 1725.88  96
   4  -4  -1 134855. 1900.75  64
   4  -4  -1 117456. 1014.11 101
   4  -4  -1 118280. 1010.44 100
   4  -4  -1 136062. 1922.92  62
  -4   4   1 118803. 1005.35  41
   4  -4  -1 116879. 1008.89  99
  -4   4   1 118474. 1008.69  61
  -4   4   1 116019. 956.116  60
  -4   4   1 120400. 1025.12  97
   4  -4  -1 140198. 1973.44  39
   4  -4  -1 114599. 1732.98  94
  -4   4   1 119189. 902.375  23
  -4   4   1 121687. 972.242  87
   4  -4  -1 115066. 1734.18  93
   4  -4  -1 116366. 1743.52  92
   4  -4  -1 113770. 1718.12  91
  -4   4   1 116405. 981.143  55
   4  -4  -1 117216. 1751.15  90
   4  -4  -1 118649. 1005.50  20
  -4   4   1 116424. 949.547  80
  -4   4   1 119669. 1021.17  79
  -4   4   1 135193. 1808.45   3
  -4   4   1 120195. 1004.20  77
   4  -4   0 58.7666 28.9331  76
  -4   4   0 7.24103 32.4135  75
   4  -4   0 3.61321 24.7467  47
  -4   4   0 10.4441 36.2469  41
  -4   4   0-73.2419 71.2775   3
   4  -4   0 3.89146 26.3106  46
   4  -4   0 13.0173 27.5915  70
   4  -4   0 26.6463 27.0498 107
   4  -4   0 36.0541 30.1223  42
  -4   4   0-0.25741 26.3247 106
  -4   4   0 30.7341 28.8943 105
  -4   4   0 14.2648 25.5555  44
  -4   4   0 14.4134 35.4756 104
   4  -4   0 217.245 100.387  66
  -4   4   0 13.5371 28.9551 103
  -4   4   0-22.2009 24.4478  65
   4  -4   0 32.0676 30.6098 102
   4  -4   0 27.7116 26.9175 101
   4  -4   0 80.7424 31.2453  27
   4  -4   0 22.9626 32.4318 100
   4  -4   0 24.5834 29.2189  99
  -4   4   0-5.19430 32.5814  61
  -4   4   0 12.5016 24.3405  97
  -4   4   0 27.2417 36.9915  69
  -4   4   0-30.4256 38.4128  55
  -4   4   0-0.22911 31.3100  87
   4  -4   0 5.91958 26.6459  53
   4  -4   0 29.9103 26.8289  20
   4  -4   0 12.9418 26.2589  81
  -4   4   0 125.025 37.6226  80
  -4   4   0 17.6639 26.7383  79
  -4   4   0-9.41791 30.1639  77
  -4   4  -1 2599.31 145.585  75
   4  -4   1 2771.43 158.810  47
   4  -4   1 2663.68 149.502  42
   4  -4   1 2562.43 152.641  46
   4  -4   1 2635.46 151.321  30
   4  -4   1 2529.32 146.909  70
  -4   4  -1 2584.24 148.539  69
   4  -4   1 2574.29 155.353 107
   4  -4   1 2730.79 146.486  53
  -4   4  -1 2856.66 166.920 103
   4  -4   1 2586.87 156.043 102
  -4   4  -1 2744.84 162.206 106
   4  -4   1 2674.91 159.409 100
   4  -4   1 2685.36 159.689  99
  -4   4  -1 2702.71 156.364  61
  -4   4  -1 2728.83 161.690  97
   4  -4   1 2729.91 160.446 101
  -4   4  -1 2892.27 160.755  41
  -4   4  -1 2652.03 147.258  55
  -4   4  -1 2713.24 145.439  44
  -4   4  -1 2630.23 151.556  87
   4  -4   1 2574.39 154.799  20
  -4   4  -1 2698.76 161.583 105
  -4   4  -1 2734.31 162.354 104
   4  -4   1 2856.74 152.811  81
  -4   4  -1 2558.89 148.018  79
  -4   4  -1 2641.25 152.033  77
   4  -4   1 2871.59 151.488  76
  -4   4  -2 13623.2 311.098  75
   4  -4   2 13536.9 344.357  47
   4  -4   2 13802.9 339.567  42
  -4   4  -2 13234.2 348.592 106
   4  -4   2 13964.7 343.271  46
   4  -4   2 13564.5 345.151  30
   4  -4   2 13900.6 324.246  70
   4  -4   2 13474.1 349.506 107
  -4   4  -2 13415.8 328.561  69
   4  -4   2 13317.6 349.536 101
  -4   4  -2 14174.1 322.818  55
  -4   4  -2 14121.5 327.912  44
  -4   4  -2 13732.0 358.243 103
   4  -4   2 13512.1 351.164 102
   4  -4   2 13512.5 350.054 100
  -4   4  -2 13676.3 339.199  41
   4  -4   2 13565.6 350.279  99
  -4   4  -2 13439.3 341.578  61
  -4   4  -2 13643.9 354.170  97
  -4   4  -2 13603.2 354.828 104
  -4   4  -2 13897.1 359.039 105
  -4   4  -2 14069.7 346.234  87
   4  -4   2 13957.5 305.500  53
   4  -4   2 12973.2 312.972  85
   4  -4   2 13484.7 347.658  20
   4  -4   2 13990.1 338.559  81
  -4   4  -2 12118.5 315.814  79
  -4   4  -2 13709.9 338.538  77
   4  -4   2 13690.6 331.628  76
   4  -4   3 22439.5 414.207  47
   4  -4   3 22344.9 431.608  32
   4  -4   3 22606.1 411.147  46
   4  -4   3 21275.1 426.791  30
  -4   4  -3 23175.7 413.524  69
  -4   4  -3 22710.5 430.989 106
  -4   4  -3 22298.2 428.226 105
  -4   4  -3 22996.9 406.139  44
  -4   4  -3 22484.0 429.027 104
  -4   4  -3 22698.0 432.610 103
   4  -4   3 22855.8 429.058 102
   4  -4   3 23164.5 426.294  42
   4  -4   3 23147.1 432.114 101
   4  -4   3 22909.8 426.873 100
  -4   4  -3 23098.9 418.838  41
   4  -4   3 23138.2 429.089  99
  -4   4  -3 22595.4 408.710  61
  -4   4  -3 21996.6 425.584  97
  -4   4  -3 22894.9 424.367  87
   4  -4   3 24111.6 423.121  85
   4  -4   3 22629.3 423.908  20
   4  -4   3 22329.4 424.996 107
   4  -4   3 22832.9 421.720  81
  -4   4  -3 23176.8 379.343  55
  -4   4  -3 22829.5 409.926  77
   4  -4   3 22963.1 418.083  76
   4  -4   4 2804.03 130.273  47
  -4   4  -4 2700.52 130.738 104
   4  -4   4 2659.12 137.451  32
  -4   4  -4 2624.49 127.349  44
  -4   4  -4 2744.98 131.583  69
  -4   4  -4 2669.28 130.793 103
   4  -4   4 2763.36 132.099 102
   4  -4   4 2787.03 135.010  85
   4  -4   4 2705.11 135.435  42
   4  -4   4 2674.18 128.109 100
   4  -4   4 2642.66 127.022  99
  -4   4  -4 2815.84 126.642  61
  -4   4  -4 2612.19 127.710  97
  -4   4  -4 2730.04 130.563 106
   4  -4   4 2681.44 129.083 101
  -4   4  -4 2744.61 133.057  87
  -4   4  -4 2645.50 129.781 105
   4  -4   4 2767.75 129.569  20
  -4   4  -4 2803.01 134.354  41
   4  -4   4 2615.09 131.959  81
   4  -4   4 2673.14 128.411 107
  -4   4  -4 2665.06 126.417  77
   4  -4   4 2715.65 133.825  76
   4  -4   5 188.167 33.2799  32
  -4   4  -5 189.276 34.2300  41
   4  -4   5 199.745 34.3146  42
  -4   4  -5 224.637 36.9429  44
   4  -4   5 195.630 35.1630  24
  -4   4  -5 185.247 33.1893  87
   4  -4   5 164.328 30.1635  85
  -4   4  -5 200.983 36.0243  69
   4  -4   5 180.430 32.4434  81
  -4   4  -5 160.730 28.6645  77
   4  -4   5 209.426 34.4217  76
  -4   3  10 8307.81 179.208  29
  -4   3  10 8095.13 170.913  57
  -4   3  10 8219.81 160.895  11
  -4   3  10 8296.67 178.810  82
  -4   3   9 4724.81 170.434  57
  -4   3   9 4774.05 158.635  11
  -4   3   9 4926.63 179.123  29
  -4   3   9 4819.74 176.574  82
  -4   3   8 23301.7 377.946  71
  -4   3   8 23203.5 394.589  11
  -4   3   8 23002.4 429.630  57
  -4   3   8 22528.1 436.762  82
  -4   3   8 21943.0 432.844  29
  -4   3   7 1057.42 85.1376  23
  -4   3   7 1131.57 94.0390  71
  -4   3   7 1023.81 94.2529  69
  -4   3   7 1058.82 102.979  57
  -4   3   7 923.814 97.8668  82
  -4   3   7 922.425 97.5245  29
  -4   3   6 1990.17 125.922  17
  -4   3   6 1796.42 119.355  71
  -4   3   6 1688.24 122.401  69
  -4   3   6 1706.96 131.657  29
  -4   3   6 1779.45 120.793  41
  -4   3   6 1735.07 130.377  57
  -4   3   6 1767.15 115.375  23
  -4   3   6 1710.84 125.715  55
  -4   3   6 1622.56 132.171  82
  -4   3   5 1615.78 124.616  75
  -4   3   5 1730.22 115.338  17
  -4   3   5 1502.89 108.489  71
  -4   3   5 1558.48 116.594  41
   4  -3  -5 1874.17 222.797  62
   4  -3  -5 1970.96 224.863  66
   4  -3  -5 1801.11 217.832  39
  -4   3   5 1591.86 125.715  57
  -4   3   5 1553.68 111.143  23
  -4   3   5 1694.28 121.233  55
  -4   3   5 1737.41 115.504   9
  -4   3   5 1664.31 127.472  82
  -4   3   5 1979.05 212.730   3
  -4   3   5 1522.86 107.375  77
  -4   3   4 451.264 60.4408  17
  -4   3   4 469.619 68.4111  75
  -4   3   4 384.749 105.931   3
  -4   3   4 402.265 58.3623  71
  -4   3   4 378.923 62.6005  69
  -4   3   4 497.934 67.7525  41
   4  -3  -4 356.335 99.5074  66
   4  -3  -4 516.683 115.845  62
   4  -3  -4 522.981 105.771  64
  -4   3   4 420.889 59.5970  61
  -4   3   4 427.995 59.7215  23
   4  -3  -4 181.931 83.6754  39
  -4   3   4 478.640 67.5934  55
  -4   3   4 370.452 57.2886   9
  -4   3   4 481.638 65.1133  80
  -4   3   4 515.328 71.0897  79
  -4   3   4 380.774 61.3845  77
  -4   3   3 15578.3 355.263  75
  -4   3   3 16040.1 338.630  73
  -4   3   3 15511.5 338.507  61
  -4   3   3 15877.3 320.458  71
   4  -3  -3 15588.0 331.232  70
   4  -3  -3 16502.9 614.245  66
   4  -3  -3 16719.2 602.526  64
  -4   3   3 15099.4 532.570  96
   4  -3  -3 16649.0 628.220  62
  -4   3   3 15502.4 346.919  41
   4  -3  -3 16379.7 633.488  39
  -4   3   3 16248.6 336.786  23
  -4   3   3 15681.5 346.934  55
  -4   3   3 14697.2 533.460  91
  -4   3   3 16160.3 590.510   3
  -4   3   3 15799.3 347.559  80
  -4   3   3 15741.8 354.883  79
  -4   3   3 15493.9 344.395  69
  -4   3   3 16168.5 348.876  77
  -4   3   2 6599.26 223.866  75
   4  -3  -2 6748.04 390.838  66
   4  -3  -2 6712.80 223.179  46
  -4   3   2 6688.92 212.854  23
   4  -3  -2 6689.65 220.630  70
  -4   3   2 6592.71 222.997  69
   4  -3  -2 6965.24 396.275  64
   4  -3  -2 6084.40 356.595  95
   4  -3  -2 7046.66 406.830  62
  -4   3   2 6536.83 223.154  41
  -4   3   2 6580.23 223.777  61
  -4   3   2 5645.96 345.847  96
   4  -3  -2 6282.24 393.865  39
   4  -3  -2 5724.81 345.576  94
   4  -3  -2 5385.12 334.510  93
   4  -3  -2 5739.94 345.925  92
  -4   3   2 6474.72 218.695  55
   4  -3  -2 6201.27 363.177  90
  -4   3   2 6607.63 373.645   3
  -4   3   2 6634.59 221.364  80
  -4   3   2 6614.47 229.141  79
  -4   3   2 6748.22 225.744  77
  -4   3   1 49522.2 604.630  75
   4  -3  -1 47794.6 591.938  47
   4  -3  -1 47120.8 599.175  46
   4  -3  -1 48353.2 601.330  70
  -4   3   1 48211.9 600.897  69
  -4   3   1 47722.1 563.537  23
   4  -3  -1 47882.6 616.975  99
  -4   3   1 47934.7 615.843 106
  -4   3   1 46833.3 615.221 105
  -4   3   1 47618.3 614.422 104
   4  -3  -1 47945.8 611.759 100
   4  -3  -1 47741.6 616.769 102
  -4   3   1 47270.5 995.292  65
   4  -3  -1 47445.3 612.992 107
   4  -3  -1 43712.5 993.444  95
   4  -3  -1 49884.7 1078.33  64
  -4   3   1 49224.3 1021.53  63
   4  -3  -1 49317.5 1079.63  62
  -4   3   1 48452.2 604.963  61
   4  -3  -1 47281.2 1042.52  66
  -4   3   1 47513.2 615.465  97
  -4   3   1 42671.1 989.497  96
  -4   3   1 47161.0 619.632 103
   4  -3  -1 48631.7 1075.33  39
   4  -3  -1 44605.8 1005.79  94
   4  -3  -1 43080.4 983.839  93
   4  -3  -1 43806.6 995.020  92
   4  -3  -1 43051.0 980.859  91
   4  -3  -1 43046.4 992.359  90
  -4   3   1 47097.6 584.518  55
  -4   3   1 47324.6 583.361  87
  -4   3   1 49225.3 614.823  41
   4  -3  -1 47362.5 607.142  20
  -4   3   1 48160.3 1004.86   3
  -4   3   1 46429.5 578.814  80
   4  -3  -1 47120.9 613.892 101
  -4   3   1 47981.7 608.838  79
  -4   3   1 47538.3 601.497  77
  -4   3   0 4927.94 192.462  75
   4  -3   0 4934.18 197.014  47
   4  -3   0 5187.38 205.199  46
   4  -3   0 4971.14 198.147  70
  -4   3   0 5262.56 200.749  69
  -4   3   0 5093.54 208.957 106
  -4   3   0 4850.32 191.925  44
  -4   3   0 5044.39 209.556 105
  -4   3   0 5012.26 208.637 104
  -4   3   0 5069.79 209.547 103
  -4   3   0 4280.66 326.191  96
  -4   3   0 4818.71 329.475  65
   4  -3   0 4994.07 205.131 102
   4  -3   0 5066.95 207.738 101
  -4   3   0 5271.72 204.600  41
   4  -3   0 4631.97 198.677 100
   4  -3   0 5274.48 361.234  62
   4  -3   0 4726.14 201.438  99
  -4   3   0 5023.94 202.065  61
   4  -3   0 4820.68 189.606  27
  -4   3   0 5230.81 211.144  97
   4  -3   0 5392.41 358.684  66
   4  -3   0 4756.55 342.213  95
   4  -3   0 5023.15 352.790  39
   4  -3   0 4832.50 344.599  94
   4  -3   0 4593.42 333.628  93
   4  -3   0 4547.19 335.809  92
   4  -3   0 4828.39 338.552  91
  -4   3   0 5118.21 191.991  55
   4  -3   0 4619.45 341.354  90
   4  -3   0 5337.71 363.418  64
  -4   3   0 5083.31 198.960  87
   4  -3   0 5242.04 201.058  53
   4  -3   0 4873.22 201.502  20
   4  -3   0 5021.78 206.479 107
  -4   3   0 5247.62 330.368   3
  -4   3   0 4909.94 182.908  80
  -4   3   0 5040.79 198.926  79
  -4   3   0 5268.31 203.286  77
  -4   3  -1 16435.4 348.090  75
   4  -3   1 16550.8 374.194  47
   4  -3   1 17196.4 380.227  46
   4  -3   1 16416.0 370.748  30
   4  -3   1 16877.9 368.152  70
  -4   3  -1 16947.5 387.135 106
  -4   3  -1 17046.2 393.175 105
   4  -3   1 17348.0 391.353 107
  -4   3  -1 16382.6 364.523  44
  -4   3  -1 16512.4 384.443 104
   4  -3   1 19180.1 701.373  66
  -4   3  -1 16948.2 392.830 103
  -4   3  -1 18498.0 681.918  65
   4  -3   1 17124.6 390.222 102
   4  -3   1 17183.8 352.310  27
   4  -3   1 16809.2 387.494 101
  -4   3  -1 18999.0 695.707  63
   4  -3   1 17107.7 388.014 100
   4  -3   1 18545.6 691.135  62
  -4   3  -1 17503.3 377.435  41
   4  -3   1 16862.3 387.129  99
  -4   3  -1 17104.7 376.463  61
  -4   3  -1 17651.5 374.796  69
  -4   3  -1 17024.0 390.055  97
  -4   3  -1 16051.1 650.385  96
   4  -3   1 17086.5 670.342  95
   4  -3   1 18938.1 684.067  39
   4  -3   1 16258.9 652.212  94
   4  -3   1 16731.4 659.324  93
   4  -3   1 16680.9 660.528  92
   4  -3   1 16763.6 657.131  91
   4  -3   1 19745.1 386.467  42
  -4   3  -1 16549.3 351.657  55
   4  -3   1 15640.9 642.290  90
  -4   3  -1 18712.9 618.514  37
  -4   3  -1 17258.7 375.913  87
   4  -3   1 16928.4 362.624  53
   4  -3   1 17437.0 388.185  20
   4  -3   1 18482.4 691.443  64
   4  -3   1 17024.3 361.207  81
  -4   3  -1 17973.0 597.587   3
  -4   3  -1 16699.6 359.261  79
  -4   3  -1 17436.1 344.905  50
  -4   3  -1 17428.2 375.375  77
   4  -3   1 16524.2 353.229  76
  -4   3  -2 28481.6 443.338  75
   4  -3   2 26749.9 484.192  47
   4  -3   2 26622.3 468.448  42
   4  -3   2 27158.6 485.210  46
   4  -3   2 26671.9 499.147  30
   4  -3   2 27077.0 465.879  70
   4  -3   2 26380.7 489.914 107
  -4   3  -2 26602.9 467.736  69
  -4   3  -2 27231.1 498.201 106
  -4   3  -2 32632.2 946.327  65
  -4   3  -2 27139.8 500.125 105
  -4   3  -2 26859.9 496.845 104
  -4   3  -2 27168.6 504.067 103
   4  -3   2 31724.1 933.169  66
   4  -3   2 26438.7 491.281 102
  -4   3  -2 31283.1 925.668  63
   4  -3   2 27003.4 493.311 100
  -4   3  -2 26859.7 474.056  44
   4  -3   2 29510.5 886.350  62
   4  -3   2 26996.3 493.546  99
  -4   3  -2 27869.5 482.931  41
  -4   3  -2 26620.3 473.954  61
  -4   3  -2 27091.1 497.509  97
  -4   3  -2 26614.3 857.320  96
   4  -3   2 25691.1 839.551  95
   4  -3   2 27213.3 862.207  94
   4  -3   2 25967.3 843.600  93
   4  -3   2 25851.3 841.542  92
   4  -3   2 26782.8 853.881  91
  -4   3  -2 28254.2 451.037  55
   4  -3   2 27519.2 868.858  90
  -4   3  -2 29522.4 836.035  37
  -4   3  -2 27122.9 481.558  87
   4  -3   2 26858.7 451.184  53
   4  -3   2 27126.7 489.941  20
   4  -3   2 29603.3 868.350  39
   4  -3   2 27492.0 474.900  81
   4  -3   2 27239.8 498.021 101
  -4   3  -2 26636.7 446.879  79
  -4   3  -2 27528.2 444.978  50
  -4   3  -2 26782.4 471.405  77
   4  -3   2 27008.6 471.517  76
   4  -3   3 12176.2 325.326  47
   4  -3   3 12088.1 333.157  32
  -4   3  -3 12475.9 321.561  69
   4  -3   3 12319.0 325.699  46
   4  -3   3 12359.2 347.418  30
   4  -3   3 12567.1 306.981  70
  -4   3  -3 12205.8 334.538 105
  -4   3  -3 12670.0 339.478 103
   4  -3   3 12520.0 333.501 102
   4  -3   3 12429.0 328.253  42
   4  -3   3 12389.2 332.178 101
   4  -3   3 12545.7 333.501 107
   4  -3   3 12561.9 332.642 100
  -4   3  -3 12643.3 324.943  41
  -4   3  -3 12532.2 319.030  61
  -4   3  -3 12595.2 337.217  97
   4  -3   3 12321.3 330.402  99
  -4   3  -3 12523.3 337.214 104
   4  -3   3 13338.1 340.857  85
  -4   3  -3 12114.1 330.188 106
   4  -3   3 12310.8 327.947  20
   4  -3   3 12470.6 328.644  81
  -4   3  -3 12369.8 327.548  87
  -4   3  -3 12842.8 306.889  50
  -4   3  -3 12396.6 327.613  44
  -4   3  -3 12458.1 318.907  77
   4  -3   3 12405.9 326.297  76
   4  -3   4 9899.57 282.046  47
   4  -3   4 9590.21 292.764  32
   4  -3   4 9751.71 276.992  46
   4  -3   4 9211.66 294.951  30
   4  -3   4 9648.20 276.707 107
  -4   3  -4 9975.28 278.634  69
  -4   3  -4 10017.8 282.574 106
  -4   3  -4 9658.26 279.607 104
   4  -3   4 10157.3 284.544 102
  -4   3  -4 10093.5 288.489 103
   4  -3   4 9942.92 287.855  42
   4  -3   4 9809.53 280.540 101
   4  -3   4 9693.87 276.981  99
  -4   3  -4 10140.6 278.619  41
  -4   3  -4 10064.7 269.385  61
  -4   3  -4 9951.68 282.788  97
   4  -3   4 9888.72 280.873 100
  -4   3  -4 9674.71 283.274  44
  -4   3  -4 9777.25 282.294 105
  -4   3  -4 9898.33 281.566  87
   4  -3   4 10331.1 299.750  85
   4  -3   4 9542.13 272.410  20
   4  -3   4 9583.73 283.541  81
  -4   3  -4 10100.2 267.266  50
  -4   3  -4 9580.61 267.100  77
   4  -3   4 9857.15 285.046  76
   4  -3   5 11782.8 271.750  47
   4  -3   5 11876.7 302.863  32
   4  -3   5 11916.0 267.225  46
  -4   3  -5 11940.0 289.286  44
   4  -3   5 12172.0 303.157  85
   4  -3   5 11752.7 291.771  42
  -4   3  -5 11995.1 273.616  41
  -4   3  -5 11669.1 257.721  97
  -4   3  -5 12289.7 282.809  69
  -4   3  -5 12059.5 263.993 103
  -4   3  -5 12322.7 281.834  87
  -4   3  -5 11853.7 261.346 104
  -4   3  -5 11694.8 259.843 106
  -4   3  -5 12324.3 265.905 105
   4  -3   5 11875.2 293.276  81
  -4   3  -5 12095.1 265.723  50
  -4   3  -5 11780.0 258.516  77
   4  -3   5 11734.4 288.285  76
   4  -3   6 604.725 60.3978  32
   4  -3   6 611.060 57.9813  42
  -4   3  -6 640.284 59.8894  44
  -4   3  -6 709.911 59.9192  69
   4  -3   6 618.308 59.4851  24
  -4   3  -6 680.489 54.9238  41
  -4   3  -6 604.298 51.3046  87
   4  -3   6 603.088 60.3710  85
   4  -3   6 730.857 63.8435  81
  -4   3  -7 2145.13 73.9551  44
   4  -3   7 2260.94 76.3444  42
   4  -3   7 2188.60 79.0062  85
  -4   2  10 40.0832 18.9948  29
  -4   2  10 28.4264 19.5713  57
  -4   2  10 25.8659 16.7618  82
  -4   2   9 684.421 71.9231  29
  -4   2   9 806.413 69.6807  11
  -4   2   9 717.224 71.1160  57
  -4   2   9 747.049 73.8494  82
  -4   2   8 1776.42 104.511  71
  -4   2   8 1857.58 131.305  29
  -4   2   8 1850.91 114.793  11
  -4   2   8 1667.43 120.883  57
  -4   2   8 1728.72 124.920  82
  -4   2   7 26043.4 431.817  71
  -4   2   7 24205.4 490.260  29
  -4   2   7 25526.0 436.061  11
  -4   2   7 24013.9 474.119  57
  -4   2   7 25360.5 492.099  82
  -4   2   7 25317.3 434.327  50
  -4   2   6 1541.06 111.472  17
  -4   2   6 1473.84 106.429  71
  -4   2   6 1379.49 110.736  69
  -4   2   6 1376.15 115.435  29
   4  -2  -6 1520.01 198.389  66
  -4   2   6 1628.36 119.679  41
   4  -2  -6 1985.88 232.919  62
  -4   2   6 1436.89 100.109  23
  -4   2   6 1391.77 118.708  57
   4  -2  -6 1753.54 214.658  39
  -4   2   6 1290.57 116.793  82
  -4   2   6 1347.45 103.872  50
  -4   2   5 29705.5 459.568  17
  -4   2   5 28894.5 455.689  71
  -4   2   5 28196.8 475.514  41
  -4   2   5 27368.8 467.996  69
   4  -2  -5 31441.2 871.901  66
   4  -2  -5 32552.9 897.084  39
   4  -2  -5 30517.2 783.876  64
   4  -2  -5 31660.0 860.888  62
  -4   2   5 28047.2 435.767  23
  -4   2   5 26886.2 486.024  57
  -4   2   5 28021.5 473.458  55
  -4   2   5 29316.4 441.523   9
  -4   2   5 29443.9 759.216   3
  -4   2   5 27437.1 508.458  82
  -4   2   5 27401.6 442.745  50
  -4   2   5 27985.2 458.665  77
  -4   2   4 4898.23 179.867  17
  -4   2   4 4446.82 186.479  75
  -4   2   4 4857.43 180.523  71
  -4   2   4 4710.95 188.091  69
   4  -2  -4 4655.22 320.061  66
  -4   2   4 4807.73 191.063  41
   4  -2  -4 5477.61 352.613  62
   4  -2  -4 4792.30 335.750  39
  -4   2   4 4583.91 175.211  23
  -4   2   4 4787.56 188.115  55
   4  -2  -4 4784.76 306.704  64
  -4   2   4 4585.33 300.071   3
   4  -2  -3 21041.9 637.798  64
   4  -2  -3 22005.2 676.083  62
  -4   2   3 20057.5 592.967  40
   4  -2  -3 19779.4 560.871  95
   4  -2  -3 21630.2 666.793  39
   4  -2  -3 19806.4 561.254  94
   4  -2  -3 19829.6 563.434  93
  -4   2   3 20280.8 573.962  96
   4  -2  -3 19317.7 554.089  92
  -4   2   3 19769.2 566.326  91
   4  -2  -3 19838.0 564.038  90
  -4   2   3 21046.9 628.251   3
   4  -2  -3 20704.1 654.768  66
   4  -2  -2 13205.0 512.934  66
   4  -2  -2 14309.5 524.501  64
  -4   2   2 14843.8 458.775  65
  -4   2   2 14489.2 471.024  63
   4  -2  -2 14695.1 542.180  62
  -4   2   2 13094.7 478.553  96
   4  -2  -2 13344.1 485.488  95
   4  -2  -2 13787.0 526.049  39
   4  -2  -2 13136.9 485.752  94
   4  -2  -2 13045.8 479.264  93
   4  -2  -2 12599.3 471.807  92
  -4   2   2 12756.8 475.272  91
   4  -2  -2 13012.1 483.260  90
  -4   2   2 13952.1 507.881   3
   4  -2  -2 14476.0 460.712  34
  -4   2   1 165.224 52.9056   3
   4  -2  -1 162.903 64.4208  62
   4  -2  -1 133.131 52.3781  66
  -4   2   1 306.662 78.8056  65
   4  -2  -1 127.262 52.2081  64
   4  -2  -1 235.273 73.7023  94
  -4   2   1 185.152 61.1644  96
   4  -2  -1 58.0258 42.5075  95
   4  -2  -1 144.294 69.1748  39
   4  -2  -1 76.8159 45.2536  93
   4  -2  -1 124.992 54.6677  90
   4  -2  -1 114.330 52.1848  92
  -4   2   1 285.228 71.9921  63
  -4   2   0 36.8409 29.5757   3
  -4   2   0 99.9890 45.3267  63
   4  -2   0 50.2651 45.2514  66
  -4   2   0 77.0339 42.0513  65
   4  -2   0 83.8476 36.0176  64
   4  -2   0-151.093 57.3057  62
  -4   2   0 224.506 67.2112  96
   4  -2   0 153.887 57.3730  95
   4  -2   0 243.918 73.7395  94
   4  -2   0 174.129 73.2240  39
   4  -2   0 253.093 72.7827  93
   4  -2   0 181.490 63.9589  92
   4  -2   0 214.209 69.9934  91
   4  -2   0 301.163 82.2742  90
  -4   2  -1 351.252 76.2912   3
   4  -2   1 317.004 86.4299  66
  -4   2  -1 262.853 79.7533  65
   4  -2   1 298.631 81.0242  64
   4  -2   1 202.398 62.6717  62
  -4   2  -1 334.859 83.7204  63
  -4   2  -1 272.215 78.9847  96
   4  -2   1 287.332 81.9333  95
   4  -2   1 239.858 75.1036  94
   4  -2   1 547.355 106.524  39
   4  -2   1 263.111 83.4326  93
   4  -2   1 84.2524 46.6748  92
   4  -2   1 266.916 76.7838  91
   4  -2   1 175.775 73.3760  90
  -4   2  -1 216.317 65.3751  37
   4  -2   2 31458.4 498.047  47
  -4   2  -2 31772.5 503.139  44
   4  -2   2 32516.7 507.479  46
   4  -2   2 31752.9 522.075  30
   4  -2   2 31947.7 485.350  70
   4  -2   2 33258.2 842.351  39
   4  -2   2 32525.9 518.075 107
  -4   2  -2 32492.7 516.881 106
   4  -2   2 32353.2 516.582  99
  -4   2  -2 32628.6 522.260 104
  -4   2  -2 31566.6 518.236 103
   4  -2   2 35377.0 922.223  66
   4  -2   2 32437.1 519.639 102
   4  -2   2 33330.9 871.855  62
   4  -2   2 32099.2 486.396  42
   4  -2   2 34078.4 895.060  64
   4  -2   2 31676.0 515.995 101
  -4   2  -2 35072.6 917.042  63
  -4   2  -2 32563.6 492.003  41
  -4   2  -2 31461.1 488.955  61
  -4   2  -2 32271.7 517.422  97
  -4   2  -2 28777.3 834.464  96
   4  -2   2 30168.3 849.295  95
   4  -2   2 30150.2 848.817  94
   4  -2   2 29684.0 842.947  93
   4  -2   2 29984.4 846.568  92
   4  -2   2 30429.0 849.885  91
   4  -2   2 30271.8 855.497  90
  -4   2  -2 34127.5 840.344  37
  -4   2  -2 34389.0 900.820  65
  -4   2  -2 31677.4 495.868  87
   4  -2   2 31396.0 476.929  53
   4  -2   2 32561.4 497.516  85
   4  -2   2 32831.6 511.324  20
  -4   2  -2 32334.6 489.089  69
   4  -2   2 31777.9 489.027  81
   4  -2   2 32867.3 479.928  27
  -4   2  -2 32589.5 486.846  50
  -4   2  -2 32172.1 522.607 105
   4  -2   2 32694.1 515.536 100
  -4   2  -2 31765.9 482.802  77
   4  -2   2 32344.0 492.854  76
   4  -2   3 1898.80 128.128  47
   4  -2   3 1857.03 128.124  32
   4  -2   3 1746.51 122.779  46
   4  -2   3 1736.94 130.352  30
  -4   2  -3 1930.14 126.347  69
   4  -2   3 1998.96 124.200  70
   4  -2   3 2064.51 233.025   2
   4  -2   3 1810.84 125.680 107
  -4   2  -3 1843.11 129.084  44
  -4   2  -3 1718.45 124.185 106
  -4   2  -3 1635.27 122.127 105
  -4   2  -3 1838.92 128.105 104
   4  -2   3 1809.74 124.276  42
  -4   2  -3 1856.67 128.563 103
   4  -2   3 1887.95 127.172 102
   4  -2   3 1765.66 124.985 101
  -4   2  -3 2316.44 246.111  63
   4  -2   3 1888.57 126.535 100
   4  -2   3 2261.08 233.046  62
  -4   2  -3 1800.29 122.035  41
  -4   2  -3 1908.75 124.193  61
  -4   2  -3 1852.03 127.175  97
   4  -2   3 1821.87 126.342  99
  -4   2  -3 1716.07 209.970  96
   4  -2   3 1753.55 210.427  95
   4  -2   3 1606.62 203.828  94
   4  -2   3 2406.96 241.307  39
   4  -2   3 1725.54 210.327  93
   4  -2   3 1981.43 227.219  92
  -4   2  -3 2289.40 244.833  65
   4  -2   3 1708.93 204.384  91
   4  -2   3 1693.66 215.015  90
  -4   2  -3 1798.10 212.104  37
  -4   2  -3 1788.54 123.559  87
   4  -2   3 1881.18 117.347  53
   4  -2   3 1870.92 130.198  85
   4  -2   3 1761.98 123.173  20
   4  -2   3 1901.01 127.663  81
  -4   2  -3 1889.55 122.585  77
   4  -2   3 1845.83 125.027  76
   4  -2   4 21931.3 438.180  47
  -4   2  -4 22718.2 427.619  69
   4  -2   4 21802.0 451.113  32
   4  -2   4 21613.3 433.164  46
   4  -2   4 21417.8 463.793  30
   4  -2   4 22458.1 396.852  70
  -4   2  -4 22191.1 431.530 106
   4  -2   4 22779.2 435.281 101
  -4   2  -4 22156.2 433.744 105
  -4   2  -4 21995.6 432.871 104
  -4   2  -4 22367.7 437.800 103
   4  -2   4 22299.7 432.081 102
   4  -2   4 21978.3 440.444  42
   4  -2   4 22389.3 431.613 100
   4  -2   4 22004.8 426.541  99
  -4   2  -4 22700.4 422.417  41
  -4   2  -4 22333.2 407.304  61
  -4   2  -4 21556.0 429.480  97
  -4   2  -4 22294.2 427.274  87
   4  -2   4 22991.1 465.484  85
   4  -2   4 22667.9 429.302  20
   4  -2   4 21725.1 429.630 107
   4  -2   4 22165.1 443.934  81
  -4   2  -4 22299.1 407.449  77
   4  -2   4 21749.5 436.680  76
  -4   2  -5 15208.5 328.992  41
   4  -2   5 14979.3 322.302  99
   4  -2   5 14885.6 320.679  74
   4  -2   5 13973.7 334.901  47
   4  -2   5 14191.0 360.740  32
   4  -2   5 14065.9 335.897  46
   4  -2   5 13231.3 358.210  30
   4  -2   5 14759.9 322.917 101
  -4   2  -5 14546.6 323.052 106
  -4   2  -5 14330.1 330.765  69
  -4   2  -5 14772.9 326.065 103
   4  -2   5 14354.7 350.536  42
   4  -2   5 14644.0 318.917 100
   4  -2   5 14045.4 318.853 107
  -4   2  -5 14123.0 318.538  97
  -4   2  -5 14600.1 323.599 105
  -4   2  -5 14433.2 320.646 104
  -4   2  -5 14857.3 332.011  87
  -4   2  -5 14015.6 347.371  44
   4  -2   5 14417.8 317.314  20
   4  -2   5 14341.8 362.866  85
   4  -2   5 14942.2 359.896  81
   4  -2   5 14865.5 325.354 102
  -4   2  -5 14913.6 307.852  77
   4  -2   5 14026.8 344.427  76
   4  -2   6 3943.29 155.794  47
   4  -2   6 3910.52 177.393  32
   4  -2   6 4036.68 156.928  46
   4  -2   6 3943.01 170.523  42
  -4   2  -6 3996.59 170.073  44
  -4   2  -6 4148.05 152.369  41
   4  -2   6 3912.49 178.153  24
   4  -2   6 3923.28 145.194  54
  -4   2  -6 4113.73 153.719  87
   4  -2   6 3954.39 178.408  85
  -4   2  -6 4228.49 163.524  69
   4  -2   6 4106.89 176.353  81
  -4   2  -7 1169.43 71.5056  69
   4  -2   7 1265.44 81.7385  42
  -4   2  -7 1152.58 78.6126  44
   4  -2   7 1139.35 80.3403  24
   4  -2   7 1320.56 87.7745  85
   4  -2   7 1214.25 79.2955  81
  -4   2  -7 1165.97 76.3395  50
  -4   1  10 2428.59 92.0753  29
  -4   1  10 2557.30 96.8667  57
  -4   1  10 2417.36 91.5508  82
  -4   1   9 2635.17 134.357  31
  -4   1   9 2589.31 128.164  57
  -4   1   9 2706.95 131.377  29
  -4   1   9 2605.22 126.035  59
  -4   1   9 2652.33 128.249  82
  -4   1   8 12103.9 318.169  29
  -4   1   8 12947.3 295.150  11
  -4   1   8 12138.2 315.739  57
  -4   1   8 12446.7 313.467  59
  -4   1   8 12317.9 309.989  21
  -4   1   8 12360.0 319.429  82
  -4   1   7 17529.4 337.586  71
  -4   1   7 17213.0 383.951  59
  -4   1   7 17630.7 357.919  11
  -4   1   7 16050.9 381.391  57
  -4   1   7 16033.5 389.742  29
  -4   1   7 16921.8 394.618  82
  -4   1   7 16105.5 367.463  50
  -4   1   6 1746.44 111.726  71
  -4   1   6 1617.28 120.542  69
  -4   1   6 1563.69 114.357  44
  -4   1   6 1712.48 127.261  29
   4  -1  -6 1961.69 236.287  66
   4  -1  -6 2078.97 232.766  62
  -4   1   6 1663.13 119.299  59
  -4   1   6 1753.97 113.339  11
  -4   1   6 1684.47 123.833  57
  -4   1   6 1614.45 126.498  82
  -4   1   6 1655.82 117.913  50
   4  -1  -6 2263.15 247.635  39
  -4   1   5 5400.96 191.425  71
  -4   1   5 5143.61 201.164  69
  -4   1   5 5155.23 196.717  44
  -4   1   5 5159.53 201.708  41
   4  -1  -5 5469.94 356.790  62
  -4   1   5 5263.29 199.685  59
   4  -1  -5 5861.60 377.664  39
  -4   1   5 5297.84 206.748  57
  -4   1   5 5648.25 199.982  10
  -4   1   5 5846.85 320.564   3
  -4   1   5 5743.13 220.949  82
  -4   1   5 5278.06 201.099  50
   4  -1  -5 5420.85 329.703  64
   4  -1  -4 63012.0 1157.71  66
   4  -1  -4 59528.1 1119.18  62
   4  -1  -4 61270.2 1078.18  64
  -4   1   4 57829.9 1013.55  40
   4  -1  -4 63007.1 1136.23  39
  -4   1   4 60254.0 1014.08   3
   4  -1  -4 63979.7 1027.10  34
   4  -1  -3 45829.8 903.466  64
   4  -1  -3 46960.9 937.645  66
   4  -1  -3 46437.3 937.277  62
  -4   1   3 42993.1 852.179  40
  -4   1   3 44109.4 795.614  96
   4  -1  -3 44575.9 799.777  95
   4  -1  -3 48016.1 934.684  39
   4  -1  -3 44636.3 800.274  94
   4  -1  -3 44288.4 797.803  93
   4  -1  -3 43564.7 790.768  92
  -4   1   3 43805.8 795.175  91
   4  -1  -3 43668.6 795.086  90
  -4   1   3 44719.2 861.898   3
   4  -1  -3 47816.6 856.647  34
   4  -1  -2 289607. 2255.03  66
   4  -1  -2 289390. 2230.69  64
   4  -1  -2 289793. 2263.25  62
  -4   1   2 279758. 2128.22  40
   4  -1  -2 280377. 2069.23  95
   4  -1  -2 294392. 2206.77  39
  -4   1   2 273596. 2052.91  96
   4  -1  -2 279522. 2065.17  94
   4  -1  -2 278160. 2054.15  93
   4  -1  -2 278544. 2062.43  92
  -4   1   2 278185. 2069.49  91
   4  -1  -2 275749. 2062.64  90
  -4   1   2 284573. 2133.82   3
   4  -1  -2 297896. 2112.33  34
  -4   1   1 8754.74 386.790  91
   4  -1  -1 9796.31 410.691  66
  -4   1   1 9860.16 369.283  63
   4  -1  -1 9692.11 400.633  62
   4  -1  -1 8863.16 378.882  94
   4  -1  -1 8945.93 384.063  90
  -4   1   1 8823.81 385.032  96
   4  -1  -1 10333.4 398.354  39
   4  -1  -1 8961.81 380.664  93
   4  -1  -1 10204.2 414.734  64
   4  -1  -1 9121.94 384.265  95
  -4   1   1 10368.6 356.438  65
   4  -1  -1 8642.13 373.258  92
   4  -1  -1 9890.59 388.398  34
   4  -1   0 10113.5 417.061  92
   4  -1   0 11615.1 448.615  66
   4  -1   0 11814.7 452.007  64
  -4   1   0 11553.8 425.712  63
   4  -1   0 11714.2 438.243  62
   4  -1   0 10181.5 419.205  95
   4  -1   0 11464.4 415.323  39
   4  -1   0 10878.0 432.793  94
   4  -1   0 10825.5 430.876  93
   4  -1   0 10623.8 429.554  90
  -4   1   0 11314.9 342.972  37
  -4   1   0 11284.5 413.897   3
  -4   1   0 11503.4 409.586  65
  -4   1   0 10701.2 436.879  96
   4  -1   1 20312.8 612.411  66
   4  -1   1 20915.9 613.022  64
  -4   1  -1 19821.0 595.057  63
   4  -1   1 20248.1 585.685  62
  -4   1  -1 17847.6 581.705  96
  -4   1  -1 20582.6 593.203  65
   4  -1   1 18764.9 591.733  95
   4  -1   1 20021.3 565.469  39
   4  -1   1 19129.6 593.976  94
   4  -1   1 18890.0 596.707  93
   4  -1   1 18632.0 590.568  92
   4  -1   1 19036.5 597.705  90
  -4   1  -1 20911.8 536.859  37
  -4   1  -1 21715.2 570.666   3
   4  -1   2 3781.03 279.049  66
  -4   1  -2 3665.57 272.420  63
   4  -1   2 3809.43 251.041  39
  -4   1  -2 3123.63 254.005  96
   4  -1   2 3939.17 282.886  95
   4  -1   2 3903.24 280.117  94
   4  -1   2 3632.74 270.216  93
   4  -1   2 3619.50 270.191  92
   4  -1   2 3746.78 281.370  90
  -4   1  -2 3601.32 255.185  37
   4  -1   2 3697.58 259.211  62
   4  -1   2 3854.40 273.332  64
  -4   1  -2 3766.35 233.206   3
  -4   1  -2 3907.08 279.273  65
   4  -1   3 12868.7 313.162  47
   4  -1   3 13216.3 319.593  32
   4  -1   3 13156.1 319.451  46
   4  -1   3 12950.5 333.578  30
   4  -1   3 12822.0 298.984  70
   4  -1   3 12492.9 512.621   2
   4  -1   3 12696.8 312.622 107
  -4   1  -3 13327.3 320.996 106
  -4   1  -3 12847.3 316.769 105
  -4   1  -3 13054.3 319.579 104
  -4   1  -3 12902.9 319.161 103
   4  -1   3 12859.8 541.908  66
   4  -1   3 13246.7 311.359  42
   4  -1   3 13015.8 317.351 102
   4  -1   3 12762.1 312.877 101
  -4   1  -3 13782.2 562.268  63
   4  -1   3 12715.2 310.079 100
   4  -1   3 14189.0 526.195  62
   4  -1   3 12831.1 313.228  99
  -4   1  -3 12469.2 311.581  97
  -4   1  -3 11579.5 504.525  96
   4  -1   3 11817.1 508.318  95
   4  -1   3 11691.8 504.583  94
   4  -1   3 11422.8 500.597  93
   4  -1   3 11243.3 494.867  92
  -4   1  -3 13639.5 563.791  65
   4  -1   3 11671.3 505.969  90
  -4   1  -3 13402.5 539.243  37
   4  -1   3 14032.8 540.578  64
  -4   1  -3 12934.7 308.369  87
   4  -1   3 13703.3 331.628  85
   4  -1   3 12794.4 309.080  20
  -4   1  -3 13200.1 301.766  69
   4  -1   3 13166.8 314.564  81
   4  -1   3 13048.6 314.295  76
   4  -1   4 3339.16 168.177  47
   4  -1   4 3568.80 178.460  32
   4  -1   4 3339.74 170.680  46
   4  -1   4 3455.03 182.610  30
   4  -1   4 3308.04 156.071  70
  -4   1  -4 3328.94 164.524 105
  -4   1  -4 4188.70 332.242  65
   4  -1   4 3390.10 169.009  42
   4  -1   4 3070.98 264.134  93
   4  -1   4 3241.06 159.436  99
  -4   1  -4 3629.50 301.869  63
   4  -1   4 3414.69 163.097 107
   4  -1   4 3250.22 160.380 100
  -4   1  -4 3460.08 157.392  41
  -4   1  -4 3520.17 163.137  69
  -4   1  -4 3294.60 274.921  96
   4  -1   4 2964.93 264.782  95
  -4   1  -4 3208.16 160.925 106
   4  -1   4 3008.90 256.141  94
   4  -1   4 3475.34 282.649  92
  -4   1  -4 3167.65 270.592  91
   4  -1   4 2959.50 266.056  90
  -4   1  -4 3855.65 312.679  37
  -4   1  -4 3237.03 164.027 103
  -4   1  -4 3222.75 158.849  87
  -4   1  -4 3224.53 161.964 104
   4  -1   4 4089.29 315.174   2
   4  -1   4 3341.46 174.834  85
   4  -1   4 3440.01 162.786  20
   4  -1   4 3350.63 164.935 102
   4  -1   4 3512.75 173.988  81
   4  -1   4 3233.20 161.248 101
  -4   1  -4 3451.88 165.554  97
   4  -1   4 3538.31 171.585  76
   4  -1   5 52864.9 635.881  74
   4  -1   5 49800.4 650.256  47
   4  -1   5 51379.1 700.020  32
   4  -1   5 51136.8 664.588  46
   4  -1   5 50552.1 669.952  42
  -4   1  -5 53828.7 613.047  41
  -4   1  -5 52267.8 628.400  69
  -4   1  -5 52698.7 624.970  87
   4  -1   5 52389.9 709.950  85
   4  -1   5 51121.9 682.528  81
   4  -1   5 50460.4 664.820  76
   4  -1   6 22308.3 417.302  47
   4  -1   6 22466.1 452.819  32
   4  -1   6 22164.0 417.858  46
  -4   1  -6 23435.2 403.439  69
   4  -1   6 22761.3 441.641  42
   4  -1   6 22880.5 385.858  54
  -4   1  -6 23176.6 382.634  87
   4  -1   6 23243.2 462.867  85
   4  -1   6 22056.2 439.491  81
   4  -1   7 1189.52 92.6254  42
  -4   1  -7 1098.37 88.4306  44
   4  -1   7 1008.61 90.1178  24
   4  -1   7 1086.76 75.5558  54
  -4   1  -7 1104.13 79.9860  69
   4  -1   7 1149.61 95.8446  85
   4  -1   7 1157.24 91.7191  81
  -4   1  -8 3830.93 105.747  69
   4  -1   8 4098.12 138.267  42
   4  -1   8 3929.12 139.189  24
   4  -1   8 3870.49 139.546  85
  -4   1  -8 3934.60 130.508  50
  -4   1  -8 3682.83 124.384  44
  -4   0  10 8432.98 168.916  31
  -4   0  10 8680.88 163.426  59
  -4   0   9 6812.50 215.017  31
  -4   0   9 7187.87 190.312  29
  -4   0   9 6995.22 207.057  59
  -4   0   9 7121.66 198.553  57
  -4   0   9 6991.05 187.712  82
  -4   0   8 7080.08 228.863  29
  -4   0   8 6801.72 239.711  59
  -4   0   8 6971.03 229.805  57
  -4   0   8 6949.90 238.318  21
  -4   0   8 7187.86 230.701  82
  -4   0   7 289.633 54.6465  29
  -4   0   7 306.589 57.2007  59
  -4   0   7 292.711 52.8518  11
  -4   0   7 253.319 52.1614  57
  -4   0   7 315.589 60.5362  21
  -4   0   7 335.358 58.7893  52
  -4   0   7 268.191 54.8058  82
  -4   0   7 283.450 61.1506  50
  -4   0   6 7933.15 228.174  71
  -4   0   6 7706.24 255.359  44
   4   0  -6 9712.70 515.211  66
   4   0  -6 7699.76 415.016  64
   4   0  -6 8246.90 466.382  62
  -4   0   6 8856.89 248.771  11
  -4   0   6 7741.36 260.813  29
  -4   0   6 8516.12 280.172  59
  -4   0   6 7835.69 255.179  57
   4   0  -6 9286.01 502.233  39
  -4   0   6 7984.38 252.290  52
  -4   0   6 8080.00 432.337  68
  -4   0   6 7871.67 261.231  82
  -4   0   6 7588.83 258.004  50
  -4   0   6 8258.13 247.002  78
   4   0  -6 8320.58 443.334  34
  -4   0   5 34838.4 524.037  44
  -4   0   5 35518.9 479.223  71
  -4   0   5 35705.3 524.225  69
  -4   0   5 33010.8 796.007  68
   4   0  -5 39222.9 969.842  66
   4   0  -5 37207.1 892.280  64
   4   0  -5 37469.0 939.434  62
  -4   0   5 34274.4 843.253  40
  -4   0   5 38444.2 568.337  59
  -4   0   5 36053.0 519.103  57
  -4   0   5 34689.2 500.253  10
  -4   0   5 34802.3 498.018  52
  -4   0   5 36525.4 544.198  82
   4   0  -5 37561.9 937.428  39
  -4   0   5 34779.7 525.636  50
   4   0  -5 38643.3 902.997  34
  -4   0   4 12240.2 430.377  68
   4   0  -4 12393.1 508.623  66
   4   0  -4 12833.2 501.097  64
   4   0  -4 11916.7 498.066  62
  -4   0   4 11929.1 469.579  40
   4   0  -4 12674.8 505.128  39
  -4   0   4 12338.7 446.854   3
   4   0  -4 13420.2 502.413  34
   4   0  -3 81937.9 1071.88  92
  -4   0   3 83606.2 970.227  68
   4   0  -3 88324.4 1255.86  66
   4   0  -3 86389.2 1234.09  64
   4   0  -3 86895.3 1257.41  62
  -4   0   3 80796.5 1163.35  40
  -4   0   3 82058.0 1076.23  96
   4   0  -3 86921.7 1210.56  39
   4   0  -3 80679.6 1063.81  95
  -4   0   3 80698.4 1081.00  93
  -4   0   3 86682.7 1155.39   3
  -4   0   3 82024.1 1078.73  91
   4   0  -3 82543.1 1073.42  90
  -4   0   3 86139.4 932.481   4
   4   0  -3 83371.5 1077.17  94
   4   0  -3 87193.4 1215.35  34
   4   0  -2 383187. 2481.03  66
  -4   0   2 398476. 1951.57  63
   4   0  -2 391146. 2499.70  62
  -4   0   2 366373. 2408.12  40
  -4   0   2 370566. 2306.14  96
   4   0  -2 397686. 2378.95  39
   4   0  -2 366658. 2294.37  94
   4   0  -2 359462. 2272.72  92
  -4   0   2 389744. 2384.71   3
  -4   0   2 370134. 2314.04  91
   4   0  -2 360730. 2291.49  90
   4   0  -2 387677. 2494.48  64
   4   0  -2 366956. 2300.83  95
   4   0  -2 393689. 2444.94  34
   4   0  -1 57653.4 919.468  94
   4   0  -1 61224.9 952.150  66
  -4   0   1 60919.4 836.008  63
   4   0  -1 60644.6 939.433  62
  -4   0   1 59054.7 948.854  40
  -4   0   1 57053.0 921.238  96
   4   0  -1 57175.2 916.692  95
   4   0  -1 64138.8 888.417  39
   4   0  -1 56459.3 908.131  93
   4   0  -1 57974.0 922.739  92
  -4   0   1 59483.5 915.642   3
  -4   0   1 56779.2 924.812  91
   4   0  -1 57553.6 923.305  90
  -4   0   1 63588.5 764.797  65
   4   0  -1 61789.4 966.380  64
   4   0  -1 60651.2 950.234  34
  -4   0   0 53382.0 784.180  65
   4   0   0 51583.0 870.125  66
   4   0   0 52444.8 876.314  64
  -4   0   0 50868.3 835.221   3
   4   0   0 52266.7 845.855  62
  -4   0   0 47275.5 859.263  96
   4   0   0 49177.7 864.010  95
   4   0   0 50714.1 766.413  39
   4   0   0 49214.1 862.063  94
   4   0   0 48266.5 854.692  93
   4   0   0 48401.8 857.859  92
  -4   0   0 47439.0 867.815  91
  -4   0   0 52729.0 673.982  37
   4   0   0 49258.0 866.536  90
  -4   0   0 51204.9 825.108  63
   4   0   0 50391.8 872.135  34
  -4   0  -1 7012.59 315.436  65
   4   0   1 6994.45 321.870  64
  -4   0  -1 6910.65 324.560  63
   4   0   1 7011.78 307.396  62
  -4   0  -1 6428.86 326.104  96
   4   0   1 6038.70 312.708  95
   4   0   1 6921.24 285.594  39
   4   0   1 6664.78 327.829  94
   4   0   1 6302.45 318.144  93
   4   0   1 6791.75 332.062  92
  -4   0  -1 6948.50 304.140   3
  -4   0  -1 6073.41 318.976  91
  -4   0  -1 7047.40 288.604  37
   4   0   1 6837.64 333.220  90
  -4   0  -1 6530.90 282.687  35
   4   0   1 6552.47 321.452  66
   4   0   1 6569.55 325.269  34
   4   0   2 62704.5 938.478  62
   4   0   2 59558.2 1002.55  66
  -4   0  -2 60993.4 1012.64  65
  -4   0  -2 60837.2 1030.50  63
  -4   0  -2 54391.8 974.903  96
   4   0   2 54479.8 975.097  95
   4   0   2 56893.8 992.473  94
   4   0   2 55724.2 986.366  93
   4   0   2 54667.8 975.418  92
  -4   0  -2 54928.7 984.263  91
  -4   0  -2 61096.9 966.922  37
   4   0   2 56017.7 992.359  90
  -4   0  -2 62142.1 899.906   3
   4   0   2 60404.6 976.932  64
   4   0   3 11928.8 450.553   2
  -4   0  -3 12920.6 507.695  63
   4   0   3 12559.8 492.689  66
  -4   0  -3 12543.5 503.392  65
   4   0   3 13507.7 477.369  64
   4   0   3 13294.4 447.275  62
  -4   0  -3 11641.7 469.774  96
   4   0   3 11537.4 468.137  95
   4   0   3 11779.1 470.036  94
   4   0   3 11639.5 466.829  93
   4   0   3 11743.5 471.226  92
  -4   0  -3 11117.8 462.655  91
  -4   0  -3 12915.2 495.559  37
   4   0   3 11092.2 458.855  90
   4   0   4 10738.1 463.757   2
   4   0   4 10744.0 288.338  47
   4   0   4 10870.9 296.582  32
   4   0   4 10575.6 286.619  46
   4   0   4 10094.4 264.904  70
  -4   0  -4 10750.3 492.930  63
  -4   0  -4 10584.6 260.368  69
   4   0   4 9652.98 439.474  93
   4   0   4 10454.8 280.881  42
  -4   0  -4 9660.29 442.821  96
   4   0   4 9904.58 445.547  95
   4   0   4 9466.94 434.605  94
   4   0   4 9738.48 442.688  92
  -4   0  -4 9844.09 449.654  91
  -4   0  -4 11604.0 515.561  37
   4   0   4 9917.86 450.977  90
  -4   0  -4 11239.8 512.957  65
  -4   0  -4 9965.12 259.606  87
   4   0   4 10176.8 267.577  53
   4   0   4 11133.6 305.483  85
   4   0   4 10781.2 291.065  81
   4   0   4 11028.3 290.754  76
   4   0   5 5485.50 213.807  47
   4   0   5 5176.07 219.050  32
   4   0   5 5297.65 214.534  46
   4   0   5 5108.02 208.734  42
  -4   0  -5 5410.96 192.848  69
  -4   0  -5 5989.24 384.450  63
   4   0   5 5355.84 356.481   2
  -4   0  -5 5465.53 357.272  38
  -4   0  -5 5365.33 380.292  37
  -4   0  -5 6059.30 399.663  65
   4   0   5 5428.50 226.103  85
   4   0   5 5362.71 216.712  81
   4   0   5 4992.91 206.610  76
   4   0   6 18673.1 394.235  47
   4   0   6 18256.5 418.016  32
   4   0   6 18713.5 401.004  46
   4   0   6 18530.6 405.637  42
   4   0   6 18375.1 419.401  24
   4   0   6 19066.8 431.983  85
  -4   0  -6 19837.7 365.694  69
   4   0   6 18165.6 407.050  81
   4   0   7 7325.89 230.447  47
   4   0   7 7517.64 237.972  46
  -4   0  -7 6989.64 226.638  44
   4   0   7 7195.53 251.159  24
   4   0   7 7545.11 217.193  54
   4   0   7 7206.19 255.122  85
   4   0   7 7189.78 244.042  81
   4   0   7 7376.45 246.738  42
  -4   0  -7 7493.16 208.324  69
  -4   0  -8 330.221 45.8143  44
   4   0   8 432.667 57.5040  24
   4   0   8 405.491 44.0600  54
   4   0   8 358.958 53.3350  85
   4   0   8 418.520 53.8154  42
  -4   0  -9 214.159 29.6890  50
  -4  -1   9 183.838 37.3154  31
  -4  -1   9 254.754 39.3389  59
  -4  -1   9 283.717 38.7586  57
  -4  -1   8 11390.8 253.996  29
  -4  -1   8 10684.5 292.411  59
  -4  -1   8 11214.2 269.546  57
  -4  -1   8 10917.1 291.656  21
  -4  -1   8 11385.5 253.624  82
  -4  -1   7 4895.95 190.455  29
  -4  -1   7 4509.48 188.724  57
  -4  -1   7 4556.27 210.633  59
  -4  -1   7 4396.67 207.542  21
  -4  -1   7 4383.38 193.209  52
  -4  -1   7 5002.60 192.154  82
   4   1  -6-95.0377 90.3723  64
  -4  -1   6-0.43860 25.8356  29
  -4  -1   6 106.292 42.7578  59
  -4  -1   6 35.7042 32.8496  11
  -4  -1   6-4.09333 29.2474  57
  -4  -1   6 11.9848 29.4077  21
  -4  -1   6 27.0846 31.3368  52
  -4  -1   6-17.8023 26.4352  82
  -4  -1   6-0.12289 36.0339  50
  -4  -1   6-2.08465 29.6523   8
  -4  -1   6-5.08068 28.7239  78
  -4  -1   5 507.577 56.5580  71
  -4  -1   5 462.361 67.2746  44
  -4  -1   5 299.700 81.5670  68
  -4  -1   5 458.800 61.8416  29
   4   1  -5 550.436 123.327  66
  -4  -1   5 439.131 92.4660   4
  -4  -1   5 577.446 113.859  40
  -4  -1   5 472.887 72.2964  59
  -4  -1   5 520.389 67.4598  57
  -4  -1   5 493.739 68.2142  52
   4   1  -5 506.857 114.193  62
   4   1  -5 720.092 136.442  64
  -4  -1   5 482.181 64.2442  82
  -4  -1   5 471.781 64.3992  50
  -4  -1   5 430.087 64.8119   8
  -4  -1   5 394.786 61.1173  78
   4   1  -5 590.577 126.938  34
  -4  -1   4 7894.19 377.038  68
   4   1  -4 9129.04 437.002  66
   4   1  -4 8431.43 426.175  62
   4   1  -4 9114.79 440.329  64
  -4  -1   4 8626.99 375.490   4
  -4  -1   4 7571.32 396.103  40
  -4  -1   4 9068.61 382.697   3
   4   1  -4 8823.94 435.566  34
   4   1  -3 34085.9 777.816  66
   4   1  -3 32482.9 779.024  64
   4   1  -3 31437.7 761.881  62
  -4  -1   3 31588.9 634.771   4
  -4  -1   3 29972.9 735.667  40
  -4  -1   3 30120.2 666.300  96
   4   1  -3 30531.1 677.081  95
   4   1  -3 29559.0 664.136  94
  -4  -1   3 32417.0 710.141   3
  -4  -1   3 30362.8 673.333  93
   4   1  -3 30013.6 668.589  92
  -4  -1   3 30636.7 671.908  91
   4   1  -3 29899.5 669.298  90
  -4  -1   3 31471.1 665.065  68
   4   1  -3 32232.6 777.933  34
  -4  -1   2 4889.07 228.153  68
   4   1  -2 4830.10 283.034  64
   4   1  -2 5022.93 275.809  66
   4   1  -2 4777.27 273.782  62
  -4  -1   2 5083.95 223.126   4
  -4  -1   2 4558.99 272.432  40
  -4  -1   2 4344.74 250.920  96
   4   1  -2 5085.08 265.739  39
   4   1  -2 4436.71 257.193  95
   4   1  -2 4567.97 257.946  94
  -4  -1   2 4834.68 267.357   3
  -4  -1   2 4588.81 263.105  93
   4   1  -2 4552.85 259.784  92
   4   1  -2 7401.75 269.778  38
  -4  -1   2 4456.67 254.548  91
   4   1  -2 4361.73 252.657  90
  -4  -1   2 4635.48 273.999  35
   4   1  -2 7711.98 356.812  34
  -4  -1   1 22410.4 491.066  63
   4   1  -1 23547.6 561.565  66
   4   1  -1 22404.1 576.806  64
   4   1  -1 23101.7 561.291  62
  -4  -1   1 22301.7 401.440   4
  -4  -1   1 21597.8 581.661  40
  -4  -1   1 21154.8 557.253  96
   4   1  -1 23365.1 506.482  39
   4   1  -1 21426.1 560.489  95
  -4  -1   1 22606.5 563.389   3
   4   1  -1 21183.9 555.677  94
  -4  -1   1 21278.7 561.249  93
   4   1  -1 20958.6 555.028  92
   4   1  -1 22432.9 454.897  38
   4   1  -1 21564.0 563.173  90
  -4  -1   1 20985.8 558.006  91
  -4  -1   1 22944.5 430.578  68
  -4  -1   1 22129.0 570.180  35
   4   1  -1 22259.9 578.538  34
   4   1   0 29164.3 609.781  66
  -4  -1   0 28839.0 534.939  65
   4   1   0 29432.6 636.460  64
  -4  -1   0 29176.1 596.993  63
  -4  -1   0 28302.5 652.565  40
   4   1   0 29130.1 590.224  62
  -4  -1   0 27575.7 640.788  96
   4   1   0 28053.0 643.010  95
   4   1   0 29618.9 518.929  39
  -4  -1   0 28829.2 620.379   3
   4   1   0 27158.3 632.150  94
   4   1   0 26778.9 624.873  93
   4   1   0 28005.7 642.645  92
  -4  -1   0 27165.0 640.120  91
  -4  -1   0 28619.0 494.929  37
   4   1   0 27679.3 642.529  90
   4   1   0 27302.6 485.383  36
  -4  -1   0 27902.4 615.464  35
   4   1   0 28398.2 648.729  34
  -4  -1  -1 71010.7 939.923  65
  -4  -1  -1 66644.3 1006.28  96
   4   1   1 71880.3 969.196  64
  -4  -1  -1 71376.3 1001.66  63
   4   1   1 67324.5 1009.90  95
   4   1   1 69929.9 882.129  62
   4   1   1 67230.3 1003.44  94
  -4  -1  -1 69151.9 945.488   3
   4   1   1 67328.7 1005.97  93
   4   1   1 65586.1 997.820  92
  -4  -1  -1 70739.5 890.950  37
   4   1   1 67229.7 1009.80  90
  -4  -1  -1 65601.4 1004.33  91
   4   1   1 67640.5 882.086  36
  -4  -1  -1 70073.5 951.919  35
   4   1   1 69415.6 943.613  66
   4   1   1 66589.7 1011.62  34
   4   1   2 2295.45 156.435   2
  -4  -1  -2 2357.88 198.352  63
   4   1   2 2728.25 188.342  64
  -4  -1  -2 2531.96 197.973  65
   4   1   2 2504.69 167.001  62
   4   1   2 2604.40 189.806  66
  -4  -1  -2 2236.02 189.570  96
   4   1   2 2304.73 191.617  95
   4   1   2 2500.49 200.104  94
   4   1   2 2181.48 186.488  93
  -4  -1  -2 2512.77 178.286   3
   4   1   2 2247.63 189.661  92
  -4  -1  -2 2370.48 196.788  91
  -4  -1  -2 2729.75 198.427  37
   4   1   2 2567.41 205.139  90
   4   1   2 2576.95 196.690  36
  -4  -1  -2 2440.23 176.480  35
   4   1   3 18184.8 488.533   2
   4   1   3 19425.4 545.866  66
   4   1   3 19701.5 516.080  64
  -4  -1  -3 18312.2 578.908  63
   4   1   3 17183.3 538.136  95
   4   1   3 18070.9 548.662  94
   4   1   3 16856.3 532.946  93
  -4  -1  -3 19644.1 480.721   3
  -4  -1  -3 17268.6 542.309  91
  -4  -1  -3 18388.0 568.469  37
   4   1   3 17765.9 547.114  90
  -4  -1  -3 17527.7 543.678  96
   4   1   3 17112.8 538.652  92
  -4  -1  -3 18759.1 583.681  65
  -4  -1  -3 19169.4 475.227  35
  -4  -1  -4 24202.3 723.883  65
   4   1   4 23929.0 620.902   2
  -4  -1  -4 23824.1 702.774  63
   4   1   4 21423.9 616.288  94
  -4  -1  -4 22014.7 627.174  96
   4   1   4 20871.7 612.991  95
   4   1   4 21184.7 615.975  93
   4   1   4 21057.4 614.808  92
  -4  -1  -4 21750.9 624.836  91
  -4  -1  -4 22820.1 696.584  37
   4   1   4 21559.5 624.295  90
   4   1   5 15047.6 348.078  47
   4   1   5 14759.7 347.947  46
   4   1   5 14230.1 314.001  70
   4   1   5 14094.3 318.935  53
   4   1   5 14954.5 344.932  42
  -4  -1  -5 16065.1 630.683  65
   4   1   5 15265.4 548.819   2
  -4  -1  -5 15458.4 594.265  63
  -4  -1  -5 16432.3 642.150  37
   4   1   5 15393.3 368.432  85
   4   1   5 15172.0 353.488  81
   4   1   6 3540.96 174.055  47
   4   1   6 3537.14 175.869  46
  -4  -1  -6 3559.93 167.230  44
   4   1   6 4033.56 312.779   2
   4   1   6 3371.15 176.317  24
  -4  -1  -6 4089.41 341.045  37
   4   1   6 3598.39 179.185  42
   4   1   6 3598.78 186.637  85
  -4  -1  -6 4109.12 332.187  65
   4   1   6 3387.30 176.603  81
   4   1   7 1938.06 125.920  47
   4   1   7 2011.82 131.190  46
   4   1   7 1857.69 128.114  42
   4   1   7 1826.85 130.054  24
  -4  -1  -7 1969.29 120.229  44
   4   1   7 1959.22 120.000  13
   4   1   7 1834.95 133.407  85
   4   1   8 727.150 70.6277  46
   4   1   8 762.216 70.3337  13
   4   1   8 683.573 75.8220  24
   4   1   8 769.273 78.3609  42
   4   1   8 738.297 64.1753  54
  -4  -1  -8 729.388 66.1468  44
   4   1   8 679.085 75.2250  85
   4   1   9 900.154 67.4855  15
   4   1   9 788.873 55.9915  13
   4   1   9 923.555 71.3122  24
  -4  -1  -9 903.488 63.6573  50
  -4  -2   9 13758.7 233.604  31
  -4  -2   9 14461.7 228.223  59
  -4  -2   8 10620.0 277.519  31
  -4  -2   8 11630.0 237.401  57
  -4  -2   8 10620.9 266.844  59
  -4  -2   8 11353.2 277.187  21
  -4  -2   7 4519.60 201.408  59
  -4  -2   7 4906.29 179.944  57
  -4  -2   7 4715.81 208.834  21
  -4  -2   7 4660.97 203.061  88
  -4  -2   7 4408.25 191.960  52
  -4  -2   7 4727.87 180.324  48
  -4  -2   6 1845.70 126.244   7
  -4  -2   6 1854.46 137.836  59
  -4  -2   6 1993.41 121.803  57
  -4  -2   6 2053.84 127.824  89
  -4  -2   6 1669.82 134.479  21
  -4  -2   6 1654.09 123.655  52
  -4  -2   6 1772.74 126.653  78
  -4  -2   6 1955.83 124.991  48
  -4  -2   5 798.237 145.755  68
  -4  -2   5 900.305 93.8615  59
   4   2  -5 837.972 158.067  66
   4   2  -5 707.703 135.046  64
  -4  -2   5 953.345 154.683  40
  -4  -2   5 682.341 124.619   4
  -4  -2   5 873.482 80.8227  57
   4   2  -5 823.574 77.0833  56
  -4  -2   5 858.219 82.1397  89
  -4  -2   5 709.788 81.8264  52
  -4  -2   5 723.965 85.5386   8
  -4  -2   5 687.158 82.0527  50
  -4  -2   5 677.803 79.2553  78
  -4  -2   5 940.974 86.6573  48
   4   2  -5 673.394 147.491  34
  -4  -2   4 12558.2 522.570  68
   4   2  -4 13694.4 569.926  64
  -4  -2   4 12144.0 490.123   4
  -4  -2   4 12249.4 532.348  40
   4   2  -4 14992.3 573.792  66
  -4  -2   4 14652.0 498.724   3
   4   2  -4 14755.0 524.879  38
  -4  -2   4 13240.3 323.893  44
  -4  -2   4 13652.9 328.427  52
  -4  -2   4 13090.2 314.672  50
  -4  -2   4 13875.3 334.175   8
  -4  -2   4 13431.7 322.299  78
   4   2  -4 13710.0 575.848  34
   4   2  -3 18064.3 576.296  66
  -4  -2   3 15583.7 524.270  68
   4   2  -3 16940.7 594.495  64
  -4  -2   3 15869.7 505.520   4
  -4  -2   3 15097.8 509.475  96
   4   2  -3 15821.2 521.451  95
   4   2  -3 15737.6 519.824  94
  -4  -2   3 15424.9 508.847  93
   4   2  -3 18241.1 541.832  38
  -4  -2   3 15367.5 511.373  92
  -4  -2   3 15310.7 513.922  91
   4   2  -3 15554.5 517.091  90
  -4  -2   3 15670.5 565.210  40
   4   2  -3 17554.3 607.902  34
  -4  -2   2 11162.9 387.230   1
   4   2  -2 12608.6 435.700  66
   4   2  -2 11298.0 454.313  64
  -4  -2   2 11265.7 401.512  68
  -4  -2   2 10346.6 436.907  40
  -4  -2   2 10929.8 378.770   4
  -4  -2   2 10745.8 415.504  96
   4   2  -2 10928.0 422.515  95
   4   2  -2 10293.5 409.592  94
  -4  -2   2 9902.57 406.851  93
   4   2  -2 10147.5 405.711  92
   4   2  -2 11662.6 403.090  38
  -4  -2   2 10357.8 407.729  91
   4   2  -2 10414.8 414.405  90
  -4  -2   2 11273.2 436.823  35
   4   2  -2 11326.7 453.601  34
   4   2  -1 238.045 64.1831  34
   4   2  -1 221.514 58.4531  64
  -4  -2   1 459.201 75.9473  68
   4   2  -1 272.756 68.4225  66
  -4  -2   1 262.381 56.0664  63
   4   2  -1 281.169 63.3810  62
  -4  -2   1 323.700 73.1592  40
   4   2  -1 245.482 46.5809  39
  -4  -2   1 257.512 72.2563  96
   4   2  -1 304.571 70.2151  95
   4   2  -1 367.393 74.9801  94
  -4  -2   1 233.824 64.2759  93
   4   2  -1 174.205 51.3283  92
  -4  -2   1 174.189 52.3785  91
   4   2  -1 286.206 67.5760  90
  -4  -2   1 274.778 65.2659  35
  -4  -2   1 226.900 57.4736   1
   4   2   0 17276.5 437.207  66
  -4  -2   0 16754.7 398.284  65
  -4  -2   0 16838.5 470.465   1
  -4  -2   0 16683.4 459.904  63
   4   2   0 16518.4 435.147  62
  -4  -2   0 15712.9 491.151  40
  -4  -2   0 15751.0 493.139  96
   4   2   0 16151.5 499.575  95
   4   2   0 15698.6 490.598  94
  -4  -2   0 16015.3 500.130  93
   4   2   0 16139.7 499.142  92
   4   2   0 16560.0 452.488  38
  -4  -2   0 15752.0 495.594  91
   4   2   0 15813.6 494.201  90
   4   2   0 17026.3 401.754  36
   4   2   0 16900.1 483.346  64
  -4  -2   0 16923.3 502.443  35
   4   2   0 16723.9 504.674  34
   4   2   1 60913.5 968.513  94
   4   2   1 61908.0 809.939  66
  -4  -2  -1 64043.9 876.737  65
   4   2   1 63615.2 892.340  64
  -4  -2  -1 63819.5 949.934  63
   4   2   1 64011.5 775.500  62
  -4  -2  -1 63100.2 905.814   1
  -4  -2  -1 60259.3 933.677  40
  -4  -2  -1 61999.8 971.726  96
   4   2   1 60675.5 970.094  95
  -4  -2  -1 60719.1 967.777  93
   4   2   1 59408.6 958.172  92
  -4  -2  -1 61017.7 965.217  91
   4   2   1 60755.6 970.573  90
   4   2   1 62929.9 865.234  36
  -4  -2  -1 61271.5 941.489  35
   4   2   1 63906.1 978.539  34
   4   2   2 18034.4 458.415  64
  -4  -2  -2 18226.2 539.173  63
  -4  -2  -2 17624.6 499.915  40
  -4  -2  -2 16695.1 511.155  96
   4   2   2 16597.2 511.177  95
  -4  -2  -2 17055.7 476.722   1
  -4  -2  -2 18332.1 518.908  65
   4   2   2 16456.6 506.232  94
   4   2   2 16185.9 502.987  92
  -4  -2  -2 16640.3 513.343  91
   4   2   2 16612.2 511.337  90
   4   2   2 17413.7 438.365  66
   4   2   2 17920.4 506.875  36
  -4  -2  -2 17932.5 508.348  35
   4   2   2 17858.2 536.063  34
  -4  -2  -3 2960.81 201.732   1
   4   2   3 3144.62 224.417  94
   4   2   3 2942.19 187.196  66
  -4  -2  -3 2889.09 191.589   3
  -4  -2  -3 2845.58 225.663  63
  -4  -2  -3 2819.81 212.534  96
   4   2   3 3007.40 219.523  95
   4   2   3 2904.55 216.557  92
  -4  -2  -3 2769.78 214.951  91
   4   2   3 3113.16 224.543  90
  -4  -2  -3 2928.64 228.432  65
   4   2   3 3137.79 233.956  36
  -4  -2  -3 2937.48 208.601  35
  -4  -2  -4 112162. 1530.58  65
  -4  -2  -4 113889. 1514.96  63
   4   2   4 111624. 1188.34   2
  -4  -2  -4 105362. 1315.19  96
   4   2   4 102660. 1329.82  95
   4   2   4 105514. 1324.45  94
   4   2   4 103088. 1323.84  92
  -4  -2  -4 104253. 1322.58  91
  -4  -2  -4 109490. 1518.18  37
   4   2   4 102619. 1324.18  90
   4   2   4 111825. 1520.16  36
   4   2   5 3510.80 166.125  47
   4   2   5 3402.05 162.940  46
   4   2   5 3533.70 157.621  70
  -4  -2  -5 3915.69 307.638  65
   4   2   5 3691.13 168.572  42
   4   2   5 3488.22 164.357  28
  -4  -2  -5 3653.67 280.434  63
   4   2   5 3582.02 164.527  24
  -4  -2  -5 3665.08 303.494  37
   4   2   5 3725.06 166.409  53
   4   2   5 3815.49 181.697  85
   4   2   5 3664.72 246.303   2
   4   2   6 3683.75 176.664  47
   4   2   6 4093.03 189.416  46
  -4  -2  -6 4051.08 330.207  65
   4   2   6 3873.63 183.482  42
   4   2   6 3767.81 172.232  28
   4   2   6 4100.14 176.704  13
  -4  -2  -6 4617.57 328.016  63
   4   2   6 3666.24 178.115  24
  -4  -2  -6 4241.81 341.913  37
   4   2   6 3840.64 170.536  53
   4   2   6 3644.30 186.251  85
   4   2   6 3689.72 170.048  51
   4   2   7 1556.66 116.481  47
   4   2   7 1594.63 113.831  13
   4   2   7 1562.06 117.884  46
   4   2   7 1481.69 107.906  14
   4   2   7 1639.35 109.117  28
   4   2   7 1572.78 120.657  24
   4   2   7 1504.44 121.092  85
   4   2   7 1474.26 104.870  51
   4   2   7 1630.37 123.071  42
   4   2   8 13465.9 320.591  46
   4   2   8 12862.9 307.042  13
   4   2   8 12893.4 323.882  24
   4   2   8 13154.6 279.423  54
   4   2   9 5741.60 187.145  15
   4   2   9 5748.70 175.793  13
   4   2   9 5948.57 158.141  54
  -4  -2  -9 5578.42 157.496  50
   4   2  10 426.512 37.3352  15
   4   2  10 375.164 34.9226  12
   4   3  -8 312.539 38.2722  73
  -4  -3   8 334.944 42.4028  31
  -4  -3   8 342.724 40.9910  59
  -4  -3   7 12630.8 300.238  59
   4   3  -7 13130.1 263.695  60
  -4  -3   7 13354.0 320.109  88
  -4  -3   7 12577.6 298.996  52
  -4  -3   7 13070.5 288.935  48
  -4  -3   6 22714.9 437.503   7
  -4  -3   6 22760.7 451.184  59
   4   3  -6 23255.3 387.235  58
  -4  -3   6 23231.2 465.655  21
  -4  -3   6 23613.4 438.040  89
  -4  -3   6 22583.0 405.457  86
  -4  -3   6 21796.2 433.195  52
  -4  -3   6 21532.6 430.432  78
  -4  -3   6 22767.5 429.104  48
  -4  -3   5 6219.79 241.562   7
  -4  -3   5 6064.23 240.679  59
   4   3  -5 6122.76 216.927  58
  -4  -3   5 5856.07 242.123  21
  -4  -3   5 5936.71 228.461  89
  -4  -3   5 6195.02 225.492  86
  -4  -3   5 5982.08 231.676  52
  -4  -3   5 5801.36 230.485  78
  -4  -3   5 6208.85 230.941  48
  -4  -3   4 22982.3 432.991  48
   4   3  -4 25251.1 756.063  66
   4   3  -4 25358.0 819.811  64
  -4  -3   4 21594.0 756.331  40
   4   3  -4 24365.2 745.002  38
   4   3  -4 22389.4 399.076  56
  -4  -3   4 22519.3 439.264  89
  -4  -3   4 21866.6 453.500  21
  -4  -3   4 22477.0 426.422  86
  -4  -3   4 21935.8 430.061  52
  -4  -3   4 23460.3 738.890   4
  -4  -3   4 21909.6 444.428   8
  -4  -3   4 21598.9 411.801  50
  -4  -3   4 23240.2 773.517  68
  -4  -3   4 21324.0 426.066  78
   4   3  -4 25453.0 821.569  34
  -4  -3   3 43065.8 568.394  48
   4   3  -3 46507.7 935.271  66
  -4  -3   3 39355.2 886.555   4
  -4  -3   3 40009.9 965.524  40
  -4  -3   3 39306.4 882.920  96
   4   3  -3 39053.1 891.478  95
   4   3  -3 39423.2 893.446  94
  -4  -3   3 38365.1 878.154  93
   4   3  -3 43162.7 938.081  38
  -4  -3   3 39391.7 887.216  92
   4   3  -3 42074.3 536.162  56
  -4  -3   3 38870.9 884.310  91
   4   3  -3 39653.1 898.928  90
  -4  -3   3 43740.9 582.046  89
  -4  -3   3 40942.3 555.656  44
  -4  -3   3 39527.0 931.598  68
  -4  -3   3 42729.8 564.219  86
  -4  -3   3 42264.5 570.488  52
  -4  -3   3 43261.6 593.395   8
  -4  -3   3 40385.5 556.480  78
   4   3  -3 44088.0 1018.36  34
   4   3  -2 16206.1 494.534  66
   4   3  -2 15500.8 565.274  64
  -4  -3   2 15903.5 489.021   1
  -4  -3   2 14148.5 542.401  40
   4   3  -2 15542.4 528.506  38
  -4  -3   2 14533.7 523.908  96
   4   3  -2 14072.7 524.831  95
   4   3  -2 14031.3 522.580  94
  -4  -3   2 14248.2 525.552  93
  -4  -3   2 13945.0 518.391  92
  -4  -3   2 14362.1 523.871  91
   4   3  -2 14617.5 536.036  90
  -4  -3   2 14553.2 519.695  68
  -4  -3   2 15107.4 526.879  35
   4   3  -2 16056.7 574.480  34
  -4  -3   1 1435.84 147.158   1
   4   3  -1 1722.62 144.955  66
   4   3  -1 1698.74 176.174  64
  -4  -3   1 1543.20 142.307  63
  -4  -3   1 1424.57 149.881  68
  -4  -3   1 1477.23 166.758  40
  -4  -3   1 1551.93 168.476  96
   4   3  -1 1498.42 167.545  95
   4   3  -1 1449.41 163.685  94
  -4  -3   1 1311.25 155.563  93
   4   3  -1 1634.27 165.742  38
  -4  -3   1 1352.85 156.465  91
   4   3  -1 1411.67 164.050  90
  -4  -3   1 1535.27 164.596  35
   4   3  -1 1560.20 168.655  34
   4   3   0 111.963 51.2701  34
  -4  -3   0 66.7570 33.1890  96
  -4  -3   0 54.4418 24.2536  65
   4   3   0-10.3441 28.7960  64
  -4  -3   0 70.5909 44.2543   1
  -4  -3   0-26.2659 24.0696  63
   4   3   0 93.1725 36.2012  62
  -4  -3   0 73.6282 35.1823  40
   4   3   0 41.5583 33.0890  95
   4   3   0 90.5381 45.2177  94
  -4  -3   0 87.5676 38.8510  93
   4   3   0-1.92067 23.9244  92
   4   3   0 71.8828 37.6538  38
  -4  -3   0 152.629 53.8809  91
   4   3   0-20.3222 19.3257  90
   4   3   0 63.4925 34.0099  36
  -4  -3   0 96.8199 45.7977  35
  -4  -3  -1 50155.8 806.848  65
  -4  -3  -1 49013.3 873.842  63
  -4  -3  -1 47729.3 837.042  40
  -4  -3  -1 46831.4 879.616  96
   4   3   1 46081.2 887.734  95
   4   3   1 46189.6 884.421  94
  -4  -3  -1 46447.7 886.674  93
   4   3   1 45872.3 884.083  92
   4   3   1 46945.4 854.287  38
  -4  -3  -1 47014.7 883.721  91
   4   3   1 46256.4 889.443  90
   4   3   1 49500.5 825.253  36
  -4  -3  -1 50528.0 921.546  35
   4   3   1 48938.2 800.774  64
   4   3   1 49678.2 881.826  34
  -4  -3  -1 49778.7 859.647   1
  -4  -3  -2 34987.3 717.971   1
   4   3   2 33485.7 607.493  64
  -4  -3  -2 32490.2 744.333  63
  -4  -3  -2 32783.0 712.839  65
   4   3   2 33216.0 719.553  36
  -4  -3  -2 31683.4 663.260  40
  -4  -3  -2 30815.0 709.948  96
   4   3   2 29982.6 710.487  95
   4   3   2 30437.9 713.117  94
  -4  -3  -2 30614.4 715.074  93
   4   3   2 30478.1 715.857  92
  -4  -3  -2 29978.9 702.927  91
   4   3   2 30409.1 717.221  90
  -4  -3  -2 35015.1 769.287  35
   4   3   2 31528.3 709.211  34
  -4  -3  -3 15141.3 476.482   1
  -4  -3  -3 15388.3 526.822  65
  -4  -3  -3 15509.1 537.711  63
  -4  -3  -3 15094.4 450.719  40
  -4  -3  -3 14359.7 482.454  96
   4   3   3 14215.2 487.562  95
   4   3   3 14165.1 482.171  94
  -4  -3  -3 14088.8 482.975  93
   4   3   3 13928.5 481.897  92
  -4  -3  -3 14417.8 486.685  91
   4   3   3 13973.6 481.771  90
   4   3   3 15092.7 521.244  36
  -4  -3  -3 15053.1 512.023  35
   4   3   4 1988.39 206.523  36
  -4  -3  -4 2106.98 178.956   1
  -4  -3  -4 1830.92 198.307  65
  -4  -3  -4 2081.32 207.358  63
   4   3   4 2030.66 183.786  94
  -4  -3  -4 1736.37 167.594  96
   4   3   4 1727.50 170.133  95
  -4  -3  -4 2164.06 189.032  93
   4   3   4 1786.94 171.009  92
  -4  -3  -4 1877.60 176.960  91
   4   3   4 1938.59 180.268  90
  -4  -3  -4 2013.02 194.331  35
   4   3   5 2476.80 138.781  47
   4   3   5 2450.18 137.280  46
   4   3   5 2398.01 133.034  70
  -4  -3  -5 2208.42 223.363  63
   4   3   5 2349.63 135.799  14
   4   3   5 2440.01 132.402  13
   4   3   5 2394.70 135.067  53
   4   3   5 2303.88 142.719  85
   4   3   5 2165.41 231.748  36
  -4  -3  -5 2442.39 243.346  65
   4   3   6 80622.8 823.878  47
   4   3   6 80962.8 824.820  46
   4   3   6 79330.6 763.945  70
   4   3   6 80980.0 802.700  14
   4   3   6 79562.0 818.928  28
  -4  -3  -6 90433.9 1551.80  65
  -4  -3  -6 86333.4 1438.74  63
   4   3   6 81564.3 806.180  13
   4   3   6 83555.5 812.223  24
  -4  -3  -6 91055.1 1588.72  37
   4   3   6 80677.2 800.654  53
   4   3   6 76753.5 844.480  85
   4   3   6 92237.1 1580.57  36
   4   3   6 78209.3 811.987  51
   4   3   7 31043.4 500.428  28
   4   3   7 29876.8 505.614  47
   4   3   7 29887.0 513.840  46
   4   3   7 30641.3 481.364  14
   4   3   7 30694.9 507.415  24
   4   3   7 30823.0 481.133  53
   4   3   7 28283.5 513.266  85
   4   3   7 31641.4 511.677  13
   4   3   7 28879.2 493.086  51
   4   3   8 258.196 50.6394  46
   4   3   8 236.601 40.4266  28
   4   3   8 260.203 50.5528  13
   4   3   8 218.667 44.2926  26
   4   3   8 209.185 44.5451  24
   4   3   8 254.457 43.3791  54
   4   3   8 177.634 38.4800  51
   4   3   9 673.931 70.1031  15
   4   3   9 630.676 55.6753  54
   4   3  10 114.017 25.8635  15
   4   3  10 143.629 24.8842  12
   4   4  -7 12126.5 236.437  73
  -4  -4   7 11294.6 231.994  31
   4   4  -7 11029.9 195.236  61
  -4  -4   7 12183.5 226.325  59
  -4  -4   7 12796.5 269.837  88
   4   4  -7 12224.0 214.685  79
  -4  -4   7 12445.5 248.538  48
   4   4  -6 6878.26 218.037  73
  -4  -4   6 7021.16 217.127  59
  -4  -4   6 7144.19 235.415  21
  -4  -4   6 7041.03 229.280  89
  -4  -4   6 7218.32 249.931  88
  -4  -4   6 7106.84 216.249  86
  -4  -4   6 6468.28 216.619  52
   4   4  -6 6698.15 202.961  60
  -4  -4   6 7071.72 227.237   7
  -4  -4   6 7113.00 228.441  48
  -4  -4   5 12390.9 336.544   7
   4   4  -5 12711.5 314.942  60
  -4  -4   5 12223.2 322.937  59
   4   4  -5 12875.7 294.238  58
  -4  -4   5 12334.9 333.137  21
  -4  -4   5 12451.9 334.633  89
  -4  -4   5 12119.0 315.189  86
  -4  -4   5 12052.0 318.867  52
  -4  -4   5 12870.7 335.227  78
  -4  -4   5 12542.8 328.972  48
  -4  -4   4 26696.6 492.042  48
  -4  -4   4 27658.0 521.863   7
  -4  -4   4 28454.4 458.108 107
  -4  -4   4 28104.3 460.309 101
  -4  -4   4 27607.0 461.772 102
   4   4  -4 26923.2 472.088  60
  -4  -4   4 27194.2 493.203  59
   4   4  -4 27201.9 458.462  58
  -4  -4   4 27190.7 500.257  21
  -4  -4   4 27929.8 509.473  89
  -4  -4   4 26739.1 487.196  86
  -4  -4   4 26538.3 477.005  52
  -4  -4   4 25376.9 476.183  78
  -4  -4   3 2223.73 143.304  48
  -4  -4   3 2269.34 132.295  16
   4   4  -3 2524.06 131.977  72
  -4  -4   3 2177.43 239.343  68
  -4  -4   3 2393.73 138.240 104
   4   4  -3 2328.89 140.522 103
  -4  -4   3 2290.70 140.990 102
   4   4  -3 2293.06 135.884  99
   4   4  -3 2287.24 135.828  98
   4   4  -3 2371.03 137.676 100
  -4  -4   3 2121.61 241.703  40
   4   4  -3 2350.60 136.938  97
  -4  -4   3 2090.25 223.025  96
   4   4  -3 2098.08 235.499  94
   4   4  -3 2424.62 139.205  58
  -4  -4   3 2182.78 224.793  93
  -4  -4   3 2185.07 222.589  92
   4   4  -3 2177.59 128.271  56
   4   4  -3 2437.09 244.904  38
  -4  -4   3 2179.03 223.698  91
   4   4  -3 2411.50 241.683  90
  -4  -4   3 2324.60 143.433  21
  -4  -4   3 2439.74 152.277  89
  -4  -4   3 2228.43 141.170  86
  -4  -4   3 2232.34 134.383 107
  -4  -4   3 2298.54 138.673  52
  -4  -4   3 2107.10 222.320   4
  -4  -4   3 2180.71 145.488   8
  -4  -4   3 2153.81 136.336  78
   4   4  -3 2727.02 262.917  34
   4   4  -2 393.300 102.481  34
  -4  -4   2 279.997 53.6731  48
   4   4  -2 234.232 44.7902  72
  -4  -4   2 248.054 45.4424  16
  -4  -4   2 272.741 52.8844 107
  -4  -4   2 194.203 66.4780  96
  -4  -4   2 285.263 50.6369 102
  -4  -4   2 366.722 89.9418  68
  -4  -4   2 280.721 48.1962  44
  -4  -4   2 299.983 52.9212 104
   4   4  -2 241.265 50.1895 100
   4   4  -2 201.295 46.2256  99
   4   4  -2 258.529 53.5164  98
   4   4  -2 241.055 50.6958 103
   4   4  -2 216.699 44.8745  97
  -4  -4   2 105.700 54.7939  40
   4   4  -2 208.339 76.0733  95
   4   4  -2 273.798 53.3742  58
   4   4  -2 204.422 76.4898  94
  -4  -4   2 115.501 52.4545  93
  -4  -4   2 413.371 98.0232  92
   4   4  -2 357.703 53.2269  56
   4   4  -2 66.9204 42.6760  38
  -4  -4   2 226.550 78.8436  91
   4   4  -2 345.329 97.6631  90
  -4  -4   2 199.852 50.6759  89
  -4  -4   2 297.438 56.0761  86
  -4  -4   2 189.590 44.8114  52
  -4  -4   2 156.153 60.2420   1
  -4  -4   2 66.7447 52.6580  35
  -4  -4   2 347.478 60.4897   8
  -4  -4   2 366.297 58.6783  78
  -4  -4   1 39726.2 907.758  68
  -4  -4   1 42663.4 830.267  63
  -4  -4   1 39393.3 913.517  40
  -4  -4   1 39654.6 918.683  96
   4   4  -1 39412.4 929.677  95
   4   4  -1 39969.2 933.357  94
  -4  -4   1 40409.7 933.724  93
  -4  -4   1 40112.8 933.259  92
   4   4  -1 43508.4 948.377  38
  -4  -4   1 39064.0 916.546  91
   4   4  -1 39916.7 939.023  90
  -4  -4   1 42661.0 865.876   1
  -4  -4   1 44031.7 928.844  35
   4   4  -1 46972.6 977.345  34
   4   4   0 1952.49 185.664  64
  -4  -4   0 1986.44 188.378  63
  -4  -4   0 1935.80 189.251  40
  -4  -4   0 1704.39 187.190  96
   4   4   0 1617.49 184.572  95
   4   4   0 1666.49 183.351  94
  -4  -4   0 1821.46 198.539  93
  -4  -4   0 1772.60 192.133  92
   4   4   0 1747.26 182.552  38
  -4  -4   0 1764.81 191.277  91
   4   4   0 1726.78 192.150  90
  -4  -4   0 1680.21 172.758   1
   4   4   0 2217.94 185.150  36
  -4  -4   0 1945.07 196.041  35
   4   4   0 2041.77 197.814  34
   4   4   1 48833.1 845.496  64
  -4  -4  -1 45642.9 913.697  63
  -4  -4  -1 46061.6 853.747  40
  -4  -4  -1 43454.0 904.795  96
   4   4   1 43450.1 928.158  95
   4   4   1 43897.9 928.210  94
  -4  -4  -1 42204.8 905.000  93
  -4  -4  -1 46374.5 886.367   1
  -4  -4  -1 42133.0 905.659  92
   4   4   1 46453.6 943.295  38
  -4  -4  -1 43472.0 909.647  91
   4   4   1 43592.6 930.741  90
   4   4   1 49517.7 901.583  36
  -4  -4  -1 47371.8 961.381  35
   4   4   1 48208.4 891.473  34
   4   4   2-52.3832 38.6229  34
   4   4   2 74.0429 39.1810  94
  -4  -4  -2 100.955 44.8497   1
  -4  -4  -2 28.7619 38.0943  65
  -4  -4  -2 135.699 50.6634  63
   4   4   2 109.002 39.0924  95
  -4  -4  -2 145.734 47.7790  40
  -4  -4  -2 186.795 64.3097  96
  -4  -4  -2 89.5553 45.6561  93
  -4  -4  -2 40.1025 31.2076  91
   4   4   2 102.336 54.1993  90
   4   4   2 48.5919 41.2211  36
  -4  -4  -2 131.073 59.8647  35
  -4  -4  -3 72996.8 1199.77  65
  -4  -4  -3 72107.9 1217.12  63
  -4  -4  -3 65673.4 1079.87  96
   4   4   3 64897.3 1094.54  95
   4   4   3 65463.1 1094.63  94
  -4  -4  -3 64947.5 1082.37  93
  -4  -4  -3 65881.3 1088.62  91
   4   4   3 64448.1 1092.06  90
  -4  -4  -3 71339.5 1105.44   1
   4   4   3 72305.6 1204.17  36
  -4  -4  -3 71228.2 1208.57  35
   4   4   3 71194.6 1087.15  34
  -4  -4  -4 12966.8 472.550   1
  -4  -4  -4 12745.1 533.460  65
  -4  -4  -4 12476.1 527.658  63
  -4  -4  -4 11955.5 454.812  96
   4   4   4 11644.1 454.654  95
   4   4   4 11793.2 451.517  94
  -4  -4  -4 11449.8 445.339  93
  -4  -4  -4 11356.9 442.191  91
   4   4   4 12016.9 461.867  90
   4   4   4 12901.3 306.183  53
   4   4   4 13192.6 547.045  36
  -4  -4  -4 13232.5 527.766  35
   4   4   5 3364.79 161.008  46
   4   4   5 2953.96 150.870  70
   4   4   5 2901.25 144.002  45
   4   4   5 2942.39 154.448  14
  -4  -4  -5 3046.13 281.668  65
   4   4   5 3102.08 158.041  28
  -4  -4  -5 3099.25 273.303  63
   4   4   5 2921.33 153.105  53
   4   4   5 3449.27 294.950  36
   4   4   5 3156.06 156.783  84
  -4  -4  -5 3587.58 280.102  35
   4   4   6 27242.0 481.599  46
   4   4   6 26655.7 454.433  70
   4   4   6 25991.7 457.414  14
   4   4   6 25986.8 472.231  28
  -4  -4  -6 30641.3 919.376  65
  -4  -4  -6 28244.6 842.080  63
   4   4   6 26666.5 469.833  53
   4   4   6 27338.4 448.120  84
   4   4   6 29845.2 914.468  36
   4   4   6 25854.6 477.026  51
   4   4   7 11570.0 320.281  46
   4   4   7 11515.8 314.997  15
   4   4   7 11700.9 313.667  28
   4   4   7 11663.4 307.843  53
   4   4   7 11253.9 317.949  51
   4   4   8 3582.85 171.878  15
   4   4   8 3723.01 166.230  28
   4   4   8 3467.93 164.707  26
   4   4   8 3570.43 166.703  51
   4   4   9 2600.26 133.902  15
   4   4   9 2640.67 123.354  26
   4   4   9 2685.97 121.354  12
   4   4   9 2609.61 121.895  51
   4   4  10 4348.28 138.847  15
   4   4  10 4111.40 119.648  12
   4   5  -7 1221.52 55.2569  75
  -4  -5   7 1336.42 63.7248  88
   4   5  -7 1250.14 54.6718  77
   4   5  -6 1461.92 86.4750  75
   4   5  -6 1515.01 87.2117  73
   4   5  -6 1452.20 75.9876  60
   4   5  -6 1382.28 79.3607  61
  -4  -5   6 1490.73 91.9350  89
  -4  -5   6 1594.93 99.2515  88
   4   5  -6 1605.87 86.3087  79
  -4  -5   6 1505.70 90.8481  18
  -4  -5   6 1533.28 91.1733  48
  -4  -5   5 171.030 44.1106  48
  -4  -5   5 176.331 42.7131   7
   4   5  -5 139.802 39.8732  73
   4   5  -5 149.228 37.4401  60
  -4  -5   5 147.272 43.0704  89
  -4  -5   5 135.741 43.9614  88
  -4  -5   5 186.986 44.0985  86
  -4  -5   5 173.443 39.7428  52
   4   5  -5 185.322 40.4691  79
  -4  -5   4 9518.08 287.323  48
  -4  -5   4 10033.0 303.939   7
   4   5  -4 9500.21 278.312  73
   4   5  -4 10063.2 283.034  60
  -4  -5   4 9648.34 261.551 107
   4   5  -4 9776.79 266.146 105
   4   5  -4 9684.35 264.783 103
  -4  -5   4 9896.50 265.242 102
  -4  -5   4 9815.82 263.055 101
   4   5  -4 10049.9 265.495  99
   4   5  -4 9984.40 265.429  98
   4   5  -4 9816.96 262.506  97
  -4  -5   4 9438.96 260.339  59
   4   5  -4 10109.2 262.015  58
  -4  -5   4 10260.1 283.224  21
  -4  -5   4 9871.20 298.391  89
  -4  -5   4 9557.49 287.303  86
  -4  -5   4 9453.29 270.093  52
  -4  -5   4 10080.2 273.288  19
  -4  -5   4 9681.65 280.957  78
  -4  -5   4 10000.3 262.268  49
  -4  -5   3 3892.87 190.521  48
  -4  -5   3 4030.58 179.113  74
  -4  -5   3 4024.93 200.229   7
  -4  -5   3 4122.48 181.570  16
   4   5  -3 3890.81 182.004  73
  -4  -5   3 4068.70 187.605 107
   4   5  -3 3923.77 186.850 105
  -4  -5   3 4145.05 186.329 104
   4   5  -3 4035.15 188.651 103
  -4  -5   3 4087.94 188.395 102
  -4  -5   3 4289.96 192.469 101
   4   5  -3 3797.36 178.652 100
   4   5  -3 3819.78 179.156  99
   4   5  -3 4220.93 189.304  98
   4   5  -3 3936.03 183.034  97
  -4  -5   3 4238.07 185.075  59
   4   5  -3 4325.56 185.947  58
   4   5  -3 4137.63 172.244  56
  -4  -5   3 4385.31 187.534  21
  -4  -5   3 4175.95 201.015  89
  -4  -5   3 4077.58 195.147  86
  -4  -5   3 3848.90 177.873  52
   4   5  -3 3969.57 185.473  60
  -4  -5   3 3877.52 181.841  78
  -4  -5   3 4140.45 182.553  49
  -4  -5   2 4223.85 198.782  48
  -4  -5   2 4208.10 180.601  74
  -4  -5   2 4321.69 191.137  16
   4   5  -2 4136.31 184.267  73
   4   5  -2 4240.71 180.265  72
  -4  -5   2 4142.12 192.442 104
   4   5  -2 3947.63 191.110 103
   4   5  -2 4118.32 192.750 100
   4   5  -2 4218.08 193.955  99
   4   5  -2 4289.39 195.681  98
  -4  -5   2 4500.83 341.192  40
   4   5  -2 4156.53 192.155  97
   4   5  -2 4208.65 187.069  60
  -4  -5   2 3831.33 318.023  96
  -4  -5   2 3711.45 317.022  95
   4   5  -2 4266.30 186.242  58
   4   5  -2 4482.96 344.221  94
  -4  -5   2 4068.26 327.851  93
   4   5  -2 4087.93 180.188  56
  -4  -5   2 4274.01 336.174  92
   4   5  -2 5000.78 366.548  38
  -4  -5   2 3975.53 330.306  91
   4   5  -2 4217.84 335.053  90
  -4  -5   2 3979.79 198.494  89
  -4  -5   2 4299.90 200.199  86
  -4  -5   2 4306.57 196.738 107
  -4  -5   2 4089.97 182.015  52
  -4  -5   2 3876.56 327.797  68
  -4  -5   2 4229.44 197.002 102
  -4  -5   2 4108.08 185.628  78
   4   5  -2 4530.02 334.576  34
  -4  -5   2 3926.96 183.119  49
  -4  -5   1 1955.75 131.905  48
  -4  -5   1 2052.58 123.124  74
   4   5  -1 2117.19 128.347  73
  -4  -5   1 2152.77 135.486  16
   4   5  -1 1899.23 123.439  72
  -4  -5   1 1951.47 133.275 107
   4   5  -1 2185.62 140.340  97
   4   5  -1 2096.56 137.575  99
   4   5  -1 2012.89 137.665 103
  -4  -5   1 2065.49 139.480 102
   4   5  -1 2139.76 138.971 100
  -4  -5   1 1707.80 209.085  68
  -4  -5   1 2039.21 218.253  40
  -4  -5   1 2061.22 222.729  96
   4   5  -1 2017.52 128.675  58
   4   5  -1 1707.84 216.891  94
  -4  -5   1 2129.99 236.290  93
   4   5  -1 1985.88 127.164  60
   4   5  -1 2015.35 127.409  56
  -4  -5   1 1962.17 224.273  92
   4   5  -1 1928.16 223.089  38
  -4  -5   1 1859.93 215.646  91
   4   5  -1 2035.86 135.624  98
   4   5  -1 2102.56 238.596  90
  -4  -5   1 1830.84 131.407  89
  -4  -5   1 1971.23 206.553   1
  -4  -5   1 1896.77 131.207  86
  -4  -5   1 2013.26 124.092  52
   4   5  -1 2004.03 124.076  83
  -4  -5   1 1917.76 131.848   8
  -4  -5   1 2112.59 136.415 104
  -4  -5   1 2344.95 227.249  35
  -4  -5   1 1981.17 123.356  78
   4   5  -1 2023.76 217.945  34
  -4  -5   1 2055.92 129.893  49
  -4  -5   0 25065.4 445.784  48
  -4  -5   0 23766.7 423.501  74
   4   5   0 23409.4 396.493  73
  -4  -5   0 24288.6 440.916  16
   4   5   0 24494.5 428.293  72
   4   5   0 23236.4 395.221  45
  -4  -5   0 25028.5 463.542 107
  -4  -5   0 24869.8 464.190 102
  -4  -5   0 24339.2 448.024 104
   4   5   0 24315.4 458.246 103
   4   5   0 24684.9 457.291 100
   4   5   0 24667.7 453.113  99
   4   5   0 24689.0 454.935  98
  -4  -5   0 22555.1 683.320  40
   4   5   0 24650.8 449.914  97
   4   5   0 24192.4 413.962  60
  -4  -5   0 22272.5 733.152  96
   4   5   0 22796.1 755.634  95
  -4  -5   0 24927.8 709.909   1
   4   5   0 24489.9 429.782  58
   4   5   0 21983.2 740.376  94
  -4  -5   0 22153.0 732.704  93
   4   5   0 23839.7 423.859  56
  -4  -5   0 22000.8 732.832  92
   4   5   0 23701.6 756.513  38
  -4  -5   0 22675.6 744.161  91
   4   5   0 22498.0 751.492  90
  -4  -5   0 24052.6 453.960  89
  -4  -5   0 24126.3 444.086  86
   4   5   0 26421.0 715.621  36
  -4  -5   0 23444.7 402.067  52
   4   5   0 23345.3 401.488  84
   4   5   0 24249.7 424.706  83
  -4  -5   0 22972.9 419.324   8
  -4  -5   0 25400.5 746.999  35
  -4  -5   0 23280.4 397.091  78
   4   5   0 25582.0 713.015  34
  -4  -5   0 24193.2 430.076  49
  -4  -5  -1 997.567 92.1003  48
   4   5   1 1081.71 89.6001  72
  -4  -5  -1 1134.44 97.2666  16
   4   5   1 962.501 93.2958 103
   4   5   1 1240.59 95.7150  45
  -4  -5  -1 766.667 128.730  96
  -4  -5  -1 1283.51 103.148 104
   4   5   1 1108.64 95.4157  99
   4   5   1 1065.21 94.8472  98
  -4  -5  -1 1037.80 94.3878 107
  -4  -5  -1 1402.17 157.069  40
  -4  -5  -1 1145.38 161.501   1
   4   5   1 1091.31 95.2007  97
   4   5   1 892.566 148.427  95
   4   5   1 1052.92 90.7899  58
   4   5   1 952.528 156.949  94
  -4  -5  -1 1032.49 152.512  93
   4   5   1 1058.09 89.6532  56
  -4  -5  -1 891.707 139.368  92
  -4  -5  -1 1093.52 154.372  91
   4   5   1 877.103 144.962  38
   4   5   1 897.743 146.816  90
  -4  -5  -1 1109.48 101.929  89
  -4  -5  -1 1022.99 94.9145 102
  -4  -5  -1 1049.54 92.4000  86
   4   5   1 1269.07 164.424  36
   4   5   1 1191.89 94.5160  84
   4   5   1 1137.01 99.3398 100
   4   5   1 1114.48 92.8846  83
  -4  -5  -1 1461.52 182.712  35
   4   5   1 1158.60 142.044  34
  -4  -5  -2 4514.29 188.099  48
  -4  -5  -2 4237.75 181.809 107
   4   5   2 4249.66 172.880  72
  -4  -5  -2 4203.58 177.416  16
   4   5   2 4339.06 182.982  98
   4   5   2 4101.64 172.914  45
   4   5   2 4195.78 184.964 103
  -4  -5  -2 4130.58 302.580  63
   4   5   2 4400.91 184.317 100
   4   5   2 4343.93 183.040  99
  -4  -5  -2 4121.57 290.493   1
   4   5   2 4345.64 182.151  97
  -4  -5  -2 3443.31 270.053  96
   4   5   2 3740.14 291.892  95
   4   5   2 4326.44 175.159  58
  -4  -5  -2 4069.45 298.705  93
   4   5   2 4329.82 175.528  56
  -4  -5  -2 4295.12 184.797 102
  -4  -5  -2 3988.52 293.376  92
  -4  -5  -2 4284.48 179.954 104
   4   5   2 4694.86 329.919  38
  -4  -5  -2 3788.81 287.083  91
   4   5   2 3782.58 291.703  90
  -4  -5  -2 4400.50 190.637  89
  -4  -5  -2 4408.39 183.713  86
   4   5   2 4310.74 309.268  36
   4   5   2 4456.96 181.357  84
   4   5   2 4355.02 180.356  83
   4   5   2 3975.00 298.033  94
  -4  -5  -2 4540.41 325.307  35
   4   5   3 27941.2 437.380  72
   4   5   3 27490.3 447.622 101
  -4  -5  -3 27102.4 431.974  16
   4   5   3 28889.6 463.104  70
   4   5   3 28348.2 460.790  45
  -4  -5  -3 28029.8 451.410 107
  -4  -5  -3 27155.8 446.148 105
  -4  -5  -3 27070.7 439.371 104
   4   5   3 28104.6 443.088  28
   4   5   3 27439.3 454.821 103
  -4  -5  -3 27076.4 448.088 102
  -4  -5  -3 29080.2 823.847  63
   4   5   3 27849.3 447.677 100
   4   5   3 27016.7 440.336  99
   4   5   3 27493.1 445.436  98
   4   5   3 28014.1 445.621  97
  -4  -5  -3 25385.5 716.558  96
   4   5   3 24775.0 725.525  95
   4   5   3 28217.0 441.793  58
  -4  -5  -3 27977.2 748.959   1
   4   5   3 25249.9 728.481  94
  -4  -5  -3 26090.7 729.133  93
   4   5   3 27999.8 443.922  56
  -4  -5  -3 25468.3 720.762  92
  -4  -5  -3 25879.0 725.766  91
   4   5   3 24486.0 720.626  90
  -4  -5  -3 27771.7 480.134  89
   4   5   3 28480.1 454.893  53
  -4  -5  -3 28511.3 458.620  86
   4   5   3 29599.5 831.725  36
   4   5   3 27993.1 462.944  84
   4   5   3 28923.7 461.801  83
  -4  -5  -3 28070.3 821.709  35
   4   5   4 59792.4 630.890  72
   4   5   4 60942.6 694.710  70
   4   5   4 60245.5 681.203  45
   4   5   4 60486.2 683.404  28
  -4  -5  -4 60595.5 1226.25  65
  -4  -5  -4 64537.5 1264.03  63
   4   5   4 56432.2 1059.09  95
   4   5   4 59171.4 630.940  58
   4   5   4 56722.7 1049.57  94
   4   5   4 59218.0 637.823  56
  -4  -5  -4 61793.6 1107.91   1
   4   5   4 57479.9 1064.59  90
   4   5   4 61469.0 696.161  53
  -4  -5  -4 58421.7 660.352  86
   4   5   4 61516.5 1246.72  36
   4   5   4 62087.7 705.149  84
   4   5   4 60332.7 659.977  83
  -4  -5  -4 60814.4 1225.74  35
   4   5   5 6690.58 229.689  45
   4   5   5 6663.04 218.606  15
   4   5   5 6406.37 231.180  28
  -4  -5  -5 7176.47 443.446  65
   4   5   5 6245.57 359.858   5
  -4  -5  -5 7775.53 447.671  63
   4   5   5 6565.27 233.934  53
  -4  -5  -5 6493.99 220.224  86
   4   5   5 7285.71 448.868  36
   4   5   5 6363.49 231.795  84
  -4  -5  -5 6471.72 213.649  52
   4   5   5 6540.68 213.783  83
  -4  -5  -5 6905.97 416.394  35
   4   5   5 6282.08 229.444  51
  -4  -5  -5 6615.59 358.605   1
   4   5   6 25020.1 437.739  45
   4   5   6 24212.8 436.210  15
   4   5   6 23634.1 455.064  28
   4   5   6 23531.8 452.093  53
   4   5   6 23766.0 441.474  84
   4   5   6 22842.0 453.260  51
   4   5   7 1361.45 107.207  15
   4   5   7 1482.29 114.315  28
   4   5   7 1235.45 104.141  53
   4   5   7 1432.99 103.275  84
   4   5   7 1353.53 112.212  51
   4   5   8 2846.55 149.344  15
   4   5   8 2619.40 145.551  26
   4   5   8 2858.65 129.874  12
   4   5   8 2920.38 142.653  25
   4   5   8 2926.97 151.905  28
   4   5   8 2827.99 150.388  51
   4   5   9 2047.43 114.881  15
   4   5   9 2039.33 112.723  26
   4   5   9 1971.02 97.1481  12
   4   5   9 2029.55 112.066  51
   4   5  10 802.640 48.4816  12
   4   6  -5 5772.20 162.191  75
   4   6  -5 5680.27 161.413  73
   4   6  -5 5821.13 161.374  61
   4   6  -5 5753.77 150.841  60
  -4  -6   5 5675.11 173.143  89
  -4  -6   5 5755.22 179.632  88
   4   6  -5 5800.40 160.617  79
  -4  -6   5 5749.25 178.233  18
  -4  -6   5 5606.57 167.015  48
   4   6  -4 4066.63 158.968  75
   4   6  -4 4099.62 164.095  73
   4   6  -4 3820.09 145.378 105
   4   6  -4 3855.23 146.058 103
   4   6  -4 3844.69 143.683  99
   4   6  -4 3828.69 143.911  98
   4   6  -4 3700.61 140.939  97
   4   6  -4 3925.84 157.506  60
  -4  -6   4 4036.92 172.142  89
  -4  -6   4 4191.57 182.449  88
  -4  -6   4 3901.70 166.286  86
  -4  -6   4 3929.07 142.605  52
   4   6  -4 3960.71 159.699  79
  -4  -6   4 3903.95 169.498   7
  -4  -6   4 3731.22 160.598  48
  -4  -6   3 25025.8 464.220   7
  -4  -6   3 24425.8 443.660  48
   4   6  -3 25582.3 424.537  75
  -4  -6   3 24891.0 415.347  74
   4   6  -3 25428.3 439.215  73
   4   6  -3 24524.8 437.110 105
   4   6  -3 24676.6 437.218 103
  -4  -6   3 24607.8 435.936 101
   4   6  -3 24911.2 431.344  99
   4   6  -3 24974.3 433.714  98
   4   6  -3 24975.5 432.938  97
   4   6  -3 25130.4 439.403  60
   4   6  -3 25368.4 408.930  58
  -4  -6   3 24507.7 459.189  89
  -4  -6   3 24487.9 449.850  86
  -4  -6   3 25057.7 436.918 107
  -4  -6   3 24415.4 391.575  52
   4   6  -3 25353.5 437.622  79
  -4  -6   3 23642.6 439.080  19
  -4  -6   3 24200.1 411.678  78
  -4  -6   3 25276.5 422.750  49
  -4  -6   3 24632.2 439.165 102
  -4  -6   2 9843.46 296.740  48
  -4  -6   2 11118.3 319.314   7
  -4  -6   2 10390.4 289.772  74
   4   6  -2 10458.3 290.718  73
   4   6  -2 10543.0 272.872  72
  -4  -6   2 10456.8 304.741 102
   4   6  -2 10231.2 304.212 105
   4   6  -2 10521.6 307.988 103
  -4  -6   2 10522.8 304.747 101
   4   6  -2 10571.9 304.074  99
   4   6  -2 10271.5 301.299  98
   4   6  -2 10408.8 300.460  97
   4   6  -2 10609.3 296.114  60
   4   6  -2 10647.0 286.737  58
   4   6  -2 10520.9 279.586  56
  -4  -6   2 10577.0 313.328  89
  -4  -6   2 10237.5 304.417  86
  -4  -6   2 10577.8 304.219 107
   4   6  -2 10507.2 289.972  79
  -4  -6   2 10446.3 278.643  78
  -4  -6   2 10187.9 292.904  49
  -4  -6   1 4241.87 186.283  76
  -4  -6   1 4280.57 197.013  48
   4   6  -1 4727.12 181.344  75
  -4  -6   1 4658.72 206.655   7
  -4  -6   1 4334.80 187.957  74
  -4  -6   1 4434.70 200.232  16
   4   6  -1 4242.75 185.320  73
   4   6  -1 4293.81 185.922  72
  -4  -6   1 4310.73 202.576 107
  -4  -6   1 4276.17 198.907 104
   4   6  -1 4177.00 202.161 103
  -4  -6   1 4418.97 207.226 102
   4   6  -1 4542.78 206.896 100
   4   6  -1 4387.21 203.550  99
   4   6  -1 4207.95 200.687  98
   4   6  -1 4547.55 206.032  97
   4   6  -1 4191.12 187.281  60
   4   6  -1 4417.38 191.117  58
   4   6  -1 4260.37 186.508  56
  -4  -6   1 4229.66 201.634  89
  -4  -6   1 4206.45 196.992  86
   4   6  -1 4482.62 184.001  83
   4   6  -1 4520.50 189.054  79
  -4  -6   1 4386.34 179.925  78
  -4  -6   1 4399.26 195.796  49
  -4  -6   0 38886.3 591.437  48
  -4  -6   0 39055.4 576.646  74
  -4  -6   0 41295.5 589.365   7
  -4  -6   0 38779.9 581.590  16
   4   6   0 39615.9 543.577  73
   4   6   0 38496.6 566.331  72
  -4  -6   0 39839.2 605.024 107
  -4  -6   0 39549.5 599.037 104
   4   6   0 39359.1 611.647 103
  -4  -6   0 39035.3 608.830 102
   4   6   0 40038.3 605.864 100
   4   6   0 40077.4 604.757  99
   4   6   0 39745.5 605.168  98
   4   6   0 39826.7 559.930  60
   4   6   0 39759.1 601.861  97
  -4  -6   0 39168.2 1033.48  96
  -4  -6   0 40907.4 1064.19  95
   4   6   0 40467.3 575.054  58
   4   6   0 38450.9 1042.45  94
  -4  -6   0 43601.6 992.324   1
  -4  -6   0 39480.4 1044.84  93
   4   6   0 40175.7 572.305  56
  -4  -6   0 39139.7 1038.69  92
   4   6   0 44007.2 1112.18  38
  -4  -6   0 38517.7 1030.18  91
   4   6   0 38386.5 1041.76  90
  -4  -6   0 39305.8 598.259  89
  -4  -6   0 38301.0 577.361  86
   4   6   0 39785.9 564.991  83
   4   6   0 41458.7 562.997   6
  -4  -6   0 44602.6 1014.37  35
   4   6   0 39863.9 536.194  79
  -4  -6   0 39001.8 580.099  49
  -4  -6  -1 37844.3 574.848  48
  -4  -6  -1 40128.0 577.248  74
   4   6   1 39669.4 524.145  73
  -4  -6  -1 38289.6 569.933  16
   4   6   1 38259.3 561.950  72
   4   6   1 38248.0 537.318  45
  -4  -6  -1 39082.0 594.200 107
  -4  -6  -1 39228.2 586.534 104
   4   6   1 39443.6 592.904 100
   4   6   1 38229.2 599.739 103
  -4  -6  -1 38688.0 600.876 102
   4   6   1 38457.2 585.729  99
  -4  -6  -1 44072.0 1014.66   1
   4   6   1 38529.6 589.130  98
   4   6   1 39214.7 540.538  60
   4   6   1 38893.3 587.409  97
  -4  -6  -1 37593.6 988.868  96
   4   6   1 39019.5 563.362  58
   4   6   1 38273.0 1018.08  94
  -4  -6  -1 38303.4 1002.29  93
   4   6   1 38696.4 562.953  56
  -4  -6  -1 37617.2 1002.71  92
   4   6   1 41763.7 1071.29  38
  -4  -6  -1 37986.3 996.943  91
   4   6   1 38170.4 1021.71  90
  -4  -6  -1 38836.5 585.928  89
  -4  -6  -1 37928.5 563.378  86
   4   6   1 41637.6 1010.77  36
   4   6   1 37988.7 534.799  84
   4   6   1 38016.3 568.054  83
  -4  -6  -1 42217.5 1023.75  35
  -4  -6  -1 39188.2 581.685  49
  -4  -6  -2 12826.3 334.061  48
  -4  -6  -2 12405.9 320.392  16
   4   6   2 12963.8 324.615  72
   4   6   2 12677.0 317.745  45
  -4  -6  -2 13179.7 335.089 107
   4   6   2 12785.9 335.610 103
  -4  -6  -2 12447.0 329.792 102
   4   6   2 12866.0 330.464 100
  -4  -6  -2 14663.2 589.912   1
   4   6   2 12932.8 330.972  99
   4   6   2 12602.3 328.494  98
   4   6   2 13244.0 302.315  60
   4   6   2 12582.2 324.381  97
  -4  -6  -2 12163.1 552.902  96
   4   6   2 12916.6 323.368  58
   4   6   2 11999.2 557.661  94
  -4  -6  -2 12713.4 567.378  93
   4   6   2 13030.6 325.992  56
  -4  -6  -2 12525.5 561.925  92
  -4  -6  -2 12322.8 556.983  91
   4   6   2 11944.8 559.689  90
  -4  -6  -2 13439.9 342.404  89
  -4  -6  -2 12877.2 328.138 104
  -4  -6  -2 12648.9 323.889  86
   4   6   2 13539.2 589.928  36
   4   6   2 12616.8 318.065  84
   4   6   2 12826.6 327.305  83
  -4  -6  -2 14493.1 614.789  35
  -4  -6  -2 12979.4 338.593  49
  -4  -6  -3 1872.56 129.326  48
  -4  -6  -3 1682.51 115.859  16
   4   6   3 1831.41 121.627  72
   4   6   3 1804.75 123.390  45
  -4  -6  -3 1621.81 116.465 107
  -4  -6  -3 1622.51 117.090 104
   4   6   3 1844.60 114.851  28
   4   6   3 1912.14 126.170 103
  -4  -6  -3 1740.77 120.500 102
  -4  -6  -3 2120.75 237.627  63
   4   6   3 1746.95 121.726 100
   4   6   3 1661.93 117.265  99
  -4  -6  -3 1895.65 207.270   1
   4   6   3 1712.60 117.739  98
   4   6   3 1772.16 120.516  97
  -4  -6  -3 1687.72 199.412  96
   4   6   3 1762.15 121.494  58
   4   6   3 1768.79 202.075  94
  -4  -6  -3 1574.01 190.294  93
   4   6   3 1737.96 120.727  56
  -4  -6  -3 1579.80 193.750  92
  -4  -6  -3 1336.88 183.985  91
   4   6   3 2083.96 219.517  90
  -4  -6  -3 1752.56 127.607  89
  -4  -6  -3 1632.28 116.828  86
   4   6   3 1753.75 223.729  36
   4   6   3 1673.79 121.247  84
   4   6   3 1813.93 123.214  83
  -4  -6  -3 2157.99 241.477  35
   4   6   4 3645.44 166.493  72
   4   6   4 3541.53 173.003  45
   4   6   4 3620.59 167.241  28
  -4  -6  -4 4150.22 340.399  63
   4   6   4 3628.71 171.443  58
  -4  -6  -4 3453.10 281.736   1
   4   6   4 3687.43 171.353  56
  -4  -6  -4 3596.36 178.944  89
   4   6   4 3499.08 171.336  53
   4   6   4 3652.53 320.728  36
   4   6   4 3294.49 169.534  84
   4   6   4 3545.79 170.590  83
   4   6   4 3367.25 158.923  51
  -4  -6  -4 4116.37 344.163  35
   4   6   5 41705.5 535.211  72
   4   6   5 39839.9 577.926  45
   4   6   5 40490.0 578.701  28
   4   6   5 41658.9 555.082  58
   4   6   5 41467.1 551.583  56
  -4  -6  -5 42238.0 585.662  89
   4   6   5 40133.2 592.245  84
   4   6   5 40558.2 553.514  83
   4   6   5 38942.0 562.250  51
   4   6   6 1478.98 105.066  15
   4   6   6 1406.98 108.834  45
   4   6   6 1487.68 115.446  28
  -4  -6  -6 1499.57 112.043  89
   4   6   6 1427.34 112.837  84
   4   6   6 1324.04 107.245  51
   4   6   7 2112.53 125.406  15
   4   6   7 1872.60 120.328  71
   4   6   7 1940.04 119.649  45
   4   6   7 1858.26 126.356  28
  -4  -6  -7 1936.02 117.600  89
   4   6   7 1939.79 123.527  84
   4   6   7 1967.93 128.813  51
   4   6   8 412.818 58.4356  26
   4   6   8 462.148 59.5705  25
   4   6   8 455.999 60.1535  51
   4   6   9 3388.14 139.115  26
   4   6   9 3538.72 129.619  25
   4   6   9 3727.75 143.505  51
   4   6  10 4627.21 121.834  26
   4   6  10 4880.37 124.871  51
   4   7  -4 977.404 59.3548  75
   4   7  -4 935.211 60.9990  73
   4   7  -4 908.734 59.9566  61
   4   7  -4 979.932 59.0350  60
  -4  -7   4 893.948 63.7945  89
  -4  -7   4 818.456 58.2405  88
   4   7  -4 910.415 59.5337  79
  -4  -7   4 963.173 67.8706  18
  -4  -7   4 922.516 62.0178  48
   4   7  -3 1514.87 88.0210  75
   4   7  -3 1582.13 95.8184  73
  -4  -7   3 1561.21 92.0742 107
   4   7  -3 1423.78 89.6660 103
   4   7  -3 1448.83 90.2161 105
  -4  -7   3 1408.50 88.6217 102
  -4  -7   3 1576.96 93.3176 101
   4   7  -3 1433.93 89.8927  61
   4   7  -3 1471.68 89.7005  98
   4   7  -3 1577.87 94.2350  60
   4   7  -3 1478.78 89.4431  97
   4   7  -3 1426.69 88.3110  99
  -4  -7   3 1449.38 96.4673  89
  -4  -7   3 1528.20 96.2331  88
  -4  -7   3 1557.61 98.8195  86
  -4  -7   3 1498.07 92.7565  19
   4   7  -3 1640.48 96.3989  79
  -4  -7   3 1379.14 91.9138   7
  -4  -7   3 1549.81 90.5559  49
  -4  -7   3 1471.23 93.9101  48
  -4  -7   2 11095.4 280.484  48
   4   7  -2 11344.9 255.607  75
   4   7  -2 11206.5 244.518  56
  -4  -7   2 11141.6 270.619  74
   4   7  -2 11370.6 277.048  73
   4   7  -2 11240.2 240.221  72
  -4  -7   2 11358.7 284.939 107
   4   7  -2 11086.0 287.680 105
   4   7  -2 11324.6 290.481 103
  -4  -7   2 11228.7 287.262 102
  -4  -7   2 11206.3 285.800 101
   4   7  -2 11297.8 285.607  99
   4   7  -2 11150.5 284.748  98
   4   7  -2 10885.0 277.104  60
   4   7  -2 11330.1 259.498  58
  -4  -7   2 11026.7 287.638  89
  -4  -7   2 11459.9 287.755  88
  -4  -7   2 11426.0 287.738  86
   4   7  -2 11058.8 281.768  97
  -4  -7   2 11198.6 294.591  19
   4   7  -2 11326.5 272.388  79
  -4  -7   2 11132.1 276.095  49
  -4  -7   2 11132.5 281.984   7
  -4  -7   1 9.26693 23.0290  76
   4   7  -1 55.8584 30.1442  75
  -4  -7   1-1.40193 27.6480  48
  -4  -7   1-4.82675 21.0391  74
  -4  -7   1-7.76005 21.9146   7
   4   7  -1-0.20283 25.5082  73
   4   7  -1 3.90086 22.8801  72
  -4  -7   1 40.0999 26.3853 107
  -4  -7   1 38.2931 27.9956 101
   4   7  -1 17.1787 28.0828 103
   4   7  -1 17.9769 29.3212 105
  -4  -7   1 81.3016 36.7535 102
   4   7  -1-0.11672 29.2221  98
   4   7  -1 37.9880 31.1625  60
   4   7  -1 9.37878 24.2253  97
   4   7  -1 37.7796 29.2830  58
   4   7  -1-11.2326 20.2731  56
  -4  -7   1 41.0450 33.9853  89
  -4  -7   1 10.8165 30.5279  86
   4   7  -1-6.75302 25.4775  99
   4   7  -1 36.2775 29.6350  79
  -4  -7   1 3.21084 27.6762  49
  -4  -7   0 15267.8 349.439  76
  -4  -7   0 15304.9 355.317  48
  -4  -7   0 15603.5 356.331  74
   4   7   0 15865.8 341.989  73
   4   7   0 13314.3 326.488  72
   4   7   0 15586.8 334.242   6
  -4  -7   0 14472.4 359.270 107
   4   7   0 15585.0 378.825 105
   4   7   0 15895.5 383.015 103
  -4  -7   0 14903.5 367.839 102
  -4  -7   0 14630.5 364.899 101
   4   7   0 15760.3 375.754  99
   4   7   0 15228.2 370.254  98
   4   7   0 16702.0 362.746  58
   4   7   0 15819.0 351.139  60
   4   7   0 15814.5 374.452  97
   4   7   0 12941.1 321.863  56
  -4  -7   0 15141.7 362.494  89
  -4  -7   0 16164.8 361.623  86
   4   7   0 15970.6 348.647  83
   4   7   0 15416.0 326.403  79
  -4  -7   0 14505.2 360.648  49
  -4  -7   0 16092.2 345.826   7
  -4  -7  -1 19765.4 415.633  76
  -4  -7  -1 20643.7 418.889  48
  -4  -7  -1 20820.2 389.450  33
  -4  -7  -1 20481.7 420.201  74
  -4  -7  -1 20140.6 416.963  16
   4   7   1 20423.5 380.109  73
   4   7   1 19543.9 404.946  72
   4   7   1 20859.2 381.673  45
   4   7   1 20550.2 404.733   6
   4   7   1 20392.3 435.874 105
  -4  -7  -1 19624.4 420.502 104
   4   7   1 19908.0 431.485 103
  -4  -7  -1 20540.9 434.847 102
  -4  -7  -1 19842.3 426.536 101
   4   7   1 20268.3 431.012 100
   4   7   1 20268.3 426.912  98
   4   7   1 20519.7 398.443  60
   4   7   1 20416.3 426.980  97
   4   7   1 19611.4 405.086  58
   4   7   1 20009.2 409.078  56
  -4  -7  -1 20226.2 418.249  89
  -4  -7  -1 19967.9 400.552  86
   4   7   1 20266.2 428.124  99
   4   7   1 19975.2 409.132  83
  -4  -7  -1 20141.5 424.174 107
  -4  -7  -1 19592.5 405.523  81
   4   7   1 20439.1 361.591  79
  -4  -7  -1 21242.5 434.727  49
  -4  -7  -2 96082.9 896.969  48
  -4  -7  -2 93017.5 922.071  74
  -4  -7  -2 95310.1 886.501  16
   4   7   2 97160.5 804.696  73
   4   7   2 92355.7 883.022  72
   4   7   2 95574.1 858.037  45
   4   7   2 92199.9 882.185   6
  -4  -7  -2 95389.6 910.779 107
   4   7   2 94767.7 924.940 103
  -4  -7  -2 95044.6 919.720 102
   4   7   2 93656.9 902.699 100
   4   7   2 94047.3 900.771  99
   4   7   2 93409.6 905.509  98
   4   7   2 96951.3 836.241  60
   4   7   2 94108.1 902.565  97
   4   7   2 92071.0 878.622  58
   4   7   2 92406.2 881.045  56
  -4  -7  -2 92760.7 895.910 104
  -4  -7  -2 96225.8 892.805  89
  -4  -7  -2 97122.3 861.796  86
   4   7   2 95500.9 843.444  84
   4   7   2 92367.1 895.607  83
  -4  -7  -2 90118.8 919.063  49
  -4  -7  -3 9746.14 284.829  48
  -4  -7  -3 9309.90 266.320  16
   4   7   3 9117.25 275.837  72
   4   7   3 9236.22 275.695  45
  -4  -7  -3 9398.85 272.038 107
  -4  -7  -3 8690.64 265.355 104
   4   7   3 9285.35 276.829 103
  -4  -7  -3 9428.63 275.827 102
   4   7   3 8974.36 272.038 100
   4   7   3 9279.95 271.055  98
   4   7   3 9472.00 273.363  97
   4   7   3 9116.31 276.370  58
   4   7   3 8885.62 272.634  56
  -4  -7  -3 9864.04 282.931  89
   4   7   3 8851.74 269.342  84
   4   7   3 8893.15 277.569  83
   4   7   3 9237.64 271.076  99
   4   7   3 8968.36 277.949   6
  -4  -7  -3 9703.38 295.969  49
  -4  -7  -4 250.232 56.1640  48
   4   7   4 375.176 60.1962  72
   4   7   4 375.222 60.7062   6
   4   7   4 342.006 58.4084  45
   4   7   4 343.203 57.7959  58
   4   7   4 427.887 64.2992  56
  -4  -7  -4 304.487 56.4690  89
   4   7   4 299.078 55.9166  84
   4   7   4 347.878 56.4918  83
  -4  -7  -5 16742.5 365.336  48
   4   7   5 16602.6 342.638  72
   4   7   5 16010.8 365.471  45
   4   7   5 16834.0 361.692   6
   4   7   5 16407.6 354.869  58
   4   7   5 16261.1 349.430  56
   4   7   5 15745.2 367.865  84
   4   7   5 16326.2 352.841  83
   4   7   5 16707.3 336.567  51
  -4  -7  -6 5327.97 199.277  48
   4   7   6 5429.79 209.095  45
   4   7   6 5023.16 183.994  58
   4   7   6 4952.31 200.292  84
   4   7   6 4802.87 183.436  51
   4   7   6 5044.12 188.896   6
  -4  -7  -7 13807.2 300.071  48
   4   7   7 12699.1 294.881  71
   4   7   7 13103.4 300.487  45
   4   7   7 12483.9 287.642  26
   4   7   7 12959.6 307.605  25
   4   7   7 13066.7 307.821  84
   4   7   7 13313.3 296.817  51
  -4  -7  -8 438.483 50.7060  48
   4   7   8 422.314 51.5965  26
   4   7   8 460.950 55.4286  25
   4   7   8 474.117 54.9046  84
   4   7   8 413.237 52.0182  51
  -4  -7  -9 2022.96 81.3866  48
   4   7   9 2199.66 96.2397  51
   4   7   9 2268.79 99.0883  26
   4   8  -3 666.683 43.2953  73
   4   8  -3 634.800 39.7322  61
   4   8  -3 731.799 43.2666  79
   4   8  -2 1187.61 71.6160  73
  -4  -8   2 1105.16 70.0356 107
   4   8  -2 1007.77 68.4188 105
   4   8  -2 1031.42 69.1910 104
   4   8  -2 1109.31 71.1465 103
  -4  -8   2 1121.67 71.4385 102
  -4  -8   2 1042.61 68.4278 101
  -4  -8   2 1082.64 70.1635 100
   4   8  -2 1103.27 70.0134  99
   4   8  -2 1023.22 68.0558  98
   4   8  -2 1072.31 65.1899  61
   4   8  -2 1044.37 67.7967  60
   4   8  -2 1064.89 69.0290  97
  -4  -8   2 1035.95 66.7534  89
  -4  -8   2 1023.59 66.7432  86
  -4  -8   2 1062.86 71.0302  19
   4   8  -2 1127.89 67.9188  79
  -4  -8   2 1068.95 67.8930  49
  -4  -8   2 970.041 66.3330  18
  -4  -8   2 1031.24 64.9506  48
  -4  -8   1 17336.7 299.816  48
  -4  -8   1 17285.0 305.359  74
   4   8  -1 17772.4 303.987  73
   4   8  -1 17160.4 272.370  72
  -4  -8   1 18405.2 328.026 107
   4   8  -1 17994.1 330.769 105
   4   8  -1 17611.1 328.374 103
  -4  -8   1 18717.9 333.763 102
  -4  -8   1 18166.6 328.637 101
   4   8  -1 17770.2 326.445  99
   4   8  -1 17589.4 324.374  98
   4   8  -1 17862.1 315.829  60
   4   8  -1 17530.6 322.173  97
   4   8  -1 16469.1 278.449  58
   4   8  -1 16985.4 269.353  56
  -4  -8   1 16975.1 301.323  89
  -4  -8   1 17257.5 300.531  86
  -4  -8   1 17914.6 336.693  19
   4   8  -1 17656.3 292.098  79
  -4  -8   1 17567.2 315.943  49
  -4  -8   0 12.9437 20.9468  76
  -4  -8   0 28.0631 26.0050  48
  -4  -8   0 6.98421 24.0504  74
   4   8   0 5.10261 20.9737  73
   4   8   0 21.3293 20.2617  72
  -4  -8   0 25.9730 24.5821 107
   4   8   0 28.9521 28.5098 105
   4   8   0 23.5413 24.2207 103
  -4  -8   0-0.88078 21.5197 102
  -4  -8   0-0.68458 23.4181 101
   4   8   0 25.4374 28.7076  99
   4   8   0 7.40141 24.3215  98
   4   8   0 14.4283 26.2367  60
   4   8   0 18.3511 25.9239  97
   4   8   0 27.3220 27.6336  58
   4   8   0 7.75967 20.8004  56
  -4  -8   0-18.1959 22.3082  89
  -4  -8   0 10.8282 21.6053  86
  -4  -8   0-2.75011 19.1468  19
  -4  -8   0 19.5630 27.6899  49
  -4  -8  -1 245.403 47.8998  76
  -4  -8  -1 391.129 55.8100  48
  -4  -8  -1 221.990 49.6248  74
   4   8   1 278.388 47.2735  73
   4   8   1 287.845 49.2393  72
   4   8   1 329.384 50.0031   6
  -4  -8  -1 288.506 49.9228 107
   4   8   1 315.624 54.0726 103
  -4  -8  -1 304.740 52.9631 102
  -4  -8  -1 277.290 49.9973 101
   4   8   1 299.031 51.9663  99
   4   8   1 293.934 52.5025  98
   4   8   1 311.629 53.0497  97
   4   8   1 269.470 46.3961  60
   4   8   1 252.533 47.2605  58
   4   8   1 332.563 51.2973  56
   4   8   1 314.338 51.7290 105
  -4  -8  -1 233.733 42.3089  89
  -4  -8  -1 354.266 51.9383  86
  -4  -8  -1 262.642 49.9850  19
  -4  -8  -1 205.082 47.9571  49
  -4  -8  -2 1750.93 121.921  76
  -4  -8  -2 1701.86 109.767  48
  -4  -8  -2 1652.59 107.998  33
  -4  -8  -2 1641.05 120.142  74
   4   8   2 1721.58 115.846  72
   4   8   2 1823.38 116.927   6
   4   8   2 1798.75 106.958  45
  -4  -8  -2 1690.52 112.534 107
   4   8   2 1861.21 120.481 105
   4   8   2 1762.36 117.801 103
  -4  -8  -2 1819.86 118.016 102
  -4  -8  -2 1768.28 117.845 101
   4   8   2 1952.01 122.064  99
   4   8   2 1765.94 115.189  98
   4   8   2 1639.22 105.700  60
   4   8   2 1790.89 115.327  97
   4   8   2 1655.34 113.609  58
   4   8   2 1694.42 114.748  56
  -4  -8  -2 1665.57 106.076  89
  -4  -8  -2 1641.39 112.686  81
  -4  -8  -2 1918.30 125.079  49
  -4  -8  -3 2194.34 137.993  76
  -4  -8  -3 2711.81 137.760  48
  -4  -8  -3 2416.78 143.867  74
   4   8   3 2487.04 137.115  72
   4   8   3 2582.49 141.969   6
   4   8   3 2485.17 134.212  45
  -4  -8  -3 2475.18 129.703 107
   4   8   3 2568.66 136.169 105
   4   8   3 2571.10 135.479 103
  -4  -8  -3 2594.99 134.193 102
  -4  -8  -3 2505.70 132.936 101
   4   8   3 2603.39 133.241  99
   4   8   3 2472.81 130.172  98
   4   8   3 2702.44 135.450  97
   4   8   3 2473.00 139.541  58
   4   8   3 2412.45 137.855  56
   4   8   3 2649.25 133.081  84
  -4  -8  -3 2516.79 144.423  49
  -4  -8  -4 469.335 58.7169  48
  -4  -8  -4 580.225 75.6708  74
   4   8   4 518.524 63.2018  72
   4   8   4 446.316 60.4413  45
   4   8   4 529.367 64.9574   6
   4   8   4 540.669 67.7978  58
   4   8   4 569.998 68.8401  56
   4   8   4 526.019 64.7180  84
  -4  -8  -4 599.406 73.9447  49
  -4  -8  -5 111.954 30.5496  48
  -4  -8  -5 156.156 42.3232  74
   4   8   5 125.630 34.4271  72
   4   8   5 169.078 41.3201  58
   4   8   5 124.500 34.5944  56
   4   8   5 146.891 35.5823  84
   4   8   5 144.397 37.8113   6
  -4  -8  -5 96.1769 34.0078  49
  -4  -8  -6 2696.87 120.820  48
   4   8   6 2885.12 129.992   6
   4   8   6 2627.37 132.422  71
   4   8   6 2769.69 131.228  25
   4   8   6 2744.48 127.222  58
   4   8   6 2475.40 130.394  84
  -4  -8  -6 2886.68 137.152  49
  -4  -8  -7 87.2870 24.7565  48
   4   8   7 98.1057 28.9308  71
   4   8   7 71.4178 21.9341  26
   4   8   7 84.6183 24.6965  25
   4   8   7 131.191 34.1945  84
   4   8   7 104.721 25.1955  51
  -4  -8  -7 90.9052 29.4332  49
   4   8   8 2753.90 105.304  71
   4   8   8 2629.55 94.9595  26
   4   8   8 2767.93 110.539  25
   4   8   8 2700.63 95.5396  51
  -4  -8  -8 2400.89 90.6523  49
   4   8   9 5440.26 122.747  25
  -4  -9   0 737.658 51.6538  74
  -4  -9   0 662.604 50.7625 107
   4   9   0 657.920 52.0332 104
   4   9   0 612.634 50.1662 105
   4   9   0 661.135 51.5018 103
  -4  -9   0 699.214 52.3961 102
  -4  -9   0 620.728 49.3906 101
  -4  -9   0 638.527 50.5077 100
   4   9   0 677.687 52.0190  99
   4   9   0 651.373 51.2163  98
   4   9   0 672.150 50.4161  60
   4   9   0 666.776 50.9955  97
   4   9   0 568.501 39.8015  58
  -4  -9   0 623.929 51.1478  19
  -4  -9   0 662.767 51.4483  49
  -4  -9  -1 5592.80 160.392  74
   4   9   1 5181.17 148.623  72
  -4  -9  -1 5688.48 159.684 107
   4   9   1 5544.67 162.391 105
   4   9   1 5330.31 144.662  43
   4   9   1 5817.74 164.840 103
  -4  -9  -1 5610.51 160.453 102
  -4  -9  -1 5633.80 161.042 101
   4   9   1 5561.40 159.088  99
   4   9   1 5852.40 163.410  98
   4   9   1 5660.45 153.970  60
   4   9   1 5790.25 161.865  97
   4   9   1 5453.55 149.939  58
   4   9   1 5324.67 147.601  56
  -4  -9  -1 5539.20 162.232  19
  -4  -9  -1 5818.06 163.277  49
  -4  -9  -1 5635.58 153.392  76
  -4  -9  -2 1996.20 103.323  74
   4   9   2 1902.42 98.2023  72
  -4  -9  -2 1907.22 94.9823 107
   4   9   2 1768.16 94.7242 105
   4   9   2 1926.89 97.6539 103
   4   9   2 1970.98 100.630  43
  -4  -9  -2 1737.52 91.3047 102
  -4  -9  -2 1909.99 96.2443 101
   4   9   2 1945.27 96.3646  98
   4   9   2 1877.36 94.9401  97
   4   9   2 1803.18 95.5821  58
   4   9   2 1839.28 96.0658  56
   4   9   2 1934.05 95.9415  99
  -4  -9  -2 1798.58 94.8915  19
  -4  -9  -2 1985.45 102.859  49
  -4  -9  -2 1999.32 102.101  76
  -4  -9  -3 8.85528 19.8276  76
  -4  -9  -3 49.9680 24.4025  33
  -4  -9  -3 43.7774 25.8350  74
   4   9   3 10.8165 19.4149   6
   4   9   3 51.5099 22.7462  72
   4   9   3 21.6793 18.7295  71
  -4  -9  -3 59.3177 18.1045 107
  -4  -9  -3 7.21560 11.4433 102
  -4  -9  -3 79.7426 21.1419 101
   4   9   3-8.41677 18.9297  58
   4   9   3 66.3541 26.5657  56
  -4  -9  -3 26.9878 22.1863  81
  -4  -9  -3 52.4645 21.4138  19
  -4  -9  -3 24.6683 21.8857  49
  -4  -9  -4 368.619 47.3193  76
  -4  -9  -4 398.773 48.4634  33
  -4  -9  -4 340.565 46.9780  74
   4   9   4 334.281 44.8481  72
   4   9   4 337.249 45.4600   6
   4   9   4 311.285 39.9651  71
   4   9   4 421.966 52.4870  58
   4   9   4 311.395 44.5137  56
   4   9   4 325.627 38.4880  84
  -4  -9  -4 316.088 45.7720  81
  -4  -9  -4 338.380 45.0141  49
  -4  -9  -5 3593.95 136.443  76
  -4  -9  -5 3899.02 140.694  33
  -4  -9  -5 3616.94 138.502  74
   4   9   5 3476.19 126.623  72
   4   9   5 3522.39 130.799   6
   4   9   5 3381.82 125.682  71
   4   9   5 3628.63 135.685  43
   4   9   5 3664.19 134.785  58
   4   9   5 3531.78 132.347  56
   4   9   5 3564.77 128.707  84
  -4  -9  -5 3447.29 140.210  81
  -4  -9  -5 3728.82 133.490  49
  -4  -9  -6 4804.71 144.191  76
  -4  -9  -6 5172.62 156.560  74
   4   9   6 5300.44 149.808  71
   4   9   6 5126.13 128.792  25
   4   9   6 5251.41 145.793  58
  -4  -9  -6 5018.14 138.833  49
  -4  -9  -7 6.84870 10.6352  76
  -4  -9  -7 36.2842 18.4786  74
   4   9   7 25.5899 15.9639  71
   4   9   7 20.7923 9.10668  25
  -4  -9  -7 14.1126 9.96439  49
  -5   6   7 262.579 26.8106  71
   5  -6  -7 298.016 32.3464  27
  -5   6   6 226.889 27.6540  71
   5  -6  -6 230.297 34.0535  27
   5  -6  -6 216.972 29.4905  53
  -5   6   5 7463.86 142.853  71
   5  -6  -5 6978.00 163.899  46
   5  -6  -5 6843.83 154.109  70
   5  -6  -5 7597.79 191.907  27
  -5   6   5 7537.20 189.941  55
   5  -6  -5 7214.26 182.909  53
  -5   6   4 1617.78 95.5112  75
   5  -6  -4 1640.16 90.2208  46
   5  -6  -4 1691.65 89.8468  70
   5  -6  -4 1691.31 93.9502  27
  -5   6   4 1592.96 92.2168  55
   5  -6  -4 1672.65 95.3008  53
  -5   6   3 35.3454 25.3840  75
   5  -6  -3 38.8874 17.4843  47
   5  -6  -3 9.96944 17.2163  46
   5  -6  -3 20.4708 20.7928  70
   5  -6  -3 44.8990 22.1894  27
  -5   6   3 20.7119 21.4296  57
  -5   6   3 27.0893 20.9238  55
   5  -6  -3 22.3470 17.5857  53
  -5   6   2 3886.29 141.213  75
   5  -6  -2 4144.55 139.435  47
   5  -6  -2 4294.94 149.890  46
   5  -6  -2 4076.38 146.254  70
   5  -6  -2 4164.41 127.969  99
   5  -6  -2 4000.72 126.187  98
   5  -6  -2 3786.47 123.807 101
  -5   6   2 4062.99 138.066  61
  -5   6   2 3984.39 141.127  55
   5  -6  -2 4234.67 145.266  53
   5  -6  -2 3936.50 126.026 100
   5  -6  -2 4075.31 125.589  20
   5  -6  -2 3958.24 126.310 102
  -5   6   2 4021.54 137.667  77
  -5   6   1 10835.4 216.251  75
   5  -6  -1 11629.0 228.675  47
   5  -6  -1 11586.8 220.862 101
   5  -6  -1 12132.3 238.542  46
   5  -6  -1 11853.8 234.654  70
   5  -6  -1 11789.6 221.768 100
  -5   6   1 11956.3 223.845  41
  -5   6   1 11210.4 227.104  61
   5  -6  -1 11768.1 221.891 102
  -5   6   1 11162.2 218.002  55
   5  -6  -1 11509.5 220.275  98
   5  -6  -1 11546.7 218.020  20
   5  -6  -1 11487.4 218.751  99
  -5   6   1 10995.4 228.234  79
  -5   6   1 11635.3 226.952  77
  -5   6   0 33.3376 17.8238  75
   5  -6   0 45.3784 18.9935 100
   5  -6   0 23.1614 14.1574  47
   5  -6   0-2.60368 14.3354  46
   5  -6   0 12.7378 12.7092  70
  -5   6   0 25.4192 16.5529 106
   5  -6   0 22.6439 13.5322  99
  -5   6   0 14.6226 17.4066  41
  -5   6   0 33.6890 18.8018  61
  -5   6   0 6.97944 13.4326 103
  -5   6   0 16.6503 14.9743 104
  -5   6   0 21.8153 15.8811  55
   5  -6   0 28.4613 15.6034 101
   5  -6   0 11.7125 13.5708  98
   5  -6   0 29.1422 16.5550  20
   5  -6   0 48.0626 17.6059 102
  -5   6   0 16.0673 15.2978 105
  -5   6   0 10.2847 15.4562  77
   5  -6   1 479.191 37.2827  47
   5  -6   1 399.638 31.9593  46
   5  -6   1 477.536 37.7629  99
   5  -6   1 451.458 36.4708 101
   5  -6   1 479.409 37.9501 100
  -5   6  -1 484.865 37.7118  41
   5  -6   1 467.719 37.5426  98
   5  -6   1 444.505 36.3445  20
  -5   6  -1 461.788 37.6817 104
  -5   6  -1 480.261 38.4855  61
  -5   6  -1 532.235 40.6087 106
  -5   6  -1 463.067 38.3135 105
  -5   6  -1 491.884 39.3348 103
   5  -6   1 486.248 37.8039 102
  -5   6  -1 506.689 38.3577  77
  -5   5   8 2843.34 96.3461  71
   5  -5  -8 2354.34 78.9722  27
  -5   5   7 1659.53 87.0738  71
  -5   5   7 1567.91 88.1148  57
  -5   5   6 1865.47 98.5130  71
  -5   5   6 1909.86 105.371  23
  -5   5   6 1649.76 100.699  57
  -5   5   6 1871.70 109.668  55
   5  -5  -6 1672.39 94.6085  53
  -5   5   5 19.2210 25.8132  69
  -5   5   5 14.7357 17.5670  71
   5  -5  -5 6.34268 15.9133  46
  -5   5   5 9.67053 23.3736  57
  -5   5   5 23.6578 23.0286  23
  -5   5   5 13.8765 28.9916  55
   5  -5  -5 14.1956 18.5612  53
  -5   5   4 2241.20 132.607  75
  -5   5   4 2483.77 113.009  71
   5  -5  -4 2310.77 123.392  46
   5  -5  -4 2358.97 124.515  70
  -5   5   4 2213.57 121.626  69
  -5   5   4 2317.89 125.052  41
  -5   5   4 2353.96 134.961  57
  -5   5   4 2216.70 129.564  55
   5  -5  -4 2290.78 129.433  53
  -5   5   4 2194.56 120.406  77
  -5   5   3 10272.8 281.481  75
   5  -5  -3 11109.9 261.977  47
   5  -5  -3 10479.0 272.476  46
   5  -5  -3 10299.8 273.727  70
  -5   5   3 10196.9 263.441  69
   5  -5  -3 10684.0 281.474  27
  -5   5   3 10201.6 269.032  41
  -5   5   3 10509.5 278.058  55
   5  -5  -3 10520.5 282.815  53
  -5   5   3 10501.5 265.291  61
  -5   5   3 10386.7 286.292  79
  -5   5   3 10558.9 271.428  77
  -5   5   2 5307.85 198.764  75
   5  -5  -2 5250.39 189.894  47
   5  -5  -2 5282.82 189.522 100
  -5   5   2 5295.39 190.689 105
  -5   5   2 5325.39 192.151 103
  -5   5   2 5155.89 189.123  69
  -5   5   2 5353.18 191.017 106
   5  -5  -2 5342.98 199.399  46
  -5   5   2 5120.47 187.828 104
   5  -5  -2 5507.06 202.536  70
   5  -5  -2 5247.31 192.085  27
   5  -5  -2 5136.90 186.660 107
  -5   5   2 4980.94 190.063  41
   5  -5  -2 5310.44 189.559  99
  -5   5   2 5294.06 194.601  61
   5  -5  -2 5251.36 189.255 102
   5  -5  -2 5063.86 187.707  98
  -5   5   2 5158.47 193.810  55
   5  -5  -2 5286.04 190.290 101
   5  -5  -2 5373.44 200.813  53
   5  -5  -2 5218.00 186.369  20
  -5   5   2 5388.74 204.077  79
  -5   5   2 5391.23 191.407  97
  -5   5   2 5380.70 198.271  77
  -5   5   1 13980.7 309.446  75
   5  -5  -1 14201.5 313.570  47
   5  -5  -1 14258.5 317.917  99
   5  -5  -1 14038.3 318.362  46
   5  -5  -1 14117.1 321.162  70
  -5   5   1 14776.2 312.059  69
  -5   5   1 14340.0 318.942 105
   5  -5  -1 14592.5 320.375 102
  -5   5   1 14657.0 324.029 103
  -5   5   1 14071.0 317.797 106
   5  -5  -1 14349.4 318.143 101
   5  -5  -1 13950.6 312.306 100
  -5   5   1 14103.9 314.766  41
  -5   5   1 13932.2 320.909  61
  -5   5   1 14031.0 314.925  97
  -5   5   1 14473.0 320.547 104
  -5   5   1 14085.9 305.384  55
  -5   5   1 13910.7 290.533  87
   5  -5  -1 13758.1 309.412  53
   5  -5  -1 14223.1 315.385  20
  -5   5   1 14068.7 317.555  79
   5  -5  -1 13673.8 309.966 107
  -5   5   1 14298.0 319.106  77
  -5   5   0 524.210 59.0417  75
   5  -5   0 527.761 64.0350  47
   5  -5   0 488.282 60.4546  46
  -5   5   0 545.033 66.1410 106
   5  -5   0 519.256 60.9762  70
  -5   5   0 500.309 60.0492  69
  -5   5   0 480.338 61.0413 105
   5  -5   0 568.789 65.0012 107
  -5   5   0 489.674 62.7881 103
   5  -5   0 560.193 64.5010 102
   5  -5   0 587.334 66.4379 101
  -5   5   0 573.330 66.9690  41
  -5   5   0 579.471 67.3006  61
  -5   5   0 495.629 63.1986 104
  -5   5   0 532.043 64.0167  97
  -5   5   0 603.678 63.2561  55
  -5   5   0 509.205 58.0272  87
   5  -5   0 539.610 59.4339  53
   5  -5   0 525.360 63.5229 100
   5  -5   0 534.158 64.3802  20
  -5   5   0 471.443 60.3457  79
   5  -5   0 532.269 63.0951  99
  -5   5   0 529.370 64.5164  77
  -5   5  -1 7696.71 186.432  75
   5  -5   1 7810.41 215.047  47
   5  -5   1 8070.37 214.954  46
   5  -5   1 7699.44 201.461  70
   5  -5   1 7922.25 220.370  99
   5  -5   1 8021.73 219.444 107
  -5   5  -1 8083.88 207.844  69
  -5   5  -1 8156.27 224.955 106
  -5   5  -1 8089.52 222.911 104
  -5   5  -1 7945.62 224.184 103
   5  -5   1 8140.09 222.946 102
   5  -5   1 8005.80 184.889  42
   5  -5   1 8006.49 220.518 101
   5  -5   1 7943.98 219.727 100
  -5   5  -1 7992.10 213.965  41
  -5   5  -1 7905.95 214.169  61
  -5   5  -1 8048.08 222.756  97
  -5   5  -1 7670.91 188.411  55
  -5   5  -1 8098.06 208.711  87
   5  -5   1 8039.30 220.068  20
  -5   5  -1 8055.91 222.775 105
  -5   5  -1 7155.83 193.435  79
  -5   5  -1 7798.42 212.464  77
   5  -5   1 7930.05 178.015  76
   5  -5   2 2341.67 104.412  47
   5  -5   2 2135.79 86.7283  32
   5  -5   2 2528.54 103.986  46
  -5   5  -2 2563.11 104.556  69
  -5   5  -2 2471.22 110.119 106
  -5   5  -2 2539.83 111.385 104
  -5   5  -2 2626.58 114.332 103
   5  -5   2 2756.24 115.105 102
   5  -5   2 2463.31 92.7754  42
  -5   5  -2 2424.86 110.142 105
   5  -5   2 2655.51 112.698 100
  -5   5  -2 2591.37 108.891  41
   5  -5   2 2623.16 112.395  99
  -5   5  -2 2401.66 105.498  61
   5  -5   2 2634.85 112.955  98
  -5   5  -2 2471.55 109.710  97
  -5   5  -2 2620.21 107.934  87
   5  -5   2 2522.20 110.093  20
   5  -5   2 2512.10 109.276 107
   5  -5   2 2521.69 111.176 101
   5  -5   2 2397.87 88.6390  81
  -5   5  -2 2570.06 107.661  77
   5  -5   3 1817.11 70.2054  47
  -5   5  -3 1730.94 70.8110 103
  -5   5  -3 1865.67 71.7748  69
  -5   5  -3 1741.10 70.6445 104
  -5   5  -3 1737.61 71.5203 105
   5  -5   3 1745.07 70.6439 102
  -5   5  -3 1802.31 71.8599 106
   5  -5   3 1800.28 71.3913 100
  -5   5  -3 1878.83 74.2436  41
   5  -5   3 1769.90 71.1694  98
  -5   5  -3 1574.61 63.4508  61
  -5   5  -3 1841.81 73.8531  87
   5  -5   3 1837.09 72.0655  20
   5  -5   3 1754.41 70.8752 101
   5  -5   3 1860.89 72.7775  99
  -5   5  -3 1664.80 67.8337  77
  -5   4   9 3709.41 105.192  29
  -5   4   9 3719.04 105.345  57
  -5   4   9 3645.83 103.554  82
  -5   4   8 1178.16 73.2013  71
  -5   4   8 1100.66 75.6839  29
  -5   4   8 1022.07 60.2514  11
  -5   4   8 1134.09 76.9481  57
  -5   4   8 1110.84 76.1900  82
  -5   4   7 5694.31 181.944  71
  -5   4   7 5748.00 181.664  69
  -5   4   7 5251.95 157.587  11
  -5   4   7 5860.95 177.903  23
  -5   4   7 5688.20 196.183  57
  -5   4   7 5518.10 192.814  82
  -5   4   7 5210.32 192.211  29
  -5   4   6 677.942 71.0211  71
  -5   4   6 570.779 67.2088  69
  -5   4   6 616.883 73.1756  29
  -5   4   6 633.234 66.4993  41
  -5   4   6 603.875 66.5696  23
  -5   4   6 544.257 71.7664  57
  -5   4   6 651.526 74.8229  55
   5  -4  -6 539.708 57.8464  53
  -5   4   6 567.020 70.1963  82
  -5   4   5 15393.3 323.623  71
  -5   4   5 14311.2 335.099  69
  -5   4   5 14789.8 334.685  41
  -5   4   5 14810.8 333.587  23
  -5   4   5 13634.1 349.138  57
  -5   4   5 14597.4 345.392  55
   5  -4  -5 15012.6 330.200  53
  -5   4   5 14848.9 350.108  82
  -5   4   5 14098.4 321.319  77
  -5   4   4 101.047 47.7793  75
  -5   4   4 160.918 39.5787  71
   5  -4  -4 129.916 34.9374  46
   5  -4  -4 131.524 36.9197  70
  -5   4   4 132.953 44.0920  69
  -5   4   4 166.915 41.6308  61
  -5   4   4 78.5868 37.0106  41
  -5   4   4 101.192 44.5451  57
  -5   4   4 128.931 38.4316  23
  -5   4   4 112.922 40.5335  55
   5  -4  -4 176.148 45.0904  53
  -5   4   4 73.8649 35.5596  82
  -5   4   4 125.504 40.1952  77
  -5   4   3 2618.87 155.653  75
   5  -4  -3 2547.20 133.410  47
  -5   4   3 2866.52 132.699  71
   5  -4  -3 2610.49 146.378  46
   5  -4  -3 2808.50 151.208  70
  -5   4   3 2696.87 151.971  69
  -5   4   3 2818.54 153.873  61
  -5   4   3 2728.48 155.527  41
  -5   4   3 2631.06 144.647  23
  -5   4   3 2538.96 151.023  55
   5  -4  -3 2594.70 149.895  53
  -5   4   3 2712.33 159.584  79
  -5   4   3 2581.27 148.843  77
  -5   4   2 529.804 73.3998  75
   5  -4  -2 675.810 74.4890  47
   5  -4  -2 689.717 80.4249  46
   5  -4  -2 577.371 73.4354  70
  -5   4   2 631.677 78.2213  69
  -5   4   2 573.624 70.4706 106
  -5   4   2 588.821 72.0475 104
  -5   4   2 595.380 73.8146 103
   5  -4  -2 614.447 74.3565 102
   5  -4  -2 604.791 71.8596 107
   5  -4  -2 616.914 74.1413 101
   5  -4  -2 630.360 77.1441  27
   5  -4  -2 675.026 77.4538 100
  -5   4   2 742.899 86.7603  41
  -5   4   2 608.809 76.5451  61
   5  -4  -2 535.828 66.7942  99
  -5   4   2 600.295 73.5205  97
  -5   4   2 630.732 77.9990  55
  -5   4   2 590.908 69.8569  87
   5  -4  -2 599.428 76.4891  53
   5  -4  -2 654.083 75.2163  20
  -5   4   2 657.077 76.2635 105
  -5   4   2 596.773 80.5416  79
  -5   4   2 644.365 79.2251  77
  -5   4   1 28536.6 492.612  75
   5  -4  -1 29416.2 486.004  47
   5  -4  -1 29530.8 499.728  46
   5  -4  -1 29266.6 498.813  70
   5  -4  -1 29082.3 501.400 107
  -5   4   1 28895.0 490.716  69
  -5   4   1 29984.6 511.477 106
  -5   4   1 30015.2 512.714 105
  -5   4   1 29827.4 450.999  44
  -5   4   1 29784.5 509.288 104
  -5   4   1 30032.6 516.947 103
   5  -4  -1 30553.7 512.023 102
   5  -4  -1 30254.9 509.896 101
   5  -4  -1 29640.6 489.584  27
   5  -4  -1 29582.7 503.864 100
  -5   4   1 30042.7 507.569  41
   5  -4  -1 29658.9 503.686  99
  -5   4   1 29104.0 504.973  61
  -5   4   1 29260.9 507.367  97
  -5   4   1 29135.8 480.378  55
  -5   4   1 30374.7 485.086  87
   5  -4  -1 29064.9 498.438  53
   5  -4  -1 29295.6 497.268  20
  -5   4   1 29026.1 499.917  79
  -5   4   1 29361.0 499.849  77
  -5   4   0 7559.15 239.469  75
   5  -4   0 7532.06 248.591  47
   5  -4   0 7302.79 248.760  46
   5  -4   0 7529.20 251.900  70
  -5   4   0 7895.92 253.380  69
  -5   4   0 7528.44 258.836 106
  -5   4   0 7474.15 258.502 105
  -5   4   0 7649.14 231.295  44
  -5   4   0 7621.85 260.875 104
  -5   4   0 7734.02 264.451 103
   5  -4   0 7595.93 258.229 102
   5  -4   0 7450.60 230.566  27
  -5   4   0 7333.09 249.746  41
   5  -4   0 7426.62 254.448  99
  -5   4   0 7162.45 249.491  61
   5  -4   0 7181.25 251.392 100
  -5   4   0 7607.20 259.846  97
   5  -4   0 7206.15 252.495 101
  -5   4   0 7799.98 240.036  55
  -5   4   0 7402.08 244.447  87
   5  -4   0 7495.15 246.483  53
   5  -4   0 7601.53 256.008  20
   5  -4   0 7464.05 254.634 107
  -5   4   0 7283.59 243.556  79
  -5   4   0 7548.33 252.623  77
  -5   4  -1 2281.08 122.278  75
   5  -4   1 2163.73 132.917  47
   5  -4   1 2233.44 120.578  32
   5  -4   1 2361.59 138.447  46
   5  -4   1 2165.82 130.076  70
   5  -4   1 2148.44 137.117 107
  -5   4  -1 2262.66 134.952  69
  -5   4  -1 2206.22 139.182 106
  -5   4  -1 2192.73 139.317 105
  -5   4  -1 2399.97 129.586  44
  -5   4  -1 2247.10 140.209 104
   5  -4   1 2313.10 121.381  42
   5  -4   1 2315.68 140.750 102
   5  -4   1 2274.08 141.015 101
   5  -4   1 2399.28 144.565 100
  -5   4  -1 2311.83 138.048  41
  -5   4  -1 2162.00 134.561  61
  -5   4  -1 2194.52 140.552  97
   5  -4   1 2269.82 139.772  99
  -5   4  -1 2266.42 122.907  55
  -5   4  -1 2449.05 141.116  87
   5  -4   1 2245.42 126.737  53
   5  -4   1 2268.21 139.323  20
  -5   4  -1 2307.32 143.229 103
   5  -4   1 2249.79 117.797  81
  -5   4  -1 1971.93 120.994  79
  -5   4  -1 2270.49 136.939  77
   5  -4   1 2344.46 122.575  76
   5  -4   2 2597.53 137.480  47
   5  -4   2 2560.33 127.311  32
   5  -4   2 2740.89 139.749  46
   5  -4   2 2592.83 128.620  70
   5  -4   2 2701.22 143.147 107
  -5   4  -2 2770.74 145.914 105
  -5   4  -2 2619.41 135.435  69
  -5   4  -2 2643.54 142.773 106
  -5   4  -2 2750.19 131.432  44
  -5   4  -2 2701.14 147.035 103
  -5   4  -2 2599.84 140.219 104
   5  -4   2 2798.43 129.878  42
   5  -4   2 2732.69 144.249 101
   5  -4   2 2995.96 149.938 100
  -5   4  -2 2694.60 139.963  41
  -5   4  -2 2598.41 136.275  61
  -5   4  -2 2641.29 143.697  97
  -5   4  -2 2651.03 139.375  87
   5  -4   2 2723.41 143.604  99
   5  -4   2 2801.91 144.687  20
   5  -4   2 2845.21 130.420  81
  -5   4  -2 2470.13 118.523  79
   5  -4   2 2863.33 147.890 102
  -5   4  -2 2577.20 134.704  77
   5  -4   2 2664.02 127.221  76
   5  -4   3 5418.24 177.772  47
   5  -4   3 5465.72 172.428  32
   5  -4   3 5289.03 171.451  46
  -5   4  -3 5446.83 173.389  69
   5  -4   3 5295.05 176.820 107
  -5   4  -3 5361.49 178.839 105
  -5   4  -3 5424.51 179.318 104
  -5   4  -3 5463.84 167.535  44
  -5   4  -3 5393.16 180.957 103
  -5   4  -3 5501.08 180.694 106
   5  -4   3 5554.17 181.140 102
   5  -4   3 5239.34 163.061  42
   5  -4   3 5486.60 179.454 101
   5  -4   3 5649.38 181.401 100
  -5   4  -3 5349.17 174.311  41
   5  -4   3 5408.48 177.554  99
  -5   4  -3 5100.39 167.414  61
   5  -4   3 5578.48 181.527  98
  -5   4  -3 5095.42 175.472  97
  -5   4  -3 5445.56 176.737  87
   5  -4   3 5460.71 177.850  20
   5  -4   3 5427.26 165.995  81
  -5   4  -3 5404.43 170.177  77
   5  -4   3 5269.93 165.952  76
   5  -4   4 2792.10 102.783  47
  -5   4  -4 2720.81 99.4368 103
  -5   4  -4 2837.39 106.810  69
  -5   4  -4 2657.09 97.9223 106
  -5   4  -4 2676.35 98.4648 105
  -5   4  -4 2705.18 98.4252 104
  -5   4  -4 2727.50 101.308  41
  -5   4  -4 2596.38 87.8685  61
  -5   4  -4 2858.92 106.941  87
   5  -4   4 2925.69 102.814  42
   5  -4   4 2706.02 100.399  81
  -5   4  -4 2614.76 92.8688  77
  -5   3   9 5277.52 149.723  29
  -5   3   9 5331.67 147.480  57
  -5   3   9 5178.57 148.213  82
  -5   3   8 618.143 57.6024  71
  -5   3   8 613.951 66.1403  29
  -5   3   8 541.192 50.2164  11
  -5   3   8 580.194 63.7253  57
  -5   3   8 542.750 62.6386  82
  -5   3   7 21.1898 25.5713  71
  -5   3   7 28.5082 30.5708  29
  -5   3   7 19.7206 27.9167  69
  -5   3   7-13.5829 21.7464  11
  -5   3   7 12.5978 29.7839  57
  -5   3   7-17.1020 32.5324  82
  -5   3   6 149.342 43.9684  69
  -5   3   6 148.347 39.4486  71
  -5   3   6 139.636 40.3085  29
  -5   3   6 145.420 40.1653  41
  -5   3   6 148.740 44.8424  57
  -5   3   6 173.576 39.2087  23
  -5   3   6 189.920 51.5693  82
  -5   3   5 1019.22 92.3552  71
  -5   3   5 1032.95 98.4222  69
  -5   3   5 901.920 85.4180  23
  -5   3   5 1006.12 102.930  57
  -5   3   5 1020.19 99.4836  55
  -5   3   5 913.471 92.5180  41
   5  -3  -5 982.757 84.5786  53
  -5   3   5 897.214 99.2790  82
  -5   3   5 991.107 92.1056  77
  -5   3   4 11998.9 329.550  75
  -5   3   4 12175.8 302.149  71
  -5   3   4 11759.1 325.951  69
  -5   3   4 12604.0 333.559  41
  -5   3   4 12332.2 312.331  23
  -5   3   4 12005.9 323.118  55
   5  -3  -4 12188.0 311.827  53
  -5   3   4 11907.8 313.216  61
  -5   3   4 12441.5 325.926  77
  -5   3   3 3142.96 169.853  75
  -5   3   3 3428.93 154.126  71
   5  -3  -3 3422.85 163.103  46
   5  -3  -3 3282.15 159.985  70
  -5   3   3 3126.25 168.263  69
  -5   3   3 3259.81 155.961  44
  -5   3   3 3229.55 172.914  41
  -5   3   3 3235.97 168.222  61
  -5   3   3 3174.17 159.810  23
  -5   3   3 3256.36 167.453  55
  -5   3   3 3456.61 161.062  87
   5  -3  -3 3116.70 163.282  53
  -5   3   3 2878.21 164.982  77
  -5   3   2 1692.48 123.736  75
   5  -3  -2 1777.77 114.852  47
  -5   3   2 1786.64 107.229  71
   5  -3  -2 1781.08 121.403  46
   5  -3  -2 1599.84 117.136  70
  -5   3   2 1751.49 124.533  69
   5  -3  -2 2671.11 262.946  64
  -5   3   2 1748.23 120.985 105
  -5   3   2 1816.45 120.388  44
  -5   3   2 1932.49 126.566 104
  -5   3   2 1836.23 126.062 103
   5  -3  -2 1203.54 189.246  66
   5  -3  -2 1659.58 119.208 107
   5  -3  -2 1773.43 127.324 102
   5  -3  -2 1846.17 126.370 101
   5  -3  -2 1798.51 121.535 100
   5  -3  -2 1562.49 212.263  62
  -5   3   2 1820.52 129.608  41
   5  -3  -2 1744.70 120.331  99
  -5   3   2 1959.02 133.691  61
  -5   3   2 1704.61 122.003  97
   5  -3  -2 1631.92 205.702  95
  -5   3   2 1510.94 193.118  96
   5  -3  -2 2100.67 250.074  39
  -5   3   2 1729.50 117.967  23
   5  -3  -2 1968.76 220.170  94
   5  -3  -2 1517.68 197.854  93
   5  -3  -2 1885.86 218.124  92
  -5   3   2 1685.71 120.488  55
  -5   3   2 1666.07 201.991  91
   5  -3  -2 1852.47 222.643  90
  -5   3   2 1857.32 123.831  87
   5  -3  -2 1787.70 126.017  53
   5  -3  -2 1786.34 120.924  20
  -5   3   2 1847.85 124.151 106
  -5   3   2 1884.47 215.903   3
  -5   3   2 1770.82 128.787  79
  -5   3   2 1773.08 127.996  77
  -5   3   1 6728.43 237.938  75
   5  -3  -1 6818.72 234.096  47
   5  -3  -1 7097.70 243.920  46
   5  -3  -1 6939.05 245.162  70
   5  -3  -1 6978.20 248.941 107
  -5   3   1 6781.95 241.338  69
  -5   3   1 6974.28 248.749 106
  -5   3   1 7052.59 252.073 105
  -5   3   1 7026.98 237.341  44
  -5   3   1 6974.73 250.447 104
  -5   3   1 7072.40 254.650 103
   5  -3  -1 7040.43 251.499 102
   5  -3  -1 6862.78 247.806 101
   5  -3  -1 6730.14 240.902  27
   5  -3  -1 6814.36 245.742 100
  -5   3   1 7114.30 252.275  41
   5  -3  -1 7095.30 250.539  99
  -5   3   1 6752.28 246.526  61
  -5   3   1 6908.05 248.758  97
   5  -3  -1 7471.88 461.248  39
  -5   3   1 6630.39 229.129  55
  -5   3   1 6921.21 240.838  87
   5  -3  -1 6652.16 241.982  53
   5  -3  -1 7193.48 250.043  20
  -5   3   1 6951.47 222.318  50
  -5   3   1 6534.99 242.892  79
  -5   3   1 6996.29 246.013  77
  -5   3   0 20934.8 404.660  75
   5  -3   0 21154.1 422.620  47
   5  -3   0 21817.3 430.907  46
   5  -3   0 21152.0 430.767  70
  -5   3   0 21240.7 423.765  69
  -5   3   0 21345.5 445.272 106
  -5   3   0 21380.1 448.356 105
   5  -3   0 20956.4 416.440  27
  -5   3   0 22441.1 426.628  44
  -5   3   0 21215.9 446.030 104
  -5   3   0 21317.0 449.617 103
   5  -3   0 21652.6 447.827 102
   5  -3   0 21735.8 447.342 101
   5  -3   0 20802.2 437.393 100
  -5   3   0 21690.8 437.359  41
   5  -3   0 20908.3 441.940  99
  -5   3   0 21439.1 434.335  61
  -5   3   0 21468.0 444.796  97
  -5   3   0 21701.2 404.596  55
   5  -3   0 21579.3 443.495 107
  -5   3   0 21526.1 429.682  87
   5  -3   0 21356.2 429.117  53
   5  -3   0 21116.9 437.706  20
  -5   3   0 20932.5 420.044  79
  -5   3   0 22263.7 398.994  50
  -5   3   0 21620.0 433.332  77
  -5   3  -1 1429.28 104.251  75
   5  -3   1 1470.77 114.768  47
   5  -3   1 1512.68 117.546  46
   5  -3   1 1355.42 110.937  70
  -5   3  -1 1490.19 115.414  69
  -5   3  -1 1467.85 120.701 106
  -5   3  -1 1610.41 125.576 105
  -5   3  -1 1517.71 115.558  44
  -5   3  -1 1530.33 122.052 104
  -5   3  -1 1408.50 118.801 103
   5  -3   1 1433.01 118.449 102
   5  -3   1 1372.86 114.467 107
   5  -3   1 1513.87 108.758  27
   5  -3   1 1412.57 117.516 101
   5  -3   1 1379.87 115.894 100
  -5   3  -1 1517.07 117.458  41
   5  -3   1 1492.12 120.991  99
  -5   3  -1 1476.45 116.742  61
  -5   3  -1 1412.28 118.594  97
  -5   3  -1 1450.82 103.361  55
  -5   3  -1 1339.33 112.462  87
   5  -3   1 1346.85 108.976  53
   5  -3   1 1391.22 115.732  20
  -5   3  -1 1449.40 108.322  79
  -5   3  -1 1540.56 108.803  50
  -5   3  -1 1448.38 115.064  77
   5  -3   1 1664.47 110.401  76
   5  -3   2 39275.3 582.174  47
   5  -3   2 42733.3 573.312  32
   5  -3   2 42331.8 553.602  42
   5  -3   2 39198.1 582.925  46
   5  -3   2 39323.2 562.691  70
  -5   3  -2 38896.1 593.165 106
  -5   3  -2 41147.7 576.356  69
  -5   3  -2 39047.7 593.976 105
  -5   3  -2 40441.8 576.472  44
  -5   3  -2 39073.6 595.819 104
  -5   3  -2 38849.3 598.511 103
   5  -3   2 40555.7 603.396 102
   5  -3   2 40379.5 603.713 101
   5  -3   2 40898.0 603.840 100
   5  -3   2 40366.5 601.117  99
  -5   3  -2 41185.2 585.350  61
  -5   3  -2 39001.6 591.516  97
   5  -3   2 39093.0 596.619 107
  -5   3  -2 40735.9 585.154  87
   5  -3   2 39889.2 550.566  53
   5  -3   2 40134.8 594.890  20
  -5   3  -2 40223.8 575.620  41
   5  -3   2 40670.2 551.083  81
  -5   3  -2 41000.7 533.637  50
  -5   3  -2 42522.2 585.808  77
   5  -3   2 41779.7 563.074  76
   5  -3   3 7895.42 250.512  47
   5  -3   3 8268.67 250.120  32
   5  -3   3 7968.25 250.874  46
   5  -3   3 8063.77 233.991  70
  -5   3  -3 7929.83 243.728  69
  -5   3  -3 7800.32 252.087 106
  -5   3  -3 7776.87 251.026 105
  -5   3  -3 8447.81 255.050  44
  -5   3  -3 7771.58 250.239 104
  -5   3  -3 7919.89 254.625 103
   5  -3   3 8140.42 254.328 102
   5  -3   3 8339.01 242.330  42
   5  -3   3 8240.74 256.003 101
   5  -3   3 8191.87 254.558 100
   5  -3   3 7956.64 249.875  99
  -5   3  -3 8019.20 238.987  61
  -5   3  -3 7747.49 250.905  97
  -5   3  -3 8088.35 249.759  87
   5  -3   3 8346.13 241.538  85
   5  -3   3 7890.30 249.094  20
  -5   3  -3 8085.00 244.604  41
   5  -3   3 8085.61 253.531 107
   5  -3   3 8374.29 244.823  81
  -5   3  -3 8025.59 226.259  50
  -5   3  -3 8079.84 238.672  77
   5  -3   3 8208.03 245.033  76
   5  -3   4 5366.51 188.124  47
   5  -3   4 5430.60 189.624  32
   5  -3   4 5409.39 184.655  46
  -5   3  -4 5624.17 186.685  69
   5  -3   4 5527.59 184.272 100
  -5   3  -4 5497.64 184.453 106
  -5   3  -4 5358.80 184.575 105
   5  -3   4 5367.58 182.802 102
  -5   3  -4 5417.60 187.983  44
  -5   3  -4 5411.10 184.561 104
  -5   3  -4 5362.57 185.479 103
   5  -3   4 5566.10 183.367  42
   5  -3   4 5331.77 182.473 101
  -5   3  -4 5442.63 179.590  41
  -5   3  -4 5393.94 167.782  61
   5  -3   4 5377.16 182.212  98
  -5   3  -4 5189.03 181.029  97
   5  -3   4 5236.02 180.123 107
  -5   3  -4 5519.82 186.265  87
   5  -3   4 5419.12 180.747  20
   5  -3   4 5569.17 186.830  85
   5  -3   4 5115.85 176.661  99
   5  -3   4 5702.88 188.651  81
  -5   3  -4 5428.61 169.949  50
  -5   3  -4 5251.10 170.021  77
   5  -3   4 5431.24 186.142  76
   5  -3   5 3079.13 114.981  47
  -5   3  -5 2802.10 96.6593 105
  -5   3  -5 3130.82 116.882  69
  -5   3  -5 3188.34 123.071  44
  -5   3  -5 2848.92 96.9790 104
   5  -3   5 3147.29 119.054  42
  -5   3  -5 2938.30 106.316  41
   5  -3   5 2927.29 124.224  24
  -5   3  -5 3031.06 113.340  87
   5  -3   5 3087.40 119.423  85
   5  -3   5 3212.05 122.219  81
  -5   3  -6 3006.31 85.3291  44
   5  -3   6 2827.81 87.4306  24
  -5   2   9 842.549 63.7347  29
  -5   2   9 822.049 62.9553  57
  -5   2   9 931.033 67.6511  82
  -5   2   8 1197.59 78.2015  71
  -5   2   8 1274.74 96.1449  29
  -5   2   8 1204.75 76.0785  11
  -5   2   8 1160.18 91.2958  57
  -5   2   8 1282.42 97.1205  82
  -5   2   7 121.776 35.4357  71
  -5   2   7 134.061 43.3894  29
  -5   2   7 163.175 38.0283  11
  -5   2   7 127.243 39.9850  57
  -5   2   7 83.8700 39.6042  82
  -5   2   7 94.4885 38.5839  50
  -5   2   6 632.447 70.5699  71
  -5   2   6 584.288 76.6994  69
  -5   2   6 603.628 81.3116  29
  -5   2   6 545.192 61.6542  23
  -5   2   6 542.357 76.2606  57
  -5   2   6 657.011 83.3947  82
  -5   2   6 528.675 66.3273  50
  -5   2   6 583.953 69.0469  44
  -5   2   5 37.4704 34.9029  71
  -5   2   5 56.2056 35.4333  44
  -5   2   5 63.9497 38.3951  41
  -5   2   5 47.5605 37.4129  57
  -5   2   5 14.8936 20.3494  23
  -5   2   5 32.1144 35.9252  55
  -5   2   5 79.2336 39.5911  69
  -5   2   5 6.57143 29.6058  82
  -5   2   5 6.15282 25.6970  50
  -5   2   4 286.288 77.5149   3
  -5   2   4 542.965 68.4128  71
  -5   2   4 408.862 65.5199  69
  -5   2   4 433.839 62.0256  44
   5  -2  -4 528.833 138.385  66
   5  -2  -4 664.834 125.205  64
   5  -2  -4 505.860 125.190  62
  -5   2   4 382.198 62.8322  41
  -5   2   4 485.339 63.8077  23
   5  -2  -4 491.536 130.565  39
  -5   2   4 367.548 65.1117  57
  -5   2   4 445.882 65.8324  55
   5  -2  -4 361.279 52.2650  53
  -5   2   4 417.109 60.1296  61
  -5   2   4 825.288 84.2487  50
  -5   2   4 454.288 68.6905  77
  -5   2   3 863.585 90.9370  75
  -5   2   3 853.676 80.0732  71
   5  -2  -3 803.676 77.6011  70
  -5   2   3 738.771 82.7555  69
  -5   2   3 877.980 86.3137  44
   5  -2  -3 932.537 160.206  66
   5  -2  -3 822.683 149.275  64
  -5   2   3 845.430 90.4786  41
   5  -2  -3 1052.94 169.086  62
  -5   2   3 764.219 134.504  40
  -5   2   3 898.342 83.6184  23
   5  -2  -3 745.230 154.997  39
  -5   2   3 820.282 83.7893  55
  -5   2   3 807.672 86.1407  61
  -5   2   3 1097.72 89.8885  87
   5  -2  -3 843.076 81.9828  53
  -5   2   3 960.885 167.587   3
  -5   2   3 1220.95 100.531  50
  -5   2   3 916.082 91.6633  77
   5  -2  -2 32.2871 31.0636 100
  -5   2   2 30.3263 33.0300  75
  -5   2   2-256.874 76.5909   3
  -5   2   2-2.45514 27.3321  69
  -5   2   2 49.9313 26.4677  71
   5  -2  -2-2.70920 17.8010  46
   5  -2  -2-6.46004 23.1278  70
  -5   2   2 66.6567 29.6175 106
  -5   2   2-26.7423 24.9740 105
  -5   2   2 30.8944 29.3338  44
   5  -2  -2 142.776 65.4014  66
   5  -2  -2-0.10838 21.7194 101
  -5   2   2 31.6482 24.8180 103
   5  -2  -2 51.2724 29.3783 102
   5  -2  -2 182.524 70.2952  64
   5  -2  -2-123.757 60.6406  62
   5  -2  -2 65.3467 29.6423  99
  -5   2   2 10.4121 36.2439  41
  -5   2   2-20.4025 32.0706  61
   5  -2  -2 9.17805 24.2162  98
  -5   2   2-61.7451 37.4326  40
  -5   2   2 117.254 35.1710  23
   5  -2  -2 35.8523 61.1689  94
   5  -2  -2 32.7096 89.0799  39
  -5   2   2-5.20582 33.2984  55
  -5   2   2 163.755 68.4139  91
   5  -2  -2 16.6594 74.0514  90
  -5   2   2 19.5658 35.7028  87
   5  -2  -2 9.06358 22.6722  53
   5  -2  -2 123.442 79.7592  92
  -5   2   2 142.878 62.7948  96
   5  -2  -2 73.8884 28.9933  20
  -5   2   2 8.98839 27.9663  79
  -5   2   2-2.76949 28.4922  50
   5  -2  -2 94.6166 70.4189  93
  -5   2   2 34.8981 25.8313 104
   5  -2  -2 45.9254 62.9553  95
  -5   2   2 13.2081 28.6730  77
  -5   2   1 1055.50 94.5974  75
   5  -2  -1 909.699 82.3742  47
   5  -2  -1 1010.09 88.8857  46
   5  -2  -1 1067.76 93.2121  70
  -5   2   1 1121.66 97.5098  69
  -5   2   1 1047.10 95.0724 106
  -5   2   1 1058.49 97.0323 105
  -5   2   1 931.193 90.5588  44
  -5   2   1 1043.52 96.3269 104
  -5   2   1 1087.94 98.8780 103
   5  -2  -1 1011.36 164.481  66
   5  -2  -1 1198.40 102.832 102
   5  -2  -1 1349.59 186.650  64
   5  -2  -1 1052.21 96.5192 101
   5  -2  -1 1071.67 96.7160  27
  -5   2   1 1070.63 155.093  63
   5  -2  -1 1040.03 95.1118 100
  -5   2   1 1065.79 97.5140  41
   5  -2  -1 1036.96 95.7026  99
  -5   2   1 980.111 94.0776  61
  -5   2   1 997.472 93.5493  97
  -5   2   1 1011.86 154.247  96
   5  -2  -1 985.806 153.124  95
   5  -2  -1 1069.29 166.333  39
   5  -2  -1 1041.42 159.955  93
   5  -2  -1 868.777 147.945  92
  -5   2   1 957.481 88.5318  55
  -5   2   1 1036.19 156.446  91
   5  -2  -1 995.257 159.189  90
   5  -2  -1 888.047 147.939  62
  -5   2   1 1016.04 96.7331  87
   5  -2  -1 1101.89 96.9609  53
   5  -2  -1 1108.39 96.3899  20
   5  -2  -1 1021.58 95.1345 107
  -5   2   1 1000.32 152.250   3
  -5   2   1 1020.30 94.8192  79
  -5   2   1 1379.65 107.101  50
   5  -2  -1 1030.22 159.346  94
  -5   2   1 997.059 94.6955  77
  -5   2   0 4846.10 190.645  75
   5  -2   0 5040.45 197.990  47
   5  -2   0 5056.11 200.734  46
  -5   2   0 5171.55 209.259  44
   5  -2   0 5049.34 204.578  70
   5  -2   0 5054.67 210.959 107
  -5   2   0 4801.49 196.846  69
  -5   2   0 5265.69 215.715 106
  -5   2   0 5146.15 215.168 105
  -5   2   0 5461.73 219.451 104
  -5   2   0 5161.52 218.144 103
  -5   2   0 5447.71 360.482  63
   5  -2   0 5110.72 213.149 102
  -5   2   0 5500.66 351.520  65
   5  -2   0 5709.29 385.676  64
   5  -2   0 5045.44 203.606  27
   5  -2   0 5231.11 213.433 100
   5  -2   0 5784.40 381.317  62
   5  -2   0 5041.65 212.491  99
  -5   2   0 5258.82 210.246  61
  -5   2   0 5218.56 216.033  97
  -5   2   0 4555.04 348.831  96
   5  -2   0 4914.20 358.612  95
   5  -2   0 5429.54 363.729  39
   5  -2   0 5058.06 363.665  94
   5  -2   0 4784.27 352.941  93
   5  -2   0 4920.50 360.190  92
   5  -2   0 6161.09 401.087  66
  -5   2   0 4877.82 363.092  91
   5  -2   0 5408.20 379.947  90
  -5   2   0 5031.27 205.200  87
   5  -2   0 5252.92 209.889  53
  -5   2   0 5138.31 207.201  41
   5  -2   0 5257.80 212.641  20
  -5   2   0 5864.40 363.067   3
   5  -2   0 5160.91 213.723 101
  -5   2   0 5242.24 204.089  79
  -5   2   0 5104.19 200.200  50
  -5   2   0 5188.97 207.134  77
   5  -2   1 2091.14 132.757  47
   5  -2   1 2380.79 257.574  64
   5  -2   1 1961.79 129.800  46
   5  -2   1 2097.11 134.585  70
  -5   2  -1 2155.77 135.086  69
  -5   2  -1 1882.64 133.143 106
  -5   2  -1 1997.43 137.804 105
   5  -2   1 2151.30 140.915 107
  -5   2  -1 1997.54 137.957 104
  -5   2  -1 2021.83 139.410 103
   5  -2   1 2208.12 253.036  66
  -5   2  -1 2503.84 247.542  65
   5  -2   1 2187.86 142.886 102
   5  -2   1 2121.37 141.310 101
  -5   2  -1 2475.95 254.054  63
   5  -2   1 2082.36 139.445 100
   5  -2   1 2381.35 243.670  62
  -5   2  -1 2147.07 134.581  41
   5  -2   1 2161.83 142.458  99
  -5   2  -1 1983.14 132.825  61
  -5   2  -1 1953.58 135.572  97
  -5   2  -1 1965.67 227.951  96
   5  -2   1 1957.02 227.644  95
   5  -2   1 2373.84 248.602  39
   5  -2   1 2038.57 237.565  94
   5  -2   1 2108.91 236.518  93
   5  -2   1 1906.66 223.575  92
  -5   2  -1 1666.40 211.969  91
   5  -2   1 2398.42 254.784  90
   5  -2   1 1973.74 128.670  27
  -5   2  -1 2036.72 134.070  87
   5  -2   1 2199.68 136.941  53
   5  -2   1 2229.49 142.414  20
  -5   2  -1 1974.29 216.027   3
  -5   2  -1 2172.30 137.928  44
  -5   2  -1 2031.46 125.050  79
  -5   2  -1 2230.60 134.167  50
  -5   2  -1 2073.90 133.166  77
   5  -2   1 2211.30 127.153  76
   5  -2   2 25194.2 469.491  47
   5  -2   2 26860.1 461.874  32
   5  -2   2 24697.3 466.636  46
   5  -2   2 24610.3 457.928  70
   5  -2   2 25209.0 486.143 107
  -5   2  -2 24842.5 482.070 106
  -5   2  -2 25416.8 474.954  44
  -5   2  -2 24034.8 479.379 105
  -5   2  -2 24264.9 479.474 104
  -5   2  -2 24092.6 483.313 103
   5  -2   2 24397.6 480.985 102
   5  -2   2 27442.3 449.082  42
   5  -2   2 25097.4 485.678 101
   5  -2   2 25065.4 481.990 100
  -5   2  -2 25249.4 457.102  41
   5  -2   2 25160.2 482.250  99
  -5   2  -2 25056.3 457.308  61
  -5   2  -2 23996.8 479.837  97
  -5   2  -2 25515.8 454.977  69
   5  -2   2 25429.8 445.885  27
  -5   2  -2 24858.4 465.147  87
   5  -2   2 25015.6 456.005  53
   5  -2   2 25295.4 480.582  20
   5  -2   2 26009.3 446.335  81
  -5   2  -2 25374.2 451.746  50
  -5   2  -2 25124.2 449.910  77
   5  -2   2 25509.5 446.227  76
   5  -2   3 19098.8 410.923  47
   5  -2   3 20296.1 415.176  32
   5  -2   3 19951.4 421.577  46
   5  -2   3 19577.3 397.066  70
   5  -2   3 19601.5 416.793 107
  -5   2  -3 19873.9 397.368  69
  -5   2  -3 19536.6 417.236 106
  -5   2  -3 19388.1 419.553 105
  -5   2  -3 19426.8 416.151  44
  -5   2  -3 19695.1 421.356 104
  -5   2  -3 19948.4 424.513 103
   5  -2   3 19417.0 415.119 102
   5  -2   3 20491.6 395.869  42
   5  -2   3 19759.1 419.890 101
   5  -2   3 19777.2 417.917 100
  -5   2  -3 19911.2 399.585  41
   5  -2   3 19253.2 412.729  99
  -5   2  -3 19780.1 390.461  61
  -5   2  -3 19296.0 417.348  97
  -5   2  -3 19288.9 405.243  87
   5  -2   3 19952.6 390.505  53
   5  -2   3 21275.3 422.947  85
   5  -2   3 19928.4 417.763  20
   5  -2   3 20114.2 401.972  81
  -5   2  -3 20061.3 398.371  50
  -5   2  -3 19706.5 388.822  77
   5  -2   3 19958.9 403.406  76
   5  -2   4 3172.55 163.251  47
   5  -2   4 3155.32 162.761  32
   5  -2   4 2944.15 156.832  46
  -5   2  -4 3062.86 147.478  41
   5  -2   4 3054.85 143.679  70
  -5   2  -4 3082.99 152.380  69
  -5   2  -4 3078.50 156.265 106
  -5   2  -4 3149.32 158.659 105
  -5   2  -4 3152.57 163.190  44
  -5   2  -4 3094.62 156.712 104
  -5   2  -4 3093.52 159.390 103
   5  -2   4 3126.20 158.408 102
   5  -2   4 3184.05 156.604  42
   5  -2   4 3102.19 156.107 101
   5  -2   4 3077.64 154.773 100
   5  -2   4 3301.24 159.932  99
  -5   2  -4 3023.60 146.252  61
   5  -2   4 2924.62 152.174 107
   5  -2   4 3063.25 155.450  98
  -5   2  -4 2936.06 154.240  97
  -5   2  -4 3084.40 155.484  87
   5  -2   4 3014.52 152.966  20
   5  -2   4 3304.45 166.652  85
   5  -2   4 3040.34 154.728  81
  -5   2  -4 3084.17 153.741  50
  -5   2  -4 3031.62 143.058  77
   5  -2   4 3120.06 158.543  76
   5  -2   5 27371.3 428.651  47
   5  -2   5 28330.7 453.496  32
   5  -2   5 27471.9 426.810  46
  -5   2  -5 28022.0 406.919  69
  -5   2  -5 26198.9 424.515  44
  -5   2  -5 27463.6 393.849 106
  -5   2  -5 27711.9 394.102 105
  -5   2  -5 27830.3 393.587 104
  -5   2  -5 27663.3 397.917 103
   5  -2   5 27640.6 427.003  42
  -5   2  -5 28302.6 386.604  41
  -5   2  -5 27560.5 406.041  87
   5  -2   5 28188.2 449.405  85
   5  -2   5 28795.4 443.289  81
  -5   2  -5 27502.3 414.972  50
  -5   2  -6 6878.26 166.173  69
  -5   2  -6 6795.11 184.195  44
   5  -2   6 6539.01 187.139  24
   5  -2   6 6932.08 182.253  42
  -5   2  -6 6598.43 151.058  87
   5  -2   6 6740.34 189.794  85
   5  -2   6 6855.20 184.745  81
  -5   2  -6 6731.76 173.882  50
  -5   2  -7 1365.47 58.1629  44
   5  -2   7 1459.95 63.0041  24
   5  -2   7 1276.45 60.2006  85
  -5   1   9 10232.6 209.107  57
  -5   1   9 10030.6 207.669  29
  -5   1   9 9917.99 205.359  82
  -5   1   8 704.767 72.7623  29
  -5   1   8 781.798 76.0663  57
  -5   1   8 892.231 76.9557  21
  -5   1   8 755.715 74.2363  82
  -5   1   7 8138.29 226.977  71
  -5   1   7 8019.18 245.672  59
  -5   1   7 7911.31 254.132  57
  -5   1   7 7559.53 256.226  29
  -5   1   7 7471.78 253.412  82
  -5   1   7 7916.55 245.976  50
  -5   1   6 33.9892 26.0030  71
  -5   1   6-0.71955 33.4782  69
  -5   1   6 40.1374 32.3244  29
  -5   1   6 37.0546 29.5194  44
  -5   1   6 30.7915 25.4282  59
  -5   1   6-5.84447 30.3947  57
  -5   1   6 41.7488 22.1240  10
  -5   1   6 44.6176 34.4070  82
  -5   1   6 1.28012 32.5975  50
  -5   1   5 1749.08 116.416  71
  -5   1   5 1705.00 123.528  69
  -5   1   5 1644.95 119.362  44
   5  -1  -5 2132.20 247.485  66
   5  -1  -5 2033.35 225.840  64
  -5   1   5 1630.71 121.907  41
   5  -1  -5 2082.95 246.879  62
  -5   1   5 1819.28 122.971  59
   5  -1  -5 2026.87 246.547  39
  -5   1   5 1624.53 121.169  57
  -5   1   5 1679.24 118.762  10
  -5   1   5 1730.79 131.592  82
  -5   1   5 1736.46 123.272  50
  -5   1   4 9187.84 258.584  71
  -5   1   4 8657.58 268.992  69
   5  -1  -4 10503.4 524.632  66
   5  -1  -4 10169.7 495.998  64
  -5   1   4 9106.56 277.596  41
   5  -1  -4 10244.9 514.568  62
  -5   1   4 7993.55 434.058  40
   5  -1  -4 10046.7 499.599  39
  -5   1   4 9022.95 250.240  23
  -5   1   4 8752.29 276.828  57
  -5   1   4 9223.67 268.512  55
  -5   1   4 9020.88 258.312  87
  -5   1   4 9388.33 461.140   3
  -5   1   4 8921.15 269.588  50
  -5   1   4 9081.35 274.097  44
  -5   1   4 9339.37 279.306  77
  -5   1   3 18347.1 357.967  71
  -5   1   3 18370.7 379.259  69
   5  -1  -3 19186.3 672.504  64
  -5   1   3 18443.8 384.943  41
   5  -1  -3 20348.5 699.943  62
  -5   1   3 18137.9 380.930  61
  -5   1   3 16316.7 605.934  40
  -5   1   3 17024.2 585.893  96
   5  -1  -3 16555.9 573.042  95
   5  -1  -3 19514.5 664.962  39
   5  -1  -3 17366.7 585.599  94
  -5   1   3 17717.1 350.458  23
   5  -1  -3 16887.9 576.814  92
  -5   1   3 18133.2 359.534  55
  -5   1   3 16898.8 583.252  91
   5  -1  -3 17018.5 584.936  90
  -5   1   3 18293.8 382.444  44
  -5   1   3 19656.7 651.559   3
  -5   1   3 18225.1 366.001  87
   5  -1  -3 18759.3 681.333  66
   5  -1  -3 17816.6 347.842  53
  -5   1   3 18655.3 381.403  50
  -5   1   3 18847.5 387.058  77
   5  -1  -3 19481.7 622.670  34
  -5   1   2 8104.58 243.829  75
  -5   1   2 8064.51 251.563  61
  -5   1   2 8314.95 231.853  71
  -5   1   2 8294.51 249.023  69
  -5   1   2 7814.14 245.278  44
   5  -1  -2 8983.91 455.732  64
   5  -1  -2 8419.95 437.622  62
  -5   1   2 8271.86 254.742  41
  -5   1   2 7333.13 407.329  40
  -5   1   2 7388.28 397.502  96
   5  -1  -2 7306.29 393.710  95
   5  -1  -2 8551.94 427.164  39
   5  -1  -2 7787.30 408.080  94
   5  -1  -2 7181.72 386.113  93
   5  -1  -2 7355.73 394.496  92
  -5   1   2 7265.64 399.720  91
   5  -1  -2 7432.48 399.508  90
  -5   1   2 8767.65 430.843   3
  -5   1   2 8165.80 246.509  87
   5  -1  -2 8257.82 240.290  53
   5  -1  -2 8212.67 439.073  66
  -5   1   2 7923.74 243.684  50
  -5   1   2 8126.38 250.592  77
   5  -1  -2 8423.74 410.549  34
   5  -1  -1 3775.13 165.014  70
   5  -1  -1 4009.95 287.831  39
  -5   1   1 3803.50 166.594  69
  -5   1   1 3829.16 174.539 105
  -5   1   1 3843.60 172.530  44
   5  -1  -1 3977.08 306.677  66
  -5   1   1 3955.94 179.243 103
   5  -1  -1 3797.57 173.486 102
   5  -1  -1 3739.58 292.512  64
   5  -1  -1 3817.54 173.322 101
   5  -1  -1 3846.49 171.928  27
  -5   1   1 3777.32 265.132  63
  -5   1   1 3986.02 175.810 106
   5  -1  -1 3698.60 169.179 100
   5  -1  -1 4057.18 299.781  62
  -5   1   1 3814.03 170.206  41
   5  -1  -1 3707.03 170.903  99
  -5   1   1 3896.46 174.818  61
   5  -1  -1 3784.81 174.480  98
  -5   1   1 3455.37 279.824  40
  -5   1   1 3382.15 276.417  96
   5  -1  -1 3278.19 270.169  95
   5  -1  -1 3242.02 269.342  94
   5  -1  -1 3276.53 271.849  93
   5  -1  -1 3358.29 273.066  92
  -5   1   1 3438.29 281.915  91
   5  -1  -1 3589.88 277.343  90
  -5   1   1 3788.92 278.366   3
  -5   1   1 3858.69 170.183  87
   5  -1  -1 3897.38 168.158  53
  -5   1   1 3862.18 174.275 104
   5  -1  -1 3814.31 170.241  20
  -5   1   1 3909.20 170.964  50
  -5   1   1 3940.18 172.866  77
   5  -1  -1 4251.05 302.201  34
   5  -1   0 3253.88 151.580  46
   5  -1   0 3696.74 165.739  70
   5  -1   0 3338.77 165.847 107
  -5   1   0 3165.49 151.926  69
  -5   1   0 3524.13 168.995 106
  -5   1   0 3217.67 165.240 105
  -5   1   0 3267.08 161.225  44
  -5   1   0 3193.23 162.590 104
  -5   1   0 3411.87 170.629 103
  -5   1   0 3599.24 262.051  65
   5  -1   0 3440.34 168.042 102
   5  -1   0 3380.36 281.624  64
   5  -1   0 3306.54 160.340  27
   5  -1   0 3257.90 163.494 101
  -5   1   0 3398.75 268.193  63
   5  -1   0 3287.51 163.700 100
   5  -1   0 3277.43 269.895  62
  -5   1   0 3456.10 161.512  41
   5  -1   0 3245.18 164.299  99
  -5   1   0 3285.36 161.817  61
   5  -1   0 3306.85 164.603  98
  -5   1   0 3214.98 164.254  97
  -5   1   0 2672.63 253.583  96
   5  -1   0 2744.49 250.910  95
   5  -1   0 3679.23 272.163  39
   5  -1   0 3054.94 267.100  94
   5  -1   0 3009.14 262.171  93
   5  -1   0 3004.12 264.768  92
  -5   1   0 2834.87 264.542  91
   5  -1   0 3121.17 270.809  90
  -5   1   0 3234.83 158.184  87
  -5   1   0 3464.28 265.249   3
   5  -1   0 3121.50 153.790  53
   5  -1   0 3576.37 291.112  66
   5  -1   0 3494.24 166.413  20
  -5   1   0 3266.88 156.271  50
  -5   1   0 3367.32 159.728  77
  -5   1  -1-107.978 45.5965   3
   5  -1   1 14.4778 22.9686  47
   5  -1   1 56.0469 31.3942  46
   5  -1   1 11.8088 22.2341  70
   5  -1   1 43.9552 25.2643 107
  -5   1  -1 53.7277 29.1710 106
  -5   1  -1 64.2871 31.2875 105
  -5   1  -1 57.1414 26.1411 104
   5  -1   1 137.048 75.2241  66
  -5   1  -1 52.9505 30.2450 103
  -5   1  -1 93.7764 49.9426  65
   5  -1   1 54.5029 28.9422 102
   5  -1   1 41.6737 43.7620  64
   5  -1   1 61.4562 32.2122  27
   5  -1   1 14.1145 25.7762 101
   5  -1   1 78.1814 34.5819 100
   5  -1   1 81.8793 53.1348  62
   5  -1   1 35.4527 28.0331  99
  -5   1  -1 68.5038 38.6866  41
  -5   1  -1 157.990 45.4549  61
  -5   1  -1 81.1403 36.3127  97
  -5   1  -1-10.2547 33.0573  96
   5  -1   1 66.8072 25.2468  45
   5  -1   1 9.88299 34.2799  95
   5  -1   1 78.0631 56.2382  94
   5  -1   1 79.4906 52.1845  93
   5  -1   1-30.6206 45.2176  92
  -5   1  -1 41.7646 35.4098  91
   5  -1   1 93.6437 52.3506  90
  -5   1  -1 73.1363 35.5122  44
  -5   1  -1 49.9049 35.3590  87
   5  -1   1 51.2313 27.6249  53
  -5   1  -1 56.2342 35.2531  69
   5  -1   1 63.8759 28.4821  20
  -5   1  -1 39.0229 28.1913  50
  -5   1  -1 48.1342 26.1199  78
  -5   1  -1 101.131 53.1052  63
  -5   1  -1 16.1245 30.3225  77
   5  -1   2 9935.21 284.602  47
   5  -1   2 10461.7 279.857  32
   5  -1   2 9869.97 285.636  46
   5  -1   2 9763.95 281.539  70
   5  -1   2 11287.6 525.732  64
  -5   1  -2 10004.5 273.727  69
  -5   1  -2 10234.5 300.514 106
  -5   1  -2 9410.76 292.346 105
  -5   1  -2 10181.7 294.156  44
  -5   1  -2 9598.46 292.167 104
  -5   1  -2 9709.14 300.471 103
   5  -1   2 10465.5 514.128  66
   5  -1   2 9876.27 298.468 102
  -5   1  -2 10606.3 510.077  65
   5  -1   2 9568.57 276.839  27
   5  -1   2 9371.95 288.680 101
  -5   1  -2 11734.5 549.408  63
   5  -1   2 9845.99 292.659 100
   5  -1   2 10767.9 489.092  62
  -5   1  -2 9868.53 273.190  41
   5  -1   2 9864.36 292.225  99
  -5   1  -2 9754.94 277.739  61
  -5   1  -2 9709.23 294.811  97
  -5   1  -2 9860.46 506.653  96
   5  -1   2 9157.94 490.912  95
   5  -1   2 9466.26 491.997  94
   5  -1   2 9186.00 489.898  93
   5  -1   2 9235.89 492.532  92
  -5   1  -2 9196.79 491.953  91
   5  -1   2 9388.72 498.316  90
  -5   1  -2 10368.2 460.919  37
  -5   1  -2 9936.29 285.543  87
   5  -1   2 9912.76 284.124  53
   5  -1   2 10094.6 284.341  85
   5  -1   2 10061.6 293.242  20
   5  -1   2 10184.6 273.448  81
   5  -1   2 9624.46 292.222 107
  -5   1  -2 10068.4 282.882  50
  -5   1  -2 9725.99 272.501  77
   5  -1   2 9806.42 274.434  76
   5  -1   3 6136.03 231.992  47
   5  -1   3 6295.15 231.074  32
   5  -1   3 6021.47 231.545 107
   5  -1   3 5915.58 227.716  46
   5  -1   3 5973.28 222.366  70
   5  -1   3 5997.79 387.019   2
  -5   1  -3 6289.72 219.682  69
   5  -1   3 6456.03 405.267  64
  -5   1  -3 6149.06 234.346 106
  -5   1  -3 6417.34 240.358 105
  -5   1  -3 7059.31 437.744  65
  -5   1  -3 6382.14 239.405 104
  -5   1  -3 6397.76 241.164 103
   5  -1   3 7086.79 436.838  66
   5  -1   3 6077.55 231.952 102
   5  -1   3 6289.60 218.597  42
   5  -1   3 6048.62 231.244 101
  -5   1  -3 7519.55 446.137  63
   5  -1   3 6182.46 232.756 100
   5  -1   3 6061.11 231.486  99
  -5   1  -3 6150.40 216.990  61
  -5   1  -3 6061.75 236.421  97
  -5   1  -3 5955.16 400.995  96
   5  -1   3 5975.47 398.209  95
   5  -1   3 5964.79 400.624  94
   5  -1   3 5735.62 388.940  93
  -5   1  -3 6019.61 232.379  44
   5  -1   3 5807.42 396.088  92
  -5   1  -3 5857.87 398.001  91
   5  -1   3 6539.35 422.794  90
  -5   1  -3 6772.73 407.055  37
  -5   1  -3 5876.14 222.234  87
   5  -1   3 6181.64 223.956  53
   5  -1   3 6025.83 228.891  20
   5  -1   3 6293.55 237.017  85
  -5   1  -3 6263.50 217.804  41
   5  -1   3 6409.21 226.053  81
  -5   1  -3 6621.32 236.654  50
  -5   1  -3 6335.53 217.584  77
   5  -1   3 6099.09 225.571  76
   5  -1   4 8060.09 266.718  47
   5  -1   4 8155.79 270.359  32
   5  -1   4 7936.17 266.516  46
   5  -1   4 8039.25 250.015  70
  -5   1  -4 8215.56 248.725  69
  -5   1  -4 8152.06 262.771 105
  -5   1  -4 8177.17 262.116 106
  -5   1  -4 7954.62 259.895 104
  -5   1  -4 8211.69 265.273 103
   5  -1   4 7962.32 260.190 102
   5  -1   4 8318.89 259.211  42
   5  -1   4 8274.60 262.682 101
   5  -1   4 8048.97 258.712 100
   5  -1   4 7992.51 256.371  99
   5  -1   4 8287.31 262.099  98
   5  -1   4 7599.78 253.826 107
  -5   1  -4 7596.74 253.629  97
  -5   1  -4 7632.06 261.370  44
  -5   1  -4 8417.30 245.070  41
  -5   1  -4 8397.01 258.105  87
   5  -1   4 8149.63 247.530  53
   5  -1   4 7831.13 254.327  20
   5  -1   4 8780.06 284.804  85
   5  -1   4 8004.88 259.585  81
  -5   1  -4 7834.38 258.374  50
   5  -1   4 8315.16 267.563  76
  -5   1  -5 20314.9 407.390  44
   5  -1   5 20329.0 409.377  47
   5  -1   5 20530.7 419.879  32
   5  -1   5 19706.3 404.291  46
  -5   1  -5 21036.8 374.615  69
  -5   1  -5 20712.5 376.513 106
  -5   1  -5 20880.6 381.531 103
   5  -1   5 20486.7 379.526 102
   5  -1   5 20827.1 403.044  42
   5  -1   5 20578.6 373.931 101
   5  -1   5 20641.1 372.834 100
   5  -1   5 20820.6 375.189  98
  -5   1  -5 20966.1 379.809 105
   5  -1   5 20836.3 373.227  99
  -5   1  -5 20720.7 376.760  87
   5  -1   5 20605.0 372.906  20
   5  -1   5 20159.2 424.624  85
  -5   1  -5 20676.2 373.957 104
   5  -1   5 20301.1 404.660  81
  -5   1  -5 20553.2 401.599  50
   5  -1   6 12029.2 280.415  47
   5  -1   6 11845.9 277.988  46
  -5   1  -6 12277.8 285.242  44
   5  -1   6 11979.2 282.174  42
   5  -1   6 12046.4 297.365  24
   5  -1   6 11858.7 302.174  85
   5  -1   6 12579.9 294.274  81
  -5   1  -6 12368.5 282.884  50
  -5   1  -6 12392.0 254.460  69
  -5   1  -7 11471.5 182.088  69
  -5   1  -7 11697.0 227.951  44
   5  -1   7 11809.8 242.777  24
   5  -1   7 11740.7 249.202  85
  -5   1  -7 12040.5 232.434  50
  -5   0   9 2294.92 100.962  31
  -5   0   9 2400.82 87.2290  29
  -5   0   9 2416.37 99.0072  59
  -5   0   9 2545.55 95.7207  57
  -5   0   9 2318.12 85.4065  82
  -5   0   8 149.756 34.6735  29
  -5   0   8 159.963 36.9400  59
  -5   0   8 112.132 33.1140  57
  -5   0   8 151.340 37.4024  21
  -5   0   8 125.989 32.2610  82
  -5   0   7 23221.7 358.143  71
  -5   0   7 22686.2 420.049  29
  -5   0   7 23479.4 443.383  59
  -5   0   7 23464.2 418.300  57
  -5   0   7 22903.1 453.799  21
  -5   0   7 22971.4 391.448  52
  -5   0   7 23742.0 427.831  82
  -5   0   7 21998.1 422.636  50
  -5   0   6 2023.22 119.041  71
  -5   0   6 2064.74 136.229  44
  -5   0   6 2117.99 138.312  29
  -5   0   6 2296.07 146.449  59
  -5   0   6 2081.73 131.693  57
  -5   0   6 2026.05 125.397  52
  -5   0   6 1952.79 132.764  82
  -5   0   6 2059.18 137.986  50
  -5   0   6 2119.40 128.562   8
  -5   0   5 2049.64 123.742  71
  -5   0   5 2009.55 133.676  69
  -5   0   5 2060.77 136.839  44
   5   0  -5 2301.03 263.328  66
   5   0  -5 1871.13 214.080  64
   5   0  -5 2410.84 261.050  62
  -5   0   5 2357.93 148.222  59
   5   0  -5 2310.11 248.277  39
  -5   0   5 1965.35 128.606  57
  -5   0   5 2039.72 131.708  10
  -5   0   5 1942.07 122.832  52
  -5   0   5 1882.29 131.280  82
  -5   0   5 2055.00 136.719  50
   5   0  -5 2051.87 241.673  34
   5   0  -4 472.937 114.870  34
  -5   0   4 570.644 125.467   3
   5   0  -4 956.042 158.311  62
  -5   0   4 615.178 70.3385  71
  -5   0   4 640.363 76.6593  69
  -5   0   4 568.411 73.6745  44
  -5   0   4 511.891 73.3474  41
   5   0  -4 510.509 113.130  64
  -5   0   4 657.657 124.991  40
   5   0  -4 555.057 126.038  39
  -5   0   4 573.440 71.9270  57
  -5   0   4 666.045 78.0582  10
  -5   0   4 526.563 65.6189  87
  -5   0   4 625.166 71.9128  52
  -5   0   4 593.183 75.5574  82
  -5   0   4 521.740 70.9264  50
  -5   0   4 407.318 57.6222  78
  -5   0   3 82444.9 741.692  71
  -5   0   3 80644.4 768.130  69
   5   0  -3 86577.8 1411.45  66
   5   0  -3 85940.3 1403.99  64
  -5   0   3 81562.7 790.123  41
   5   0  -3 83742.8 1389.90  62
  -5   0   3 72839.7 1294.16  40
  -5   0   3 76194.4 1207.05  96
   5   0  -3 75618.1 1204.56  95
   5   0  -3 87435.1 1342.11  39
   5   0  -3 76093.9 1205.39  94
  -5   0   3 81149.8 796.689  44
  -5   0   3 80854.7 760.879  57
  -5   0   3 74921.6 1203.00  93
   5   0  -3 74335.6 1195.63  92
  -5   0   3 75181.1 1200.50  91
  -5   0   3 83010.6 1308.96   3
   5   0  -3 74831.6 1199.61  90
  -5   0   3 79881.0 765.230  87
   5   0  -3 81259.5 751.742  83
  -5   0   3 80233.4 784.416  50
  -5   0   3 81744.7 792.604  77
   5   0  -3 84904.9 1343.39  34
   5   0  -2 7208.18 393.051  66
   5   0  -2 6814.42 383.947  64
   5   0  -2 7029.75 384.525  62
  -5   0   2 6053.03 366.676  40
  -5   0   2 6080.85 346.658  96
   5   0  -2 6066.60 348.509  95
   5   0  -2 7815.02 382.478  39
   5   0  -2 5825.83 340.673  94
   5   0  -2 5650.90 337.665  92
  -5   0   2 6113.31 349.623  91
  -5   0   2 6956.92 374.706   3
   5   0  -2 5884.83 344.283  90
   5   0  -2 7089.14 379.824  34
   5   0  -1 15549.3 569.973  64
  -5   0   1 16117.2 504.451  63
   5   0  -1 15692.9 553.877  62
   5   0  -1 15430.0 562.915  66
  -5   0   1 13614.0 540.916  40
  -5   0   1 13100.9 521.553  96
   5   0  -1 13874.0 535.527  95
   5   0  -1 16434.4 528.129  39
   5   0  -1 14292.5 543.722  94
   5   0  -1 14038.3 537.928  93
   5   0  -1 13624.5 531.007  92
  -5   0   1 15532.6 548.874   3
  -5   0   1 13935.3 540.971  91
   5   0  -1 14095.8 541.595  90
   5   0  -1 14656.3 549.863  34
  -5   0   0 3138.78 224.659  65
   5   0   0 2927.67 244.813  64
  -5   0   0 3064.65 236.234  63
   5   0   0 2948.59 232.509  62
  -5   0   0 2490.86 234.463  96
   5   0   0 2511.01 234.574  95
   5   0   0 2779.98 210.829  39
   5   0   0 2582.12 233.714  94
   5   0   0 2686.29 241.205  93
   5   0   0 2511.48 234.319  92
  -5   0   0 2307.70 226.594  91
  -5   0   0 2853.96 232.417   3
   5   0   0 2689.31 242.243  90
   5   0   0 2829.25 244.730  66
   5   0   0 2843.56 247.588  34
   5   0   1 2989.35 250.762  66
  -5   0  -1 3183.82 243.234  65
   5   0   1 3249.68 260.014  64
  -5   0  -1 3271.04 260.284  63
   5   0   1 3161.49 240.576  62
  -5   0  -1 2593.29 242.930  96
   5   0   1 2668.54 247.668  95
   5   0   1 2847.45 252.140  94
   5   0   1 2752.82 249.337  93
   5   0   1 3148.10 268.580  92
  -5   0  -1 2643.04 245.669  91
   5   0   1 2798.35 251.575  90
  -5   0  -1 3060.90 236.888   3
   5   0   2 11059.3 289.349  47
   5   0   2 10889.1 284.899  46
   5   0   2 11325.5 293.122  70
   5   0   2 11180.2 305.474 107
  -5   0  -2 11015.3 267.808  69
  -5   0  -2 11461.1 304.564 106
  -5   0  -2 11272.3 307.613 105
  -5   0  -2 11487.6 301.357  44
  -5   0  -2 11140.3 303.011 104
  -5   0  -2 10848.0 302.692 103
   5   0   2 12633.7 530.439  66
   5   0   2 11439.6 310.329 102
   5   0   2 10971.6 291.362  27
   5   0   2 11912.3 502.266  64
   5   0   2 11374.9 308.735 101
  -5   0  -2 12075.0 526.286  63
   5   0   2 11384.8 303.593 100
   5   0   2 11938.5 465.448  62
   5   0   2 11697.1 309.077  99
  -5   0  -2 11303.7 282.176  61
   5   0   2 11737.9 313.099  98
  -5   0  -2 11397.5 305.442  97
  -5   0  -2 10260.0 493.809  96
   5   0   2 10417.4 498.635  95
   5   0   2 10262.1 493.942  94
   5   0   2 9948.56 487.081  93
   5   0   2 10610.5 501.765  92
  -5   0  -2 10052.2 491.513  91
  -5   0  -2 12421.8 478.444  37
   5   0   2 10257.5 494.978  90
  -5   0  -2 11802.0 454.803   3
  -5   0  -2 11181.0 289.450  87
   5   0   2 11128.1 290.817  53
   5   0   2 11972.9 307.728  20
   5   0   2 11006.6 291.517  85
   5   0   2 10849.3 272.716  83
  -5   0  -2 11665.7 500.996  65
  -5   0  -2 11447.7 292.792  50
   5   0   3 201.221 86.7880   2
   5   0   3 33.5905 24.5567  32
   5   0   3 52.9179 26.7305  47
   5   0   3 39.0156 26.8505  46
   5   0   3 74.3775 30.8805  70
  -5   0  -3 61.9849 33.7893 106
  -5   0  -3 63.7198 32.7089 105
  -5   0  -3 63.7659 41.3437  44
  -5   0  -3 75.9358 30.5208 104
   5   0   3-91.3807 48.9176  66
  -5   0  -3-8.51516 22.6947 103
  -5   0  -3-93.2522 57.9687  65
   5   0   3 236.943 92.6809  64
   5   0   3 7.93086 22.8019 101
   5   0   3-6.30949 19.8287  42
   5   0   3 25.6733 26.7798 100
   5   0   3 51.3332 32.0205  99
   5   0   3 24.7881 34.3271  98
   5   0   3 48.6167 27.0735 102
  -5   0  -3 112.311 71.0958  96
   5   0   3 148.501 70.1196  95
   5   0   3 0.67762 39.8555  94
  -5   0  -3-72.3190 61.8290  63
   5   0   3 196.723 75.7867  93
   5   0   3 37.4804 50.0714  92
  -5   0  -3-16.7892 47.1108  91
   5   0   3-13.0030 36.9269  90
  -5   0  -3 139.642 58.0277  37
  -5   0  -3 63.2056 37.2057  87
   5   0   3 27.6432 22.9115  53
  -5   0  -3 35.4514 32.3090  69
   5   0   3 19.7065 24.8519  85
   5   0   3 22.5967 20.5459  20
   5   0   3 43.9210 31.1262  81
  -5   0  -3 82.9717 37.6823  50
   5   0   4 2428.28 146.096  47
   5   0   4 2617.95 154.619  32
   5   0   4 2336.93 144.434  46
   5   0   4 2525.17 144.007  70
  -5   0  -4 2541.86 134.386  69
  -5   0  -4 2830.54 281.583  65
  -5   0  -4 2428.07 148.551  44
  -5   0  -4 2356.29 141.351 104
  -5   0  -4 2403.98 145.101 103
   5   0   4 2333.84 230.548   2
   5   0   4 2517.31 146.454 102
   5   0   4 2443.83 139.496  42
   5   0   4 2396.33 141.564 101
   5   0   4 2413.03 142.270 100
   5   0   4 2320.55 138.580  99
   5   0   4 2376.16 141.769  98
  -5   0  -4 2238.82 233.466  96
   5   0   4 1935.06 218.177  95
   5   0   4 2021.31 224.991  94
   5   0   4 2345.04 240.213  93
   5   0   4 2553.25 250.055  92
  -5   0  -4 2307.56 239.079  91
   5   0   4 2593.66 253.238  90
  -5   0  -4 3001.02 281.089  37
  -5   0  -4 2542.15 141.483  87
   5   0   4 2359.26 139.780  53
   5   0   4 2489.14 142.653  20
   5   0   4 2414.11 151.368  85
  -5   0  -4 3294.64 300.865  63
   5   0   4 2490.99 145.424  81
  -5   0  -4 2403.55 141.903 106
  -5   0  -4 2468.03 146.995  50
  -5   0  -4 2533.03 147.497 105
   5   0   5 2341.48 144.943  47
   5   0   5 2330.56 144.894  46
   5   0   5 2301.83 130.677  70
   5   0   5 2447.06 134.242 100
   5   0   5 2449.84 135.068 101
  -5   0  -5 2659.28 151.249  44
   5   0   5 2538.55 145.312  42
  -5   0  -5 2725.08 135.843  69
   5   0   5 2483.48 134.178  99
   5   0   5 2491.71 135.336  98
  -5   0  -5 2505.26 134.448  87
   5   0   5 2309.35 131.280  53
   5   0   5 2334.39 130.091  20
   5   0   5 2346.40 153.167  85
   5   0   5 2432.62 135.974 102
   5   0   5 2466.60 145.612  81
  -5   0  -5 2420.55 144.691  50
   5   0   6 2820.03 149.901  47
   5   0   6 2860.39 151.569  46
   5   0   6 2850.52 149.990  42
  -5   0  -6 2931.87 149.611  44
   5   0   6 2767.68 151.423  24
   5   0   6 2964.85 165.405  85
  -5   0  -6 2847.18 148.937  50
   5   0   7 9476.31 235.800  47
   5   0   7 9495.12 237.552  46
   5   0   7 9330.04 241.857  42
  -5   0  -7 9337.56 227.567  44
   5   0   7 9650.05 233.903  14
   5   0   7 9442.49 248.101  24
   5   0   7 9169.02 257.794  85
  -5   0  -7 9456.31 237.817  50
  -5   0  -8 12671.1 189.963  44
   5   0   8 13421.8 234.686  24
  -5   0  -8 13351.6 221.931  50
  -5  -1   9 254.538 33.2316  31
  -5  -1   9 283.097 32.4699  59
  -5  -1   8 1144.20 86.3778  59
  -5  -1   8 1193.94 75.9860  57
  -5  -1   8 1074.59 83.6834  21
  -5  -1   7 221.756 41.2562  29
  -5  -1   7 261.611 52.6537  59
  -5  -1   7 271.477 46.7823  57
  -5  -1   7 298.473 56.3477  21
  -5  -1   7 275.420 51.1925  52
  -5  -1   7 291.796 46.8640  82
  -5  -1   6 5306.36 181.198  71
  -5  -1   6 5526.39 205.394  29
  -5  -1   6 5067.96 224.956  59
  -5  -1   6 5444.23 200.826  57
  -5  -1   6 5340.43 211.324  52
  -5  -1   6 5254.12 201.045  82
  -5  -1   6 5650.01 211.599   8
  -5  -1   6 4993.88 210.675  50
  -5  -1   6 5822.36 213.164  78
   5   1  -5 47263.2 573.354  72
  -5  -1   5 46944.5 571.665  71
  -5  -1   5 46857.2 612.906  29
  -5  -1   5 46178.2 642.930  44
  -5  -1   5 48475.3 685.573  59
  -5  -1   5 44897.0 615.523  10
  -5  -1   5 48201.1 599.421  57
  -5  -1   5 46403.9 622.428  52
  -5  -1   5 45984.1 617.373  82
  -5  -1   5 43517.3 621.260  50
  -5  -1   5 46660.5 635.514   8
  -5  -1   5 45657.5 607.711  78
  -5  -1   4 18003.8 354.074  71
  -5  -1   4 17169.6 364.734  69
  -5  -1   4 17858.7 389.627  44
   5   1  -4 20789.9 713.766  66
   5   1  -4 19295.7 699.060  64
   5   1  -4 20562.9 725.715  62
  -5  -1   4 16958.3 646.183  40
   5   1  -4 19954.9 676.513  39
  -5  -1   4 18070.6 357.401  57
  -5  -1   4 17699.0 386.987  10
  -5  -1   4 18529.4 624.718   3
  -5  -1   4 17029.9 368.507  52
  -5  -1   4 17167.5 371.100  82
  -5  -1   4 17068.8 377.929  50
  -5  -1   4 17882.7 373.660  78
   5   1  -4 19723.1 700.581  34
  -5  -1   3 4205.42 168.630  71
  -5  -1   3 3925.37 168.337  69
   5   1  -3 4072.97 167.575  45
  -5  -1   3 3894.10 178.149  44
   5   1  -3 4322.28 309.121  66
   5   1  -3 3938.18 302.509  64
  -5  -1   3 4003.03 175.185  41
   5   1  -3 4187.69 307.597  62
  -5  -1   3 3665.28 291.804  40
  -5  -1   3 3414.46 256.478  96
   5   1  -3 4201.68 290.911  39
   5   1  -3 3457.47 262.535  95
   5   1  -3 3391.68 260.032  94
  -5  -1   3 3351.36 255.333  93
   5   1  -3 3633.36 268.002  92
  -5  -1   3 4053.21 292.340   3
  -5  -1   3 4178.57 183.478  10
  -5  -1   3 3516.18 264.533  91
   5   1  -3 3541.85 272.353  90
  -5  -1   3 3967.30 174.525  87
  -5  -1   3 3962.87 173.440  52
   5   1  -3 3941.81 164.282  83
  -5  -1   3 4190.81 181.221  50
  -5  -1   3 3952.16 169.677  78
   5   1  -3 4191.37 316.511  34
   5   1  -2 6240.70 368.778  64
   5   1  -2 5981.88 347.328  66
   5   1  -2 6104.95 351.667  62
  -5  -1   2 5176.02 340.474  40
  -5  -1   2 6112.63 348.431  96
   5   1  -2 5540.59 335.427  95
   5   1  -2 6386.20 327.196  39
   5   1  -2 5461.41 331.636  94
  -5  -1   2 5917.64 348.958  93
   5   1  -2 5750.24 343.017  92
  -5  -1   2 5835.17 342.045   3
  -5  -1   2 5989.38 347.635  91
   5   1  -2 5459.54 334.709  90
   5   1  -2 6245.18 370.930  34
   5   1  -1 2699.90 228.220  66
   5   1  -1 2783.56 236.342  64
  -5  -1   1 2628.11 196.177  63
   5   1  -1 3158.96 238.603  62
  -5  -1   1 3195.73 261.587  40
  -5  -1   1 2484.04 223.948  96
   5   1  -1 2698.96 233.041  95
   5   1  -1 3060.10 212.902  39
   5   1  -1 2609.10 232.252  94
  -5  -1   1 2588.01 222.704   3
  -5  -1   1 2540.75 227.802  93
   5   1  -1 2558.19 227.326  92
  -5  -1   1 2760.26 237.794  91
   5   1  -1 2912.98 244.487  90
   5   1  -1 2909.14 248.823  34
   5   1   0 7212.85 361.726  66
  -5  -1   0 7484.65 354.704  63
   5   1   0 7534.79 350.773  62
   5   1   0 7395.86 374.937  64
  -5  -1   0 6760.03 373.347  40
  -5  -1   0 6384.62 368.040  96
   5   1   0 6240.91 358.025  95
   5   1   0 6242.86 357.093  94
  -5  -1   0 7435.82 371.364   3
   5   1   0 6528.92 366.305  92
  -5  -1   0 6010.40 360.338  91
   5   1   0 6390.11 364.218  90
  -5  -1   0 7084.19 364.313  35
   5   1   0 7106.90 388.085  34
   5   1   1 14934.8 519.302  66
  -5  -1  -1 14966.1 496.751  65
   5   1   1 14497.3 520.249  64
  -5  -1  -1 14243.3 522.954  63
   5   1   1 15152.8 482.995  62
  -5  -1  -1 12732.3 518.599  40
  -5  -1  -1 13149.6 533.628  96
   5   1   1 13623.7 538.298  95
   5   1   1 13973.6 542.981  94
   5   1   1 12856.7 523.722  93
   5   1   1 13241.2 532.196  92
  -5  -1  -1 14964.3 516.191   3
  -5  -1  -1 12683.0 527.100  91
   5   1   1 13351.0 534.043  90
  -5  -1  -1 14315.5 503.546  35
   5   1   1 14538.5 562.155  34
   5   1   2 24450.0 673.175  66
  -5  -1  -2 23491.9 678.178  65
   5   1   2 24142.4 668.216  64
  -5  -1  -2 23197.9 702.632  63
  -5  -1  -2 20080.9 663.804  96
   5   1   2 20101.8 666.746  95
   5   1   2 20377.1 667.644  94
   5   1   2 19970.2 660.109  93
   5   1   2 20762.3 676.315  92
  -5  -1  -2 23246.5 632.643   3
  -5  -1  -2 19951.9 665.285  91
  -5  -1  -2 23015.1 639.053  37
   5   1   2 20383.5 672.315  90
  -5  -1  -2 23936.8 630.771  35
   5   1   3 61.7746 26.3691  47
   5   1   3 56.6836 20.3381  46
   5   1   3 40.5654 24.6600  70
  -5  -1  -3 37.0743 30.1062 106
  -5  -1  -3 68.6784 29.7628 105
  -5  -1  -3 49.2383 36.8788  44
  -5  -1  -3 70.8255 37.9945 104
   5   1   3 15.4922 33.2095  66
  -5  -1  -3 105.357 58.9717  65
   5   1   3 43.0150 22.0277 102
   5   1   3-34.3645 24.4452 101
   5   1   3 141.629 35.8057 100
   5   1   3 58.6820 22.2493  99
   5   1   3 80.7616 35.8293  98
  -5  -1  -3 181.830 71.9053  96
   5   1   3-2.83981 26.9927  95
   5   1   3-76.3353 49.2429  94
   5   1   3-38.8027 34.4220  93
   5   1   3-54.1336 42.7234  92
  -5  -1  -3 305.792 83.7301  91
   5   1   3 146.840 58.7069  90
  -5  -1  -3 175.754 69.2103  37
  -5  -1  -3 109.822 38.7513  87
   5   1   3 54.8061 31.0336  53
   5   1   3 45.8514 32.8076  85
  -5  -1  -3 32.8111 20.2467 103
  -5  -1  -3-90.3114 53.3138  63
   5   1   3 96.5480 31.5300  20
   5   1   3 145.340 39.2932  81
  -5  -1  -3 105.268 41.1171  50
   5   1   4 1237.26 104.307  47
   5   1   4 1094.20 98.3889  46
   5   1   4 1182.23 98.8376  70
  -5  -1  -4 1154.25 98.7342 105
  -5  -1  -4 1350.00 108.007  44
  -5  -1  -4 1169.33 97.8549 106
  -5  -1  -4 1657.88 211.214  65
   5   1   4 1084.70 96.9110 102
   5   1   4 1266.80 99.2261  42
   5   1   4 1260.06 102.941 100
  -5  -1  -4 1725.23 206.760  63
   5   1   4 1080.98 95.8326 101
   5   1   4 1265.06 102.521  98
   5   1   4 1193.74 99.0065  99
  -5  -1  -4 1395.69 181.550  96
   5   1   4 1379.54 180.883  95
   5   1   4 1037.27 158.598  94
   5   1   4 1162.85 164.077  93
   5   1   4 1060.27 157.727  92
  -5  -1  -4 1246.31 171.051  91
  -5  -1  -4 1343.33 184.834  37
   5   1   4 1096.75 156.416  90
  -5  -1  -4 1064.56 95.0113 103
  -5  -1  -4 1172.13 91.8910  87
   5   1   4 1100.73 96.0025  53
   5   1   4 1220.03 98.4190  20
  -5  -1  -4 1075.22 96.6351 104
   5   1   4 1327.09 115.078  85
   5   1   4 1173.17 100.829  81
  -5  -1  -4 1248.14 102.360  50
   5   1   5 7441.06 257.725  47
   5   1   5 7214.44 253.996  46
   5   1   5 7748.98 246.470  70
  -5  -1  -5 7942.54 252.133  44
   5   1   5 7769.01 251.549  42
   5   1   5 7776.07 255.271  24
   5   1   5 7871.96 252.556  53
   5   1   5 7510.22 273.326  85
  -5  -1  -5 7445.65 248.214  50
   5   1   6 25701.6 467.231  47
   5   1   6 25526.3 469.382  46
   5   1   6 26883.1 422.380  70
  -5  -1  -6 27547.4 450.509  44
   5   1   6 26348.7 431.021  28
   5   1   6 25328.7 456.515  42
   5   1   6 27434.1 477.741  24
   5   1   6 26711.3 428.156  53
   5   1   6 25109.5 493.379  85
  -5  -1  -6 26801.5 459.507  50
   5   1   7 12491.1 299.516  47
   5   1   7 12459.7 303.088  46
   5   1   7 12410.4 299.706  42
   5   1   7 12431.3 289.106  14
   5   1   7 12398.5 301.709  24
  -5  -1  -7 12783.4 274.140  44
   5   1   7 11422.5 316.718  85
  -5  -1  -7 12224.7 285.176  50
   5   1   8 369.972 45.0659  46
   5   1   8 353.560 44.6324  24
   5   1   8 294.593 47.2786  85
  -5  -1  -8 298.403 41.2295  50
   5   1   9 4420.66 109.964  15
  -5  -1  -9 4570.26 103.533  78
  -5  -2   8 8583.27 219.142  31
  -5  -2   8 9097.92 213.378  59
  -5  -2   8 9179.27 217.767  21
  -5  -2   7 11094.3 292.729  59
   5   2  -7 9613.33 232.740  58
  -5  -2   7 11110.4 231.122  57
  -5  -2   7 10589.2 287.670  21
  -5  -2   7 9998.58 262.678  52
  -5  -2   6 1272.61 102.873   7
  -5  -2   6 1197.92 111.722  59
   5   2  -6 1346.32 92.2291  56
  -5  -2   6 1165.05 110.269  21
  -5  -2   6 1328.08 108.993  52
  -5  -2   6 1203.31 100.294   8
  -5  -2   6 1289.92 108.713  50
  -5  -2   6 1294.07 104.919  78
  -5  -2   5 6595.65 205.830  71
  -5  -2   5 6618.91 247.143  44
  -5  -2   5 6557.13 257.873  59
   5   2  -5 6616.35 224.235  56
  -5  -2   5 6695.77 245.456  52
  -5  -2   5 6613.24 244.953   8
  -5  -2   5 6413.00 237.757  50
  -5  -2   5 6258.31 235.360  78
   5   2  -4 18936.9 371.207  72
  -5  -2   4 19253.3 365.321  71
   5   2  -4 21625.1 729.423  66
   5   2  -4 21936.3 768.791  64
   5   2  -4 22223.7 761.100  62
  -5  -2   4 18487.4 703.724  40
   5   2  -4 20382.4 693.241  39
  -5  -2   4 19101.7 407.076  52
   5   2  -4 19032.5 370.018  84
  -5  -2   4 18175.5 400.787  44
  -5  -2   4 17862.2 389.705  50
  -5  -2   4 18710.7 416.260   8
  -5  -2   4 18473.8 396.990  78
   5   2  -4 21319.7 766.518  34
   5   2  -3 50810.1 609.210  72
  -5  -2   3 49637.1 585.194  71
  -5  -2   3 48918.6 578.603  69
   5   2  -3 52573.2 593.720  45
  -5  -2   3 50692.7 642.845  44
  -5  -2   3 49722.2 611.442 105
  -5  -2   3 51860.0 607.411 104
   5   2  -3 55630.5 1097.70  66
   5   2  -3 55297.6 1174.34  64
   5   2  -3 49343.8 604.739 101
   5   2  -3 49327.0 601.267 100
   5   2  -3 55445.9 1135.28  62
   5   2  -3 48874.3 597.464  99
   5   2  -3 48635.1 600.801  98
  -5  -2   3 47807.1 1100.73  40
  -5  -2   3 47220.5 617.174 107
   5   2  -3 49208.3 599.313  97
  -5  -2   3 47713.7 1004.15  96
   5   2  -3 55910.9 1050.68  39
   5   2  -3 47761.4 1010.78  95
   5   2  -3 46919.4 1000.90  94
  -5  -2   3 54630.1 1078.41   3
  -5  -2   3 47323.9 1001.06  93
  -5  -2   3 51984.0 661.838  10
  -5  -2   3 46125.5 993.793  92
  -5  -2   3 46813.7 996.871  91
   5   2  -3 47941.9 1013.64  90
  -5  -2   3 50114.5 635.323  87
  -5  -2   3 53651.5 615.736  86
  -5  -2   3 51463.0 646.082  52
   5   2  -3 49947.1 608.513  84
  -5  -2   3 50112.8 624.926  50
  -5  -2   3 50214.3 628.881  78
   5   2  -3 52862.8 1167.66  34
   5   2  -2 328.079 97.0173  34
  -5  -2   2 563.810 112.347   3
   5   2  -2 469.543 58.6932  72
  -5  -2   2 452.548 57.4832  71
  -5  -2   2 430.530 61.3338  44
   5   2  -2 280.555 86.2831  66
   5   2  -2 448.180 101.129  64
   5   2  -2 596.960 110.818  62
  -5  -2   2 378.778 94.1614  40
  -5  -2   2 275.495 75.4198  96
   5   2  -2 301.273 86.6436  95
   5   2  -2 273.677 78.8220  94
  -5  -2   2 334.933 93.1102  93
  -5  -2   2 383.024 60.7762  10
   5   2  -2 320.161 85.8259  92
  -5  -2   2 375.408 91.5518  91
   5   2  -2 391.201 97.5919  90
  -5  -2   2 312.267 53.4390  87
  -5  -2   2 612.542 70.4071  52
  -5  -2   2 630.717 120.892  35
   5   2  -1 23078.7 627.837  66
   5   2  -1 23573.6 644.972  62
  -5  -2   1 20080.5 661.594  40
  -5  -2   1 19879.2 645.767  96
   5   2  -1 19444.6 643.996  95
  -5  -2   1 22234.2 661.903   3
   5   2  -1 20077.4 652.428  94
  -5  -2   1 19487.4 646.547  93
   5   2  -1 19296.6 640.055  92
  -5  -2   1 19565.2 642.485  91
   5   2  -1 19834.6 650.325  90
   5   2  -1 22309.7 676.017  64
  -5  -2   1 22324.8 680.881  35
   5   2  -1 22377.5 701.426  34
   5   2   0 1115.12 138.536  66
  -5  -2   0 1234.87 144.754  63
   5   2   0 1165.23 132.467  62
  -5  -2   0 1178.61 150.988  40
  -5  -2   0 1070.37 145.317  96
   5   2   0 1090.98 149.253  95
  -5  -2   0 1105.85 148.380   3
   5   2   0 917.776 138.882  94
  -5  -2   0 906.848 145.035  93
   5   2   0 1021.53 148.590  92
   5   2   0 1056.33 138.110  64
  -5  -2   0 1179.09 154.020  91
   5   2   0 931.678 142.489  90
  -5  -2   0 1199.77 158.461  35
   5   2   0 1048.38 150.641  34
  -5  -2  -1 3431.18 230.238  65
   5   2   1 3536.47 249.657  64
  -5  -2  -1 3247.57 244.425  63
   5   2   1 3208.36 221.365  66
  -5  -2  -1 2981.70 248.044  40
  -5  -2  -1 3031.25 252.960  96
   5   2   1 3112.04 255.964  95
  -5  -2  -1 3151.43 239.152   3
   5   2   1 2848.64 244.365  94
  -5  -2  -1 2920.52 250.895  93
   5   2   1 2945.72 250.328  92
  -5  -2  -1 2851.21 247.304  91
  -5  -2  -1 3194.43 219.432  37
   5   2   1 2955.16 253.089  90
  -5  -2  -1 3257.16 249.943  35
   5   2   1 3228.58 265.928  34
  -5  -2  -2 1937.93 190.955  65
   5   2   2 2096.13 190.459  64
  -5  -2  -2 1885.66 199.947  63
  -5  -2  -2 1680.31 186.624  40
  -5  -2  -2 1442.86 171.736  96
   5   2   2 1745.72 193.070  95
   5   2   2 1694.41 191.789  94
  -5  -2  -2 1964.64 187.339   3
  -5  -2  -2 1713.04 198.076  93
   5   2   2 1691.51 190.515  92
  -5  -2  -2 1708.45 192.647  91
  -5  -2  -2 1874.82 182.879  37
   5   2   2 1624.95 188.860  90
   5   2   2 2022.68 186.163  36
  -5  -2  -2 1930.14 193.165  35
   5   2   2 1847.96 200.893  34
   5   2   3 6047.18 211.943  47
   5   2   3 5435.61 198.116  46
   5   2   3 5819.71 208.587  70
  -5  -2  -3 5731.91 211.186 105
  -5  -2  -3 5572.76 212.402 103
  -5  -2  -3 6176.94 366.855  65
   5   2   3 5282.01 205.614 102
   5   2   3 5696.19 210.313 101
  -5  -2  -3 5766.31 363.931  63
   5   2   3 5637.76 208.120  99
   5   2   3 5581.54 207.222 100
  -5  -2  -3 5437.57 204.305 104
   5   2   3 5494.46 206.099  98
  -5  -2  -3 5426.06 334.839  40
  -5  -2  -3 5144.60 334.989  96
   5   2   3 5094.63 335.753  95
   5   2   3 5323.20 343.300  94
  -5  -2  -3 5623.96 206.564 106
  -5  -2  -3 5113.74 334.954  93
   5   2   3 4834.97 327.486  92
  -5  -2  -3 6101.51 320.982   3
  -5  -2  -3 4938.00 328.418  91
  -5  -2  -3 5893.78 354.543  37
   5   2   3 5302.84 343.267  90
   5   2   3 5548.45 204.507  20
   5   2   3 5468.78 204.148  53
   5   2   3 5422.12 215.876  85
   5   2   3 6016.15 356.020  36
  -5  -2  -3 5770.99 325.127  35
  -5  -2  -3 5861.45 200.541  50
   5   2   4 7686.36 250.109  47
   5   2   4 8319.90 255.516  46
   5   2   4 7792.10 247.344  70
  -5  -2  -4 7575.56 237.431 106
  -5  -2  -4 7718.65 240.586 105
  -5  -2  -4 7969.77 236.344  44
  -5  -2  -4 7577.30 238.675 104
  -5  -2  -4 7464.47 241.131 103
   5   2   4 7973.45 239.570  42
  -5  -2  -4 8179.29 449.846  65
   5   2   4 7352.79 236.927 101
  -5  -2  -4 8406.13 462.119  63
   5   2   4 7505.30 239.012 100
   5   2   4 7572.31 238.214  99
   5   2   4 7482.24 237.035  98
  -5  -2  -4 6938.67 394.445  96
   5   2   4 6772.50 387.141  95
   5   2   4 7183.04 239.047 102
   5   2   4 7017.54 392.597  94
  -5  -2  -4 6916.88 393.052  93
   5   2   4 6825.75 393.241  92
  -5  -2  -4 7503.45 408.338  91
  -5  -2  -4 8296.79 457.045  37
   5   2   4 7016.14 400.987  90
   5   2   4 7257.88 232.302  20
   5   2   4 7860.87 253.505  53
   5   2   4 7706.72 268.853  85
  -5  -2  -4 7902.13 240.673  50
   5   2   5 1509.38 116.184  47
   5   2   5 1582.99 117.748  46
   5   2   5 1586.65 114.300  70
   5   2   5 1667.30 116.899  42
  -5  -2  -5 1926.37 234.078  65
   5   2   5 1497.54 114.094  28
  -5  -2  -5 1978.59 234.557  63
   5   2   5 1681.85 113.332  24
  -5  -2  -5 1937.00 231.308  37
   5   2   5 1796.90 124.461  53
   5   2   5 1448.29 123.121  85
  -5  -2  -5 1841.14 120.499  50
   5   2   6 14205.7 352.320  47
   5   2   6 14376.8 356.633  46
   5   2   6 14689.1 329.792  70
   5   2   6 14960.6 351.387  42
   5   2   6 14585.8 344.467  28
   5   2   6 15438.2 349.853  24
   5   2   6 14683.5 354.847  14
   5   2   6 14690.4 337.619  53
   5   2   6 13861.5 373.531  85
   5   2   6 13838.6 323.814  51
  -5  -2  -6 14730.8 332.247  50
   5   2   7 1654.40 116.501  47
   5   2   7 1633.10 115.802  46
   5   2   7 1863.89 118.221  14
   5   2   7 1655.09 112.145  24
   5   2   7 1483.78 119.559  85
  -5  -2  -7 1749.08 109.086  50
   5   2   8 3378.95 144.381  46
   5   2   8 3495.01 143.521  24
  -5  -2  -8 3416.96 130.295  50
   5   2   9 3967.44 127.486  15
  -5  -2  -9 3983.17 110.043  78
   5   3  -8 8996.49 158.362  73
  -5  -3   8 9114.71 173.964  31
   5   3  -7 24.5255 20.7872  60
  -5  -3   7 13.9106 17.0917  59
  -5  -3   7 37.2931 27.3119  21
  -5  -3   7 15.6943 23.4551  52
  -5  -3   6 651.974 70.7396   7
  -5  -3   6 567.790 71.6609  59
   5   3  -6 662.115 67.3403  58
  -5  -3   6 544.744 72.1477  21
  -5  -3   6 640.875 74.8195  52
  -5  -3   6 678.865 76.2508  78
  -5  -3   5 1906.65 138.839  59
   5   3  -5 1847.38 123.236  58
   5   3  -5 2060.88 120.474  56
  -5  -3   5 1841.97 121.064  89
  -5  -3   5 1782.47 131.640  21
  -5  -3   5 2078.67 124.890  86
  -5  -3   5 1849.80 130.400  52
  -5  -3   5 1801.49 130.615   8
  -5  -3   5 1929.10 127.781  50
  -5  -3   5 1980.13 134.970  78
  -5  -3   5 2044.76 123.491  48
  -5  -3   4 31574.6 495.722  48
   5   3  -4 31501.0 471.237  72
  -5  -3   4 28788.4 504.649  44
   5   3  -4 30319.4 487.233  56
  -5  -3   4 30598.2 505.364  89
  -5  -3   4 30404.6 491.430  86
  -5  -3   4 29567.7 515.168  52
  -5  -3   4 29542.3 528.690   8
  -5  -3   4 28740.1 485.181  50
  -5  -3   4 28573.5 506.151  78
  -5  -3   3 1009.73 89.7976  48
  -5  -3   3 856.459 150.199   3
   5   3  -3 752.560 76.3476  72
  -5  -3   3 746.386 78.8924  16
  -5  -3   3 701.966 79.9704 107
  -5  -3   3 783.616 83.3848  44
  -5  -3   3 689.691 131.816  68
  -5  -3   3 805.959 80.2296 104
   5   3  -3 837.472 85.6718 103
  -5  -3   3 688.597 79.2244 102
   5   3  -3 791.664 147.935  64
   5   3  -3 869.879 83.6518 100
   5   3  -3 718.118 74.5593  99
   5   3  -3 903.268 149.570  62
   5   3  -3 773.368 80.8896  98
   5   3  -3 823.008 81.4816  97
  -5  -3   3 491.764 113.576  40
  -5  -3   3 890.219 140.247  96
  -5  -3   3 661.024 116.309   4
   5   3  -3 738.168 140.814  95
   5   3  -3 379.874 105.195  94
  -5  -3   3 752.305 132.128  93
   5   3  -3 803.399 80.9980  56
  -5  -3   3 722.177 132.710  92
  -5  -3   3 458.124 117.243  91
   5   3  -3 926.577 159.155  90
  -5  -3   3 755.337 83.6532  89
  -5  -3   3 755.588 81.8228  86
  -5  -3   3 724.727 84.0459  52
   5   3  -3 760.877 76.8352  84
  -5  -3   3 747.696 79.5705  50
  -5  -3   3 786.275 90.7173   8
  -5  -3   3 717.421 83.2184  78
   5   3  -3 1281.18 195.409  34
  -5  -3   2 13450.9 314.501  48
   5   3  -2 13352.3 318.091  72
   5   3  -2 13477.4 302.820  45
   5   3  -2 13181.8 325.310  99
  -5  -3   2 13509.7 335.121 107
  -5  -3   2 13223.0 317.547  44
  -5  -3   2 12950.7 329.303 105
   5   3  -2 13687.7 580.416  64
   5   3  -2 13224.2 327.239 101
   5   3  -2 13207.6 325.212 100
   5   3  -2 14111.1 546.509  62
   5   3  -2 12903.7 323.293  98
  -5  -3   2 13722.3 327.363 104
  -5  -3   2 11814.6 540.593  40
   5   3  -2 13163.8 323.647  97
  -5  -3   2 12655.4 481.827   4
  -5  -3   2 12577.0 534.050  96
   5   3  -2 12374.7 542.834  95
   5   3  -2 12253.3 536.193  94
  -5  -3   2 13473.4 336.325  10
  -5  -3   2 12194.3 527.892  93
  -5  -3   2 11992.3 526.880  92
   5   3  -2 13760.1 323.813  56
   5   3  -2 14399.6 538.110  38
  -5  -3   2 12575.3 536.407  91
   5   3  -2 11912.1 534.742  90
  -5  -3   2 13634.8 328.710  89
  -5  -3   2 12853.8 320.488  86
  -5  -3   2 13414.5 329.470  52
   5   3  -2 12940.7 308.974  84
   5   3  -2 13440.0 308.808  83
  -5  -3   2 12555.7 300.811  50
  -5  -3   2 13910.0 567.668  35
  -5  -3   2 12951.8 510.908  68
  -5  -3   2 13434.8 341.288   8
  -5  -3   2 13377.0 326.676  78
   5   3  -2 13739.8 587.129  34
   5   3  -1 485.352 108.145  34
   5   3  -1 431.878 58.6048  72
  -5  -3   1 469.698 90.2789  68
  -5  -3   1 422.380 96.7857   1
   5   3  -1 294.486 79.2020  64
   5   3  -1 374.114 59.7132 101
   5   3  -1 478.854 67.3355 100
  -5  -3   1 399.456 62.7264 107
   5   3  -1 313.531 82.3469  62
   5   3  -1 445.963 63.0984  99
   5   3  -1 467.011 65.4035  98
   5   3  -1 420.351 63.0770  97
  -5  -3   1 608.783 115.655  40
  -5  -3   1 408.765 93.3853  96
   5   3  -1 484.391 108.469  95
   5   3  -1 354.774 94.0934  94
  -5  -3   1 474.945 64.0408  10
  -5  -3   1 450.218 102.093  93
   5   3  -1 397.336 57.7319  56
   5   3  -1 737.745 115.476  38
  -5  -3   1 270.284 81.7990  91
   5   3  -1 443.540 107.020  90
  -5  -3   1 445.617 64.2287  87
  -5  -3   1 463.971 65.0038  86
  -5  -3   1 426.917 61.2031 104
  -5  -3   1 453.653 63.2669  52
  -5  -3   1 441.912 62.3032 105
   5   3  -1 458.837 63.2574  84
   5   3  -1 414.624 59.6534  83
  -5  -3   1 385.370 95.2981  35
  -5  -3   1 394.000 57.9777  78
   5   3   0 12404.6 490.697  64
  -5  -3   0 12989.5 481.370  63
  -5  -3   0 10282.5 470.386  40
  -5  -3   0 10389.2 482.728  96
   5   3   0 10821.2 498.127  95
   5   3   0 10899.2 494.619  94
  -5  -3   0 10921.7 497.660  93
   5   3   0 10614.1 489.578  92
  -5  -3   0 12036.2 477.443   1
   5   3   0 12534.4 480.955  38
  -5  -3   0 11019.0 500.524  91
   5   3   0 10630.7 490.625  90
  -5  -3   0 12491.1 519.807  35
   5   3   0 11640.9 505.313  34
  -5  -3  -1 1420.04 151.426  65
  -5  -3  -1 1451.99 168.912  63
  -5  -3  -1 1029.69 143.069  40
  -5  -3  -1 1585.16 180.664  96
   5   3   1 1264.35 171.064  95
   5   3   1 1249.68 164.561  94
  -5  -3  -1 1219.25 158.926   1
  -5  -3  -1 1168.19 166.042  93
   5   3   1 1226.19 165.651  92
  -5  -3  -1 1102.91 160.298  91
   5   3   1 1401.07 172.115  90
   5   3   1 1671.22 166.981  64
  -5  -3  -1 1065.31 152.997  35
   5   3   1 1255.49 166.642  34
   5   3   2 824.590 147.326  34
  -5  -3  -2 823.983 128.781  65
  -5  -3  -2 327.749 78.9153  63
  -5  -3  -2 751.534 117.204  40
  -5  -3  -2 660.758 122.173  96
   5   3   2 784.232 128.063  95
   5   3   2 679.916 123.112  94
  -5  -3  -2 612.003 120.669  93
   5   3   2 581.562 116.526  92
  -5  -3  -2 717.691 122.428  91
   5   3   2 718.383 125.587  90
   5   3   2 703.901 118.654  36
  -5  -3  -2 787.070 122.772   1
  -5  -3  -2 633.017 119.220  35
   5   3   3 39573.0 533.907  47
  -5  -3  -3 39964.9 871.555   1
   5   3   3 39119.1 544.645  70
   5   3   3 39126.2 528.840  45
   5   3   3 40434.4 569.482  14
  -5  -3  -3 38015.3 535.100 104
   5   3   3 38283.0 537.613 101
  -5  -3  -3 40295.1 967.635  63
   5   3   3 37894.6 534.853 100
   5   3   3 37538.6 535.423  99
   5   3   3 36903.1 532.161  98
   5   3   3 38025.8 532.227  97
  -5  -3  -3 37623.8 831.806  40
  -5  -3  -3 34204.6 862.231  96
   5   3   3 34533.9 874.630  95
  -5  -3  -3 42660.5 879.723   3
   5   3   3 34753.0 874.893  94
  -5  -3  -3 35002.1 876.920  93
   5   3   3 36401.2 896.007  92
  -5  -3  -3 35263.8 878.301  91
   5   3   3 35305.3 881.914  90
  -5  -3  -3 39906.9 927.320  65
  -5  -3  -3 38365.9 540.193 105
   5   3   3 38484.6 542.241  53
  -5  -3  -3 39088.2 553.901 107
   5   3   3 40458.9 931.484  36
   5   3   3 37814.6 528.988  84
   5   3   3 38424.2 518.465  83
  -5  -3  -3 39984.1 909.489  35
  -5  -3  -3 39704.0 535.639  78
   5   3   4 230.496 46.4022  47
   5   3   4 196.349 42.1724  46
   5   3   4 171.498 43.4550  70
   5   3   4 204.491 42.8140  45
  -5  -3  -4 162.896 42.0648 107
  -5  -3  -4 201.057 41.8247 105
   5   3   4 217.639 46.5284  14
  -5  -3  -4 161.001 40.0965 104
  -5  -3  -4 289.591 96.6610  65
   5   3   4 243.193 45.1110 101
   5   3   4 231.358 44.0657 100
   5   3   4 227.130 44.4031  99
   5   3   4 215.664 43.2866  98
   5   3   4 230.324 45.8577  97
  -5  -3  -4 257.324 91.3128  96
   5   3   4 153.813 74.0847  95
   5   3   4 360.429 96.9317  94
  -5  -3  -4 148.682 72.9467  93
   5   3   4 289.547 86.7487  92
  -5  -3  -4 294.437 82.4894  91
   5   3   4 265.995 81.0236  90
  -5  -3  -4 319.503 93.5404  37
  -5  -3  -4 78.5846 47.9650  63
   5   3   4 227.094 47.7378  53
   5   3   4 190.914 42.9082  84
   5   3   4 367.275 98.8594  36
   5   3   4 165.291 39.3729  83
  -5  -3  -4 305.109 82.7207  35
  -5  -3  -4 185.742 48.2326  78
   5   3   5 655.353 78.7516  47
   5   3   5 595.171 73.3913  46
   5   3   5 661.731 76.0376  70
   5   3   5 560.288 77.0408  14
  -5  -3  -5 551.181 130.148  65
   5   3   5 633.179 77.9233  28
  -5  -3  -5 636.856 141.584  63
  -5  -3  -5 862.349 152.872  37
   5   3   5 676.609 78.7257  53
   5   3   5 661.204 138.060  36
  -5  -3  -5 695.713 74.0914  50
   5   3   6 21853.4 439.525  47
   5   3   6 21522.7 429.851  46
   5   3   6 21774.2 412.445  70
   5   3   6 20838.2 425.881  14
   5   3   6 21591.6 430.829  28
   5   3   6 22038.0 426.828  53
   5   3   6 21052.4 427.342  51
  -5  -3  -6 23044.7 391.770  50
   5   3   7 2603.47 149.174  47
   5   3   7 2736.21 151.576  46
   5   3   7 2752.35 145.191  14
   5   3   7 2730.37 144.319  28
   5   3   7 2914.35 142.981  24
   5   3   7 2770.66 141.701  53
   5   3   7 2554.35 138.774  51
  -5  -3  -7 2926.89 132.668  50
   5   3   8 31.2515 25.9123  46
   5   3   8 6.37034 20.0707  15
  -5  -3  -8-6.34607 23.0054  78
   5   3   9 2173.03 101.731  15
  -5  -3  -9 2229.88 81.8367  78
   5   4  -7 1627.00 77.1921  73
  -5  -4   7 1333.44 69.2020  31
   5   4  -7 1501.11 61.5381  60
  -5  -4   7 1547.40 70.1448  59
  -5  -4   7 1415.03 75.0131  88
   5   4  -7 1540.64 66.5337  79
   5   4  -6 18904.9 333.736  73
   5   4  -6 19137.2 320.196  60
  -5  -4   6 18395.5 332.104  59
   5   4  -6 19098.3 283.118  58
  -5  -4   6 19971.4 351.505  21
  -5  -4   6 18960.3 371.139  88
  -5  -4   6 18866.1 340.117  52
  -5  -4   6 20307.4 344.535   7
  -5  -4   6 19337.7 326.029  48
  -5  -4   5 7543.53 249.036   7
   5   4  -5 7260.16 230.517  60
  -5  -4   5 7406.69 244.292  59
   5   4  -5 7841.71 227.799  58
  -5  -4   5 7713.76 248.041  21
  -5  -4   5 7484.56 239.465  89
  -5  -4   5 7425.97 229.469  86
  -5  -4   5 7299.59 239.213  52
  -5  -4   5 7176.33 238.895  78
  -5  -4   5 7383.16 231.331  48
  -5  -4   4 1234.90 105.106  48
  -5  -4   4 1109.41 104.700  59
   5   4  -4 1097.95 95.9529  58
   5   4  -4 1299.77 97.0281  56
  -5  -4   4 1169.18 103.652  21
  -5  -4   4 1254.87 107.968  89
  -5  -4   4 1140.22 100.667  86
  -5  -4   4 1145.81 102.895  52
  -5  -4   4 1014.00 102.447   8
  -5  -4   4 1368.61 101.857  50
  -5  -4   4 1177.84 103.972  78
  -5  -4   3 1036.42 99.4796  48
  -5  -4   3 950.789 89.0632  16
   5   4  -3 976.669 88.0754  72
  -5  -4   3 960.148 93.4590 102
  -5  -4   3 887.531 86.3013 104
   5   4  -3 956.724 90.9813 100
   5   4  -3 1010.45 91.4890  99
  -5  -4   3 935.302 91.6779 107
   5   4  -3 986.293 92.8384  98
   5   4  -3 943.450 90.5922  97
   5   4  -3 944.479 93.1993  58
   5   4  -3 1057.17 94.3207  56
  -5  -4   3 1013.69 99.1463  89
  -5  -4   3 925.254 93.0992  21
  -5  -4   3 955.950 95.5575  86
   5   4  -3 981.650 94.5590 103
  -5  -4   3 1001.92 98.2202  52
  -5  -4   3 985.235 100.536   8
  -5  -4   3 962.057 86.0562  50
  -5  -4   3 962.572 94.7836  78
   5   4  -2 568.772 136.017  34
  -5  -4   2 487.325 69.9945  48
  -5  -4   2 492.271 67.5769  16
   5   4  -2 464.497 65.2376  72
  -5  -4   2 442.395 63.4968 107
  -5  -4   2 330.222 89.7585  68
  -5  -4   2 522.567 69.3499 104
  -5  -4   2 464.407 63.9600  44
   5   4  -2 551.964 74.7878 103
  -5  -4   2 456.003 67.3505 102
   5   4  -2 665.573 134.269  64
   5   4  -2 503.427 69.5905 100
   5   4  -2 503.217 70.5723  99
   5   4  -2 199.588 92.7657  62
   5   4  -2 395.409 63.3106  98
   5   4  -2 522.988 70.3294  97
  -5  -4   2 504.567 122.381  40
  -5  -4   2 569.075 121.725  96
  -5  -4   2 543.583 108.891   4
   5   4  -2 387.459 108.890  95
   5   4  -2 483.488 68.7258  58
   5   4  -2 711.659 142.796  94
  -5  -4   2 447.549 108.951  93
   5   4  -2 568.662 72.1178  56
  -5  -4   2 493.427 114.495  92
   5   4  -2 69.8585 45.6804  38
  -5  -4   2 525.537 126.254  91
   5   4  -2 388.793 114.519  90
  -5  -4   2 456.848 69.6080  89
  -5  -4   2 434.302 71.1795  86
  -5  -4   2 472.960 69.3059  52
  -5  -4   2 385.337 109.895   1
   5   4  -2 637.159 73.1841  84
   5   4  -2 546.786 66.7130  83
  -5  -4   2 479.065 70.4086   8
  -5  -4   2 369.227 118.569  35
  -5  -4   2 413.768 65.2755  78
   5   4  -1 799.824 144.149  34
  -5  -4   1 665.623 79.2786  48
   5   4  -1 679.030 76.5315  72
  -5  -4   1 691.834 79.0701  16
   5   4  -1 683.888 72.0168  45
   5   4  -1 739.551 85.4649 103
  -5  -4   1 766.701 127.403  68
  -5  -4   1 725.884 82.5366 104
   5   4  -1 695.681 82.7008 101
   5   4  -1 702.159 133.833  64
   5   4  -1 642.867 77.6969 100
  -5  -4   1 716.416 86.8006 102
  -5  -4   1 674.765 123.922   1
   5   4  -1 658.279 79.9360  99
   5   4  -1 708.107 82.5476  98
   5   4  -1 705.218 81.9709  97
  -5  -4   1 963.027 153.788  40
  -5  -4   1 666.859 127.453  96
   5   4  -1 510.801 116.392  95
   5   4  -1 763.000 81.0980  58
   5   4  -1 580.664 128.046  94
  -5  -4   1 647.828 127.574  93
   5   4  -1 694.396 77.9410  56
  -5  -4   1 740.271 137.143  92
   5   4  -1 891.208 144.017  38
  -5  -4   1 566.800 126.212  91
   5   4  -1 600.376 127.583  90
  -5  -4   1 726.287 83.5204  89
  -5  -4   1 699.810 82.4843  86
  -5  -4   1 737.787 83.1147  52
  -5  -4   1 663.716 81.8448 107
   5   4  -1 726.356 75.7325  84
   5   4  -1 647.625 74.1807  83
  -5  -4   1 659.270 70.6983  44
  -5  -4   1 697.596 82.9750 105
  -5  -4   1 712.685 83.2597   8
  -5  -4   1 595.958 124.837  35
  -5  -4   1 838.940 87.5939  78
   5   4   0 623.438 124.130  34
  -5  -4   0 701.992 78.3732  48
  -5  -4   0 700.360 81.6339 105
   5   4   0 750.208 78.7759  72
   5   4   0 621.240 69.3544  45
  -5  -4   0 488.975 107.516  68
  -5  -4   0 755.582 81.7923 104
  -5  -4   0 760.582 132.144   1
   5   4   0 684.094 79.5320 101
   5   4   0 637.741 115.377  64
   5   4   0 610.713 76.5028 100
  -5  -4   0 754.164 117.702  63
   5   4   0 674.601 78.3888  99
   5   4   0 758.438 80.6222  98
   5   4   0 734.893 81.6377  97
  -5  -4   0 741.344 135.969  40
  -5  -4   0 664.479 126.929  96
   5   4   0 738.747 139.117  95
   5   4   0 724.934 77.7035  58
   5   4   0 629.799 124.034  94
  -5  -4   0 621.074 127.991  93
   5   4   0 698.005 75.1574  56
  -5  -4   0 610.895 118.953  92
   5   4   0 1134.87 154.949  38
  -5  -4   0 513.613 112.750  91
   5   4   0 875.051 149.246  90
  -5  -4   0 648.304 85.3189  89
  -5  -4   0 644.240 77.4846  86
  -5  -4   0 694.684 76.3530  52
   5   4   0 699.323 76.6610  84
   5   4   0 673.780 75.9294  83
  -5  -4   0 695.882 78.3918   8
  -5  -4   0 636.114 122.439  35
  -5  -4   0 669.304 75.2459  78
  -5  -4   0 708.029 79.4722 107
  -5  -4  -1 4439.66 190.951  48
   5   4   1 4835.26 188.214  72
   5   4   1 4634.99 181.195  70
   5   4   1 4563.44 185.138  45
  -5  -4  -1 4590.45 198.511 105
  -5  -4  -1 4332.32 302.787   1
  -5  -4  -1 4639.16 195.004 104
   5   4   1 4657.90 201.220 101
  -5  -4  -1 4786.65 322.438  63
   5   4   1 4659.90 198.674 100
   5   4   1 4651.18 198.032  99
   5   4   1 4619.06 197.763  98
  -5  -4  -1 4163.85 292.651  40
   5   4   1 4693.58 197.699  97
  -5  -4  -1 4299.17 320.907  96
   5   4   1 4026.37 315.856  95
   5   4   1 4445.93 176.842  58
   5   4   1 3758.17 301.342  94
  -5  -4  -1 3888.39 311.453  93
   5   4   1 4472.96 181.422  56
  -5  -4  -1 4173.15 316.839  91
   5   4   1 4097.62 318.955  90
  -5  -4  -1 4486.54 200.704  89
   5   4   1 4792.50 296.379  64
  -5  -4  -1 4130.13 172.666  87
  -5  -4  -1 4470.89 193.969  86
  -5  -4  -1 4703.57 202.716 107
   5   4   1 4822.30 191.998  84
  -5  -4  -1 4801.81 191.422  52
   5   4   1 4664.52 189.838  83
  -5  -4  -1 4945.51 343.485  35
  -5  -4  -1 4712.77 185.662  78
   5   4   1 4196.97 311.647  34
   5   4   2 72.8584 45.0796  34
  -5  -4  -2 20.6643 33.9439   1
   5   4   2 40.3692 22.7231  72
   5   4   2 25.3205 20.4170  70
   5   4   2 206.333 49.3252  14
   5   4   2 123.671 36.2374  45
  -5  -4  -2 98.2065 38.6179 107
  -5  -4  -2 99.5583 38.5073 105
  -5  -4  -2 122.156 36.1827 104
  -5  -4  -2-151.779 60.8338  65
   5   4   2-22.0260 23.6004  28
   5   4   2 50.7000 25.8480 101
  -5  -4  -2-134.377 62.7498  63
   5   4   2 105.427 38.4267 100
   5   4   2 60.1406 34.7670  99
   5   4   2 16.7562 22.1012  98
   5   4   2 19.2924 23.6025  97
  -5  -4  -2-191.579 61.6992  40
  -5  -4  -2 261.896 87.0792  96
   5   4   2-110.748 49.8954  95
   5   4   2-17.8908 27.0266  58
   5   4   2 95.1015 46.9847  94
  -5  -4  -2 27.3432 47.6132  93
   5   4   2 24.5965 22.3354  56
  -5  -4  -2 230.576 79.5237  91
   5   4   2 141.410 58.1462  90
  -5  -4  -2 37.9045 36.4486  89
   5   4   2 38.1787 23.2549  53
  -5  -4  -2-4.79156 33.0416  86
   5   4   2 14.7938 25.0228  84
   5   4   2 93.7593 48.6271  36
  -5  -4  -2 44.3050 33.7336  52
   5   4   2 30.4086 25.9538  83
  -5  -4  -2 99.1166 64.1759  35
  -5  -4  -2 252.567 48.5837  78
   5   4   3 3202.95 148.771  72
   5   4   3 3214.59 160.999  70
   5   4   3 3392.37 163.236  45
   5   4   3 3528.86 175.432  14
  -5  -4  -3 3181.80 161.172 105
  -5  -4  -3 3100.48 158.143 104
  -5  -4  -3 3924.99 298.999  65
   5   4   3 3478.44 164.620  28
  -5  -4  -3 3209.40 165.252 107
   5   4   3 3199.14 161.259 101
  -5  -4  -3 3653.29 301.109  63
  -5  -4  -3 3214.36 254.462   1
   5   4   3 2969.08 156.284 100
   5   4   3 3009.34 158.466  99
   5   4   3 3292.64 164.945  98
   5   4   3 3372.10 164.718  97
  -5  -4  -3 3065.55 263.322  96
   5   4   3 2763.84 256.120  95
   5   4   3 2846.97 259.209  94
  -5  -4  -3 2763.22 252.177  93
  -5  -4  -3 2636.97 242.400  91
   5   4   3 3319.41 280.191  90
   5   4   3 3337.00 162.906  53
  -5  -4  -3 3368.71 171.642  86
   5   4   3 3264.22 276.765  36
   5   4   3 3650.89 172.238  84
  -5  -4  -3 3343.38 161.952  52
   5   4   3 3318.16 159.099  83
  -5  -4  -3 3835.45 303.340  35
  -5  -4  -3 3375.47 158.063  78
   5   4   4 71173.3 722.859  46
   5   4   4 69500.2 755.126  70
  -5  -4  -4 69180.3 726.648 107
   5   4   4 69753.2 737.578  45
   5   4   4 67883.2 776.398  14
  -5  -4  -4 77108.3 1386.54  65
   5   4   4 65513.7 740.727  28
  -5  -4  -4 77256.6 1429.58  63
   5   4   4 65398.1 712.966 100
   5   4   4 66282.6 709.328  99
  -5  -4  -4 68360.5 708.923 104
   5   4   4 68051.0 719.506  98
   5   4   4 67867.5 709.965  97
  -5  -4  -4 64184.8 1172.24  96
   5   4   4 61887.1 1188.28  95
   5   4   4 63442.2 1178.68  94
  -5  -4  -4 62364.7 1173.20  93
  -5  -4  -4 65018.3 1183.83  91
   5   4   4 61663.7 1187.66  90
  -5  -4  -4 73751.5 1220.21   1
   5   4   4 69638.0 758.609  53
   5   4   4 68473.7 744.944  84
   5   4   4 74436.8 1377.41  36
  -5  -4  -4 70117.9 750.589  52
   5   4   4 66777.0 706.173  83
  -5  -4  -4 74301.2 1326.84  35
  -5  -4  -4 68439.7 714.827 105
  -5  -4  -4 68604.3 712.763  78
   5   4   4 66565.0 724.136 101
   5   4   5 962.443 90.7769  46
   5   4   5 820.468 85.6489  70
   5   4   5 721.350 76.7738  45
   5   4   5 789.016 88.7774  14
   5   4   5 781.377 85.7072  28
  -5  -4  -5 978.735 168.939  65
  -5  -4  -5 1057.63 166.509  63
   5   4   5 829.503 88.9697  53
   5   4   5 938.954 88.2738  84
   5   4   5 624.569 132.770  36
  -5  -4  -5 876.651 85.3323  78
   5   4   6 16502.3 373.270  46
   5   4   6 15876.3 357.217  70
   5   4   6 15686.9 370.834  28
   5   4   6 15338.0 364.556  14
   5   4   6 15622.1 364.885  53
   5   4   6 16649.1 343.981  84
   5   4   6 15796.9 378.034  51
  -5  -4  -6 16688.1 341.705  78
   5   4   7 3912.12 179.236  46
   5   4   7 3845.73 172.468  15
   5   4   7 3835.64 175.857  28
   5   4   7 3717.46 168.947  53
   5   4   7 3693.81 174.661  51
  -5  -4  -7 3791.60 154.366  78
   5   4   8 3901.38 162.197  15
   5   4   8 4155.06 159.207  28
   5   4   8 3647.13 153.401  26
  -5  -4  -8 3774.69 141.809  86
   5   4   8 3741.99 153.482  51
   5   4   9 5921.55 169.446  15
   5   4   9 5654.86 133.927  12
  -5  -4  -9 5961.30 155.010  52
  -5  -5   6 42.2663 21.0818  48
   5   5  -6-2.97743 15.6513  75
   5   5  -6-5.04654 16.6598  73
   5   5  -6 11.2837 13.4821  61
   5   5  -6 8.39245 12.9010  60
  -5  -5   6 8.18736 16.8920  88
   5   5  -6 17.5116 18.0616  79
   5   5  -5 1394.02 92.0557  73
   5   5  -5 1487.81 92.8735  60
  -5  -5   5 1320.02 82.3873  59
   5   5  -5 1292.46 76.6740  58
  -5  -5   5 1287.05 90.3623  89
  -5  -5   5 1315.72 98.7695  88
  -5  -5   5 1266.33 87.2248  86
  -5  -5   5 1253.71 87.0318  52
   5   5  -5 1278.28 87.6409  79
  -5  -5   5 1307.63 92.7516   7
  -5  -5   5 1248.52 87.1991  48
  -5  -5   4 22065.6 409.419  48
  -5  -5   4 22910.7 434.532   7
   5   5  -4 22301.1 399.734  73
   5   5  -4 21071.6 363.514 105
   5   5  -4 21842.2 368.001 103
   5   5  -4 22158.5 363.068  99
   5   5  -4 21526.9 359.129  98
   5   5  -4 21701.0 358.273  97
   5   5  -4 21986.8 398.495  60
  -5  -5   4 20873.0 376.767  59
   5   5  -4 21745.0 377.746  58
   5   5  -4 21939.1 352.278  56
  -5  -5   4 22392.1 389.137  21
  -5  -5   4 21400.1 412.533  89
  -5  -5   4 21422.4 402.912  86
  -5  -5   4 21001.9 389.180  52
  -5  -5   4 21284.2 398.199  78
  -5  -5   3 20.4449 31.7676  48
  -5  -5   3 21.6222 27.1425   7
   5   5  -3 68.8345 36.7524  73
   5   5  -3 1.96234 19.8255  72
  -5  -5   3 12.3773 20.9161  16
  -5  -5   3-3.68841 23.1514 104
  -5  -5   3 3.45534 22.2725 102
   5   5  -3 27.2530 27.9629 100
   5   5  -3 27.6182 24.7798  99
   5   5  -3 48.5141 32.4585  98
   5   5  -3 31.1732 30.7731  60
   5   5  -3 4.98298 22.5219  97
   5   5  -3 53.4135 34.7113  58
   5   5  -3 29.2440 26.1280  56
   5   5  -3 41.3480 24.4567 103
  -5  -5   3 25.6311 32.9766  89
  -5  -5   3-2.41338 18.9755 107
  -5  -5   3 28.0851 34.7497  86
  -5  -5   3 2.35003 30.0332  52
  -5  -5   3 63.6524 38.5506  78
  -5  -5   2 2253.08 147.549  48
  -5  -5   2 2398.35 143.595  16
   5   5  -2 2425.95 138.716  73
   5   5  -2 2555.93 143.343  72
  -5  -5   2 2586.76 153.170 107
  -5  -5   2 2323.00 145.195 104
   5   5  -2 2517.88 152.131 103
  -5  -5   2 2423.52 150.264 102
   5   5  -2 2346.67 146.785 100
   5   5  -2 2504.30 149.801  99
   5   5  -2 2424.26 148.196  98
   5   5  -2 2429.77 146.875  97
   5   5  -2 2341.90 142.021  60
   5   5  -2 2416.78 143.484  58
   5   5  -2 2396.32 141.199  56
  -5  -5   2 2346.11 151.077  89
  -5  -5   2 2289.12 147.521  86
  -5  -5   2 2637.24 149.763  52
   5   5  -2 2420.13 130.604  83
  -5  -5   2 2296.07 148.635   8
  -5  -5   2 2453.66 146.737  78
  -5  -5   2 2462.36 133.909  49
  -5  -5   1 2859.87 165.859  48
   5   5  -1 2723.00 142.546  73
  -5  -5   1 2822.63 160.470  16
   5   5  -1 2693.02 149.954  72
   5   5  -1 2944.99 169.677 103
  -5  -5   1 2761.77 260.725  68
  -5  -5   1 2919.27 164.433 104
   5   5  -1 3030.30 274.097  64
  -5  -5   1 2830.16 166.531 102
  -5  -5   1 2937.56 263.226   1
   5   5  -1 2886.94 164.725 100
  -5  -5   1 2831.59 164.529 107
   5   5  -1 2735.32 159.424  99
   5   5  -1 2783.62 162.880  98
   5   5  -1 2791.66 160.683  97
   5   5  -1 2724.39 148.689  60
   5   5  -1 2955.37 160.185  58
   5   5  -1 2863.41 156.441  56
   5   5  -1 3580.53 308.272  38
  -5  -5   1 2830.94 168.897  89
  -5  -5   1 2936.57 165.099  86
  -5  -5   1 2890.31 156.870  52
   5   5  -1 3005.09 149.089  84
   5   5  -1 2923.77 152.196  83
  -5  -5   1 2755.67 159.165   8
  -5  -5   1 2553.05 260.433  35
  -5  -5   1 2681.97 150.945  78
  -5  -5   1 2606.32 148.462  49
   5   5  -1 3276.25 284.322  34
   5   5   0 565.033 135.575  34
  -5  -5   0 446.634 70.5118  48
   5   5   0 581.822 72.4288  72
  -5  -5   0 552.670 72.0123  16
   5   5   0 510.931 64.8358  45
  -5  -5   0 467.863 70.2401 107
  -5  -5   0 579.657 116.668  68
  -5  -5   0 532.101 73.9107 104
   5   5   0 490.509 69.3364 103
   5   5   0 403.434 93.9624  64
   5   5   0 514.686 71.5533 100
   5   5   0 570.234 77.1173  99
   5   5   0 549.426 74.9153  98
   5   5   0 567.074 75.7141  97
   5   5   0 531.128 64.9238  60
  -5  -5   0 717.097 137.923  40
  -5  -5   0 468.369 112.071  96
   5   5   0 506.070 129.611  95
   5   5   0 502.532 68.2235  58
   5   5   0 337.932 110.589  94
  -5  -5   0 440.024 114.659  93
  -5  -5   0 619.461 128.887   1
   5   5   0 493.745 66.9567  56
  -5  -5   0 527.021 125.787  92
   5   5   0 562.402 139.223  38
  -5  -5   0 585.995 135.286  91
   5   5   0 452.888 130.684  90
  -5  -5   0 530.567 76.8884  89
  -5  -5   0 574.396 76.6145 102
  -5  -5   0 500.814 74.7402  86
  -5  -5   0 540.045 68.8711  52
   5   5   0 529.444 68.3158  84
   5   5   0 639.333 76.3908  83
  -5  -5   0 636.483 79.9601   8
  -5  -5   0 1040.58 169.500  35
  -5  -5   0 536.314 69.6024  78
  -5  -5   0 456.114 67.0323  49
   5   5   1-65.0449 71.1022  34
  -5  -5  -1 169.545 46.2424  48
   5   5   1 217.291 48.2897  72
  -5  -5  -1 190.160 46.8710  16
   5   5   1 167.834 39.6323  45
  -5  -5  -1 226.632 51.3570 107
  -5  -5  -1 217.991 48.0480 105
  -5  -5  -1 202.157 47.9172 104
   5   5   1 295.149 55.7599 103
  -5  -5  -1 287.603 58.1029 102
   5   5   1 406.059 63.2209 101
  -5  -5  -1 442.747 102.224  63
   5   5   1 341.105 60.8759 100
   5   5   1 447.225 67.4337  99
   5   5   1 352.634 59.9306  98
   5   5   1 300.936 51.0664  60
   5   5   1 312.990 56.4978  97
  -5  -5  -1 181.536 94.4622   1
  -5  -5  -1 387.506 106.683  96
   5   5   1 517.803 121.640  95
   5   5   1 166.659 44.1707  58
   5   5   1 375.282 98.0526  94
  -5  -5  -1 285.513 93.1824  93
  -5  -5  -1 78.6558 55.7836  92
   5   5   1 220.010 49.6323  56
   5   5   1 50.8840 52.9985  38
  -5  -5  -1 402.533 103.767  91
   5   5   1 209.911 76.2574  90
  -5  -5  -1 252.261 63.8560  89
  -5  -5  -1 187.856 47.4498  86
   5   5   1 204.775 48.1900  84
  -5  -5  -1 220.575 47.7208  52
   5   5   1 229.171 49.7875  83
  -5  -5  -1 302.164 87.8818  35
  -5  -5  -1 166.467 45.7181  78
  -5  -5  -2 9279.88 288.039  48
  -5  -5  -2 10372.7 491.532   1
   5   5   2 9686.30 274.945  72
  -5  -5  -2 9415.40 280.302  16
   5   5   2 9314.29 271.921  70
   5   5   2 9015.43 270.913  45
  -5  -5  -2 9436.76 289.801 105
  -5  -5  -2 9821.15 289.077 104
   5   5   2 9653.17 261.759  28
   5   5   2 9588.28 293.643 103
  -5  -5  -2 9698.99 294.349 102
   5   5   2 9661.25 295.727 101
  -5  -5  -2 10396.3 516.239  63
   5   5   2 9638.84 289.502 100
   5   5   2 9186.34 283.280  99
   5   5   2 9588.23 289.743  98
   5   5   2 9612.47 286.821  97
  -5  -5  -2 9472.61 491.846  96
   5   5   2 9315.82 498.077  95
   5   5   2 9378.52 269.516  58
   5   5   2 8989.91 482.709  94
  -5  -5  -2 8868.57 478.305  93
   5   5   2 9371.00 270.228  56
  -5  -5  -2 9060.86 485.667  92
  -5  -5  -2 9283.09 486.940  91
   5   5   2 9156.82 491.629  90
  -5  -5  -2 9846.96 295.317 107
  -5  -5  -2 8979.56 296.298  89
   5   5   2 9594.08 269.211  53
  -5  -5  -2 9440.06 288.268  86
   5   5   2 9881.88 476.061  36
   5   5   2 9394.49 279.002  84
  -5  -5  -2 9342.36 269.804  52
   5   5   2 9205.15 276.591  83
  -5  -5  -2 10525.6 527.384  35
  -5  -5  -2 9546.34 263.615  78
   5   5   3 5784.54 208.799  72
  -5  -5  -3 6529.68 386.794   1
   5   5   3 5584.71 215.552  70
  -5  -5  -3 5792.47 217.151 104
   5   5   3 5430.77 214.400  45
   5   5   3 5495.04 207.771  28
  -5  -5  -3 6319.47 388.824  65
   5   5   3 5578.75 217.135 101
  -5  -5  -3 5778.11 392.886  63
   5   5   3 5638.13 216.752 100
   5   5   3 5491.71 213.493  99
   5   5   3 5682.74 217.913  98
   5   5   3 5639.54 215.533  97
  -5  -5  -3 4600.62 336.902  96
   5   5   3 5062.29 355.818  95
   5   5   3 5790.02 205.525  58
   5   5   3 5126.04 358.635  94
  -5  -5  -3 5278.83 361.834  93
   5   5   3 5581.51 204.988  56
  -5  -5  -3 5022.77 352.965  92
  -5  -5  -3 5347.93 363.981  91
   5   5   3 4822.28 348.162  90
  -5  -5  -3 5721.07 234.212  89
   5   5   3 5663.31 214.006  53
  -5  -5  -3 5647.16 224.893  86
   5   5   3 5911.67 382.884  36
   5   5   3 5455.05 217.156  84
  -5  -5  -3 5749.69 218.483 105
  -5  -5  -3 5715.97 212.661  52
   5   5   3 5518.36 212.667  83
  -5  -5  -3 5702.35 391.466  35
  -5  -5  -3 5597.01 198.911  78
  -5  -5  -3 5682.74 218.774 107
   5   5   4 5911.52 202.004  72
  -5  -5  -4 5851.43 213.323 105
  -5  -5  -4 5983.74 208.443  16
   5   5   4 5679.39 221.448  70
   5   5   4 5842.45 221.763  45
  -5  -5  -4 5918.90 213.025 107
   5   5   4 5715.39 212.707 101
  -5  -5  -4 5702.91 207.176 104
  -5  -5  -4 6557.64 382.710   1
   5   5   4 5947.89 223.212  28
  -5  -5  -4 6233.12 404.953  65
   5   5   4 5705.69 212.471 103
  -5  -5  -4 5816.25 213.547 102
  -5  -5  -4 7144.53 445.870  63
   5   5   4 5629.97 208.272 100
   5   5   4 6068.94 214.102  99
   5   5   4 5703.13 208.585  98
   5   5   4 5847.20 209.969  97
  -5  -5  -4 5745.61 232.975  89
   5   5   4 6012.60 225.957  53
  -5  -5  -4 6306.00 233.699  86
   5   5   4 6913.07 435.133  36
   5   5   4 5697.47 221.944  84
  -5  -5  -4 6006.59 218.670  52
   5   5   4 5681.75 211.872  83
  -5  -5  -4 6521.19 415.336  35
   5   5   5 1993.96 133.508  70
   5   5   5 2005.15 129.683  45
   5   5   5 1873.43 130.192  28
   5   5   5 1948.89 132.702  53
  -5  -5  -5 2059.89 133.952  86
   5   5   5 2030.60 133.881  84
  -5  -5  -5 1972.35 127.198  52
   5   5   5 2082.90 123.549  83
   5   5   6 5202.12 195.397  45
   5   5   6 5336.03 195.766  15
   5   5   6 5189.55 212.465  28
   5   5   6 5054.15 208.732  53
  -5  -5  -6 5269.40 199.562  86
   5   5   6 5193.82 202.372  84
  -5  -5  -6 5348.55 198.089  52
   5   5   6 4853.37 208.416  51
   5   5   7 420.303 55.9006  15
   5   5   7 434.075 62.9690  28
   5   5   7 390.723 58.5914  53
  -5  -5  -7 430.266 55.4686  86
  -5  -5  -7 397.370 55.5989  52
   5   5   7 404.418 61.1514  51
   5   5   8 1188.68 85.4799  15
   5   5   8 1154.32 87.3007  28
   5   5   8 1249.78 93.8090  26
  -5  -5  -8 1231.93 81.2129  52
   5   5   8 1253.27 92.3076  51
   5   5   9 12666.7 234.470  15
   5   5   9 11951.8 224.708  26
  -5  -5  -9 11760.0 212.901  89
  -5  -5  -9 12083.1 192.627  52
   5   5   9 12420.6 228.064  51
   5   6  -5 6300.95 143.061  75
   5   6  -5 6450.77 148.899  73
   5   6  -5 6013.99 143.583  61
   5   6  -5 6650.63 144.150  60
  -5  -6   5 6355.55 155.579  89
  -5  -6   5 6003.84 160.325  88
   5   6  -5 6323.98 146.806  79
  -5  -6   5 6071.55 157.758  18
  -5  -6   5 6501.49 154.059  48
   5   6  -4 9249.91 211.945  75
   5   6  -4 9515.86 224.235  73
   5   6  -4 9210.59 221.737  60
   5   6  -4 8962.89 193.419  58
  -5  -6   4 9139.68 234.444  89
  -5  -6   4 8751.73 244.125  88
  -5  -6   4 9224.85 228.801  86
  -5  -6   4 8922.30 201.441  52
   5   6  -4 9152.92 222.547  79
  -5  -6   4 9119.76 234.614   7
  -5  -6   4 9286.82 229.648  48
  -5  -6   3 18620.2 364.247  48
  -5  -6   3 18769.9 378.519   7
   5   6  -3 18435.7 328.731  75
   5   6  -3 18444.4 347.900  73
  -5  -6   3 18569.0 347.513 107
   5   6  -3 17773.9 344.821 105
   5   6  -3 17750.4 344.861 103
  -5  -6   3 18259.6 349.003 102
  -5  -6   3 18265.4 347.165 101
   5   6  -3 17737.2 338.564  99
   5   6  -3 17487.2 337.313  98
   5   6  -3 18033.4 340.656  97
   5   6  -3 18316.6 356.848  60
   5   6  -3 18103.0 319.236  56
  -5  -6   3 18254.4 373.715  89
  -5  -6   3 18222.5 366.056  86
  -5  -6   3 17957.9 327.941  52
   5   6  -3 18833.7 352.175  79
  -5  -6   3 18560.4 345.654  78
  -5  -6   2 549.437 71.3555  48
  -5  -6   2 653.090 78.7831   7
  -5  -6   2 580.538 70.4406  16
   5   6  -2 622.559 70.4346  73
   5   6  -2 566.864 65.3996  72
  -5  -6   2 501.010 67.9316 107
  -5  -6   2 565.707 71.4105 104
   5   6  -2 546.310 71.5581 103
   5   6  -2 579.283 73.4916 100
   5   6  -2 615.651 75.4101  99
   5   6  -2 584.030 73.8054  98
   5   6  -2 514.611 67.7621  97
   5   6  -2 563.969 69.2571  60
   5   6  -2 558.693 69.3524  58
   5   6  -2 590.261 67.2169  56
  -5  -6   2 453.065 65.3601 101
  -5  -6   2 518.561 73.9959  89
  -5  -6   2 528.077 69.3983 102
  -5  -6   2 579.431 74.0855  86
  -5  -6   2 587.144 66.8008  52
   5   6  -2 590.144 74.6854 105
  -5  -6   2 564.079 67.3173  78
  -5  -6   2 585.640 67.5403  49
  -5  -6   1 312.470 60.3734  48
  -5  -6   1 446.396 67.3892   7
  -5  -6   1 359.589 60.1732  16
   5   6  -1 353.372 56.1956  73
   5   6  -1 325.149 54.7833  72
  -5  -6   1 319.811 59.0473 107
  -5  -6   1 327.392 58.7449 104
   5   6  -1 389.777 63.9639 103
  -5  -6   1 326.024 58.6144 102
   5   6  -1 321.791 59.6971 100
   5   6  -1 356.560 63.9665  99
   5   6  -1 367.240 62.9941  98
   5   6  -1 422.168 67.5121  97
   5   6  -1 369.541 57.8557  60
   5   6  -1 374.158 60.9720  58
   5   6  -1 366.736 61.2218  56
  -5  -6   1 283.408 63.3320  89
  -5  -6   1 280.172 59.1166  86
   5   6  -1 349.192 54.3347  83
  -5  -6   1 359.038 53.8953  52
  -5  -6   1 422.193 61.7622  78
  -5  -6   1 370.608 60.9653  49
  -5  -6   0 694.527 85.3009  48
  -5  -6   0 750.924 80.8077  74
   5   6   0 843.525 79.3600  73
  -5  -6   0 802.248 88.3384  16
   5   6   0 709.450 82.2752  72
   5   6   0 786.920 76.2333  45
  -5  -6   0 913.121 95.4806 107
  -5  -6   0 744.641 88.3536 104
   5   6   0 812.375 92.1864 103
  -5  -6   0 781.339 90.8775 102
   5   6   0 928.551 97.0629 100
   5   6   0 806.226 89.5276  99
   5   6   0 814.611 90.9817  98
   5   6   0 879.800 84.6183  60
   5   6   0 787.280 88.4023  97
   5   6   0 821.523 87.0309  58
   5   6   0 811.160 85.2344  56
  -5  -6   0 710.944 86.9604  89
  -5  -6   0 804.550 91.4204  86
  -5  -6   0 834.534 80.3249  52
   5   6   0 866.448 82.1653  84
   5   6   0 832.685 85.8656  83
  -5  -6   0 784.473 79.2545  78
  -5  -6   0 887.259 90.9550  49
  -5  -6  -1 236.380 57.1282  48
  -5  -6  -1 288.526 53.8164  74
   5   6   1 242.851 50.7667  72
  -5  -6  -1 263.659 56.9334  16
   5   6   1 281.855 50.1106  45
  -5  -6  -1 320.679 57.7655 107
  -5  -6  -1 254.231 53.1499 104
   5   6   1 316.847 60.4757 103
  -5  -6  -1 287.643 56.9389 102
   5   6   1 306.256 57.9174 100
   5   6   1 311.709 60.2639  99
   5   6   1 300.883 57.9574  98
   5   6   1 365.386 63.3843  97
   5   6   1 386.865 57.2572  60
   5   6   1 271.293 54.2690  58
   5   6   1 288.277 57.8218  56
  -5  -6  -1 296.771 66.2194  89
  -5  -6  -1 265.215 56.5329  86
   5   6   1 299.471 54.5380  84
  -5  -6  -1 368.014 57.4049  52
   5   6   1 299.355 55.5601  83
  -5  -6  -1 246.877 54.7761  49
  -5  -6  -2 12356.9 334.901  48
  -5  -6  -2 12712.3 324.119  74
  -5  -6  -2 12218.3 322.950  16
   5   6   2 12199.6 318.800  72
   5   6   2 12251.5 318.627  45
  -5  -6  -2 12247.5 334.008 107
  -5  -6  -2 12522.7 332.347 104
   5   6   2 12339.6 338.335 103
  -5  -6  -2 12200.8 335.745 102
   5   6   2 11970.7 327.395 100
   5   6   2 12154.4 328.859  99
   5   6   2 12059.1 329.329  98
   5   6   2 12036.1 326.717  97
   5   6   2 11995.8 316.250  58
   5   6   2 12367.4 320.304  56
  -5  -6  -2 12056.5 338.680  89
  -5  -6  -2 12504.4 329.586  86
   5   6   2 12125.4 319.727  84
  -5  -6  -2 12537.2 304.878  52
   5   6   2 12011.1 325.022  83
  -5  -6  -2 12820.8 337.060  49
  -5  -6  -3 3336.21 176.230  48
  -5  -6  -3 3453.57 165.884  16
   5   6   3 3228.62 162.033  72
   5   6   3 3186.14 164.965  45
  -5  -6  -3 3477.49 171.615 107
  -5  -6  -3 3432.84 170.883 104
   5   6   3 3618.58 162.177  28
   5   6   3 3467.00 174.254 103
  -5  -6  -3 3449.18 172.875 102
   5   6   3 3347.71 171.092 100
   5   6   3 3463.36 172.357  99
   5   6   3 3382.69 170.100  98
   5   6   3 3379.05 168.423  97
   5   6   3 3853.87 174.810  58
   5   6   3 3363.80 165.835  56
  -5  -6  -3 3659.13 187.590  89
   5   6   3 3313.86 164.491  53
  -5  -6  -3 3370.61 172.554  86
   5   6   3 3160.97 168.057  84
   5   6   3 3305.01 170.543  83
  -5  -6  -4 17648.0 403.711  48
  -5  -6  -4 18519.7 358.816  16
   5   6   4 18340.7 366.976  72
   5   6   4 17411.1 384.540  45
   5   6   4 19065.7 388.428  28
   5   6   4 18373.2 376.469 103
  -5  -6  -4 18360.1 373.253 102
   5   6   4 18145.9 368.668 100
   5   6   4 18225.7 367.332  99
   5   6   4 17988.5 367.035  98
   5   6   4 18143.8 366.564  97
   5   6   4 18253.4 365.632  58
   5   6   4 18223.4 369.997  56
  -5  -6  -4 17546.5 402.799  89
   5   6   4 17852.6 386.968  53
  -5  -6  -4 19040.9 378.614 107
  -5  -6  -4 18654.5 387.471  86
   5   6   4 17510.4 390.870  84
   5   6   4 18050.9 382.402  83
  -5  -6  -4 18710.5 369.352 104
   5   6   5 4231.69 186.423  45
   5   6   5 4233.40 186.597  28
  -5  -6  -5 4127.32 193.102  89
   5   6   5 4188.28 190.753  53
  -5  -6  -5 4401.20 182.152  86
   5   6   5 4181.82 189.393  84
   5   6   5 4309.95 177.627  83
   5   6   5 3821.97 178.885  51
   5   6   6 968.468 86.5810  45
   5   6   6 1058.28 94.2441  28
   5   6   6 1142.04 96.8758  84
   5   6   6 1048.26 93.5065  51
   5   6   7 1716.27 99.1412  15
   5   6   7 1768.62 115.070  28
  -5  -6  -7 1689.15 108.221  89
   5   6   7 1856.00 110.715  84
   5   6   7 1666.01 111.633  51
   5   6   8 262.489 42.4923  26
  -5  -6  -8 305.087 42.7949  89
   5   6   8 321.568 47.6760  51
   5   6   9 1047.76 64.6664  26
   5   6   9 1118.18 66.6592  51
   5   7  -4 459.693 36.9113  73
   5   7  -4 430.458 36.0998  61
   5   7  -4 407.191 34.2799  60
  -5  -7   4 426.430 37.4276  89
   5   7  -4 393.093 33.7678  79
  -5  -7   4 402.434 37.7476  18
  -5  -7   4 376.246 34.6752  48
   5   7  -3 4468.53 139.473  73
   5   7  -3 3942.90 127.206 105
   5   7  -3 4231.61 131.117 103
   5   7  -3 4166.09 128.970  99
   5   7  -3 4123.51 128.129  98
   5   7  -3 4196.45 137.312  61
   5   7  -3 4406.05 142.149  60
   5   7  -3 4049.16 126.687  97
   5   7  -3 4012.25 117.928  58
  -5  -7   3 4265.64 147.713  89
  -5  -7   3 3683.11 136.112  88
  -5  -7   3 4261.01 144.636  86
   5   7  -3 4240.30 136.320  79
  -5  -7   3 4063.42 140.204   7
  -5  -7   3 4273.58 143.140  48
  -5  -7   2 1396.11 94.7105  48
   5   7  -2 1475.15 91.3764  73
   5   7  -2 1416.20 80.5960  72
  -5  -7   2 1426.17 93.9879 107
   5   7  -2 1327.62 93.4048 105
   5   7  -2 1260.10 91.1106 103
  -5  -7   2 1443.77 95.9726 102
  -5  -7   2 1287.90 90.6815 101
   5   7  -2 1344.76 92.7092  99
   5   7  -2 1426.65 95.6676  98
   5   7  -2 1497.14 96.5213  60
   5   7  -2 1486.82 96.3116  97
   5   7  -2 1408.32 88.9912  58
   5   7  -2 1373.55 82.9128  56
  -5  -7   2 1432.37 98.9047  89
  -5  -7   2 1267.38 91.3862  88
  -5  -7   2 1318.43 95.1522  86
   5   7  -2 1368.60 87.7353  79
  -5  -7   2 1365.41 95.9379  19
  -5  -7   2 1453.23 95.9299   7
  -5  -7   1 11.2125 30.5233  48
  -5  -7   1-3.86333 23.4570   7
   5   7  -1 27.8216 29.0888  73
   5   7  -1 43.1500 21.5839  72
  -5  -7   1 4.57016 21.3811 107
   5   7  -1 19.1938 23.3126 105
   5   7  -1-22.0662 25.7781 103
  -5  -7   1 10.1306 23.4076 102
  -5  -7   1 9.34708 22.6716 101
   5   7  -1 4.04800 26.9731  99
   5   7  -1 11.2692 22.7820  98
   5   7  -1 43.9442 30.8057  60
   5   7  -1-2.78876 25.2392  97
   5   7  -1 23.4751 24.3951  58
   5   7  -1 2.51732 21.7801  56
  -5  -7   1 37.0860 34.0053  89
  -5  -7   1 50.6078 32.3522  86
   5   7  -1 25.0593 17.8080  83
   5   7  -1 0.74084 24.3691  79
  -5  -7   1 25.6985 24.7018  49
  -5  -7   0 13450.6 299.970  76
  -5  -7   0 13936.3 333.346  48
  -5  -7   0 14559.4 313.492   7
  -5  -7   0 14084.6 314.331  74
  -5  -7   0 14000.6 333.252  16
   5   7   0 14633.8 300.337  73
   5   7   0 14114.7 323.385  72
   5   7   0 14701.8 305.206   6
  -5  -7   0 13832.8 343.064 107
   5   7   0 13395.5 341.897 105
  -5  -7   0 13820.9 339.183 104
   5   7   0 13707.8 345.274 103
  -5  -7   0 14018.5 347.508 102
  -5  -7   0 13443.2 342.085 101
   5   7   0 13258.2 334.583 100
   5   7   0 13749.8 339.794  99
   5   7   0 13568.7 338.654  98
   5   7   0 14162.7 314.358  60
   5   7   0 14091.6 343.972  97
   5   7   0 13882.4 327.397  58
   5   7   0 13622.9 317.625  56
  -5  -7   0 14177.1 339.330  89
  -5  -7   0 13843.5 327.728  86
   5   7   0 14355.5 317.881  83
  -5  -7   0 13981.6 322.620  49
  -5  -7  -1-1.73979 24.7933  76
  -5  -7  -1 3.02893 30.2112  48
  -5  -7  -1 28.2226 24.4603  74
   5   7   1 18.3047 24.5527  72
  -5  -7  -1 7.98067 27.4353  16
   5   7   1 23.0255 22.4236  45
  -5  -7  -1 19.9167 25.0825 107
   5   7   1 9.67155 22.0115   6
  -5  -7  -1 41.0238 32.9984 104
   5   7   1 26.6663 27.2601 103
  -5  -7  -1 24.0939 30.0819 102
   5   7   1 28.7184 23.3256 100
   5   7   1 27.1316 26.3434  99
   5   7   1 4.03984 24.6971  98
   5   7   1 13.2493 25.2161  60
   5   7   1 24.8035 28.9288  97
   5   7   1 47.2987 35.7545  58
   5   7   1 20.9767 25.0741  56
  -5  -7  -1-0.57920 32.7367  89
  -5  -7  -1 12.8531 29.5932  86
   5   7   1 50.9216 26.8712  84
   5   7   1 41.6111 30.1273  83
  -5  -7  -1 26.7141 32.7543  49
  -5  -7  -2 6833.57 239.765  48
  -5  -7  -2 6737.41 231.927  74
  -5  -7  -2 6760.74 232.207  16
   5   7   2 6748.53 232.073  72
   5   7   2 6639.00 224.804  45
   5   7   2 7075.03 238.315   6
  -5  -7  -2 7143.88 245.735 107
   5   7   2 6575.67 240.446 103
  -5  -7  -2 6989.22 246.038 102
   5   7   2 6503.71 234.770 100
   5   7   2 6791.87 238.213  99
   5   7   2 6879.43 240.742  98
   5   7   2 6916.72 209.560  60
   5   7   2 6816.46 239.032  97
   5   7   2 6849.06 233.375  58
   5   7   2 6401.24 229.829  56
  -5  -7  -2 6834.76 242.841  89
  -5  -7  -2 6789.46 237.275 104
  -5  -7  -2 6663.00 227.112  86
   5   7   2 6613.20 223.080  84
   5   7   2 6809.28 238.455  83
  -5  -7  -2 6402.17 238.185  49
  -5  -7  -3 3586.78 174.009  48
  -5  -7  -3 3653.80 175.225  74
  -5  -7  -3 3770.72 167.185  16
   5   7   3 3476.26 164.915  72
   5   7   3 3485.90 169.099  45
  -5  -7  -3 3634.89 169.636 107
  -5  -7  -3 3502.10 166.241 104
   5   7   3 3461.40 168.933 103
  -5  -7  -3 3530.82 170.233 102
   5   7   3 3507.89 168.585 100
   5   7   3 3471.49 165.939  99
   5   7   3 3552.17 167.762  98
   5   7   3 3653.11 169.495  97
   5   7   3 3505.50 166.511  58
   5   7   3 3526.58 167.338  56
  -5  -7  -3 3675.35 177.276  89
  -5  -7  -3 3658.23 166.398  86
   5   7   3 3450.39 167.564  84
   5   7   3 3524.94 172.328  83
  -5  -7  -3 3497.25 179.042  49
  -5  -7  -4 13918.1 336.790  48
  -5  -7  -4 13580.8 291.336  16
   5   7   4 13383.1 311.255  72
   5   7   4 13484.8 329.393  45
  -5  -7  -4 13389.8 297.254 104
   5   7   4 14823.0 309.927  28
   5   7   4 13653.8 305.946 103
  -5  -7  -4 13590.6 301.009 102
   5   7   4 13196.0 297.980 100
   5   7   4 13561.3 299.385  99
   5   7   4 13491.3 299.782  98
   5   7   4 13884.3 302.177  97
  -5  -7  -4 14013.4 304.366 107
   5   7   4 13321.6 311.382  58
   5   7   4 13408.3 314.729  56
  -5  -7  -4 13564.3 330.591  89
  -5  -7  -4 13918.6 305.326  86
   5   7   4 13190.0 326.014  84
   5   7   4 13412.0 323.524  83
   5   7   4 13012.6 282.998  51
  -5  -7  -4 13340.8 345.575  49
  -5  -7  -5 3690.05 171.668  48
   5   7   5 3820.59 154.026  72
   5   7   5 3718.97 169.451  45
   5   7   5 3837.86 168.103   6
   5   7   5 4062.52 168.925  28
   5   7   5 3776.95 154.986  58
   5   7   5 3686.71 154.768  56
  -5  -7  -5 3956.74 171.782  89
   5   7   5 3906.45 175.796  84
   5   7   5 3635.98 159.594  83
   5   7   5 3678.26 156.059  51
  -5  -7  -6 2914.44 144.849  48
   5   7   6 3180.39 148.796  45
   5   7   6 3083.40 138.989   6
   5   7   6 3020.81 144.817  28
  -5  -7  -6 2919.64 135.986  89
   5   7   6 2842.41 143.012  84
   5   7   6 2886.06 136.782  51
  -5  -7  -7 1159.50 85.1640  48
   5   7   7 1048.39 75.9875  71
   5   7   7 1142.03 80.7914  45
   5   7   7 1028.89 77.8384  26
  -5  -7  -7 1157.23 74.7306  89
   5   7   7 1115.01 83.5921  84
   5   7   7 1150.67 82.3090  51
  -5  -7  -8 1013.06 68.4731  48
   5   7   8 980.419 67.6403  26
   5   7   8 1004.87 68.4337  25
   5   7   8 1015.23 68.0172  51
   5   7   9 3107.01 93.0188  26
   5   7   9 3141.03 93.1464  51
   5   8  -2 2585.20 87.1827  73
  -5  -8   2 2581.67 89.2525 107
   5   8  -2 2548.83 90.1833 105
   5   8  -2 2467.58 89.5579 104
   5   8  -2 2591.96 90.6491 103
  -5  -8   2 2552.36 89.3026 102
  -5  -8   2 2604.25 90.3087 101
   5   8  -2 2496.24 88.3171  99
   5   8  -2 2552.47 89.3944  98
   5   8  -2 2736.81 94.3835  60
   5   8  -2 2428.89 86.8403  97
  -5  -8   2 2603.26 93.4622  89
  -5  -8   2 2498.21 90.9334  86
  -5  -8   2 2491.39 91.3829  19
  -5  -8   2 2297.46 89.5547  18
  -5  -8   2 2545.06 90.8696  48
  -5  -8   1 418.588 46.0607  48
   5   8  -1 398.495 39.8210  72
  -5  -8   1 456.454 48.2436 107
   5   8  -1 404.531 47.8908 105
   5   8  -1 491.866 50.8658 103
  -5  -8   1 462.019 48.9084 102
  -5  -8   1 417.500 47.8511 101
   5   8  -1 449.339 49.3742  99
   5   8  -1 414.381 48.1458  98
   5   8  -1 436.608 46.9508  60
   5   8  -1 483.621 50.4249  97
   5   8  -1 485.209 46.4936  58
   5   8  -1 378.743 39.3896  56
  -5  -8   1 462.121 49.3207  89
  -5  -8   1 453.428 47.6372  86
  -5  -8   1 459.634 50.8423  19
  -5  -8   1 457.245 46.3640  49
  -5  -8   0 838.031 71.0755  48
   5   8   0 843.810 67.9631  72
  -5  -8   0 914.152 74.9346 107
   5   8   0 883.463 75.4772 105
   5   8   0 978.221 79.8363 103
  -5  -8   0 966.259 78.7852 102
  -5  -8   0 916.727 76.7013 101
   5   8   0 868.451 74.4005  99
   5   8   0 886.411 75.0841  98
   5   8   0 902.037 69.9260  60
   5   8   0 940.666 76.0595  97
   5   8   0 823.866 70.5052  58
   5   8   0 808.946 68.0217  56
  -5  -8   0 922.092 73.9865  89
  -5  -8   0 848.003 68.7477  86
  -5  -8   0 837.728 75.8968  19
  -5  -8   0 892.122 71.9948  49
  -5  -8  -1 155.762 35.4411  76
  -5  -8  -1 160.139 38.1726  48
  -5  -8  -1 90.4969 30.8828  74
   5   8   1 107.689 31.3708  72
  -5  -8  -1 147.983 34.4725 107
   5   8   1 167.804 38.9899 105
   5   8   1 173.675 39.8502 103
  -5  -8  -1 199.222 40.7555 102
  -5  -8  -1 198.268 40.4047 101
   5   8   1 233.404 45.0407  99
   5   8   1 168.635 38.1598  98
   5   8   1 143.894 34.9884  60
   5   8   1 197.747 40.6621  97
   5   8   1 169.988 37.2873  58
   5   8   1 191.139 38.2086  56
  -5  -8  -1 116.226 33.3954  89
  -5  -8  -1 173.398 37.6899  86
   5   8   1 174.670 36.5180   6
  -5  -8  -1 151.502 38.3669  49
  -5  -8  -2 6021.28 208.017  76
  -5  -8  -2 6362.71 203.232  48
  -5  -8  -2 6118.83 202.475  74
   5   8   2 6464.31 205.587  72
   5   8   2 6671.71 205.597   6
   5   8   2 6393.76 189.354  45
  -5  -8  -2 6431.87 206.927 107
   5   8   2 6258.41 207.302 103
  -5  -8  -2 6257.53 205.590 102
  -5  -8  -2 6152.95 204.551 101
   5   8   2 6212.00 202.252  99
   5   8   2 6510.85 207.311  98
   5   8   2 6452.38 210.559 105
   5   8   2 6369.42 204.717  97
   5   8   2 6506.65 207.519  58
   5   8   2 6317.48 204.693  56
  -5  -8  -2 6360.42 199.448  89
  -5  -8  -2 6275.71 187.871  86
   5   8   2 6115.94 181.690  84
   5   8   2 6283.11 204.701  83
  -5  -8  -2 6443.71 210.726  49
  -5  -8  -3 2956.50 150.662  76
  -5  -8  -3 3349.60 150.106  48
  -5  -8  -3 3289.62 154.242  74
   5   8   3 3265.04 147.804  72
   5   8   3 3251.53 144.052  45
   5   8   3 3154.89 146.903   6
  -5  -8  -3 3320.59 142.126 107
   5   8   3 3267.29 144.779 105
   5   8   3 3288.07 144.591 103
  -5  -8  -3 3196.84 141.354 102
  -5  -8  -3 3048.62 139.202 101
   5   8   3 3315.97 142.220  99
   5   8   3 3361.45 143.223  98
   5   8   3 3279.63 141.241  97
   5   8   3 3452.18 151.722  58
   5   8   3 3232.65 146.909  56
  -5  -8  -3 3363.79 143.614  89
  -5  -8  -3 3193.39 127.658  86
   5   8   3 3310.20 141.611  84
   5   8   3 3226.24 149.646  83
  -5  -8  -3 3447.69 157.901  49
  -5  -8  -4 1896.23 111.099  48
  -5  -8  -4 1825.79 114.664  74
   5   8   4 1876.71 108.118  72
   5   8   4 1900.59 113.671  45
   5   8   4 1781.67 109.524   6
   5   8   4 1816.48 107.085  58
   5   8   4 1744.77 105.146  56
  -5  -8  -4 1812.01 101.265  89
   5   8   4 1782.29 106.672  84
   5   8   4 1747.74 108.341  83
  -5  -8  -4 1765.39 114.570  49
  -5  -8  -5 1512.76 94.9852  48
  -5  -8  -5 1503.44 103.597  74
   5   8   5 1475.16 98.0529  45
   5   8   5 1587.92 97.9286   6
   5   8   5 1675.38 95.9270  58
   5   8   5 1442.09 89.6746  56
   5   8   5 1560.40 99.9124  84
  -5  -8  -5 1499.99 101.159  49
  -5  -8  -6 1604.79 90.8284  48
  -5  -8  -6 1718.92 102.337  74
   5   8   6 1650.29 95.5764  71
   5   8   6 1690.09 91.2960   6
   5   8   6 1747.33 99.0758  45
   5   8   6 1537.90 75.3017  26
   5   8   6 1647.88 93.2210  25
   5   8   6 1763.27 100.451  84
   5   8   6 1540.41 75.3812  51
  -5  -8  -6 1755.69 102.109  49
  -5  -8  -7-34.0548 17.2578  48
   5   8   7 2.87020 14.5313  71
   5   8   7 30.2768 14.5611  26
   5   8   7 17.8899 16.7527  25
   5   8   7 27.7769 18.6773  84
   5   8   7 26.1150 14.7070  51
  -5  -8  -7-10.0842 16.9236  49
  -5  -8  -8 236.991 31.9335  74
   5   8   8 283.234 26.6950  26
   5   8   8 290.057 26.4823  51
  -5  -8  -8 197.531 26.5274  49
  -5  -9   0 68.7989 15.4420 107
   5   9   0 50.0045 16.2951 105
   5   9   0 51.9204 15.6775 104
   5   9   0 94.1773 18.4233 103
  -5  -9   0 75.4371 16.2874 102
  -5  -9   0 66.6012 15.6388 101
  -5  -9   0 66.9941 17.0669 100
   5   9   0 48.5866 15.4438  99
   5   9   0 37.0363 12.7575  98
   5   9   0 56.1190 14.6366  97
  -5  -9   0 51.5724 14.4374  19
  -5  -9   0 55.2728 15.4210  49
  -5  -9  -1 155.130 23.3469  48
   5   9   1 173.758 26.4084  72
  -5  -9  -1 201.993 28.5043 107
   5   9   1 172.507 28.3375 105
   5   9   1 218.997 30.1304 103
   5   9   1 140.678 22.0775  43
  -5  -9  -1 140.327 24.1281 102
  -5  -9  -1 161.548 26.1792 101
   5   9   1 187.243 28.2653  99
   5   9   1 245.002 32.2732  98
   5   9   1 180.574 27.1899  97
   5   9   1 184.172 27.7657  58
   5   9   1 137.948 23.6182  56
  -5  -9  -1 180.160 27.8306  19
  -5  -9  -1 176.217 27.9092  49
  -5  -9  -2 15008.3 222.010  48
  -5  -9  -2 15167.7 237.219  74
   5   9   2 15183.6 249.028  72
  -5  -9  -2 15390.5 236.038 107
  -5  -9  -2 15251.3 235.731 102
  -5  -9  -2 14723.1 233.677 101
   5   9   2 15082.7 247.852  58
   5   9   2 15232.4 248.674  56
  -5  -9  -2 14757.2 238.891  19
  -5  -9  -2 15356.3 253.731  49
  -5  -9  -2 14672.9 233.172  76
  -5  -9  -3 2051.71 94.7042  76
  -5  -9  -3 1835.26 80.4988  48
  -5  -9  -3 1987.94 93.1881  74
   5   9   3 1970.04 92.7083  72
   5   9   3 1919.30 90.1143   6
   5   9   3 1819.46 77.0684  71
  -5  -9  -3 1890.91 77.0641 107
  -5  -9  -3 1903.82 78.0147 102
  -5  -9  -3 1799.58 76.4665 101
   5   9   3 2017.80 93.3083  58
   5   9   3 2087.20 95.9176  56
  -5  -9  -3 1801.22 78.1941  19
  -5  -9  -3 2087.71 97.0101  49
  -5  -9  -4 18.7380 17.8598  76
  -5  -9  -4-6.64099 12.9527  48
  -5  -9  -4 36.1200 20.5457  74
   5   9   4 12.8677 15.9849  72
   5   9   4 20.3915 15.7356  71
   5   9   4 29.6688 19.5287   6
   5   9   4 35.8824 19.1187  58
   5   9   4 11.2929 14.5772  56
   5   9   4 27.3594 14.8210  84
  -5  -9  -4 40.4183 19.9295  49
  -5  -9  -5 1333.64 78.0737  76
  -5  -9  -5 1401.99 61.9992  48
  -5  -9  -5 1678.51 77.8048  33
  -5  -9  -5 1593.68 83.1533  74
   5   9   5 1583.09 77.6405   6
   5   9   5 1530.90 76.3179  71
   5   9   5 1669.92 77.9751  84
  -5  -9  -5 1347.03 74.1984  81
  -5  -9  -5 1616.95 82.7688  49
  -5  -9  -6 442.595 40.6575  76
  -5  -9  -6 538.154 45.0452  74
   5   9   6 588.217 44.6407  71
   5   9   6 567.529 37.4212  25
  -5  -9  -6 611.159 49.4150  81
  -5  -9  -6 564.766 44.1842  49
  -5  -9  -7 49.9130 15.0964  74
  -6   5   6 101.970 18.6416  71
   6  -5  -6 106.715 23.5196  27
   6  -5  -6 95.6310 21.9129  45
  -6   5   6 79.8560 21.1355  57
  -6   5   5 10583.4 163.771  71
   6  -5  -5 11202.0 219.053  27
  -6   5   5 10852.0 212.807  57
   6  -5  -5 10619.2 194.972  53
   6  -5  -5 10171.2 193.253  83
   6  -5  -4 9.66672 12.2410  46
   6  -5  -4 13.3011 14.2022  70
  -6   5   4 14.3280 18.4315  69
   6  -5  -4 7.38057 16.9570  27
  -6   5   4-7.17790 21.4816  57
  -6   5   4 3.98620 17.6711  55
   6  -5  -4 29.7105 20.1450  53
   6  -5  -3 3301.44 116.503  46
   6  -5  -3 3294.17 121.637  70
  -6   5   3 3274.91 121.439  69
   6  -5  -3 3474.96 129.604  27
  -6   5   3 3427.57 125.961  41
  -6   5   3 3303.95 129.484  57
  -6   5   3 3261.13 121.710  55
   6  -5  -3 3169.25 126.663  53
  -6   5   3 3295.06 124.104  77
  -6   5   2 1977.72 94.6045  75
   6  -5  -2 1991.51 84.1797  47
   6  -5  -2 2184.28 98.8823  46
   6  -5  -2 2160.21 101.726  70
  -6   5   2 2152.25 99.2839  69
   6  -5  -2 1878.44 83.9223 102
   6  -5  -2 2270.57 100.063  27
   6  -5  -2 1942.79 85.4369 101
   6  -5  -2 1891.09 83.3163 100
  -6   5   2 2184.36 102.665  41
  -6   5   2 2075.02 101.321  61
   6  -5  -2 1966.54 85.4865  98
  -6   5   2 2059.69 93.9736  55
   6  -5  -2 2041.18 85.8017  99
   6  -5  -2 2003.58 84.5607  20
   6  -5  -2 2139.11 103.018  53
  -6   5   2 2168.37 101.944  77
  -6   5   1 3855.09 118.209  75
   6  -5  -1 4475.19 130.369  47
   6  -5  -1 4642.03 141.609  46
   6  -5  -1 4509.11 142.401  70
  -6   5   1 4494.03 137.143  69
   6  -5  -1 4474.23 133.594  99
   6  -5  -1 4466.99 133.501 102
   6  -5  -1 4501.08 134.618 101
   6  -5  -1 4354.72 132.286 100
  -6   5   1 4474.62 141.169  41
  -6   5   1 4598.27 145.218  61
   6  -5  -1 4712.70 137.553  98
  -6   5   1 3963.96 117.218  55
   6  -5  -1 4690.33 141.462  53
   6  -5  -1 4578.22 134.307  20
   6  -5  -1 4528.60 136.775  83
  -6   5   1 4833.86 148.348  77
   6  -5   0 6804.63 154.536  47
   6  -5   0 7047.38 162.686  46
   6  -5   0 6909.56 160.080  70
  -6   5   0 6806.64 156.248  69
  -6   5   0 6953.45 161.336 106
  -6   5   0 7010.64 162.279 104
  -6   5   0 6506.65 161.614  61
   6  -5   0 7082.07 161.983  99
   6  -5   0 6872.37 160.812 102
   6  -5   0 6709.29 160.007 101
   6  -5   0 6844.78 160.228 100
  -6   5   0 6581.34 160.926  41
   6  -5   0 6927.46 161.237  98
   6  -5   0 6820.16 157.816  20
  -6   5   0 6870.69 162.410 105
  -6   5   0 7005.46 164.097 103
  -6   5   0 6840.48 162.964  77
   6  -5   1 4462.18 108.834  47
   6  -5   1 4661.80 112.319  46
  -6   5  -1 4464.89 107.159  69
   6  -5   1 4570.80 113.526 102
  -6   5  -1 4723.92 115.868 106
  -6   5  -1 4507.23 113.943 105
  -6   5  -1 4652.98 115.089 104
  -6   5  -1 4704.38 117.259 103
   6  -5   1 4442.59 112.347 101
   6  -5   1 4420.01 111.382 100
  -6   5  -1 4466.52 111.325  41
  -6   5  -1 4493.98 111.617  61
   6  -5   1 4610.98 113.950  99
   6  -5   1 4701.14 115.415  98
   6  -5   1 4622.88 113.140  20
  -6   5  -1 4044.34 106.269  77
  -6   4   7 10680.2 201.568  29
  -6   4   7 10881.0 209.583  57
  -6   4   7 10410.4 198.897  82
  -6   4   6 408.132 45.3828  71
  -6   4   6 432.022 47.8199  69
  -6   4   6 325.337 44.7426  29
   6  -4  -6 383.331 46.1920  27
  -6   4   6 403.144 50.9336  57
  -6   4   6 344.863 44.3911  82
  -6   4   5 970.863 69.4868  71
  -6   4   5 976.928 77.9755  69
  -6   4   5 738.398 72.2770  29
   6  -4  -5 914.126 76.9821  27
  -6   4   5 914.436 74.9291  41
  -6   4   5 1045.54 84.5778  57
   6  -4  -5 946.868 71.0867  53
   6  -4  -5 947.715 73.5019  83
  -6   4   5 801.492 73.4174  82
  -6   4   4 28.0466 18.9457  71
   6  -4  -4 33.4781 20.9013  70
   6  -4  -4 57.5750 28.7511  27
  -6   4   4 58.5643 29.2230  41
  -6   4   4 27.6761 27.1303  57
  -6   4   4 58.5979 31.6169  69
  -6   4   4 32.8869 25.8328  55
   6  -4  -4 100.850 30.8087  53
  -6   4   4 40.4484 28.7218  82
  -6   4   4 29.1387 30.0457  77
  -6   4   3 15458.2 323.757  75
   6  -4  -3 14769.5 323.081  27
   6  -4  -3 14759.6 288.159  46
   6  -4  -3 14684.3 301.988  70
  -6   4   3 14616.5 314.900  69
  -6   4   3 14790.5 323.173  41
  -6   4   3 14901.6 312.558  61
  -6   4   3 14563.7 303.984  55
   6  -4  -3 14980.2 320.780  53
  -6   4   3 14063.3 309.027  82
  -6   4   3 14549.7 318.155  77
  -6   4   2 9564.77 249.754  75
   6  -4  -2 9528.78 225.107  47
   6  -4  -2 9744.28 246.701  46
   6  -4  -2 8796.67 243.988  70
  -6   4   2 9770.59 259.976  69
   6  -4  -2 9273.68 240.758 102
   6  -4  -2 9471.37 256.240  27
   6  -4  -2 9307.30 240.439 101
   6  -4  -2 9512.53 242.942 100
  -6   4   2 10138.6 268.282  41
  -6   4   2 9052.54 254.578  61
   6  -4  -2 9578.37 243.206  99
   6  -4  -2 9302.54 243.340  98
  -6   4   2 9410.91 238.374  55
   6  -4  -2 9691.82 241.961  20
   6  -4  -2 9317.30 257.041  53
  -6   4   2 9746.75 261.492  77
  -6   4   1 11310.3 258.068  75
   6  -4  -1 12444.7 268.522  47
   6  -4  -1 11996.2 281.122 102
  -6   4   1 12509.8 287.714 105
   6  -4  -1 12119.6 279.146  46
   6  -4  -1 12434.0 289.187  70
  -6   4   1 11915.5 283.177  69
  -6   4   1 12316.5 287.555 106
  -6   4   1 12441.1 290.281 103
   6  -4  -1 12073.2 275.449  27
   6  -4  -1 12089.7 282.464 101
  -6   4   1 11555.0 291.410  61
  -6   4   1 12346.2 290.232  41
  -6   4   1 12298.0 285.948 104
   6  -4  -1 11960.5 281.356  99
   6  -4  -1 11902.3 282.570  98
  -6   4   1 11572.1 251.815  55
  -6   4   1 11919.0 269.379  87
   6  -4  -1 11879.6 283.608  53
   6  -4  -1 11918.6 278.943  20
  -6   4   1 11622.1 286.335  77
   6  -4  -1 12006.8 280.823 100
  -6   4   0 1628.93 88.8737  75
   6  -4   0 1691.10 99.4496  47
   6  -4   0 1716.46 104.671  46
   6  -4   0 1631.30 102.322  70
  -6   4   0 1737.62 105.583  69
  -6   4   0 1754.48 110.134 106
  -6   4   0 1824.80 110.273 105
  -6   4   0 1686.49 108.263 103
   6  -4   0 1690.53 105.718 102
   6  -4   0 1712.70 106.214 101
   6  -4   0 1791.97 108.943 100
  -6   4   0 1649.35 104.404  41
   6  -4   0 1613.45 103.564  99
  -6   4   0 1652.29 106.380  61
   6  -4   0 1657.18 106.510  98
  -6   4   0 1514.52 83.7909  55
  -6   4   0 1716.08 107.581 104
  -6   4   0 1751.87 102.422  87
   6  -4   0 1778.95 105.192  53
   6  -4   0 1659.07 104.706  20
   6  -4   0 1649.17 96.9660  83
  -6   4   0 1712.22 106.249  77
   6  -4   1 15671.0 288.753  47
   6  -4   1 15830.7 295.075  46
   6  -4   1 15497.3 286.421  70
  -6   4  -1 16324.0 294.857  69
   6  -4   1 15840.3 302.307  99
  -6   4  -1 16128.1 307.064 106
  -6   4  -1 16010.6 305.568 105
  -6   4  -1 16423.8 308.558 104
   6  -4   1 16241.2 306.411 102
   6  -4   1 15987.0 305.079 101
   6  -4   1 16110.6 304.592 100
  -6   4  -1 15474.4 292.843  41
  -6   4  -1 14816.9 290.377  61
   6  -4   1 15982.4 305.811  98
  -6   4  -1 16322.7 293.070  87
   6  -4   1 15424.1 271.003  53
   6  -4   1 16089.8 303.192  20
  -6   4  -1 16344.4 311.817 103
  -6   4  -1 15425.7 288.912  77
   6  -4   2 6553.28 168.587  47
   6  -4   2 6619.13 169.408  46
  -6   4  -2 6460.35 165.276  69
  -6   4  -2 6526.37 173.161 106
  -6   4  -2 6684.84 174.940 104
  -6   4  -2 6597.37 175.544 103
   6  -4   2 6678.55 174.535 102
   6  -4   2 6766.16 176.345 101
  -6   4  -2 6539.21 166.303  41
  -6   4  -2 6139.57 161.527  61
   6  -4   2 6739.09 175.424  98
  -6   4  -2 6720.31 176.197 105
   6  -4   2 6642.94 174.508 100
  -6   4  -2 6670.92 168.957  87
   6  -4   2 6692.67 173.659  20
   6  -4   2 6803.26 176.204  99
  -6   4  -2 6175.15 161.233  77
   6  -4   3 1144.33 57.1893  47
   6  -4   3 1137.60 55.2346  46
  -6   4  -3 1160.04 57.5107 103
  -6   4  -3 1160.86 57.1552  69
  -6   4  -3 1116.40 56.0327 105
  -6   4  -3 1062.05 54.3130 104
   6  -4   3 1062.15 54.2679 102
  -6   4  -3 1094.75 55.1988 106
   6  -4   3 1083.00 54.9354 101
   6  -4   3 1155.16 56.5287 100
  -6   4  -3 1095.77 53.1578  41
   6  -4   3 1118.65 55.4360  99
   6  -4   3 1128.18 55.6865  98
  -6   4  -3 1192.63 58.9323  87
   6  -4   3 1165.50 56.5179  20
  -6   3   8 682.606 45.6854  71
  -6   3   8 662.842 50.8220  29
  -6   3   8 693.748 51.0888  57
   6  -3  -8 632.234 45.8148  84
  -6   3   8 709.938 52.4138  82
  -6   3   7 2907.00 115.158  71
   6  -3  -7 2494.63 100.303  45
  -6   3   7 2779.80 124.409  57
  -6   3   7 2934.05 127.990  82
  -6   3   7 2881.80 125.978  29
  -6   3   6 138.427 33.3687  71
  -6   3   6 87.1932 32.0608  29
  -6   3   6 106.816 35.7387  69
   6  -3  -6 124.844 32.0740  27
  -6   3   6 63.8044 34.8845  57
  -6   3   6 133.525 36.8162  82
  -6   3   5 3289.95 144.758  71
  -6   3   5 3092.06 152.461  69
   6  -3  -5 3200.65 149.476  27
  -6   3   5 3340.56 158.138  41
  -6   3   5 2892.14 156.033  57
  -6   3   5 3305.06 150.873  10
   6  -3  -5 3133.80 132.972  53
   6  -3  -5 3226.02 143.045  83
  -6   3   5 3027.12 159.442  82
  -6   3   4 3899.19 157.558  71
  -6   3   4 3644.15 172.917  69
   6  -3  -4 3760.67 173.051  27
  -6   3   4 3642.78 172.990  41
  -6   3   4 3571.81 178.317  57
  -6   3   4 3762.95 166.348  55
   6  -3  -4 3944.22 166.261  53
  -6   3   4 3540.09 180.373  82
  -6   3   4 3613.82 170.250  77
  -6   3   3 8925.86 232.551  71
   6  -3  -3 8612.21 244.639  70
  -6   3   3 8271.85 261.268  69
  -6   3   3 7980.39 233.479  44
   6  -3  -3 7782.91 254.517  27
  -6   3   3 8345.33 266.208  41
  -6   3   3 8009.09 258.643  61
  -6   3   3 8356.22 248.748  55
  -6   3   3 8456.24 239.353  87
   6  -3  -3 8167.27 252.573  53
  -6   3   3 8332.30 263.307  77
  -6   3   2 1590.61 113.767  75
  -6   3   2 1654.09 114.480 104
   6  -3  -2 1454.41 103.057  46
   6  -3  -2 1507.72 111.106  70
  -6   3   2 1474.27 113.619  69
  -6   3   2 1552.67 111.578 105
  -6   3   2 1603.06 108.695  44
  -6   3   2 1603.18 114.807 103
   6  -3  -2 1440.24 106.351 101
  -6   3   2 1504.54 117.408  41
  -6   3   2 1522.94 117.165  61
   6  -3  -2 1721.35 116.752  99
   6  -3  -2 1607.39 114.120  98
  -6   3   2 1591.87 111.969 106
   6  -3  -2 1478.36 107.879 102
  -6   3   2 1523.41 109.232  55
  -6   3   2 1572.90 112.046  87
   6  -3  -2 1642.18 111.658  20
   6  -3  -2 1455.52 111.416  53
   6  -3  -2 1674.12 114.624 100
   6  -3  -2 1504.09 114.416  27
  -6   3   2 1479.40 99.7906  50
  -6   3   2 1548.46 116.741  77
  -6   3   1 1904.60 119.410  75
   6  -3  -1 1868.91 114.478  47
   6  -3  -1 1889.53 121.253  46
   6  -3  -1 1783.17 121.629  70
  -6   3   1 1750.74 121.859  69
  -6   3   1 1807.29 123.908 106
  -6   3   1 1908.28 128.701 105
  -6   3   1 2008.00 124.259  44
  -6   3   1 1754.23 122.625 104
  -6   3   1 1941.52 130.481 103
   6  -3  -1 1903.06 127.052 102
   6  -3  -1 1911.78 126.464  27
   6  -3  -1 1825.03 125.302 101
   6  -3  -1 1861.51 126.073 100
  -6   3   1 1839.14 127.688  41
   6  -3  -1 1901.82 127.252  99
  -6   3   1 1815.79 127.295  61
   6  -3  -1 1911.22 129.673  98
  -6   3   1 1699.55 108.361  55
  -6   3   1 1862.39 123.074  87
   6  -3  -1 1749.88 122.301  53
   6  -3  -1 1855.36 124.352  20
  -6   3   1 1774.76 110.054  50
  -6   3   1 1676.94 122.233  77
  -6   3   0 2723.12 132.571  75
   6  -3   0 2691.16 140.549  47
   6  -3   0 2770.23 154.194  99
   6  -3   0 2653.81 143.337  46
   6  -3   0 2633.09 145.375  70
  -6   3   0 2699.25 147.582  69
  -6   3   0 2659.50 152.345 105
  -6   3   0 2747.26 143.486  44
  -6   3   0 2592.64 151.531 104
  -6   3   0 2660.95 152.012 103
   6  -3   0 2518.72 140.162  27
   6  -3   0 2683.19 152.144 101
   6  -3   0 2579.46 149.659 100
  -6   3   0 2837.26 153.073  41
  -6   3   0 2711.54 152.345  61
   6  -3   0 2625.99 151.238  98
  -6   3   0 2709.47 153.110 106
  -6   3   0 2758.34 149.216  87
   6  -3   0 2791.82 150.074  53
   6  -3   0 2678.90 149.880  20
   6  -3   0 2651.38 149.900 102
  -6   3   0 2743.48 133.534  50
  -6   3   0 2734.60 151.096  77
   6  -3   1 7545.90 231.278  47
   6  -3   1 7662.40 238.769  46
   6  -3   1 7760.53 240.276  70
  -6   3  -1 7699.51 236.663  69
  -6   3  -1 8043.61 255.694 106
  -6   3  -1 7964.34 255.315 105
  -6   3  -1 7884.74 235.955  44
  -6   3  -1 7682.60 249.191 104
  -6   3  -1 7897.48 256.798 103
   6  -3   1 7953.88 253.423 102
   6  -3   1 8151.56 255.892 101
   6  -3   1 7778.42 250.343 100
  -6   3  -1 7763.49 239.207  41
   6  -3   1 7645.55 246.804  99
  -6   3  -1 7667.44 243.867  61
   6  -3   1 7636.09 248.611  98
  -6   3  -1 7570.16 239.046  87
   6  -3   1 7666.16 234.685  53
   6  -3   1 8018.99 251.737  20
   6  -3   1 7826.02 223.271  83
  -6   3  -1 7607.53 237.074  77
   6  -3   2 3487.65 152.883  47
   6  -3   2 3438.62 152.693  46
   6  -3   2 3362.10 146.224  70
  -6   3  -2 3507.11 150.518  69
  -6   3  -2 3244.18 153.541 106
  -6   3  -2 3499.04 150.849  44
  -6   3  -2 3527.64 157.639 104
  -6   3  -2 3353.22 159.359 103
   6  -3   2 3534.86 159.365 102
   6  -3   2 3385.98 153.929 101
   6  -3   2 3411.94 154.091 100
  -6   3  -2 3274.34 146.914  41
   6  -3   2 3554.87 157.353  99
  -6   3  -2 3369.80 148.002  61
   6  -3   2 3364.10 154.641  98
  -6   3  -2 3412.72 156.199 105
  -6   3  -2 3500.86 153.441  87
   6  -3   2 3365.23 140.509  53
   6  -3   2 3544.65 158.233  20
  -6   3  -2 3283.87 143.764  77
   6  -3   3 33082.0 423.234  47
   6  -3   3 32555.4 419.376  46
  -6   3  -3 34105.3 417.484  44
  -6   3  -3 32508.4 403.699  69
  -6   3  -3 32672.3 424.571 106
  -6   3  -3 31938.4 422.629 105
  -6   3  -3 32283.9 423.738 104
  -6   3  -3 31362.7 427.607 103
   6  -3   3 32657.0 426.730 102
   6  -3   3 33755.5 426.357  99
   6  -3   3 33275.1 428.030 101
   6  -3   3 33457.4 427.344 100
  -6   3  -3 31644.3 390.674  41
  -6   3  -3 31358.0 381.087  61
   6  -3   3 33249.6 426.626  98
  -6   3  -3 32824.9 415.260  87
   6  -3   3 33412.1 423.450  20
   6  -3   3 33517.2 353.328  81
  -6   3  -3 30858.6 379.246  77
   6  -3   4 4860.27 135.110  47
   6  -3   4 4747.90 131.124  46
  -6   3  -4 4532.00 121.830 103
  -6   3  -4 4913.63 127.978  69
  -6   3  -4 4462.99 120.562 106
  -6   3  -4 5078.92 135.427  44
  -6   3  -4 4383.71 110.176  41
   6  -3   4 4413.50 129.413  24
  -6   3  -4 4467.90 121.356 105
  -6   3  -4 4517.30 120.737 104
  -6   3  -4 4765.19 129.364  87
  -6   2   8 2477.99 105.013  29
  -6   2   8 2392.69 100.195  57
   6  -2  -8 2157.99 84.4314  84
  -6   2   8 2393.19 102.718  82
  -6   2   7 553.447 55.1317  71
  -6   2   7 364.709 54.3956  57
  -6   2   7 583.012 64.6066  82
  -6   2   7 521.783 61.9516  29
  -6   2   6 2115.63 117.575  71
  -6   2   6 2019.30 124.821  69
   6  -2  -6 1856.17 109.203  45
  -6   2   6 1911.28 129.891  29
  -6   2   6 1993.51 124.737  57
  -6   2   6 1930.15 131.179  82
  -6   2   5 371.996 56.9117  71
  -6   2   5 362.399 55.7038  44
   6  -2  -5 379.599 54.9637  27
  -6   2   5 409.518 66.2471  41
  -6   2   5 280.443 55.4009  57
  -6   2   5 277.686 52.0095  10
   6  -2  -5 284.398 46.4441  83
  -6   2   5 284.489 61.7319  82
  -6   2   5 339.955 55.7377  50
  -6   2   5 338.487 59.2345  69
  -6   2   4 1210.09 96.3318  71
  -6   2   4 1379.88 112.446  69
  -6   2   4 1395.05 105.936  44
   6  -2  -4 1251.02 103.142  27
  -6   2   4 1518.95 119.050  41
  -6   2   4 1408.42 115.825  57
  -6   2   4 1481.15 109.156  55
  -6   2   4 1478.32 104.832  87
   6  -2  -4 1302.45 95.7419  53
   6  -2  -4 1201.67 99.7602  83
  -6   2   4 1246.32 114.502  82
  -6   2   4 1300.83 102.055  50
  -6   2   4 1212.03 104.668  77
  -6   2   3 15747.1 334.195  71
   6  -2  -3 16624.4 342.603  70
  -6   2   3 15302.3 365.125  69
   6  -2  -3 15313.8 365.223  27
  -6   2   3 15356.3 371.032  41
  -6   2   3 15314.5 366.195  61
  -6   2   3 15811.4 347.930  55
  -6   2   3 16063.7 351.229  87
   6  -2  -3 15893.3 354.169  53
  -6   2   3 16243.6 362.687  44
  -6   2   3 15703.2 348.664  50
  -6   2   3 15735.3 374.000  77
  -6   2   2 5685.13 215.013  75
  -6   2   2 6175.83 201.643  71
   6  -2  -2 5851.23 214.637  70
  -6   2   2 5516.37 219.498  69
  -6   2   2 5490.15 216.491 105
  -6   2   2 5918.10 223.182  44
  -6   2   2 5435.63 213.945 104
  -6   2   2 5747.94 222.519 103
   6  -2  -2 5501.39 215.620 102
   6  -2  -2 5554.53 216.739 101
   6  -2  -2 5335.89 218.859  27
   6  -2  -2 5314.86 211.884 100
  -6   2   2 5757.24 228.474  41
  -6   2   2 5477.69 223.394  61
   6  -2  -2 5469.21 213.364  99
   6  -2  -2 5347.80 215.436  98
  -6   2   2 5457.93 200.491  55
  -6   2   2 5601.15 215.131  87
   6  -2  -2 5675.15 214.848  20
   6  -2  -2 5700.81 219.988  53
  -6   2   2 5967.08 221.681 106
  -6   2   2 5568.94 210.967  50
  -6   2   2 5690.68 224.411  77
  -6   2   1 10742.8 283.611  75
   6  -2  -1 10716.0 272.883  47
   6  -2  -1 9981.51 276.528  46
   6  -2  -1 10213.5 293.629  70
  -6   2   1 10316.4 296.479  69
  -6   2   1 10387.9 303.697 106
  -6   2   1 10134.0 302.255 105
  -6   2   1 10334.4 296.261  44
  -6   2   1 10105.6 302.836 104
  -6   2   1 10107.6 304.650 103
   6  -2  -1 10209.2 300.761 102
   6  -2  -1 10435.8 303.405  27
   6  -2  -1 10308.8 303.806 101
   6  -2  -1 9926.95 298.787 100
  -6   2   1 10183.3 301.356  41
  -6   2   1 10065.3 303.188  61
   6  -2  -1 10324.8 302.755  99
   6  -2  -1 10301.2 305.146  98
  -6   2   1 10333.3 298.187  87
   6  -2  -1 10046.4 296.172  53
   6  -2  -1 10146.9 296.943  20
  -6   2   1 10701.9 292.149  50
  -6   2   1 10352.3 300.280  77
   6  -2   0 3538.78 165.870  47
   6  -2   0 3248.57 163.098  46
   6  -2   0 3157.95 165.951  70
  -6   2   0 3200.32 165.707  69
   6  -2   0 3188.68 155.121  45
  -6   2   0 3456.73 180.887 105
  -6   2   0 3491.96 174.203  44
  -6   2   0 3272.69 174.424 104
  -6   2   0 3199.57 174.648 103
   6  -2   0 3277.58 173.807 102
   6  -2   0 3222.58 169.347  27
   6  -2   0 3281.86 174.295 101
   6  -2   0 3248.83 173.290 100
  -6   2   0 3236.16 169.768  41
   6  -2   0 3318.70 175.763  99
  -6   2   0 3099.38 170.846  61
  -6   2   0 3385.33 178.369 106
   6  -2   0 3124.83 171.728  98
  -6   2   0 3230.47 170.416  87
   6  -2   0 3271.45 169.578  53
   6  -2   0 3309.80 174.151  20
  -6   2   0 3326.59 164.000  50
  -6   2   0 3213.95 168.422  77
   6  -2   1 338.022 55.2878  47
  -6   2  -1 293.791 55.2818  69
   6  -2   1 274.303 51.6298  46
   6  -2   1 222.171 48.8964  70
  -6   2  -1 253.001 55.2319 106
  -6   2  -1 254.778 53.6803 105
  -6   2  -1 292.414 57.4321  44
  -6   2  -1 248.854 55.7679 104
  -6   2  -1 282.168 56.3749 103
   6  -2   1 378.652 63.7520 102
   6  -2   1 251.008 51.0907  27
   6  -2   1 337.694 60.1098 101
   6  -2   1 224.053 51.1126 100
   6  -2   1 263.198 57.4077  99
  -6   2  -1 305.689 55.0225  41
  -6   2  -1 249.064 54.2383  61
   6  -2   1 285.588 58.7011  98
  -6   2  -1 240.970 53.6157  87
   6  -2   1 247.905 50.8620  53
   6  -2   1 298.901 51.8865  83
   6  -2   1 318.284 56.6256  20
  -6   2  -1 258.387 51.1424  50
  -6   2  -1 298.272 53.6166  77
   6  -2   2 14122.9 334.198  47
   6  -2   2 14309.8 338.167  46
   6  -2   2 14083.7 335.843  70
  -6   2  -2 14429.0 329.563  69
  -6   2  -2 13813.5 345.224 106
  -6   2  -2 13952.2 347.781 105
  -6   2  -2 14558.7 344.235  44
  -6   2  -2 13835.4 346.936 104
  -6   2  -2 14149.8 354.008 103
   6  -2   2 14011.9 347.846 102
   6  -2   2 14195.9 350.208 101
   6  -2   2 13897.4 345.997 100
  -6   2  -2 14298.8 326.629  41
   6  -2   2 14073.2 346.498  99
  -6   2  -2 14557.3 331.323  61
   6  -2   2 14581.7 355.251  98
  -6   2  -2 14044.8 337.891  87
   6  -2   2 14092.2 330.509  53
   6  -2   2 14211.0 346.252  20
   6  -2   2 14121.8 301.461  83
  -6   2  -2 14484.3 325.495  50
  -6   2  -2 14247.5 325.562  77
   6  -2   3 9291.26 259.507  47
   6  -2   3 9314.56 261.726  46
   6  -2   3 9292.44 250.292  70
  -6   2  -3 9533.74 248.859  69
  -6   2  -3 9116.17 261.432 106
  -6   2  -3 9512.14 268.932 105
  -6   2  -3 9298.86 262.467  44
  -6   2  -3 9402.49 265.259 104
  -6   2  -3 9099.03 266.321 103
   6  -2   3 9440.59 267.369 102
   6  -2   3 9560.21 268.225 101
   6  -2   3 9295.34 263.606 100
  -6   2  -3 9229.29 243.195  41
   6  -2   3 9626.57 266.425  99
   6  -2   3 9362.74 264.612  98
  -6   2  -3 9470.90 259.190  87
   6  -2   3 9374.30 244.185  53
   6  -2   3 9378.71 263.293  20
   6  -2   3 9954.22 238.391  81
  -6   2  -3 9588.63 251.361  50
  -6   2  -3 9746.56 245.178  77
   6  -2   4 3850.39 153.710  47
   6  -2   4 3977.36 154.996  46
  -6   2  -4 3898.40 141.702  69
  -6   2  -4 3879.06 147.505 106
  -6   2  -4 3845.57 147.824 105
  -6   2  -4 3977.52 155.579  44
  -6   2  -4 3713.71 145.972 104
  -6   2  -4 3866.80 150.868 103
   6  -2   4 3745.41 147.030 102
   6  -2   4 3826.35 148.046 101
   6  -2   4 3884.41 147.533 100
  -6   2  -4 3858.73 134.650  41
   6  -2   4 3903.68 146.836  99
   6  -2   4 3987.02 149.190  98
   6  -2   4 4029.39 133.875  42
  -6   2  -4 3880.69 147.703  87
   6  -2   4 3904.91 146.034  20
   6  -2   4 3709.08 142.294  85
  -6   2  -4 3876.65 145.253  50
   6  -2   5 1136.80 68.9604  47
   6  -2   5 1146.68 69.0863  46
  -6   2  -5 1148.72 62.4909  69
   6  -2   5 1208.35 61.7172  42
   6  -2   5 1151.24 70.0900  24
  -6   2  -5 1173.20 72.8863  44
  -6   2  -5 1148.66 63.8851  87
   6  -2   5 1037.51 63.0953  85
  -6   2  -5 1134.85 66.9654  50
  -6   1   8-7.61473 19.1441  29
  -6   1   8 8.69875 16.3681  57
   6  -1  -8 56.5320 16.3680  56
  -6   1   8 6.57837 16.3320  82
  -6   1   7 16199.9 285.316  71
  -6   1   7 15779.9 320.672  29
  -6   1   7 15200.8 305.881  57
  -6   1   7 15784.9 323.232  21
   6  -1  -7 15189.1 284.563  84
  -6   1   7 16294.0 321.957  82
  -6   1   7 15710.1 302.078  50
  -6   1   6 10.5257 27.1547  71
  -6   1   6 21.1646 24.6500  29
  -6   1   6 21.7709 24.8751  44
  -6   1   6 5.23353 29.4797  69
   6  -1  -6-37.7104 23.1597  45
  -6   1   6-1.09855 25.2016  57
  -6   1   6 8.22205 23.9056  10
  -6   1   6 5.92405 25.2682  82
  -6   1   6 16.2690 27.7390  50
  -6   1   5 25565.5 433.311  71
  -6   1   5 24555.3 452.214  69
   6  -1  -5 24996.7 429.882  45
  -6   1   5 25131.1 447.633  44
  -6   1   5 25107.7 464.328  41
  -6   1   5 24913.6 449.066  57
  -6   1   5 25464.6 454.358  10
  -6   1   5 24827.0 474.432  82
  -6   1   5 24927.0 447.580  50
  -6   1   4 43882.4 578.752  71
  -6   1   4 41180.3 595.220  69
  -6   1   4 43500.7 608.079  44
   6  -1  -4 44215.4 581.802  27
  -6   1   4 42903.9 616.514  41
  -6   1   4 43605.4 600.018  57
  -6   1   4 44784.8 630.501  10
  -6   1   4 44339.5 577.756  87
   6  -1  -4 44095.9 581.885  83
  -6   1   4 42905.1 641.241  82
  -6   1   4 42464.8 599.731  50
  -6   1   3 104977. 883.361  71
  -6   1   3 107601. 895.484 106
  -6   1   3 101739. 931.591  69
  -6   1   3 107483. 887.164 104
  -6   1   3 108183. 899.566 105
   6  -1  -3 101618. 918.922  27
  -6   1   3 103851. 947.515  44
  -6   1   3 101630. 947.127  41
  -6   1   3 105497. 898.136 103
  -6   1   3 102270. 932.406  57
  -6   1   3 105639. 879.301  55
  -6   1   3 102829. 918.481  87
   6  -1  -3 107784. 888.848  53
   6  -1  -3 102318. 924.498  83
  -6   1   3 106362. 947.165  50
  -6   1   3 103486. 956.074  77
  -6   1   2 32088.4 478.398  71
   6  -1  -2 31227.9 484.844  70
  -6   1   2 31279.2 511.535  69
  -6   1   2 31026.3 520.617 103
  -6   1   2 31510.9 526.416  44
   6  -1  -2 31322.0 516.959 101
   6  -1  -2 30303.9 511.476  27
   6  -1  -2 31031.6 509.796 100
  -6   1   2 31738.7 525.861  41
  -6   1   2 30067.3 524.540  61
   6  -1  -2 30429.5 504.717  99
  -6   1   2 32028.1 516.701 106
   6  -1  -2 30629.8 510.342  98
  -6   1   2 31624.4 518.140  87
   6  -1  -2 30373.2 500.955  20
   6  -1  -2 30445.8 495.887  53
  -6   1   2 30896.3 515.078 105
   6  -1  -2 30277.6 510.258 102
   6  -1  -2 30794.2 516.471  83
  -6   1   2 31582.9 514.215 104
  -6   1   2 31948.8 516.944  50
  -6   1   2 30866.0 517.826  77
  -6   1   1 13800.0 302.964  71
   6  -1  -1 13262.1 329.762  70
  -6   1   1 12802.4 325.452  69
  -6   1   1 13334.0 349.183 105
  -6   1   1 13501.9 346.749  44
   6  -1  -1 14500.5 636.767  66
  -6   1   1 13253.3 352.750 103
   6  -1  -1 13086.9 346.159 102
   6  -1  -1 16365.6 675.386  64
   6  -1  -1 13016.9 337.293  27
   6  -1  -1 12962.6 343.659 101
   6  -1  -1 12996.7 341.850 100
  -6   1   1 13095.8 335.916  41
   6  -1  -1 14881.3 628.866  62
  -6   1   1 13094.5 341.942  61
   6  -1  -1 13040.0 341.761  99
   6  -1  -1 12807.0 342.704  98
  -6   1   1 12666.1 586.235  96
  -6   1   1 12922.9 590.102  91
  -6   1   1 13290.1 340.793  87
   6  -1  -1 13007.3 339.026  20
   6  -1  -1 12921.0 331.215  53
  -6   1   1 15343.3 621.264   3
  -6   1   1 12902.3 341.225 104
  -6   1   1 13580.9 349.269 106
  -6   1   1 13568.7 335.961  50
  -6   1   1 13160.7 338.686  77
   6  -1   0 1420.07 103.256  47
   6  -1   0 1220.17 98.0242  46
   6  -1   0 1284.01 106.371  70
  -6   1   0 1195.17 101.717  69
   6  -1   0 1264.41 103.202  45
  -6   1   0 1334.87 112.606 106
  -6   1   0 1192.17 106.224 105
  -6   1   0 1218.92 109.168  44
  -6   1   0 1171.93 106.523 104
  -6   1   0 1173.08 107.452 103
   6  -1   0 1209.72 108.748 102
   6  -1   0 1175.08 104.293  27
   6  -1   0 1255.33 110.082 101
   6  -1   0 1156.11 105.347 100
  -6   1   0 1101.65 98.5571  41
  -6   1   0 1173.83 106.231  61
   6  -1   0 1228.00 111.081  99
   6  -1   0 1257.83 112.354  98
  -6   1   0 1118.04 103.798  87
   6  -1   0 1171.69 103.335  53
   6  -1   0 1174.36 105.631  20
   6  -1   0 1227.46 96.1297  84
   6  -1   0 1203.16 104.282  83
  -6   1   0 1232.53 106.220  50
  -6   1   0 1290.28 97.7783  78
  -6   1   0 1250.25 106.677  77
   6  -1   1 18082.9 379.261  47
   6  -1   1 17685.2 379.594  46
   6  -1   1 17008.8 386.579  70
  -6   1  -1 18232.6 380.531  69
   6  -1   1 17731.9 361.754  45
  -6   1  -1 17895.7 409.827 106
  -6   1  -1 18296.0 414.186 105
  -6   1  -1 18158.0 406.280  44
  -6   1  -1 17518.7 406.952 104
  -6   1  -1 17745.6 415.054 103
   6  -1   1 17649.4 408.555 102
   6  -1   1 17937.2 397.814  27
   6  -1   1 17688.8 406.976 101
   6  -1   1 17930.9 408.090 100
  -6   1  -1 17674.6 381.186  41
   6  -1   1 18066.4 409.933  99
  -6   1  -1 17422.4 388.305  61
   6  -1   1 17930.1 411.634  98
  -6   1  -1 17871.3 396.842  87
   6  -1   1 18153.1 398.073  53
   6  -1   1 17884.8 403.569  20
   6  -1   1 17832.1 382.942  83
  -6   1  -1 17959.4 390.197  50
  -6   1  -1 18469.9 370.155  78
  -6   1  -1 17514.4 383.633  77
   6  -1   2 1141.45 99.7543  47
   6  -1   2 1173.18 101.371  46
   6  -1   2 1235.56 105.610  70
  -6   1  -2 1196.37 100.049  69
  -6   1  -2 1115.69 103.279 106
  -6   1  -2 1249.93 112.087 105
  -6   1  -2 1175.63 107.253  44
  -6   1  -2 1063.65 102.409 104
  -6   1  -2 1231.00 111.911 103
   6  -1   2 1235.24 109.079 102
   6  -1   2 1147.14 105.614 101
   6  -1   2 1159.24 105.449 100
  -6   1  -2 1039.34 92.6220  41
   6  -1   2 1073.15 103.178  99
  -6   1  -2 1169.28 99.9925  61
   6  -1   2 1068.31 101.246  98
  -6   1  -2 1136.21 101.809  87
   6  -1   2 1121.39 101.158  53
   6  -1   2 1082.20 101.375  20
   6  -1   2 1094.58 92.8371  83
  -6   1  -2 1030.97 98.4465  50
  -6   1  -2 1112.94 94.5705  78
  -6   1  -2 1067.52 95.6944  77
   6  -1   3 18253.3 387.887  47
   6  -1   3 18080.9 388.669  46
   6  -1   3 18367.3 383.521  70
  -6   1  -3 18289.1 359.208  69
  -6   1  -3 18369.9 395.908 106
  -6   1  -3 18142.7 393.411 105
  -6   1  -3 18587.4 398.641  44
  -6   1  -3 18510.6 395.732 104
  -6   1  -3 17893.0 395.252 103
   6  -1   3 18360.8 396.313 102
   6  -1   3 18285.8 392.599 101
   6  -1   3 18601.1 396.751 100
  -6   1  -3 18794.1 356.632  41
   6  -1   3 18050.6 389.740  99
  -6   1  -3 17892.9 359.339  61
   6  -1   3 18209.5 395.695  98
  -6   1  -3 18294.4 381.728  87
   6  -1   3 17784.9 374.825  53
   6  -1   3 17838.0 388.719  20
   6  -1   3 18019.4 376.183  85
   6  -1   3 19024.3 360.983  81
  -6   1  -3 18664.8 385.737  50
  -6   1  -3 19120.1 370.998  78
  -6   1  -3 18656.6 355.951  77
   6  -1   4 5756.83 209.942  47
   6  -1   4 5822.44 210.181  46
   6  -1   4 5803.06 197.695  70
  -6   1  -4 6054.31 192.155  69
  -6   1  -4 5751.02 203.133 106
  -6   1  -4 5800.73 204.355 105
  -6   1  -4 5973.86 214.932  44
  -6   1  -4 5680.46 203.348 104
  -6   1  -4 5570.35 204.591 103
   6  -1   4 6367.78 193.542  42
   6  -1   4 5636.90 202.119 102
   6  -1   4 5780.51 203.053 101
   6  -1   4 5901.05 205.391 100
   6  -1   4 5650.82 199.884  99
   6  -1   4 5758.76 203.544  98
  -6   1  -4 6175.54 204.977  87
   6  -1   4 5788.01 193.512  53
   6  -1   4 5359.85 195.223  20
   6  -1   4 5627.04 205.651  85
   6  -1   4 6187.50 200.785  81
  -6   1  -4 6151.92 211.034  50
  -6   1  -4 5766.51 195.440  78
   6  -1   5 10316.9 252.255  47
   6  -1   5 10268.1 251.642  46
  -6   1  -5 10260.2 212.885  69
  -6   1  -5 10766.6 254.854  44
  -6   1  -5 9915.95 216.622 104
   6  -1   5 10783.6 230.316  42
  -6   1  -5 9880.00 218.599 106
  -6   1  -5 9983.93 218.191 105
   6  -1   5 10351.6 244.970  24
  -6   1  -5 9797.37 220.361  87
   6  -1   5 9728.88 247.544  85
  -6   1  -5 9504.24 215.267 103
  -6   1  -5 10129.6 243.275  50
  -6   1  -5 10522.6 239.201  78
   6  -1   6 14016.8 237.231  47
   6  -1   6 14429.1 240.831  46
  -6   1  -6 14102.2 237.899  44
   6  -1   6 14145.5 246.123  14
   6  -1   6 13175.5 228.593  24
   6  -1   6 12872.3 238.914  85
  -6   1  -6 13965.3 235.582  50
  -6   1  -6 13869.3 225.960  78
  -6   0   8 2.65607 13.3692  29
  -6   0   8 10.7525 14.3160  57
  -6   0   8 30.5756 17.1267  21
  -6   0   8 9.14143 14.9304  82
  -6   0   7 21910.3 351.209  29
  -6   0   7 21262.6 359.307  59
  -6   0   7 21891.4 344.434  57
   6   0  -7 20439.0 323.815  56
  -6   0   7 21622.0 387.565  21
   6   0  -7 20825.7 302.558  84
  -6   0   7 21103.8 350.492  82
  -6   0   7 21433.6 365.460  50
   6   0  -6 2598.79 123.526  72
  -6   0   6 2845.43 133.824  71
  -6   0   6 2725.76 146.088  44
  -6   0   6 2689.60 144.595  29
  -6   0   6 2752.71 146.873  59
  -6   0   6 2815.34 139.972  57
   6   0  -6 2757.62 137.120  84
  -6   0   6 2768.78 147.198  82
  -6   0   6 2624.45 144.940  50
  -6   0   5 10233.3 272.455  71
  -6   0   5 9656.51 281.474  69
   6   0  -5 10423.9 267.500  45
  -6   0   5 10293.5 296.924  44
  -6   0   5 10411.0 298.804  59
  -6   0   5 10676.7 285.957  57
  -6   0   5 9831.37 285.952  10
  -6   0   5 10471.3 301.261  82
  -6   0   5 9847.10 290.509  50
  -6   0   5 9771.43 288.142   8
  -6   0   4 53336.8 635.251  71
  -6   0   4 50336.4 650.421  69
   6   0  -4 52058.1 645.514  45
  -6   0   4 52470.0 683.343  44
  -6   0   4 51926.9 675.083  41
  -6   0   4 53238.0 642.927  57
  -6   0   4 53035.2 689.877  10
  -6   0   4 53618.5 656.694  87
   6   0  -4 54930.1 631.719  83
  -6   0   4 51828.7 693.375  82
  -6   0   4 52471.1 679.511  50
  -6   0   3 56651.6 655.200  71
  -6   0   3 55069.9 674.725  69
   6   0  -3 56439.5 683.838  45
  -6   0   3 59179.6 663.000 104
  -6   0   3 58982.5 668.427 105
   6   0  -3 58664.0 664.827  27
  -6   0   3 54666.4 686.502  41
  -6   0   3 55579.8 673.132 107
  -6   0   3 56058.8 663.185  57
  -6   0   3 59385.2 740.639  10
  -6   0   3 55862.8 686.239  87
  -6   0   3 56618.0 712.230  44
   6   0  -3 56284.7 674.279  83
  -6   0   3 55756.2 694.538  50
  -6   0   3 58514.6 652.400  78
  -6   0   3 57018.0 703.994  77
   6   0  -3 61749.5 1242.85  34
  -6   0   2 17594.6 361.144  71
  -6   0   2 17365.3 369.945  69
   6   0  -2 17414.1 382.691  45
  -6   0   2 18290.4 391.280 106
  -6   0   2 18738.7 394.993 105
  -6   0   2 17863.7 397.051  44
  -6   0   2 18442.4 387.680 104
   6   0  -2 19376.4 714.766  66
  -6   0   2 18239.3 396.620 103
   6   0  -2 17305.3 380.718 102
   6   0  -2 20362.1 743.619  64
   6   0  -2 17684.3 377.330  27
   6   0  -2 18056.1 387.119 101
   6   0  -2 17653.3 379.266 100
  -6   0   2 17372.3 383.973  41
   6   0  -2 19361.9 706.956  62
   6   0  -2 17830.8 380.502  99
   6   0  -2 17613.7 382.143  98
  -6   0   2 17443.0 683.198  40
  -6   0   2 16245.9 642.869  96
   6   0  -2 16398.1 647.541  95
   6   0  -2 16752.0 649.738  94
  -6   0   2 18268.2 372.425  57
  -6   0   2 17203.6 665.025  93
   6   0  -2 15959.0 639.132  92
  -6   0   2 16128.2 646.612  91
   6   0  -2 16596.2 651.445  90
  -6   0   2 21008.0 726.212   3
   6   0  -2 17581.9 378.726  20
  -6   0   2 17608.3 386.943  87
   6   0  -2 18399.9 369.991  53
   6   0  -2 17572.9 383.596  83
  -6   0   2 17482.8 385.438  50
  -6   0   2 19079.2 371.965  78
  -6   0   2 18177.6 394.591  77
   6   0  -2 19060.6 692.834  34
  -6   0   1 5956.17 203.815  71
   6   0  -1 6258.80 220.039  70
  -6   0   1 6146.59 217.175  69
   6   0  -1 6023.03 224.754  45
  -6   0   1 6347.77 234.985 106
  -6   0   1 6429.51 237.696 105
  -6   0   1 5975.51 230.902  44
  -6   0   1 6287.86 233.718 104
   6   0  -1 6525.56 412.136  66
  -6   0   1 6376.15 239.474 103
   6   0  -1 6231.38 234.274 102
   6   0  -1 7241.50 437.524  64
   6   0  -1 6105.47 225.988  27
   6   0  -1 6449.13 237.349 101
   6   0  -1 6054.15 228.640 100
  -6   0   1 6017.46 221.811  41
   6   0  -1 6809.10 407.284  62
  -6   0   1 5958.91 231.828  61
   6   0  -1 6305.67 234.161  99
   6   0  -1 6010.93 230.617  98
  -6   0   1 5878.58 401.809  40
  -6   0   1 5798.16 389.221  96
   6   0  -1 5747.34 391.978  95
   6   0  -1 5745.27 392.471  94
   6   0  -1 6145.20 406.035  92
  -6   0   1 5622.50 390.149  91
   6   0  -1 6042.91 406.372  90
  -6   0   1 7070.74 415.828   3
  -6   0   1 6161.63 230.438  87
   6   0  -1 6080.88 228.343  20
   6   0  -1 6311.22 224.214  53
   6   0  -1 6359.08 232.810  83
  -6   0   1 6320.51 231.879  50
  -6   0   1 6426.63 218.351  78
  -6   0   1 6106.80 227.489  77
   6   0  -1 6432.98 407.243  34
  -6   0   0 409.205 102.161   3
  -6   0   0 350.214 51.2282  71
   6   0   0 388.542 59.9181  70
  -6   0   0 410.122 65.3285 106
   6   0   0 350.593 56.7367  45
  -6   0   0 456.642 72.2003 105
  -6   0   0 398.148 65.8358 104
  -6   0   0 436.730 68.7132  44
  -6   0   0 398.558 65.3938 103
   6   0   0 481.270 126.372  66
   6   0   0 376.839 62.9695 102
   6   0   0 443.546 66.4001  27
  -6   0   0 424.149 59.1673  69
   6   0   0 346.287 60.3372 101
   6   0   0 454.229 117.268  64
  -6   0   0 456.766 102.993  63
   6   0   0 368.107 60.7652 100
   6   0   0 637.793 129.688  62
   6   0   0 411.338 64.2831  99
  -6   0   0 332.123 59.2238  41
  -6   0   0 359.681 57.7886  61
   6   0   0 331.725 59.7969  98
  -6   0   0 239.031 83.5135  40
  -6   0   0 241.478 78.8985  96
   6   0   0 409.622 113.503  95
   6   0   0 312.402 120.748  94
   6   0   0 460.386 117.621  93
   6   0   0 293.786 102.619  92
  -6   0   0 259.793 95.3502  91
   6   0   0 275.738 107.679  90
  -6   0   0 415.975 67.2950  87
   6   0   0 410.552 64.3496  20
   6   0   0 415.537 61.7251  53
  -6   0   0 494.091 66.3871  52
   6   0   0 353.976 57.2688  84
   6   0   0 329.755 56.2006  83
  -6   0   0 412.791 65.3447  50
  -6   0   0 502.072 65.3559  78
  -6   0   0 443.824 64.9395  77
   6   0   1 29212.8 468.698  47
   6   0   1 28103.6 461.571  46
   6   0   1 27990.9 488.112  70
  -6   0  -1 28843.1 458.319  69
   6   0   1 27873.0 467.011  45
  -6   0  -1 29287.2 517.546 106
  -6   0  -1 28659.9 504.396  44
  -6   0  -1 28996.7 515.805 104
  -6   0  -1 29098.7 525.771 103
   6   0   1 31453.8 896.496  66
   6   0   1 28595.2 516.564 102
   6   0   1 29534.4 505.486  27
   6   0   1 34026.2 935.089  64
   6   0   1 28655.2 514.313 101
  -6   0  -1 33031.3 913.670  63
   6   0   1 28376.7 510.909 100
  -6   0  -1 28079.9 464.813  41
  -6   0  -1 28221.7 486.040  61
   6   0   1 28292.1 509.109  99
   6   0   1 28531.6 513.856  98
  -6   0  -1 27876.4 881.967  40
  -6   0  -1 27854.2 884.837  96
   6   0   1 28002.9 886.526  95
   6   0   1 28363.1 892.045  94
   6   0   1 27600.3 873.722  93
   6   0   1 28259.1 891.737  92
  -6   0  -1 28063.8 891.532  91
   6   0   1 28280.3 893.598  90
  -6   0  -1 28461.8 514.946 105
  -6   0  -1 31393.5 843.250   3
  -6   0  -1 28919.6 498.056  87
   6   0   1 28392.3 494.211  53
   6   0   1 28444.2 505.279  20
   6   0   1 28760.9 457.574  84
  -6   0  -1 29698.8 467.604  52
   6   0   1 28900.1 487.748  83
  -6   0  -1 28689.8 492.722  50
  -6   0  -1 28309.4 479.104  78
  -6   0  -1 28731.2 475.258  77
   6   0   2 9999.31 286.563  47
   6   0   2 9652.29 282.057  46
   6   0   2 9430.83 287.848  70
   6   0   2 10224.3 273.675  45
  -6   0  -2 9982.57 267.424  69
  -6   0  -2 9968.72 303.803 106
  -6   0  -2 9593.70 302.735 105
  -6   0  -2 10021.3 299.484  44
  -6   0  -2 9679.17 301.237 104
  -6   0  -2 9734.36 309.005 103
   6   0   2 9658.78 302.863 102
   6   0   2 10028.4 308.136 101
   6   0   2 9835.94 302.926 100
  -6   0  -2 10167.2 271.331  41
  -6   0  -2 10099.9 283.367  61
   6   0   2 10054.5 304.840  99
   6   0   2 10151.4 307.736  98
  -6   0  -2 9670.61 287.502  87
   6   0   2 9954.73 294.698  53
   6   0   2 10282.7 305.154  20
   6   0   2 10056.2 288.558  85
  -6   0  -2 10119.1 276.032  52
   6   0   2 9787.75 275.798  83
  -6   0  -2 10321.4 297.370  50
  -6   0  -2 9888.72 283.711  78
  -6   0  -2 9755.60 269.755  77
   6   0   3 8053.33 264.986  47
   6   0   3 8112.23 263.121  46
   6   0   3 8504.15 270.732  70
  -6   0  -3 8820.19 243.723  69
  -6   0  -3 8552.05 276.346 106
  -6   0  -3 8415.95 277.920 105
  -6   0  -3 8598.94 276.318  44
  -6   0  -3 8262.71 271.387 104
  -6   0  -3 8204.43 276.942 103
   6   0   3 8279.57 273.980 102
   6   0   3 8517.37 277.894 101
   6   0   3 8564.78 275.575 100
  -6   0  -3 8592.25 249.102  61
   6   0   3 8217.66 270.101  99
   6   0   3 8125.84 271.565  98
  -6   0  -3 8300.86 259.636  87
   6   0   3 8306.13 268.652  53
   6   0   3 8315.72 269.918  20
   6   0   3 8154.89 269.221  85
  -6   0  -3 8736.54 256.724  52
   6   0   3 8502.12 243.350  83
  -6   0  -3 8467.81 270.002  50
  -6   0  -3 8294.81 259.786  78
   6   0   4 2440.24 144.439  47
   6   0   4 2221.57 137.872  46
   6   0   4 2367.22 137.246  70
  -6   0  -4 2439.27 140.875 106
  -6   0  -4 2264.66 137.499 105
  -6   0  -4 2504.19 146.123  44
  -6   0  -4 2295.07 137.679 104
  -6   0  -4 2391.12 141.500 103
   6   0   4 2270.36 137.492 102
   6   0   4 2426.36 141.095 101
   6   0   4 2350.31 139.656 100
   6   0   4 2332.15 138.222  99
   6   0   4 2317.65 138.471  98
  -6   0  -4 2375.25 133.506  87
   6   0   4 2383.14 137.599  53
   6   0   4 2397.52 137.985  20
   6   0   4 2417.95 149.150  85
  -6   0  -4 2594.47 147.792  50
  -6   0  -4 2658.56 147.187  78
   6   0   5 233.360 46.2042  47
   6   0   5 332.964 47.5900  42
   6   0   5 208.516 42.2202  46
   6   0   5 232.567 41.6062  70
  -6   0  -5 215.850 38.4481 106
  -6   0  -5 242.644 41.0041 105
  -6   0  -5 194.859 45.6018  44
  -6   0  -5 276.124 45.2694 103
  -6   0  -5 250.216 40.7574 104
   6   0   5 243.695 41.8917  24
   6   0   5 278.810 45.0134  53
  -6   0  -5 225.400 42.0386  87
   6   0   5 219.867 47.8036  85
  -6   0  -5 254.600 51.9930  50
  -6   0  -5 198.748 45.6654  78
   6   0   6 3.95127 19.6685  47
   6   0   6 9.92970 18.3491  46
   6   0   6 29.7753 28.0376  14
  -6   0  -6 42.7153 24.3800  44
   6   0   6 13.7926 16.9383  24
   6   0   6 8.39196 20.5781  85
  -6   0  -6 22.7210 24.4322  50
  -6   0  -6-15.8516 27.0803  78
   6   0   7 435.747 40.3532  47
   6   0   7 451.497 40.6945  46
  -6   0  -7 404.712 36.3175  44
   6   0   7 380.398 35.9866  24
  -6   0  -7 431.663 42.0266  50
  -6   0  -7 410.031 41.2058  78
  -6  -1   8 16.4423 13.6293  31
   6   1  -8 40.1250 15.8593  60
  -6  -1   8 33.2232 17.4032  59
   6   1  -8 48.8944 16.3205  58
  -6  -1   8 67.4914 21.5608  21
  -6  -1   7 4609.63 169.770  59
  -6  -1   7 4691.92 140.465  57
   6   1  -7 4131.18 131.470  56
  -6  -1   7 4500.60 173.060  21
  -6  -1   6 321.874 47.7242  71
  -6  -1   6 340.937 51.0780  29
  -6  -1   6 289.836 52.9871  59
  -6  -1   6 356.978 49.5141  57
   6   1  -6 376.766 52.4863  56
  -6  -1   6 365.109 55.8423  52
   6   1  -6 346.026 47.1595  84
  -6  -1   6 362.482 54.9439   8
  -6  -1   6 317.860 51.6573  82
  -6  -1   6 297.225 52.3197  50
   6   1  -5 5359.83 193.718  72
  -6  -1   5 4965.87 188.959  71
  -6  -1   5 5134.25 214.385  44
  -6  -1   5 5268.26 199.019  29
  -6  -1   5 5018.10 217.420  59
  -6  -1   5 5304.48 189.159  57
  -6  -1   5 5203.27 201.521  52
   6   1  -5 5413.96 201.430  84
  -6  -1   5 5484.27 203.116  82
  -6  -1   5 4995.60 207.645  50
  -6  -1   5 5158.17 211.341   8
  -6  -1   5 5372.89 200.078  78
   6   1  -4 13253.3 324.964  72
  -6  -1   4 13234.5 317.498  71
  -6  -1   4 13244.6 325.753  69
   6   1  -4 14043.6 320.431  45
  -6  -1   4 13011.4 343.753  44
  -6  -1   4 12848.7 341.000  10
  -6  -1   4 14038.6 337.838  52
   6   1  -4 13338.3 333.153  84
  -6  -1   4 13854.7 336.957  82
  -6  -1   4 12509.0 335.244  50
  -6  -1   4 13651.4 328.268  78
  -6  -1   3 34574.6 513.749  71
  -6  -1   3 34393.7 515.235  69
   6   1  -3 35288.9 530.300  45
  -6  -1   3 33277.4 548.826  44
  -6  -1   3 36454.0 527.354 105
  -6  -1   3 36008.8 518.443 104
   6   1  -3 39902.4 1012.58  66
   6   1  -3 35091.1 527.997 101
   6   1  -3 35056.2 522.575 100
  -6  -1   3 34428.4 540.282  41
   6   1  -3 40637.6 1028.40  62
   6   1  -3 35783.6 525.413  99
   6   1  -3 34850.9 524.940  98
   6   1  -3 34739.6 520.580  97
  -6  -1   3 34640.6 564.769  10
  -6  -1   3 40321.4 1000.82   3
  -6  -1   3 34767.9 527.411 107
  -6  -1   3 33393.5 536.702  87
  -6  -1   3 35295.4 536.792  52
   6   1  -3 33346.7 533.351  84
   6   1  -3 34797.6 520.915  83
  -6  -1   3 33732.6 546.362  50
  -6  -1   3 35107.0 529.663  78
   6   1  -3 39120.0 1031.14  34
  -6  -1   2 5659.62 206.395  71
  -6  -1   2 5408.64 200.381  69
   6   1  -2 5609.63 214.299  45
  -6  -1   2 5906.80 229.439 107
  -6  -1   2 5543.12 222.227  44
  -6  -1   2 5734.54 220.654 105
  -6  -1   2 5633.68 215.781 104
   6   1  -2 6223.30 398.166  66
   6   1  -2 5728.95 204.603  27
   6   1  -2 5609.33 217.803 101
   6   1  -2 5610.97 215.488 100
  -6  -1   2 5538.45 211.223  41
   6   1  -2 6273.19 392.283  62
   6   1  -2 5899.68 220.514  99
   6   1  -2 5770.85 219.844  98
   6   1  -2 5787.80 219.228  97
  -6  -1   2 5485.92 384.122  40
  -6  -1   2 5057.77 356.558  96
   6   1  -2 5421.83 372.549  95
   6   1  -2 5144.79 359.950  94
  -6  -1   2 5486.07 371.873  93
   6   1  -2 5071.21 358.663  92
  -6  -1   2 5920.68 233.306  10
  -6  -1   2 6201.89 393.628   3
  -6  -1   2 5016.22 359.330  91
   6   1  -2 5812.74 379.366  90
  -6  -1   2 5834.31 225.670  87
   6   1  -2 6718.12 423.107  64
  -6  -1   2 5742.17 214.154  52
   6   1  -2 5485.65 217.422  84
   6   1  -2 5769.53 217.856  83
  -6  -1   2 5762.81 222.152  50
  -6  -1   2 6011.75 220.707  78
   6   1  -2 6794.21 432.121  34
   6   1  -1 84.3021 70.4941  34
  -6  -1   1 94.5520 49.3580   3
  -6  -1   1 204.395 43.3368  71
   6   1  -1 325.377 51.4671  70
   6   1  -1 266.905 51.4382  45
  -6  -1   1 212.673 57.7881  44
  -6  -1   1 199.236 45.2448 104
   6   1  -1 419.351 105.738  66
  -6  -1   1 245.477 48.9291 103
   6   1  -1 402.489 104.886  64
   6   1  -1 223.006 49.9187  27
   6   1  -1 278.007 55.8123 101
   6   1  -1 266.869 52.2113 100
  -6  -1   1 246.083 44.6066  69
   6   1  -1 170.544 64.4945  62
   6   1  -1 245.433 50.6185  99
  -6  -1   1 250.619 53.3523  41
   6   1  -1 310.826 56.7443  98
  -6  -1   1 254.982 82.3840  40
  -6  -1   1 219.081 73.5358  96
   6   1  -1 390.806 113.596  95
   6   1  -1 104.897 72.3699  94
  -6  -1   1 224.026 80.5427  93
   6   1  -1 332.474 102.214  92
  -6  -1   1 191.149 90.6085  91
   6   1  -1 50.6887 76.6003  90
  -6  -1   1 283.751 56.8800  87
   6   1  -1 299.416 51.1395  53
   6   1  -1 259.456 51.8910 102
  -6  -1   1 294.155 55.3176 106
   6   1  -1 298.031 54.4809  84
  -6  -1   1 196.775 44.2450  52
   6   1  -1 271.318 52.9382  20
   6   1  -1 230.493 48.6926  83
  -6  -1   1 251.853 50.0630 105
  -6  -1   1 260.585 52.4594  50
  -6  -1   1 273.905 55.0547  78
  -6  -1   1 283.320 56.4602  77
  -6  -1   0 5238.93 191.252  71
   6   1   0 5585.61 208.480  70
   6   1   0 5546.10 213.171  45
  -6  -1   0 5751.93 228.947 105
  -6  -1   0 5760.10 226.002 106
  -6  -1   0 5325.19 214.104  44
  -6  -1   0 5637.03 224.738 104
  -6  -1   0 5584.71 230.101 103
   6   1   0 5847.41 369.745  66
   6   1   0 5690.19 227.921 102
   6   1   0 5520.88 212.294  27
   6   1   0 6169.81 390.337  64
   6   1   0 5591.47 225.374 101
  -6  -1   0 5979.12 357.875  63
   6   1   0 5744.85 227.841 100
  -6  -1   0 5405.68 198.149  41
   6   1   0 6497.19 363.827  62
   6   1   0 5512.04 224.597  99
   6   1   0 5477.70 226.197  98
  -6  -1   0 5642.62 386.584  40
  -6  -1   0 5568.11 390.321  96
   6   1   0 5179.42 375.032  95
   6   1   0 5732.39 393.010  94
  -6  -1   0 5477.29 389.105  93
   6   1   0 4983.05 367.266  92
  -6  -1   0 6439.10 389.990   3
  -6  -1   0 5092.96 377.898  91
   6   1   0 5492.76 391.301  90
   6   1   0 5540.15 219.207  20
  -6  -1   0 5522.97 216.193  87
   6   1   0 5475.98 208.979  53
  -6  -1   0 5661.28 209.310  86
  -6  -1   0 5644.31 211.110  52
   6   1   0 5126.49 205.068  84
   6   1   0 5633.01 216.142  83
  -6  -1   0 5472.89 213.034  50
  -6  -1   0 5547.01 209.785  78
  -6  -1   0 5530.20 206.970  77
   6   1   0 6004.52 401.169  34
   6   1   1 9777.37 283.004  70
   6   1   1 9712.61 278.747  45
  -6  -1  -1 10115.5 301.452 106
  -6  -1  -1 9742.95 288.571  44
  -6  -1  -1 10216.2 303.174 104
  -6  -1  -1 9659.44 303.205 103
   6   1   1 10592.0 488.755  66
   6   1   1 9828.58 301.744 102
   6   1   1 10547.7 500.875  64
   6   1   1 9929.78 302.480 101
  -6  -1  -1 10345.8 499.895  63
   6   1   1 9699.93 296.418 100
  -6  -1  -1 9897.32 280.035  61
   6   1   1 9676.80 296.634  99
   6   1   1 10180.6 305.359  98
  -6  -1  -1 9668.28 507.939  40
  -6  -1  -1 9372.69 507.794  96
   6   1   1 9493.83 510.482  95
   6   1   1 10280.1 530.326  94
   6   1   1 9130.33 499.093  92
  -6  -1  -1 10036.4 525.791  91
  -6  -1  -1 10796.7 493.175   3
   6   1   1 9605.34 516.186  90
  -6  -1  -1 9904.12 287.336  87
   6   1   1 9823.44 294.056  20
   6   1   1 9490.89 281.963  53
  -6  -1  -1 9848.40 301.246 105
   6   1   1 9689.35 276.591  84
  -6  -1  -1 9974.56 282.186  52
   6   1   1 9702.45 281.389  83
  -6  -1  -1 9998.28 285.369  50
  -6  -1  -1 9845.51 282.385  78
  -6  -1  -1 9460.39 264.063  77
  -6  -1  -2 161.860 80.6273   3
   6   1   2 177.318 42.6903  47
   6   1   2 63.2088 29.8411  46
   6   1   2 74.1179 34.1428  70
   6   1   2 41.3288 23.2578  45
  -6  -1  -2 218.691 50.8831 106
  -6  -1  -2 73.2026 43.1780  44
  -6  -1  -2 189.148 49.1955 104
  -6  -1  -2 243.438 53.4284 103
  -6  -1  -2 86.7367 58.9928  65
   6   1   2 151.043 41.8027 102
   6   1   2 146.999 44.1628 101
  -6  -1  -2 244.942 55.3661 105
  -6  -1  -2-135.316 68.3619  63
   6   1   2 140.006 41.5634 100
   6   1   2 174.843 46.8493  99
  -6  -1  -2 124.183 39.0969  61
   6   1   2 142.322 41.5691  98
  -6  -1  -2 152.064 72.6201  40
  -6  -1  -2 401.918 118.399  96
   6   1   2 235.722 84.1636  95
   6   1   2 289.609 89.9040  94
   6   1   2 14.0531 31.9187  92
  -6  -1  -2 307.116 96.7612  91
   6   1   2 88.5963 59.0842  90
  -6  -1  -2 87.7532 39.6434  87
   6   1   2 92.4639 36.1114  53
   6   1   2 71.6710 27.5143  84
  -6  -1  -2 102.331 46.8500  52
   6   1   2 94.2221 34.2803  20
   6   1   2 167.014 42.7628  83
  -6  -1  -2 116.524 39.2374  50
  -6  -1  -2 104.115 43.6136  78
   6   1   3 4134.43 187.010  47
   6   1   3 4003.57 181.228  46
   6   1   3 4156.08 190.432  70
   6   1   3 4444.88 179.191  45
  -6  -1  -3 4135.47 193.985 106
  -6  -1  -3 4354.46 198.038 105
  -6  -1  -3 4214.67 190.742  44
  -6  -1  -3 4131.29 192.656 104
  -6  -1  -3 4348.08 199.488 103
   6   1   3 4383.80 199.114 102
   6   1   3 4337.86 197.096 101
   6   1   3 4505.52 199.956 100
   6   1   3 4225.38 193.473  99
   6   1   3 4292.40 197.729  98
  -6  -1  -3 4211.34 184.678  87
   6   1   3 4404.41 198.530  20
   6   1   3 4268.73 194.462  53
   6   1   3 4077.98 194.978  85
  -6  -1  -3 4024.00 185.720  52
   6   1   3 4382.07 180.139  83
  -6  -1  -3 3991.66 184.670  50
  -6  -1  -3 4233.93 192.533  78
   6   1   4 1887.25 129.288  47
   6   1   4 1810.88 125.305  46
   6   1   4 1861.63 127.185  70
  -6  -1  -4 1728.27 121.747 106
  -6  -1  -4 1986.04 129.906 105
  -6  -1  -4 1737.54 122.203  44
  -6  -1  -4 1786.33 123.895 104
  -6  -1  -4 1861.62 127.061 103
   6   1   4 1682.15 120.789 102
   6   1   4 1707.17 120.390 101
   6   1   4 1723.31 121.506 100
   6   1   4 1849.31 123.934  99
   6   1   4 1832.56 123.556  98
  -6  -1  -4 1833.55 118.411  87
   6   1   4 1728.29 122.131  20
   6   1   4 1751.96 123.583  53
   6   1   4 1826.40 134.595  85
  -6  -1  -4 1886.22 127.203  50
  -6  -1  -4 1706.06 124.917  78
   6   1   5 6043.98 223.137  47
   6   1   5 5995.90 220.611  46
   6   1   5 5916.53 208.956  70
  -6  -1  -5 6282.61 215.887  44
  -6  -1  -5 5929.28 199.281 104
  -6  -1  -5 5981.11 203.177 103
   6   1   5 6453.62 207.267  42
   6   1   5 5868.70 210.071  28
   6   1   5 6149.69 204.278  24
   6   1   5 5855.43 210.060  53
   6   1   5 5587.16 228.912  85
  -6  -1  -5 5989.63 200.169 106
  -6  -1  -5 6221.93 219.137  50
  -6  -1  -5 6087.14 220.533  78
  -6  -1  -5 6150.96 203.843 105
   6   1   6 1590.39 106.710  47
   6   1   6 1757.63 112.463  46
  -6  -1  -6 1652.06 100.296  44
   6   1   6 1686.12 110.885  14
   6   1   6 1662.82 99.6124  24
   6   1   6 1537.94 113.745  85
  -6  -1  -6 1712.57 105.756  50
  -6  -1  -6 1776.82 111.654  78
   6   1   7 1526.31 89.0628  47
   6   1   7 1416.07 85.4326  46
   6   1   7 1345.85 82.6196  14
  -6  -1  -7 1327.91 69.6406  44
   6   1   7 1419.01 77.7917  24
  -6  -1  -7 1379.03 81.2094  52
  -6  -1  -7 1414.16 81.6574  50
  -6  -1  -7 1385.04 84.3539  78
   6   1   8 128.847 21.5496  15
  -6  -1  -8 144.491 22.2210  78
  -6  -2   8 2035.90 79.3624  31
  -6  -2   8 2192.17 79.5782  59
  -6  -2   7 3819.43 145.389  59
   6   2  -7 3429.40 122.672  58
  -6  -2   7 3781.58 147.123  21
  -6  -2   7 3623.50 131.649  52
  -6  -2   6 6235.82 223.029  59
   6   2  -6 6452.98 205.464  58
   6   2  -6 6126.11 183.984  56
  -6  -2   6 5750.95 214.878  21
  -6  -2   6 6422.13 207.802  52
  -6  -2   6 5991.39 197.612   8
  -6  -2   6 6697.64 214.429  50
  -6  -2   6 6150.36 198.454  78
   6   2  -5 2951.07 134.981  72
  -6  -2   5 2836.37 155.931  44
  -6  -2   5 2996.22 171.946  59
   6   2  -5 3031.79 148.994  56
  -6  -2   5 2966.55 155.754  52
   6   2  -5 3103.89 138.927  84
  -6  -2   5 2904.11 157.264   8
  -6  -2   5 2805.62 152.038  50
  -6  -2   5 3006.35 153.692  78
   6   2  -4 9949.98 276.549  72
  -6  -2   4 9425.72 263.453  71
  -6  -2   4 9805.43 295.406  44
   6   2  -4 9670.12 281.753  56
  -6  -2   4 9569.12 286.443  52
   6   2  -4 10158.5 278.036  84
  -6  -2   4 9457.59 285.113  50
  -6  -2   4 9483.97 299.280   8
  -6  -2   4 9340.49 280.828  78
   6   2  -3 2932.94 157.007  72
  -6  -2   3 2949.74 151.982  71
  -6  -2   3 2923.00 147.190  69
   6   2  -3 3174.28 155.687  45
  -6  -2   3 2917.62 163.979  44
  -6  -2   3 2969.15 153.293 105
  -6  -2   3 3062.22 153.400 104
   6   2  -3 3177.57 160.297 101
   6   2  -3 3010.63 154.926 100
   6   2  -3 3115.57 156.488  99
   6   2  -3 2814.99 150.424  98
   6   2  -3 2945.38 152.548  97
  -6  -2   3 2732.69 160.804  10
  -6  -2   3 2855.42 153.978 107
  -6  -2   3 3047.50 164.780  52
   6   2  -3 3003.60 159.579  84
   6   2  -3 3126.26 153.692  83
  -6  -2   3 2859.85 158.239  50
  -6  -2   3 3008.00 161.585  78
   6   2  -2 48047.8 630.413  72
  -6  -2   2 48025.7 602.072  71
   6   2  -2 50019.3 629.888  45
  -6  -2   2 50498.1 659.948 105
  -6  -2   2 50202.5 648.060 104
   6   2  -2 53124.9 1097.16  66
   6   2  -2 57792.1 1238.42  64
   6   2  -2 49253.3 648.338 101
   6   2  -2 48908.8 642.445 100
   6   2  -2 56166.7 1152.25  62
   6   2  -2 48530.4 639.311  99
  -6  -2   2 48764.0 648.686  44
   6   2  -2 49679.9 650.301  98
   6   2  -2 48553.0 641.590  97
  -6  -2   2 47361.8 1157.05  40
  -6  -2   2 45993.7 1082.45  96
   6   2  -2 46552.7 1106.41  95
   6   2  -2 46381.2 1093.75  94
  -6  -2   2 45685.8 1089.78  93
   6   2  -2 45906.6 1091.23  92
  -6  -2   2 48929.1 666.930  10
  -6  -2   2 56275.0 1184.81   3
  -6  -2   2 46206.0 1088.49  91
   6   2  -2 46457.5 1099.85  90
  -6  -2   2 48975.0 652.670  87
  -6  -2   2 49866.4 617.075  86
  -6  -2   2 50561.1 652.262  52
   6   2  -2 48000.6 636.614  84
  -6  -2   2 49050.2 665.586 107
   6   2  -2 49331.5 633.089  83
  -6  -2   2 47543.2 628.817  50
  -6  -2   2 49010.4 643.065  78
   6   2  -2 56984.0 1260.73  34
   6   2  -1 12886.1 322.733  72
  -6  -2   1 12836.9 310.285  71
   6   2  -1 13358.8 330.500  45
  -6  -2   1 13077.3 341.697 105
  -6  -2   1 12623.1 328.345  44
  -6  -2   1 13027.2 337.022 104
   6   2  -1 15124.9 616.601  64
   6   2  -1 13058.9 342.350 101
   6   2  -1 13041.1 339.277 100
  -6  -2   1 13615.8 311.777  41
   6   2  -1 14427.4 555.336  62
   6   2  -1 13026.8 340.152  99
  -6  -2   1 13543.6 352.665 107
   6   2  -1 12818.0 341.507  98
   6   2  -1 13492.5 344.454  97
  -6  -2   1 12848.5 583.128  40
  -6  -2   1 11794.1 558.951  96
   6   2  -1 12969.5 587.608  95
   6   2  -1 12715.9 580.398  94
  -6  -2   1 11947.9 568.326  93
  -6  -2   1 15052.5 611.270   3
   6   2  -1 12504.9 576.788  92
  -6  -2   1 13230.5 339.399  10
  -6  -2   1 12488.9 579.760  91
   6   2  -1 13028.1 590.204  90
  -6  -2   1 13239.2 335.653  87
  -6  -2   1 13461.9 324.120  86
  -6  -2   1 13293.0 331.327  52
   6   2  -1 12848.4 328.564  84
   6   2  -1 13050.9 328.320  83
  -6  -2   1 12731.6 321.085  50
  -6  -2   1 13351.2 332.510  78
   6   2  -1 14469.9 625.530  34
   6   2   0 1357.23 104.511  72
   6   2   0 1393.38 103.444  70
   6   2   0 1463.78 110.915  45
  -6  -2   0 1359.35 113.601 105
  -6  -2   0 1448.32 112.487  44
  -6  -2   0 1392.50 113.280 104
  -6  -2   0 1324.67 111.670 103
   6   2   0 1330.89 111.945 102
   6   2   0 1427.20 182.819  64
   6   2   0 1359.77 114.201 101
  -6  -2   0 1333.57 166.461  63
   6   2   0 1386.71 114.462 100
   6   2   0 1298.96 111.900  99
   6   2   0 1361.41 114.337  98
   6   2   0 1410.53 112.580  97
  -6  -2   0 1446.95 194.587  40
  -6  -2   0 1452.71 192.192  96
   6   2   0 1317.35 186.856  95
  -6  -2   0 1252.66 111.329 107
   6   2   0 1369.96 196.240  94
  -6  -2   0 1218.39 172.505  93
  -6  -2   0 1412.70 182.437   3
   6   2   0 1578.38 208.286  92
  -6  -2   0 1337.54 108.661  10
   6   2   0 1272.14 99.0641  56
  -6  -2   0 1601.84 207.977  91
   6   2   0 1499.64 202.861  90
  -6  -2   0 1454.83 108.443  89
   6   2   0 1331.33 108.456  20
  -6  -2   0 1493.68 115.459  87
   6   2   0 1375.16 102.892  53
  -6  -2   0 1335.54 108.792  86
  -6  -2   0 1416.40 110.031  52
   6   2   0 1367.61 107.694  84
   6   2   0 1357.52 109.246  83
  -6  -2   0 1325.20 103.817  50
  -6  -2   0 1652.87 206.815  35
  -6  -2   0 1372.98 109.074  78
   6   2   0 1404.74 198.650  34
   6   2   1 311.885 104.081  34
  -6  -2  -1 24.0406 26.6761   3
   6   2   1 170.204 40.3171  72
   6   2   1 78.8955 30.2415  70
   6   2   1 225.938 46.1253  45
  -6  -2  -1 97.0535 41.9106 106
  -6  -2  -1 90.8034 39.7039 105
   6   2   1 95.6333 40.2314  14
  -6  -2  -1 60.8800 38.4808  44
  -6  -2  -1 66.3987 29.7043 104
  -6  -2  -1 99.2080 38.8374 103
   6   2   1 93.4569 34.4092 102
   6   2   1 73.2934 61.3617  64
   6   2   1 66.3251 30.1218 101
  -6  -2  -1 294.275 83.1272  63
   6   2   1 53.0876 31.6181 100
   6   2   1 53.5630 31.0952  99
   6   2   1 101.945 36.4696  98
  -6  -2  -1 217.498 84.9402  40
  -6  -2  -1 94.7092 63.9055  96
   6   2   1 8.55859 31.4552  95
   6   2   1 74.6617 45.0010  94
  -6  -2  -1 181.469 76.1424  93
   6   2   1 208.975 75.8000  92
   6   2   1 79.7123 34.6642  56
  -6  -2  -1 136.001 39.5366  10
  -6  -2  -1 105.615 55.7765  91
   6   2   1-203.726 76.2799  90
  -6  -2  -1 58.0682 35.8554  89
  -6  -2  -1 120.890 47.5042  87
   6   2   1 116.940 38.7541  53
  -6  -2  -1 124.465 43.2964  86
   6   2   1 70.2637 32.2079  84
   6   2   1 127.513 41.0730  20
   6   2   1 68.3580 31.6195  83
  -6  -2  -1 149.227 79.7585  35
  -6  -2  -1 70.8988 32.2981  50
  -6  -2  -1 144.460 42.0516  78
   6   2   2 2317.92 131.092  47
   6   2   2 2140.77 121.924  72
   6   2   2 2231.22 137.867  70
   6   2   2 2234.11 134.314  45
  -6  -2  -2 2038.24 141.579 103
  -6  -2  -2 2386.44 138.613  44
   6   2   2 2340.33 143.171  14
  -6  -2  -2 2237.00 142.694 104
  -6  -2  -2 2444.95 232.588  65
   6   2   2 2261.58 145.928 101
  -6  -2  -2 2333.52 249.103  63
   6   2   2 2275.28 144.301 100
   6   2   2 2174.42 141.222  99
   6   2   2 2166.60 141.736  98
  -6  -2  -2 1943.31 232.459  40
  -6  -2  -2 1940.46 240.411  96
   6   2   2 1978.58 227.601  95
   6   2   2 2213.79 240.025  94
  -6  -2  -2 2122.65 238.164  93
   6   2   2 2109.69 245.299  92
  -6  -2  -2 2258.38 218.612   3
  -6  -2  -2 2116.69 240.318  91
   6   2   2 2180.63 250.307  90
   6   2   2 2161.58 143.329 102
   6   2   2 2267.33 142.441  20
  -6  -2  -2 2383.64 147.580 106
  -6  -2  -2 2148.42 134.948  87
  -6  -2  -2 2291.40 146.632 105
   6   2   2 2313.40 140.797  53
   6   2   2 2213.00 135.565  84
  -6  -2  -2 2217.01 138.398  52
   6   2   2 2213.33 134.889  83
  -6  -2  -2 2583.68 247.941  35
  -6  -2  -2 2373.03 137.946  50
  -6  -2  -2 2430.66 146.792  78
   6   2   3 25849.9 454.750  47
   6   2   3 24680.0 437.360  46
   6   2   3 24643.7 462.596  70
   6   2   3 25329.3 443.029  45
  -6  -2  -3 24611.0 467.975 106
  -6  -2  -3 25424.8 474.221 105
  -6  -2  -3 25446.6 443.385  44
   6   2   3 25967.9 485.435  14
  -6  -2  -3 25070.8 469.053 104
  -6  -2  -3 24904.7 477.904 103
  -6  -2  -3 29574.3 857.019  65
   6   2   3 24474.9 469.624 102
   6   2   3 25302.2 473.794 101
  -6  -2  -3 30621.0 913.622  63
   6   2   3 25307.6 470.362 100
   6   2   3 24877.9 467.983  99
   6   2   3 25304.1 475.413  98
  -6  -2  -3 24212.9 779.322  40
  -6  -2  -3 23675.8 798.613  96
   6   2   3 24534.6 818.354  95
   6   2   3 24494.8 817.368  94
  -6  -2  -3 23621.1 804.279  93
   6   2   3 24436.7 820.741  92
  -6  -2  -3 24371.1 812.785  91
   6   2   3 24363.7 817.873  90
   6   2   3 24268.9 464.442  20
  -6  -2  -3 25441.9 440.456  87
   6   2   3 24360.4 463.400  53
   6   2   3 25449.0 439.887  84
  -6  -2  -3 25622.4 466.179  52
   6   2   3 25695.1 443.292  83
  -6  -2  -3 25050.2 448.637  50
  -6  -2  -3 25430.8 466.696  78
   6   2   4 18864.9 400.755  47
   6   2   4 18789.2 393.463  46
   6   2   4 18525.0 400.540  70
   6   2   4 19798.1 370.030  45
  -6  -2  -4 19045.5 396.365 105
  -6  -2  -4 19865.4 385.906  44
   6   2   4 18835.7 417.337  14
  -6  -2  -4 18182.3 389.566 104
  -6  -2  -4 18153.2 395.883 103
  -6  -2  -4 18368.1 388.549 106
   6   2   4 17880.0 394.677 102
   6   2   4 18889.6 396.237 101
   6   2   4 18329.7 390.416 100
   6   2   4 18940.9 393.182  99
   6   2   4 19117.4 394.798  98
   6   2   4 18513.9 390.047  20
   6   2   4 18542.9 403.747  53
  -6  -2  -4 19568.0 389.942  50
  -6  -2  -4 18596.4 397.547  78
   6   2   5 575.367 72.6635  47
   6   2   5 557.748 71.1230  46
   6   2   5 713.015 78.5689  70
  -6  -2  -5 739.575 74.8646  44
   6   2   5 664.574 80.5103  14
   6   2   5 681.068 77.7000  28
   6   2   5 628.645 68.5997 101
   6   2   5 700.144 72.6198 100
   6   2   5 641.568 67.4443  99
   6   2   5 675.085 69.9368  98
   6   2   5 620.264 67.5357  97
   6   2   5 631.170 75.2775  53
  -6  -2  -5 771.590 80.5364  50
  -6  -2  -5 820.476 87.4816  78
   6   2   6 93.1260 38.0424  47
   6   2   6 31.3310 26.0231  46
   6   2   6 32.8696 25.2921  70
   6   2   6 53.0132 30.1110  14
   6   2   6 35.4024 22.4353  28
   6   2   6 58.2519 27.2038  53
  -6  -2  -6 39.5406 30.7371  50
  -6  -2  -6 161.755 45.1635  78
   6   2   7 13859.1 288.773  47
   6   2   7 13744.6 288.173  46
   6   2   7 13095.0 276.196  14
   6   2   7 13710.9 246.498  24
  -6  -2  -7 13841.0 258.368  50
  -6  -2  -7 13718.4 274.697  78
   6   2   8 256.375 33.5394  46
   6   2   8 216.322 31.2222  15
  -6  -2  -8 279.099 36.2179  52
  -6  -2  -8 225.628 26.8331  50
  -6  -2  -8 231.550 31.7258  78
   6   3  -7 7496.34 164.656  73
   6   3  -7 7556.24 155.205  60
  -6  -3   7 7941.75 175.824  59
  -6  -3   7 7965.38 179.006  21
   6   3  -6 249.974 41.3198  60
  -6  -3   6 268.533 46.2069  59
   6   3  -6 290.207 42.3498  58
  -6  -3   6 317.204 48.7961  21
  -6  -3   6 330.050 49.0836  52
  -6  -3   6 327.052 46.9344  78
  -6  -3   5 10612.9 303.134  59
   6   3  -5 10514.8 272.676  58
   6   3  -5 10964.7 262.719  56
  -6  -3   5 10562.4 294.777  21
  -6  -3   5 10884.8 286.613  52
  -6  -3   5 10496.6 286.024   8
  -6  -3   5 10268.6 265.228  50
  -6  -3   5 10792.5 284.479  78
   6   3  -4 13889.0 309.614  72
  -6  -3   4 12715.8 326.200  44
   6   3  -4 13009.7 327.400  58
   6   3  -4 13414.1 323.044  56
  -6  -3   4 13600.5 312.288  89
  -6  -3   4 13783.3 310.200  86
  -6  -3   4 12927.8 332.511  52
   6   3  -4 14136.6 302.669  84
  -6  -3   4 13233.2 346.495   8
  -6  -3   4 12938.0 318.268  50
  -6  -3   4 13006.4 332.876  78
   6   3  -3 4621.23 192.703  72
  -6  -3   3 4552.80 187.792  16
  -6  -3   3 4412.84 192.353 107
  -6  -3   3 4552.04 199.249  44
  -6  -3   3 4685.71 191.406 104
   6   3  -3 4526.62 196.137 103
  -6  -3   3 4172.56 194.046 102
   6   3  -3 4554.10 189.924 100
   6   3  -3 4817.66 194.923  99
   6   3  -3 4607.12 192.597  98
   6   3  -3 4297.26 184.177  97
   6   3  -3 4494.74 198.464  58
   6   3  -3 4320.36 191.145  56
  -6  -3   3 4522.16 191.403  89
  -6  -3   3 4657.82 191.552  86
  -6  -3   3 4464.06 200.440  52
   6   3  -3 4581.27 188.557  84
   6   3  -3 4732.71 183.084  83
  -6  -3   3 4333.98 187.510  50
  -6  -3   3 4408.29 206.490   8
  -6  -3   3 4490.51 200.558  78
   6   3  -2 505.136 68.1194  72
   6   3  -2 1025.29 91.7776  45
  -6  -3   2 597.103 76.7730 107
  -6  -3   2 654.281 79.2500  44
  -6  -3   2 546.032 73.6640 105
  -6  -3   2 559.656 73.8999 104
   6   3  -2 565.230 73.8666 101
   6   3  -2 558.281 72.7114 100
   6   3  -2 567.207 74.7967  99
   6   3  -2 529.785 72.1550  98
   6   3  -2 566.702 74.3336  97
   6   3  -2 598.651 75.8161  58
   6   3  -2 613.570 75.6838  56
  -6  -3   2 558.140 71.1623  89
  -6  -3   2 586.484 75.3132  86
  -6  -3   2 519.466 73.8667  52
   6   3  -2 585.412 73.5420  84
   6   3  -2 583.883 70.8535  83
  -6  -3   2 616.654 75.3159  50
  -6  -3   2 628.166 83.9653   8
  -6  -3   2 646.619 80.3190  78
   6   3  -1 43465.2 600.282  72
   6   3  -1 43992.1 599.548  45
  -6  -3   1 43350.5 593.753  44
  -6  -3   1 44959.6 637.305 105
  -6  -3   1 45247.7 633.096 104
   6   3  -1 51146.7 1134.20  64
   6   3  -1 43933.1 630.280 101
   6   3  -1 44157.2 631.099 100
   6   3  -1 44413.3 629.681  99
   6   3  -1 43509.0 629.559  98
  -6  -3   1 45034.8 1100.77  40
   6   3  -1 44795.4 629.762  97
  -6  -3   1 43456.6 1084.77  96
   6   3  -1 43554.4 1093.52  95
   6   3  -1 42774.7 580.817  58
   6   3  -1 43003.9 1079.51  94
  -6  -3   1 52542.3 1156.43   3
  -6  -3   1 43137.5 619.778  10
  -6  -3   1 42818.0 1089.08  93
   6   3  -1 44058.9 601.895  56
  -6  -3   1 43521.6 1097.18  91
   6   3  -1 44896.1 1111.06  90
  -6  -3   1 46146.6 617.322  89
  -6  -3   1 43947.8 616.106  87
  -6  -3   1 43029.9 613.189  86
  -6  -3   1 45062.2 618.071  52
   6   3  -1 43705.4 609.501  84
  -6  -3   1 45674.2 650.280 107
   6   3  -1 44644.6 609.186  83
  -6  -3   1 44002.9 580.383  50
  -6  -3   1 50887.6 1168.78  35
  -6  -3   1 44248.3 616.038  78
   6   3  -1 50985.7 1182.42  34
  -6  -3   0 2342.17 133.286  48
   6   3   0 2202.87 134.743  72
   6   3   0 2581.80 135.726  70
   6   3   0 2346.35 140.185  45
  -6  -3   0 2025.43 143.090 107
  -6  -3   0 2272.82 135.352  44
  -6  -3   0 2359.95 147.113 104
   6   3   0 2249.89 235.576  64
   6   3   0 2260.40 147.166 101
   6   3   0 2274.56 146.675 100
   6   3   0 2438.96 151.767  99
   6   3   0 2260.67 147.258  98
   6   3   0 2219.94 143.914  97
  -6  -3   0 2189.49 237.836  40
  -6  -3   0 1987.22 235.861  96
   6   3   0 1998.02 236.169  95
   6   3   0 2354.85 133.368  58
   6   3   0 2033.13 240.472  94
  -6  -3   0 2424.07 245.616   3
  -6  -3   0 2302.44 147.054 105
  -6  -3   0 2218.77 254.397  93
  -6  -3   0 2088.16 133.079  10
   6   3   0 2229.40 245.229  92
   6   3   0 2268.35 135.148  56
  -6  -3   0 2458.55 262.564  91
   6   3   0 2375.81 261.329  90
  -6  -3   0 2413.07 143.472  89
  -6  -3   0 2309.00 140.014  87
  -6  -3   0 2165.95 138.624  86
  -6  -3   0 2346.78 142.316  52
   6   3   0 2286.73 140.997  84
   6   3   0 2303.01 140.741  83
  -6  -3   0 2436.24 138.522  50
  -6  -3   0 2353.15 247.711  35
  -6  -3   0 2325.92 142.176  78
   6   3   0 2589.20 268.989  34
  -6  -3  -1 67995.1 705.769  48
   6   3   1 65244.1 712.910  72
   6   3   1 67005.4 726.724  70
   6   3   1 66168.0 739.940  45
   6   3   1 64438.1 732.331  14
  -6  -3  -1 67953.7 789.295 105
  -6  -3  -1 66053.4 702.484  44
  -6  -3  -1 66491.3 769.177 104
   6   3   1 72008.6 1242.55  64
   6   3   1 66297.9 782.804 101
  -6  -3  -1 70789.1 1292.83  63
   6   3   1 66008.7 774.863 100
   6   3   1 64953.3 768.032  99
   6   3   1 66185.2 780.605  98
   6   3   1 66349.6 771.187  97
  -6  -3  -1 60628.5 1235.01  40
  -6  -3  -1 65344.7 1329.57  96
   6   3   1 65598.0 1348.56  95
   6   3   1 65699.7 1338.22  94
  -6  -3  -1 75163.7 1342.80   3
  -6  -3  -1 63479.1 1320.66  93
  -6  -3  -1 64833.7 695.795  10
   6   3   1 63135.4 1323.37  92
   6   3   1 64446.4 689.838  56
  -6  -3  -1 64542.4 1330.68  91
   6   3   1 66104.1 1352.91  90
  -6  -3  -1 68674.5 764.874  89
  -6  -3  -1 65554.2 727.998  87
   6   3   1 64068.7 706.365  53
  -6  -3  -1 61639.2 756.956  86
   6   3   1 65342.7 741.883  84
  -6  -3  -1 66487.4 745.574  52
  -6  -3  -1 67195.6 795.114 107
   6   3   1 66206.2 746.363  83
  -6  -3  -1 75478.4 1381.73  35
  -6  -3  -1 66561.4 696.645  50
  -6  -3  -1 67331.9 742.499  78
   6   3   1 72832.0 1406.74  34
   6   3   2 8812.84 254.836  72
   6   3   2 8635.08 268.345  70
   6   3   2 8669.23 269.027  45
  -6  -3  -2 9127.33 287.182 105
  -6  -3  -2 9078.12 255.244  44
  -6  -3  -2 8929.70 281.628 104
   6   3   2 8780.45 282.975 101
  -6  -3  -2 9686.99 498.053  63
   6   3   2 8829.75 282.778 100
   6   3   2 8701.87 280.087  99
   6   3   2 8744.02 283.071  98
   6   3   2 8988.52 283.765  97
  -6  -3  -2 8227.90 442.031  40
  -6  -3  -2 9111.75 497.829  96
   6   3   2 8419.85 483.875  95
   6   3   2 8332.39 474.587  94
  -6  -3  -2 9331.62 464.603   3
  -6  -3  -2 8303.09 475.020  93
   6   3   2 7892.61 469.501  92
  -6  -3  -2 8197.51 469.121  91
   6   3   2 8396.10 479.302  90
  -6  -3  -2 8604.20 258.298  87
   6   3   2 8503.43 265.235  53
  -6  -3  -2 8874.17 284.302  86
   6   3   2 8831.74 279.109  14
  -6  -3  -2 8744.87 286.533 107
   6   3   2 8446.95 268.296  84
  -6  -3  -2 8847.27 275.310  52
   6   3   2 8682.97 267.651  83
  -6  -3  -2 9996.83 498.566  35
  -6  -3  -2 8713.83 253.376  50
  -6  -3  -2 8529.28 267.077  78
   6   3   2 9692.39 511.851  34
   6   3   3 34.8497 25.0371  47
   6   3   3 93.0858 30.6317  46
   6   3   3 256.524 51.5039  70
  -6  -3  -3 16.9030 30.3829 107
  -6  -3  -3 14.4619 26.6734 105
   6   3   3 145.714 43.6370  14
  -6  -3  -3 39.8234 30.1868 104
  -6  -3  -3 237.850 84.8233  65
   6   3   3 22.8529 26.2962 101
  -6  -3  -3 163.472 67.3008  63
   6   3   3 21.9557 26.2188 100
   6   3   3 2.98116 28.8699  99
   6   3   3 28.3504 28.8765  98
   6   3   3 32.7099 24.9483  97
  -6  -3  -3 395.749 120.934  96
   6   3   3 54.8101 50.1414  95
   6   3   3-23.1891 53.4481  94
  -6  -3  -3 84.1772 71.8531  93
   6   3   3 143.723 71.9955  92
  -6  -3  -3 171.913 73.5822  91
   6   3   3 617.569 132.131  90
   6   3   3 249.214 47.7228  45
   6   3   3 23.5249 28.5658  53
   6   3   3-6.74508 25.0496  84
  -6  -3  -3 101.053 41.5151  52
   6   3   3 15.6994 27.4940  83
  -6  -3  -3 337.215 107.992  35
  -6  -3  -3 27.5428 26.3450  50
  -6  -3  -3 50.1474 38.4928  78
   6   3   4 465.869 65.7464  47
   6   3   4 395.235 58.0889  46
   6   3   4 367.294 60.1359  70
   6   3   4 449.043 60.8797  45
  -6  -3  -4 428.382 63.4588 104
  -6  -3  -4 417.548 62.7852 105
   6   3   4 304.806 56.9165  14
   6   3   4 379.788 62.7128  28
   6   3   4 382.821 60.3418 101
   6   3   4 279.576 53.9042 100
   6   3   4 374.359 58.6154  99
   6   3   4 356.506 58.2679  98
   6   3   4 326.579 55.2161  97
   6   3   4 438.298 66.6172  53
   6   3   4 381.104 59.8199  84
  -6  -3  -4 344.390 60.2849 107
  -6  -3  -4 415.890 64.8309  52
   6   3   4 355.284 54.6962  83
  -6  -3  -4 408.346 59.8584  50
  -6  -3  -4 336.890 57.6447  78
   6   3   5 61806.3 716.021  47
   6   3   5 60565.8 695.846  46
   6   3   5 59100.7 700.144  70
   6   3   5 60337.9 737.627  14
   6   3   5 58557.8 711.426  28
   6   3   5 59248.3 708.920  53
  -6  -3  -5 61890.7 722.433  52
  -6  -3  -5 61732.6 641.718  50
  -6  -3  -5 60273.9 693.787  78
   6   3   6 21177.8 409.597  47
   6   3   6 22194.6 408.524  46
   6   3   6 21701.7 394.466  70
   6   3   6 21095.7 412.176  14
   6   3   6 21548.9 407.365  28
   6   3   6 21669.1 401.674  53
   6   3   6 20126.0 389.791  51
  -6  -3  -6 22523.0 361.619  50
  -6  -3  -6 21872.6 394.959  78
   6   3   7 3368.87 147.203  46
   6   3   7 3107.15 140.418  14
   6   3   7 3318.75 138.594  28
  -6  -3  -7 3608.50 151.750  52
  -6  -3  -7 3403.68 139.480  78
   6   3   8 854.775 61.8937  15
  -6  -3  -8 731.541 55.9479  86
  -6  -3  -8 893.171 64.5866  52
  -6  -3  -8 826.611 55.4151  78
   6   4  -6 4194.49 131.136  73
   6   4  -6 4388.30 131.709  60
  -6  -4   6 4110.36 132.928  59
   6   4  -6 4094.66 113.984  58
  -6  -4   6 4423.49 135.705  21
  -6  -4   6 4392.16 138.835  52
  -6  -4   5 8915.16 237.914   7
   6   4  -5 8269.73 220.740  73
   6   4  -5 8454.73 225.904  60
  -6  -4   5 7946.80 230.378  59
   6   4  -5 8410.88 217.373  58
   6   4  -5 8622.61 196.249  56
  -6  -4   5 8935.92 234.017  21
  -6  -4   5 8372.57 231.072  52
  -6  -4   5 8492.58 232.662  78
   6   4  -4 1297.62 85.9404  72
   6   4  -4 1324.28 101.489  60
  -6  -4   4 1190.68 103.794  59
   6   4  -4 1316.58 100.092  58
   6   4  -4 1242.39 91.8692  56
  -6  -4   4 1295.59 101.127  21
  -6  -4   4 1177.66 94.2885  89
  -6  -4   4 1278.31 94.4223  86
  -6  -4   4 1175.00 98.4126  52
  -6  -4   4 1405.32 110.721   8
  -6  -4   4 1200.53 87.9980  50
  -6  -4   4 1281.12 103.374  78
  -6  -4   4 1403.81 97.6836  48
  -6  -4   3 2831.71 145.337  48
  -6  -4   3 2707.99 141.013  16
   6   4  -3 2526.65 136.851  72
  -6  -4   3 2618.90 146.547 107
  -6  -4   3 2628.30 141.802 104
   6   4  -3 2645.87 146.538 103
  -6  -4   3 2483.77 144.196 102
   6   4  -3 2710.95 144.433 100
   6   4  -3 2714.67 144.079  99
   6   4  -3 2684.40 144.810  98
   6   4  -3 2698.60 144.532  97
   6   4  -3 2621.92 148.146  58
   6   4  -3 2573.45 143.843  56
  -6  -4   3 2574.44 147.533  89
  -6  -4   3 2755.30 151.749  21
  -6  -4   3 2458.85 142.231  86
  -6  -4   3 2532.53 148.838  52
  -6  -4   3 2680.19 160.344   8
  -6  -4   3 2679.15 136.679  50
  -6  -4   3 2714.18 153.499  78
  -6  -4   2 10707.4 291.330  48
   6   4  -2 10294.8 292.931  72
  -6  -4   2 10673.2 297.939  16
   6   4  -2 10849.1 273.784  45
  -6  -4   2 10467.1 308.973 107
  -6  -4   2 10576.6 289.196  44
  -6  -4   2 10213.0 298.252 104
   6   4  -2 10390.9 307.787 103
  -6  -4   2 10403.9 309.467 102
   6   4  -2 10429.8 303.970 100
   6   4  -2 10432.4 301.654  99
   6   4  -2 10478.0 305.288  98
   6   4  -2 10410.7 300.058  97
   6   4  -2 10218.3 294.581  58
   6   4  -2 10169.5 294.170  56
  -6  -4   2 10483.4 303.896  89
  -6  -4   2 10310.3 299.481  86
  -6  -4   2 10139.9 297.020  52
   6   4  -2 10695.2 285.628  84
   6   4  -2 10932.7 287.968  83
  -6  -4   2 10517.4 315.174   8
  -6  -4   2 10955.8 277.678  50
  -6  -4   2 10328.5 301.957  78
  -6  -4   1 2100.18 132.926  48
   6   4  -1 1860.80 127.696  72
  -6  -4   1 1939.87 131.705  16
   6   4  -1 1885.95 123.596  45
  -6  -4   1 2031.09 140.375 107
  -6  -4   1 1903.64 121.890  44
  -6  -4   1 2076.72 141.142 105
  -6  -4   1 2056.32 139.788 104
   6   4  -1 1939.07 138.405 103
  -6  -4   1 1983.05 140.440 102
   6   4  -1 1991.30 138.858 101
   6   4  -1 1828.89 133.696 100
   6   4  -1 1916.07 135.455  99
   6   4  -1 1938.24 136.712  98
   6   4  -1 2080.07 139.947  97
   6   4  -1 2087.51 133.349  58
   6   4  -1 2190.68 138.496  56
  -6  -4   1 2084.43 139.583  89
  -6  -4   1 1980.11 137.149  86
  -6  -4   1 1841.99 129.508  52
   6   4  -1 1968.59 129.502  84
   6   4  -1 1901.94 127.906  83
  -6  -4   1 1920.95 134.611   8
  -6  -4   1 1792.93 129.727  78
   6   4   0 633.063 121.819  34
  -6  -4   0 608.860 74.5147  48
   6   4   0 612.045 75.3959  72
   6   4   0 530.070 68.4446  45
  -6  -4   0 530.366 75.0087 107
  -6  -4   0 497.501 73.5608 105
  -6  -4   0 581.055 76.9772 104
   6   4   0 536.090 75.1026 101
   6   4   0 509.862 72.6223 100
   6   4   0 558.169 77.9950  99
   6   4   0 605.989 78.4894  98
   6   4   0 559.639 76.6383  97
   6   4   0 566.700 72.1602  58
   6   4   0 519.755 69.5954  56
  -6  -4   0 538.827 75.3144  89
  -6  -4   0 535.668 77.0222  86
  -6  -4   0 538.138 73.2006  52
   6   4   0 541.585 73.5319  84
   6   4   0 528.857 71.9391  83
  -6  -4   0 513.052 71.0151   8
  -6  -4   0 227.635 90.7441  35
  -6  -4   0 786.938 86.8698  78
  -6  -4  -1 51649.5 666.979  48
   6   4   1 53593.4 660.898  72
   6   4   1 55629.4 656.933  70
  -6  -4  -1 62864.4 1232.08   1
   6   4   1 53614.0 674.412  45
  -6  -4  -1 54338.9 714.840 105
  -6  -4  -1 54880.6 705.820 104
   6   4   1 56290.3 639.924  28
   6   4   1 53711.0 717.985 101
  -6  -4  -1 59793.4 1200.61  63
   6   4   1 54328.7 713.718 100
   6   4   1 55047.1 715.262  99
   6   4   1 53531.0 709.640  98
  -6  -4  -1 51380.8 1127.32  40
   6   4   1 55874.2 714.068  97
  -6  -4  -1 53351.8 1215.30  96
   6   4   1 52245.2 1225.33  95
   6   4   1 55066.2 637.606  58
   6   4   1 52480.0 1222.40  94
  -6  -4  -1 52391.3 1212.91  93
   6   4   1 53892.4 653.009  56
  -6  -4  -1 53917.7 1223.57  91
   6   4   1 51602.1 1220.44  90
  -6  -4  -1 55237.8 724.491 107
  -6  -4  -1 52703.9 711.950  89
  -6  -4  -1 53742.3 652.339  87
   6   4   1 57513.0 650.719  53
  -6  -4  -1 52589.0 707.709  86
   6   4   1 52898.7 681.907  84
  -6  -4  -1 53970.8 678.356  52
   6   4   1 53343.1 679.575  83
  -6  -4  -1 62048.6 1303.28  35
  -6  -4  -1 53995.0 656.687   8
  -6  -4  -1 55425.0 679.770  78
   6   4   1 57160.2 1240.54  34
  -6  -4  -2 6009.92 224.986  48
   6   4   2 6040.91 216.407  72
   6   4   2 5781.91 221.434  70
   6   4   2 5736.37 222.731  45
  -6  -4  -2 5790.89 235.390 107
  -6  -4  -2 6050.14 237.572 105
  -6  -4  -2 5902.31 230.544 104
   6   4   2 5772.90 215.240  28
   6   4   2 5906.61 235.236 101
  -6  -4  -2 7442.34 441.468  63
   6   4   2 5955.04 234.253 100
   6   4   2 6094.15 236.567  99
   6   4   2 5878.84 234.149  98
   6   4   2 6083.24 235.034  97
   6   4   2 5535.67 392.696  95
   6   4   2 5756.19 400.278  94
   6   4   2 5863.45 207.880  56
   6   4   2 5731.53 398.387  90
  -6  -4  -2 5626.89 234.705  89
  -6  -4  -2 5994.89 209.777  87
   6   4   2 5844.48 218.157  53
  -6  -4  -2 5567.54 230.068  86
   6   4   2 5678.92 223.038  84
  -6  -4  -2 5822.36 225.172  52
   6   4   2 5906.45 226.096  83
  -6  -4  -2 6957.70 435.512  35
  -6  -4  -2 5891.14 222.806  78
   6   4   2 6564.03 415.597  34
   6   4   3 29420.4 457.747  72
   6   4   3 29143.7 499.922  70
   6   4   3 28698.8 493.924  45
   6   4   3 28583.0 516.244  14
  -6  -4  -3 28460.0 509.401 107
  -6  -4  -3 28199.6 500.714 105
  -6  -4  -3 28185.0 494.078 104
   6   4   3 28930.3 495.756  28
   6   4   3 28808.9 510.407 101
   6   4   3 29030.3 504.478 100
   6   4   3 28233.6 499.608  99
   6   4   3 29098.2 508.099  98
   6   4   3 29264.6 504.128  97
  -6  -4  -3 26591.6 525.657  89
   6   4   3 29429.6 499.958  53
  -6  -4  -3 29530.8 524.213  86
   6   4   3 29286.3 502.298  84
  -6  -4  -3 29631.2 506.808  52
   6   4   3 28993.1 489.704  83
  -6  -4  -3 29738.9 489.820  78
   6   4   4 21141.7 392.375  46
   6   4   4 19678.1 414.071  70
   6   4   4 19300.8 396.610  45
   6   4   4 18563.2 419.294  14
  -6  -4  -4 19621.1 395.598 105
  -6  -4  -4 19858.4 394.914 104
   6   4   4 19162.5 409.645  28
   6   4   4 19277.9 395.058 101
   6   4   4 19584.2 397.323 100
  -6  -4  -4 20284.0 403.131 107
   6   4   4 19593.7 394.095  99
   6   4   4 19822.4 395.258  98
   6   4   4 20079.9 396.616  97
   6   4   4 18906.0 407.905  53
  -6  -4  -4 19904.8 423.257  86
   6   4   4 19484.7 398.802  84
  -6  -4  -4 20191.4 412.513  52
   6   4   4 20086.7 387.841  83
  -6  -4  -4 19485.3 392.649  78
   6   4   5 19676.7 386.402  46
   6   4   5 20776.1 417.556  70
   6   4   5 21474.7 394.663  45
   6   4   5 20576.7 433.424  14
   6   4   5 20598.0 421.781  28
   6   4   5 21520.9 428.084  53
  -6  -4  -5 22174.3 436.849  86
   6   4   5 22056.0 400.581  84
  -6  -4  -5 21609.9 421.930  52
  -6  -4  -5 20867.0 392.001  78
   6   4   6 3064.93 150.979  46
   6   4   6 2831.25 146.777  70
   6   4   6 2797.10 151.667  14
   6   4   6 2996.88 138.235  15
   6   4   6 2787.55 149.693  28
   6   4   6 2836.15 148.972  53
  -6  -4  -6 3023.16 153.624  86
  -6  -4  -6 2767.61 146.963  52
   6   4   6 3050.94 157.161  51
  -6  -4  -6 3146.18 144.921  78
   6   4   7 4113.85 161.856  46
   6   4   7 3961.31 148.436  15
   6   4   7 4061.26 157.866  53
  -6  -4  -7 4074.80 156.822  86
  -6  -4  -7 4121.24 162.149  52
   6   4   7 3809.92 157.315  51
  -6  -4  -7 4040.63 144.214  78
   6   4   8 54.5511 19.8507  15
  -6  -4  -8 60.4668 21.6099  86
  -6  -4  -8 78.0442 26.5779  52
   6   5  -5 10823.2 206.897  73
   6   5  -5 10438.2 207.537  60
  -6  -5   5 8903.28 180.727  59
   6   5  -5 9769.24 182.886  58
  -6  -5   5 8932.84 217.355  88
  -6  -5   5 9823.98 204.083  52
   6   5  -5 9974.33 203.997  79
  -6  -5   5 10332.5 217.065   7
  -6  -5   4 13092.2 295.464   7
   6   5  -4 12775.6 263.993  73
   6   5  -4 12832.6 275.332  60
  -6  -5   4 11871.6 264.506  59
   6   5  -4 12967.6 268.954  58
   6   5  -4 12457.8 243.309  56
  -6  -5   4 12664.6 247.747  21
  -6  -5   4 12508.3 271.660  89
  -6  -5   4 12690.6 267.672  86
  -6  -5   4 12412.8 273.066  52
  -6  -5   4 12417.3 274.368  78
  -6  -5   4 12133.3 264.312  48
  -6  -5   3 7026.44 224.029  48
  -6  -5   3 7544.81 248.773   7
  -6  -5   3 7363.88 214.694  16
   6   5  -3 7293.41 215.260  73
   6   5  -3 7181.62 209.034  72
  -6  -5   3 7053.40 218.976 107
  -6  -5   3 7116.94 217.655 104
   6   5  -3 7130.05 222.877 103
  -6  -5   3 7294.15 225.198 102
   6   5  -3 6905.18 216.305 100
   6   5  -3 7211.45 220.364  99
   6   5  -3 7246.14 221.736  98
   6   5  -3 6893.16 216.123  97
   6   5  -3 7523.94 229.758  60
  -6  -5   3 6717.61 227.359  59
   6   5  -3 7161.26 227.465  58
   6   5  -3 7159.40 219.419  56
  -6  -5   3 7277.14 234.687  89
  -6  -5   3 7112.39 227.910  86
  -6  -5   3 6824.58 223.996  52
  -6  -5   3 6882.60 224.404  78
  -6  -5   2 1511.84 114.578  48
   6   5  -2 1535.53 100.867  73
  -6  -5   2 1449.81 107.579  16
   6   5  -2 1529.31 109.110  72
  -6  -5   2 1435.87 111.929 107
  -6  -5   2 1502.75 111.939 104
   6   5  -2 1546.31 117.015 103
  -6  -5   2 1398.82 111.421 102
   6   5  -2 1472.58 112.547 100
   6   5  -2 1531.88 114.720  99
   6   5  -2 1565.45 116.266  98
   6   5  -2 1613.41 115.962  97
   6   5  -2 1525.26 108.810  60
   6   5  -2 1383.52 109.233  58
   6   5  -2 1406.40 106.495  56
  -6  -5   2 1332.42 109.214  89
  -6  -5   2 1377.05 109.466  86
  -6  -5   2 1394.20 108.355  52
   6   5  -2 1585.67 103.061  83
  -6  -5   2 1425.96 113.644   8
  -6  -5   2 1349.39 106.926  78
  -6  -5   1 15119.9 371.769  48
  -6  -5   1 16474.1 375.869  16
   6   5  -1 16287.7 366.372  72
   6   5  -1 17886.6 352.321  45
  -6  -5   1 17212.2 400.542 107
  -6  -5   1 16411.3 394.776 102
  -6  -5   1 16826.0 389.006 104
   6   5  -1 16842.2 396.328 103
   6   5  -1 16712.8 389.564 100
   6   5  -1 16693.6 387.582  99
   6   5  -1 16440.7 388.813  98
   6   5  -1 16756.7 386.014  97
   6   5  -1 16984.2 356.118  60
   6   5  -1 16787.8 371.433  58
   6   5  -1 16836.0 375.598  56
  -6  -5   1 16694.0 390.804  89
  -6  -5   1 15823.8 378.596  86
  -6  -5   1 16669.8 370.428  52
   6   5  -1 17008.9 355.189  84
   6   5  -1 17216.9 368.091  83
  -6  -5   1 16813.9 382.634   8
  -6  -5   1 16926.4 372.584  78
  -6  -5   0 379.267 66.0939  48
   6   5   0 441.013 66.7194  72
  -6  -5   0 532.364 72.1651  16
   6   5   0 387.694 60.5926  45
  -6  -5   0 446.825 70.7302 107
  -6  -5   0 432.528 68.2255 104
   6   5   0 423.608 68.0716 103
  -6  -5   0 407.479 65.1636 102
   6   5   0 447.198 67.0586 100
   6   5   0 421.191 67.5344  99
   6   5   0 466.136 71.0299  98
   6   5   0 359.763 61.6368  97
   6   5   0 328.097 49.9952  60
   6   5   0 341.211 57.7876  58
   6   5   0 350.501 57.8325  56
  -6  -5   0 524.508 75.8169  89
  -6  -5   0 362.003 61.8502  86
   6   5   0 432.757 63.4307  84
  -6  -5   0 325.510 57.6665  52
   6   5   0 379.679 61.1573  83
  -6  -5   0 340.053 58.6212   8
  -6  -5   0 373.834 60.0180  78
  -6  -5  -1 1192.20 107.588  48
   6   5   1 1196.47 103.025  72
  -6  -5  -1 1156.99 104.019  16
   6   5   1 1101.61 98.5075  45
  -6  -5  -1 1337.47 115.213 107
  -6  -5  -1 1202.92 111.474 105
  -6  -5  -1 1207.24 109.326 104
   6   5   1 1333.10 115.373 103
  -6  -5  -1 1097.59 106.029 102
   6   5   1 1110.04 105.426 101
   6   5   1 1188.05 109.619 100
   6   5   1 1296.01 112.591  99
   6   5   1 1138.03 107.271  98
   6   5   1 1195.64 107.675  97
   6   5   1 1279.99 101.877  58
   6   5   1 1128.83 98.2460  56
  -6  -5  -1 1234.51 112.392  89
  -6  -5  -1 1225.36 109.221  86
   6   5   1 1179.06 104.859  84
  -6  -5  -1 1226.59 104.568  52
   6   5   1 1195.14 104.920  83
  -6  -5  -1 1191.78 95.4708   8
  -6  -5  -1 1375.75 107.061  78
  -6  -5  -1 1121.73 96.6962  49
  -6  -5  -2 23.8728 29.3857  48
   6   5   2 2.66324 21.9839  72
   6   5   2 18.8276 23.3778  70
   6   5   2 31.3523 24.6831  45
  -6  -5  -2 0.25326 29.5819 107
  -6  -5  -2 7.58479 27.1493 105
  -6  -5  -2 6.62170 25.2696 104
   6   5   2-26.5590 23.7190  28
   6   5   2-30.0155 29.5046 101
   6   5   2 26.7485 25.2443 100
   6   5   2-8.47739 27.2343  99
   6   5   2-1.75860 28.3429  98
   6   5   2 14.2163 25.5937  97
   6   5   2 63.0723 34.5821  58
   6   5   2 4.21807 24.3402  56
  -6  -5  -2 45.5682 36.8021  89
   6   5   2 41.2782 25.3969  53
  -6  -5  -2 19.4933 35.8109  86
   6   5   2-3.00008 30.4737  84
  -6  -5  -2 61.5791 35.2424  52
   6   5   2 40.5427 26.9646  83
  -6  -5  -2 41.1724 39.3244  78
  -6  -5  -3 555.415 78.8212  48
   6   5   3 691.355 75.1221  72
   6   5   3 682.781 79.8680  70
   6   5   3 725.758 81.3825  45
  -6  -5  -3 634.371 77.4991 107
  -6  -5  -3 605.576 76.0664 105
  -6  -5  -3 587.884 74.0720 104
   6   5   3 615.126 72.9218  28
   6   5   3 616.748 75.2951 101
   6   5   3 685.598 79.8013 100
   6   5   3 569.285 73.1824  99
   6   5   3 627.131 75.5360  98
   6   5   3 584.956 74.2983  97
   6   5   3 670.731 72.5569  56
  -6  -5  -3 646.996 87.9913  89
   6   5   3 667.249 76.5335  53
  -6  -5  -3 575.315 77.1309  86
   6   5   3 579.180 75.5234  84
  -6  -5  -3 611.132 76.6244  52
   6   5   3 620.303 75.2481  83
  -6  -5  -3 687.229 76.6911  78
  -6  -5  -4 51191.6 608.180  16
   6   5   4 50916.9 661.407  70
   6   5   4 49490.3 638.268  45
  -6  -5  -4 52620.6 639.112 107
  -6  -5  -4 49878.3 627.031 105
  -6  -5  -4 52534.6 627.502 104
   6   5   4 50081.5 639.797  28
   6   5   4 51797.8 639.861 103
  -6  -5  -4 51623.8 637.000 102
   6   5   4 49926.5 632.010 101
   6   5   4 51039.7 632.140 100
   6   5   4 51323.4 623.993  99
   6   5   4 52177.8 627.780  98
   6   5   4 52207.6 628.164  97
  -6  -5  -4 52073.3 696.588  89
   6   5   4 51236.3 656.584  53
  -6  -5  -4 51208.7 667.432  86
   6   5   4 50920.7 653.063  84
  -6  -5  -4 51178.7 636.460  52
   6   5   4 52576.4 641.816  83
  -6  -5  -4 53452.3 618.794  78
   6   5   5 149.774 40.9390  70
   6   5   5 173.423 41.1582  45
   6   5   5 132.937 40.7951  28
  -6  -5  -5 107.651 44.1874  89
   6   5   5 131.746 40.0111  53
  -6  -5  -5 159.576 50.1978  86
   6   5   5 182.248 42.6831  84
  -6  -5  -5 137.721 42.1200  52
   6   5   5 156.022 38.3841  83
  -6  -5  -5 156.505 40.1594  78
   6   5   6 5663.67 185.122  45
   6   5   6 5306.52 201.083  28
   6   5   6 5427.86 202.370  53
  -6  -5  -6 5544.37 194.731  86
   6   5   6 5513.27 185.840  84
  -6  -5  -6 5575.87 193.875  52
   6   5   6 5341.85 204.945  51
   6   5   7 985.335 67.7022  15
   6   5   7 1008.62 81.1754  28
  -6  -5  -7 971.649 82.9849  89
   6   5   7 991.882 79.6853  53
  -6  -5  -7 933.949 71.3899  86
  -6  -5  -7 979.522 75.5012  52
   6   5   7 936.926 79.8171  51
   6   5   8 1046.93 60.4247  15
   6   5   8 1137.45 71.0464  28
   6   5   8 1003.66 66.9148  26
  -6  -5  -8 1072.65 72.2633  89
  -6  -5  -8 1162.20 65.7703  52
   6   5   8 1147.52 70.9682  51
  -6  -5  -9 2289.57 73.9873  48
   6   6  -4 967.503 59.0031  73
   6   6  -4 1023.78 63.7570  60
   6   6  -4 916.218 54.2655  58
  -6  -6   4 966.087 63.8865  89
  -6  -6   4 766.259 62.1659  88
  -6  -6   4 900.766 59.7677  86
  -6  -6   4 878.050 54.6974  52
   6   6  -4 922.587 60.0771  79
  -6  -6   4 928.157 64.2733   7
  -6  -6   4 952.583 60.9209  48
  -6  -6   3 6428.48 189.101  48
  -6  -6   3 6232.10 193.277   7
   6   6  -3 6389.65 172.693  73
   6   6  -3 5867.03 149.334  72
   6   6  -3 6055.90 172.738 105
   6   6  -3 5936.05 171.395 103
   6   6  -3 6073.87 170.148  99
   6   6  -3 6041.53 170.733  98
   6   6  -3 5851.44 167.368  97
   6   6  -3 6329.71 185.268  60
   6   6  -3 6266.12 179.926  58
   6   6  -3 6193.26 167.749  56
  -6  -6   3 6178.76 189.975  89
  -6  -6   3 6109.29 185.265  86
  -6  -6   3 6046.67 172.695  52
   6   6  -3 6262.75 179.675  79
  -6  -6   3 6065.24 178.248  78
  -6  -6   2 12531.6 297.512  48
  -6  -6   2 13517.3 311.326   7
  -6  -6   2 13138.5 288.949  16
   6   6  -2 13123.9 277.939  72
  -6  -6   2 12895.2 295.023 107
   6   6  -2 12675.5 297.747 105
  -6  -6   2 12830.0 292.731 104
   6   6  -2 12694.1 297.534 103
  -6  -6   2 12751.1 298.332 102
  -6  -6   2 12707.4 296.433 101
   6   6  -2 12735.6 293.017 100
   6   6  -2 13094.0 296.538  99
   6   6  -2 12874.7 295.084  98
   6   6  -2 12631.6 290.040  97
   6   6  -2 13021.1 287.145  60
  -6  -6   2 11642.4 259.613  59
   6   6  -2 11555.2 276.909  58
   6   6  -2 12940.1 285.910  56
  -6  -6   2 13010.9 305.516  89
  -6  -6   2 13037.0 302.948  86
  -6  -6   2 12267.4 275.100  52
   6   6  -2 12826.4 274.307  79
  -6  -6   2 12660.8 281.474  78
  -6  -6   1 8488.86 256.625  48
  -6  -6   1 8870.26 262.979   7
  -6  -6   1 8415.64 253.531  16
   6   6  -1 8325.97 244.838  72
  -6  -6   1 8592.09 266.911 107
  -6  -6   1 8347.29 260.041 104
   6   6  -1 8378.92 265.446 103
  -6  -6   1 8565.15 269.672 102
   6   6  -1 8282.53 260.688 100
   6   6  -1 8075.79 256.332  99
   6   6  -1 8214.12 259.691  98
   6   6  -1 8435.77 238.679  60
   6   6  -1 8100.51 255.495  97
   6   6  -1 8619.92 253.640  58
   6   6  -1 8571.95 251.756  56
  -6  -6   1 8411.56 261.275  89
  -6  -6   1 8596.62 261.112  86
  -6  -6   1 8196.51 236.361  52
   6   6  -1 8581.31 237.256  83
  -6  -6   1 8267.37 238.689  78
  -6  -6   0 56686.4 681.647  48
  -6  -6   0 56931.5 684.607  16
   6   6   0 57559.9 669.965  72
   6   6   0 58196.8 628.167  45
  -6  -6   0 56856.7 712.811 107
  -6  -6   0 57778.9 703.929 104
   6   6   0 57937.0 717.963 103
  -6  -6   0 56215.3 714.566 102
   6   6   0 57030.8 704.976 100
   6   6   0 58150.3 709.438  99
   6   6   0 57025.5 703.770  98
   6   6   0 58512.9 619.351  60
   6   6   0 57090.5 699.708  97
   6   6   0 58757.3 672.783  58
   6   6   0 56755.2 667.712  56
  -6  -6   0 56874.0 706.566  89
  -6  -6   0 57192.4 689.416  86
  -6  -6   0 57785.1 638.791  52
   6   6   0 58307.9 638.110  84
   6   6   0 58039.8 667.598  83
  -6  -6   0 57286.3 633.663  78
  -6  -6   0 57663.5 622.766  49
  -6  -6  -1 15600.6 358.507  48
  -6  -6  -1 15463.8 360.052  16
   6   6   1 15321.3 352.452  72
   6   6   1 15302.8 343.808  45
  -6  -6  -1 15870.0 375.395 107
  -6  -6  -1 15316.7 365.961 104
   6   6   1 15152.5 372.960 103
  -6  -6  -1 15418.8 377.541 102
   6   6   1 15775.4 373.463 100
   6   6   1 15351.9 367.857  99
   6   6   1 15786.8 374.050  98
   6   6   1 15570.6 367.985  97
   6   6   1 15552.1 346.329  58
   6   6   1 15359.1 351.488  56
  -6  -6  -1 15363.9 371.752  89
  -6  -6  -1 14977.2 360.266  86
  -6  -6  -1 15854.9 338.058  52
   6   6   1 15275.3 344.330  84
   6   6   1 15588.6 359.530  83
  -6  -6  -1 15943.8 332.241  78
  -6  -6  -1 15649.8 343.032  49
  -6  -6  -2 244.948 54.4272  48
   6   6   2 251.011 49.4376  72
  -6  -6  -2 272.524 53.4842  16
  -6  -6  -2 262.111 53.7934 107
  -6  -6  -2 305.760 57.5182 104
   6   6   2 261.914 55.3585 103
  -6  -6  -2 319.408 59.1497 102
   6   6   2 291.248 55.5219 100
   6   6   2 196.625 49.6169  99
   6   6   2 228.627 50.0986  98
   6   6   2 279.832 54.6482  97
   6   6   2 251.934 50.8055  58
   6   6   2 232.722 49.4039  56
  -6  -6  -2 241.325 54.4605  89
   6   6   2 301.064 47.5524  53
  -6  -6  -2 253.110 56.9126  86
   6   6   2 277.269 55.0996  84
  -6  -6  -2 270.768 50.6183  52
   6   6   2 257.386 50.8921  83
   6   6   2 276.783 52.5296  45
  -6  -6  -2 303.520 49.8741  78
  -6  -6  -2 192.558 46.3270  49
  -6  -6  -3 3490.98 174.177  48
   6   6   3 3419.28 159.381  72
  -6  -6  -3 3416.11 161.825  16
   6   6   3 3341.42 166.374  45
  -6  -6  -3 3746.02 175.228 107
  -6  -6  -3 3455.08 167.952 104
   6   6   3 3769.18 158.389  28
   6   6   3 3670.94 174.960 103
  -6  -6  -3 3654.61 174.306 102
   6   6   3 3293.29 167.095 100
   6   6   3 3477.38 169.945  99
   6   6   3 3455.35 168.350  98
   6   6   3 3556.53 168.512  97
   6   6   3 3610.52 157.582  58
   6   6   3 3649.83 164.459  56
  -6  -6  -3 3655.29 183.296  89
   6   6   3 3671.33 164.346  53
  -6  -6  -3 3733.06 177.069  86
   6   6   3 3398.29 169.381  84
  -6  -6  -3 3860.15 165.217  52
   6   6   3 3474.77 169.961  83
  -6  -6  -4 28004.3 477.407  48
  -6  -6  -4 27806.1 426.676  16
   6   6   4 27983.5 422.419  72
   6   6   4 26741.1 459.009  45
  -6  -6  -4 27397.0 430.992 104
   6   6   4 28147.5 448.320  28
   6   6   4 27465.4 442.233 103
  -6  -6  -4 27869.4 440.900 102
  -6  -6  -4 28034.5 440.036 107
   6   6   4 27523.6 435.915 100
   6   6   4 27172.1 431.719  99
   6   6   4 28000.3 439.360  98
   6   6   4 27529.4 432.680  97
  -6  -6  -4 28305.7 493.181  89
   6   6   4 27651.4 460.691  53
  -6  -6  -4 28486.4 466.650  86
   6   6   4 27132.4 466.871  84
  -6  -6  -4 28067.7 432.722  52
   6   6   4 27008.3 449.730  83
  -6  -6  -5 31478.4 493.906  48
   6   6   5 30409.5 465.369  45
   6   6   5 30631.6 467.375  28
  -6  -6  -5 30955.2 493.067  89
   6   6   5 29989.6 475.573  53
  -6  -6  -5 30818.7 456.693  86
   6   6   5 29936.9 472.024  84
  -6  -6  -5 30650.0 429.877  52
   6   6   5 29960.0 434.421  83
   6   6   5 28700.4 459.398  51
  -6  -6  -6 909.828 82.2681  48
   6   6   6 992.734 78.1014  45
   6   6   6 992.455 82.4826  28
  -6  -6  -6 953.888 85.1892  89
  -6  -6  -6 915.989 73.5897  86
   6   6   6 914.477 77.5229  84
  -6  -6  -6 844.187 69.0545  52
   6   6   6 1047.16 85.5490  51
  -6  -6  -7 2711.23 124.691  48
   6   6   7 2641.09 122.266  28
  -6  -6  -7 2460.72 117.893  89
  -6  -6  -7 2580.96 99.4973  52
   6   6   7 2543.24 119.765  51
  -6  -6  -8 9190.83 189.036  48
   6   6   8 8710.01 182.403  26
   6   6   8 9154.58 186.690  51
  -6  -7   3 7.29486 12.6443  48
  -6  -7   3 7.85390 10.5391   7
   6   7  -3-7.28362 11.7143  61
   6   7  -3 13.3171 12.9131  60
  -6  -7   3 21.0832 15.6203  89
  -6  -7   3-6.65182 9.76375  88
  -6  -7   3-5.09317 13.4048  86
  -6  -7   2 1452.53 83.6370  48
   6   7  -2 1396.51 69.3825  72
  -6  -7   2 1535.65 83.6001 107
   6   7  -2 1405.87 81.5594 105
   6   7  -2 1412.99 81.3392 103
  -6  -7   2 1418.50 81.2366 102
  -6  -7   2 1433.61 81.6518 101
   6   7  -2 1459.81 80.9957  99
   6   7  -2 1476.20 81.9165  98
   6   7  -2 1504.54 81.5626  60
   6   7  -2 1440.06 80.7326  97
   6   7  -2 1551.74 82.8777  58
   6   7  -2 1492.86 76.3127  56
  -6  -7   2 1567.09 89.7993  89
  -6  -7   2 1085.27 74.1812  88
  -6  -7   2 1503.49 86.0061  86
  -6  -7   2 1303.53 79.9993  19
  -6  -7   2 1443.70 81.8337   7
  -6  -7   1 1145.01 83.3558  48
  -6  -7   1 1091.68 77.4927   7
   6   7  -1 1067.29 76.7880  72
  -6  -7   1 1186.58 86.4732 107
   6   7  -1 998.744 80.2926 105
   6   7  -1 1060.83 82.7590 103
  -6  -7   1 1080.23 83.2121 102
  -6  -7   1 1044.78 82.1388 101
   6   7  -1 1126.38 83.4406  99
   6   7  -1 1081.58 82.6109  98
   6   7  -1 1087.54 75.7061  60
   6   7  -1 1066.64 81.5500  97
   6   7  -1 1149.83 82.9028  58
   6   7  -1 1036.10 76.5744  56
  -6  -7   1 1118.46 85.0884  89
  -6  -7   1 1113.35 83.8064  86
   6   7  -1 1163.48 70.3359  83
  -6  -7   0 34731.0 478.005  48
  -6  -7   0 34499.5 434.622   7
  -6  -7   0 34947.6 479.901  16
   6   7   0 34716.6 465.095  72
   6   7   0 34728.1 410.328   6
  -6  -7   0 34278.4 487.423 107
   6   7   0 34153.5 498.237 105
  -6  -7   0 33827.7 483.004 104
   6   7   0 33944.8 497.665 103
  -6  -7   0 33047.4 489.791 102
  -6  -7   0 33895.9 492.566 101
   6   7   0 33807.9 487.439 100
   6   7   0 34266.3 487.579  99
   6   7   0 34362.8 490.573  98
   6   7   0 34785.1 429.928  60
   6   7   0 34303.1 488.184  97
   6   7   0 34072.7 468.997  58
   6   7   0 33880.9 465.073  56
  -6  -7   0 34539.6 488.516  89
  -6  -7   0 33765.0 475.742  86
   6   7   0 33962.8 446.619  83
  -6  -7  -1 14139.5 315.436  48
  -6  -7  -1 14055.4 314.671  16
   6   7   1 13577.6 305.915  72
   6   7   1 14087.5 285.338  45
   6   7   1 14717.7 300.153   6
  -6  -7  -1 14248.7 325.370 107
  -6  -7  -1 14011.8 320.061 104
   6   7   1 13974.3 330.019 103
  -6  -7  -1 13815.1 327.003 102
   6   7   1 14257.8 325.681 100
   6   7   1 14250.3 324.011  99
   6   7   1 13918.6 323.975  98
   6   7   1 14466.9 326.747  97
   6   7   1 14014.9 307.191  58
   6   7   1 14158.8 311.497  56
  -6  -7  -1 14182.5 324.686  89
  -6  -7  -1 13979.8 314.545  86
   6   7   1 13473.3 284.918  84
   6   7   1 13954.8 308.606  83
  -6  -7  -1 13935.7 299.028  49
  -6  -7  -2 28574.3 455.571  48
  -6  -7  -2 28109.0 438.876  16
   6   7   2 28069.8 443.828  72
   6   7   2 28133.6 433.861  45
  -6  -7  -2 28314.9 454.178 107
   6   7   2 28705.0 442.430   6
  -6  -7  -2 27771.7 449.635 104
   6   7   2 28187.6 458.708 103
  -6  -7  -2 27974.7 455.765 102
   6   7   2 27858.3 452.788 100
   6   7   2 28374.0 452.821  99
   6   7   2 27943.3 450.273  98
   6   7   2 28138.3 449.178  97
   6   7   2 28036.9 429.765  58
   6   7   2 28306.5 442.997  56
  -6  -7  -2 28366.7 462.755  89
  -6  -7  -2 28188.6 445.209  86
   6   7   2 27342.1 431.202  84
   6   7   2 28333.2 450.968  83
  -6  -7  -2 28671.5 444.854  49
  -6  -7  -3 4890.71 188.938  48
  -6  -7  -3 4635.08 172.397  16
   6   7   3 4454.80 172.547  72
   6   7   3 4689.47 181.842  45
  -6  -7  -3 4589.36 176.687 107
  -6  -7  -3 4451.61 172.523 104
   6   7   3 4523.28 179.283 103
  -6  -7  -3 4562.69 179.736 102
   6   7   3 4617.14 177.146 100
   6   7   3 4933.17 181.756  99
   6   7   3 4717.55 179.024  98
   6   7   3 4548.24 175.119  97
   6   7   3 4737.87 172.786  58
   6   7   3 4488.44 172.898  56
  -6  -7  -3 4661.99 187.954  89
  -6  -7  -3 4681.57 177.456  86
   6   7   3 4552.80 180.930  84
   6   7   3 4679.34 183.493  83
  -6  -7  -3 4543.14 180.692  49
  -6  -7  -4 3220.35 150.330  48
  -6  -7  -4 3004.24 139.792  74
  -6  -7  -4 3177.39 128.978  16
   6   7   4 3020.80 133.108  72
   6   7   4 3186.74 148.241  45
  -6  -7  -4 2925.51 128.844 107
  -6  -7  -4 2967.05 128.538 104
   6   7   4 3312.17 132.289  28
  -6  -7  -4 2907.31 129.708 102
   6   7   4 3100.90 133.766  56
  -6  -7  -4 3251.31 153.864  89
  -6  -7  -4 3062.60 136.766  86
   6   7   4 3029.59 146.455  84
   6   7   4 3067.77 143.409  83
   6   7   4 2772.89 123.581  51
  -6  -7  -4 3105.74 150.868  49
  -6  -7  -5 3041.41 142.481  48
   6   7   5 2964.83 137.361  45
   6   7   5 2990.56 135.314   6
   6   7   5 3114.48 130.833  28
  -6  -7  -5 3149.29 143.542  89
  -6  -7  -5 2979.36 122.819  86
   6   7   5 3106.12 142.466  84
   6   7   5 3028.37 129.921  83
   6   7   5 2951.40 127.654  51
  -6  -7  -5 3122.44 145.060  49
  -6  -7  -6 6.94778 21.3411  48
   6   7   6 1.75285 18.2264  45
   6   7   6 12.0756 17.6768   6
  -6  -7  -6-8.42296 20.4644  89
   6   7   6 17.5489 20.9380  84
   6   7   6 7.28316 18.9504  51
  -6  -7  -7 15496.5 259.884  48
   6   7   7 13883.1 237.943  26
   6   7   7 15063.4 251.580  25
  -6  -7  -7 14116.8 222.761  89
   6   7   7 14640.6 240.895  51
  -6  -7  -8 600.788 41.9283  48
   6   7   8 648.050 42.4825  26
   6   7   8 647.900 42.1155  51
  -6  -8   1 2579.00 90.4249 107
   6   8  -1 2481.18 90.2318 105
   6   8  -1 2651.98 92.9592 103
  -6  -8   1 2639.11 92.3076 102
  -6  -8   1 2499.83 89.8860 101
   6   8  -1 2586.72 90.9365  99
   6   8  -1 2580.17 90.9113  98
   6   8  -1 2606.10 91.0843  97
   6   8  -1 2572.20 86.1223  58
   6   8  -1 2259.37 75.6778  56
  -6  -8   1 2546.52 91.6387  89
  -6  -8   1 2527.19 89.3317  86
  -6  -8   1 2435.09 91.9050  19
  -6  -8   1 2616.43 91.5319  48
  -6  -8   0 681.130 54.8046  48
   6   8   0 653.544 51.1617  72
  -6  -8   0 726.241 57.5260 107
   6   8   0 641.742 55.7249 105
   6   8   0 707.054 57.8112 103
  -6  -8   0 724.514 57.9594 102
  -6  -8   0 633.644 55.7879 101
   6   8   0 685.710 56.3025  99
   6   8   0 699.086 56.7734  98
   6   8   0 681.506 55.6284  97
   6   8   0 686.663 55.5199  58
   6   8   0 658.793 53.1590  56
  -6  -8   0 676.684 56.0191  89
  -6  -8   0 693.741 54.3367  86
  -6  -8   0 624.704 56.3636  19
  -6  -8  -1-16.7664 18.9871  48
   6   8   1-6.88375 14.6615  72
  -6  -8  -1 22.7942 20.9195 107
   6   8   1 5.34030 15.1401   6
   6   8   1 14.7338 18.2881 105
   6   8   1-1.21835 17.1793 103
  -6  -8  -1 7.69631 19.7680 102
  -6  -8  -1-4.12408 16.1001 101
   6   8   1 8.56866 15.3980  99
   6   8   1 21.8684 19.7391  98
   6   8   1 11.4140 16.2185  97
   6   8   1 1.95454 18.6756  58
   6   8   1-1.30955 16.2480  56
  -6  -8  -1-4.31666 18.7018  89
  -6  -8  -1 34.6010 23.0684  86
  -6  -8  -1 31.5135 20.3450  49
  -6  -8  -2 837.110 68.4580  48
   6   8   2 921.771 70.7956  72
   6   8   2 857.460 65.6053   6
   6   8   2 846.395 61.5543  45
  -6  -8  -2 850.917 66.7190 107
   6   8   2 820.264 68.8792 105
   6   8   2 891.211 70.5117 103
  -6  -8  -2 857.231 68.3277 102
  -6  -8  -2 861.621 69.2078 101
   6   8   2 888.679 69.0689  99
   6   8   2 854.437 67.8778  98
   6   8   2 925.108 69.8906  97
   6   8   2 913.355 70.1855  58
   6   8   2 809.530 66.5715  56
  -6  -8  -2 877.418 70.2712  89
  -6  -8  -2 847.837 64.3772  86
   6   8   2 851.371 60.7293  84
   6   8   2 861.053 67.7233  83
  -6  -8  -2 939.439 71.1967  49
  -6  -8  -3 2113.84 104.346  76
  -6  -8  -3 2129.44 110.877  48
   6   8   3 2263.07 107.168  72
   6   8   3 2228.70 106.084  45
   6   8   3 2294.32 110.099   6
  -6  -8  -3 2151.37 99.5634 107
  -6  -8  -3 2146.05 100.522 102
  -6  -8  -3 2057.92 99.3423 101
   6   8   3 2080.68 102.609  58
   6   8   3 2263.37 108.461  56
  -6  -8  -3 2257.87 109.779  89
  -6  -8  -3 2324.18 99.8067  86
   6   8   3 2153.97 103.511  84
   6   8   3 2287.11 111.411  83
  -6  -8  -3 2351.94 114.279  49
  -6  -8  -4 1212.76 80.9839  48
   6   8   4 1162.72 71.9623  72
   6   8   4 1079.28 74.8929  45
   6   8   4 1164.97 78.4685   6
  -6  -8  -4 1166.03 75.0209  89
   6   8   4 1136.51 76.7178  84
   6   8   4 1195.69 78.0845  83
  -6  -8  -4 1198.89 81.9007  49
  -6  -8  -5 298.922 40.4600  48
   6   8   5 263.103 36.6746  45
   6   8   5 220.930 35.0436   6
  -6  -8  -5 184.934 28.8091  89
   6   8   5 248.881 36.9999  84
  -6  -8  -5 217.616 38.2763  49
  -6  -8  -6 198.895 30.0369  48
   6   8   6 206.160 31.0152  71
   6   8   6 221.912 30.9356  25
   6   8   6 253.648 34.8903  84
  -6  -8  -6 207.354 33.3899  49
  -6  -8  -7 234.232 25.7917  48
  -6  -8  -7 200.616 28.5734  49
   6   9   2 4282.45 103.557  72
   6   9   2 4142.59 102.766  58
   6   9   2 4352.92 105.543  56
   6   9   3 352.610 31.2774  72
   6   9   3 375.956 32.6380   6
   6   9   3 361.757 32.6894  58
   6   9   3 385.033 33.2264  56
  -6  -9  -3 372.313 33.4356  49
   6   9   4 1533.84 59.8066  71
  -6  -9  -4 1506.18 65.0635  49
  -7   4   5 449.386 37.3055  69
   7  -4  -5 431.542 37.3829  45
   7  -4  -5 424.636 35.8181  27
  -7   4   5 392.307 36.7602  57
   7  -4  -4 104.703 23.5243  45
   7  -4  -4 99.3403 23.6835  27
  -7   4   4 95.2316 23.0135  41
  -7   4   4 64.8491 21.8084  57
   7  -4  -4 102.197 19.8710  53
  -7   4   4 75.5929 22.1568  69
   7  -4  -4 98.2776 21.2595  83
   7  -4  -3 4.80373 9.70229  70
   7  -4  -3 13.7054 15.3152  27
   7  -4  -3 4.26375 12.3206  45
  -7   4   3-4.30540 16.3773  41
  -7   4   3 2.72659 16.5104  57
   7  -4  -3 9.12963 12.9973  53
  -7   4   3-5.64644 15.5797  69
   7  -4  -3 11.0299 12.9075  83
  -7   4   3-9.84433 18.1882  77
   7  -4  -2 299.280 33.6006  70
  -7   4   2 318.063 38.8490  69
  -7   4   2 294.527 38.4093  41
  -7   4   2 234.208 35.5123  57
   7  -4  -2 296.188 36.5018  53
   7  -4  -2 331.347 38.7960  83
  -7   4   2 316.227 39.0060  77
   7  -4  -1 317.727 30.7164  46
   7  -4  -1 334.337 36.2404  70
  -7   4   1 337.353 38.1416  69
   7  -4  -1 325.415 32.3408 102
   7  -4  -1 342.063 33.1835 101
   7  -4  -1 327.339 32.4418 100
  -7   4   1 332.500 38.3833  41
   7  -4  -1 290.359 30.3333  99
   7  -4  -1 324.531 32.5075  98
  -7   4   1 245.294 35.4769  57
   7  -4  -1 302.445 31.2983  20
   7  -4  -1 343.964 37.0926  53
   7  -4  -1 311.684 33.8684  83
  -7   4   1 322.720 38.8502  77
   7  -4   0 3131.42 90.2535  46
   7  -4   0 3501.01 102.453  70
  -7   4   0 3009.24 96.4977  69
  -7   4   0 3233.52 96.6308 106
  -7   4   0 3338.73 97.9566 105
  -7   4   0 3005.82 93.4278 104
  -7   4   0 3240.78 96.9135 103
   7  -4   0 3043.42 93.4850 102
   7  -4   0 3053.30 93.8595 101
   7  -4   0 2972.83 92.4707 100
  -7   4   0 3233.68 99.4846  41
   7  -4   0 3271.84 96.5288  99
   7  -4   0 3231.41 96.7377  98
   7  -4   0 3121.11 93.8986  20
   7  -4   0 3175.03 94.4521  53
  -7   4   0 3200.17 99.4514  77
   7  -3  -6 2413.71 86.6879  72
  -7   3   6 2849.02 93.5520  71
   7  -3  -6 2493.89 88.4285  45
  -7   3   6 2836.15 103.189  29
  -7   3   6 2724.98 98.5481  57
   7  -3  -6 2731.05 99.8028  84
  -7   3   6 2672.42 100.978  82
  -7   3   5 8251.71 173.860  71
  -7   3   5 8138.68 192.294  69
   7  -3  -5 7534.30 185.523  45
  -7   3   5 7813.35 195.364  29
   7  -3  -5 8048.01 181.161  27
  -7   3   5 7904.84 190.348  57
   7  -3  -5 7988.27 188.908  84
   7  -3  -5 7362.49 160.060  83
  -7   3   5 8077.12 199.317  82
  -7   3   4 304.910 36.7399  71
  -7   3   4 395.460 50.4154  69
   7  -3  -4 387.227 48.6498  45
   7  -3  -4 323.929 44.7760  27
  -7   3   4 316.819 46.7706  41
  -7   3   4 315.606 46.3623  57
  -7   3   4 344.151 45.6777  10
   7  -3  -4 362.910 41.1108  53
   7  -3  -4 335.129 43.2406  84
   7  -3  -4 269.131 39.6926  83
  -7   3   4 269.752 44.2539  82
  -7   3   3 1995.53 84.5967  71
   7  -3  -3 2077.30 94.9789  70
  -7   3   3 2039.70 110.901  69
   7  -3  -3 1984.86 106.680  45
   7  -3  -3 2142.10 113.258  27
  -7   3   3 2138.85 113.530  41
  -7   3   3 1825.03 106.847  57
   7  -3  -3 1994.77 102.757  53
   7  -3  -3 1877.53 104.258  83
  -7   3   3 1847.67 108.912  82
  -7   3   3 2004.70 109.874  77
   7  -3  -2 3764.94 141.563  70
  -7   3   2 3806.94 149.139  69
   7  -3  -2 3759.84 142.827  45
   7  -3  -2 3412.68 131.202 102
   7  -3  -2 4042.58 155.664  27
   7  -3  -2 3735.74 136.708 101
   7  -3  -2 3670.64 136.393 100
  -7   3   2 3826.37 153.799  41
   7  -3  -2 3609.08 133.171  99
   7  -3  -2 3833.30 138.074  98
  -7   3   2 3460.77 148.830  57
   7  -3  -2 3760.61 134.675  20
   7  -3  -2 3956.71 151.916  53
   7  -3  -2 3654.96 148.353  83
  -7   3   2 3804.41 153.120  77
   7  -3  -1 1099.87 71.4864  46
   7  -3  -1 1120.96 80.6639  70
  -7   3   1 1140.98 83.0587  69
  -7   3   1 1025.34 77.2585 106
  -7   3   1 1244.09 84.8640 105
  -7   3   1 1179.39 81.8047 104
  -7   3   1 1130.00 82.2798 103
   7  -3  -1 1012.06 76.6858 102
   7  -3  -1 1114.91 81.2749  27
   7  -3  -1 1191.16 82.4592 101
   7  -3  -1 1100.86 79.8749 100
  -7   3   1 1076.80 82.4089  41
  -7   3   1 1117.00 86.0967  61
   7  -3  -1 1157.04 81.2717  99
   7  -3  -1 1130.32 81.0353  98
  -7   3   1 1208.35 82.0511  87
   7  -3  -1 1079.34 77.7665  20
   7  -3  -1 1149.38 83.4460  53
   7  -3  -1 1184.62 82.6309  83
  -7   3   1 1132.20 82.7420  77
   7  -3   0 5561.99 149.081  47
   7  -3   0 5527.56 159.495  46
   7  -3   0 5429.14 169.226  70
  -7   3   0 5700.98 171.591  69
  -7   3   0 5776.11 178.552 105
  -7   3   0 5703.05 177.385 104
  -7   3   0 5771.66 180.000 103
   7  -3   0 5609.06 174.484 102
   7  -3   0 5676.21 176.594 101
  -7   3   0 5634.53 176.975 106
   7  -3   0 5605.94 174.511 100
  -7   3   0 5538.64 170.907  41
  -7   3   0 5424.67 173.951  61
   7  -3   0 5494.80 173.060  99
   7  -3   0 5311.35 173.073  98
  -7   3   0 5689.40 171.115  87
   7  -3   0 5550.24 173.224  20
   7  -3   0 5660.82 173.079  53
   7  -3   0 5565.37 163.571  83
  -7   3   0 5580.14 170.692  77
   7  -3   1 806.372 56.7551  47
   7  -3   1 869.768 61.6935  46
   7  -3   1 856.989 63.0098  70
  -7   3  -1 827.834 61.9717  69
  -7   3  -1 924.194 68.4784 106
  -7   3  -1 888.456 67.4308 105
  -7   3  -1 900.283 67.9335 104
  -7   3  -1 858.278 66.5379 103
   7  -3   1 926.331 68.1720 102
   7  -3   1 898.610 67.3087 101
   7  -3   1 830.110 65.2674 100
  -7   3  -1 935.747 64.7946  41
  -7   3  -1 761.271 61.3899  61
   7  -3   1 860.688 65.6350  99
   7  -3   1 827.449 65.3681  98
  -7   3  -1 862.207 65.8914  87
   7  -3   1 885.623 67.0304  20
   7  -3   1 817.304 60.5336  53
  -7   3  -1 787.110 60.4333  77
   7  -3   2 17383.3 233.983  47
   7  -3   2 17365.0 241.453  46
   7  -3   2 17394.2 235.505  70
  -7   3  -2 16742.5 228.139  69
  -7   3  -2 17432.0 252.689 106
  -7   3  -2 17586.0 253.698 105
   7  -3   2 17766.4 216.659  14
  -7   3  -2 17594.5 251.253 104
  -7   3  -2 17507.9 254.837 103
   7  -3   2 17586.4 252.697 102
   7  -3   2 17804.2 255.359 101
   7  -3   2 18029.2 254.302 100
  -7   3  -2 15808.9 216.327  41
   7  -3   2 17808.9 253.184  99
   7  -3   2 17474.4 252.737  98
  -7   3  -2 17271.1 246.343  87
   7  -3   2 17711.2 251.495  20
  -7   3  -2 15019.6 206.606  77
  -7   2   7 585.577 41.6913  71
  -7   2   7 569.804 43.4750  29
  -7   2   7 599.852 42.1198  57
   7  -2  -7 573.537 41.8190  84
  -7   2   7 608.401 45.7295  82
   7  -2  -6 1988.09 87.8749  72
  -7   2   6 2240.14 96.5066  71
   7  -2  -6 2002.51 86.5840  45
  -7   2   6 2272.43 106.152  29
  -7   2   6 2160.82 98.5379  57
   7  -2  -6 2024.37 98.0655  84
  -7   2   6 2156.49 103.598  82
  -7   2   5 8761.47 207.968  71
  -7   2   5 8518.41 221.220  69
   7  -2  -5 8338.21 213.043  45
  -7   2   5 8104.62 229.420  29
   7  -2  -5 8528.83 197.576  27
  -7   2   5 8097.79 214.393  57
  -7   2   5 8685.91 216.536  10
   7  -2  -5 8216.27 218.212  84
   7  -2  -5 8271.34 187.962  83
  -7   2   5 8293.02 227.522  82
  -7   2   4 213.732 39.0249  71
  -7   2   4 175.516 41.9750  69
   7  -2  -4 217.565 41.2274  27
  -7   2   4 171.279 40.0922  41
  -7   2   4 169.161 40.7780  57
  -7   2   4 208.376 43.0357  10
   7  -2  -4 205.962 33.6789  53
   7  -2  -4 178.374 39.4589  45
   7  -2  -4 210.674 43.5174  84
   7  -2  -4 193.385 37.2215  83
  -7   2   4 151.036 42.5539  82
  -7   2   3 829.662 68.7165  71
  -7   2   3 770.614 77.9542  69
  -7   2   3 769.054 74.1781  44
   7  -2  -3 720.676 74.6280  45
   7  -2  -3 730.650 72.7057  27
  -7   2   3 730.442 77.7049  41
  -7   2   3 735.523 76.9471  57
  -7   2   3 719.120 72.6861  87
   7  -2  -3 729.692 69.5207  53
   7  -2  -3 814.611 74.8170  84
   7  -2  -3 735.668 73.0999  83
  -7   2   3 782.524 73.5359  50
  -7   2   3 693.018 75.8915  77
  -7   2   2 24.6328 18.8731  71
  -7   2   2 5.39035 27.2607  69
   7  -2  -2 23.7397 22.7494  70
   7  -2  -2 36.5572 27.3007  45
  -7   2   2 20.9540 22.8459 105
  -7   2   2 18.9232 28.5206  44
  -7   2   2-6.90531 21.7520 104
  -7   2   2-6.88937 21.9027 103
   7  -2  -2-9.13185 16.7066 102
   7  -2  -2 34.3008 26.4959  27
   7  -2  -2 14.0702 23.0217 101
   7  -2  -2 19.7507 24.0569 100
   7  -2  -2 23.6749 19.1582  99
  -7   2   2 38.0812 25.3030 106
  -7   2   2 13.2775 26.8440  41
   7  -2  -2 56.4786 28.5708  98
  -7   2   2 12.3335 27.0906  57
  -7   2   2 6.15334 27.6070  87
   7  -2  -2 13.5173 21.1037  53
   7  -2  -2 33.9735 23.3764  84
   7  -2  -2 40.6629 21.4564  20
   7  -2  -2 32.8379 24.9593  83
  -7   2   2 6.49516 27.1363  50
  -7   2   2 16.3514 31.8651  77
   7  -2  -1 8561.59 214.884  46
   7  -2  -1 8426.23 240.817  70
  -7   2   1 8209.36 241.459  69
   7  -2  -1 8300.20 233.168  45
  -7   2   1 8540.18 249.140 106
  -7   2   1 8734.40 250.049 105
  -7   2   1 8429.35 244.968  44
  -7   2   1 8473.93 245.650 104
  -7   2   1 8495.83 249.698 103
   7  -2  -1 8576.18 247.540 102
   7  -2  -1 8198.35 246.945  27
   7  -2  -1 8714.86 249.519 101
   7  -2  -1 8367.15 244.600 100
  -7   2   1 8177.83 242.927  41
  -7   2   1 7749.42 247.332  61
   7  -2  -1 8123.29 241.491  99
   7  -2  -1 8144.26 243.626  98
  -7   2   1 8301.77 244.327  87
   7  -2  -1 8419.96 244.761  20
   7  -2  -1 8476.67 246.919  53
   7  -2  -1 8410.59 247.399  83
  -7   2   1 8556.45 235.045  50
  -7   2   1 8353.84 248.642  77
   7  -2   0 12.6080 14.3656  47
   7  -2   0 47.0718 24.0465  46
   7  -2   0 28.3136 25.9046  70
  -7   2   0 43.0840 30.6289 106
  -7   2   0 18.1288 23.7824 105
  -7   2   0 49.5971 30.4260  44
  -7   2   0 39.7643 26.9416 103
   7  -2   0 56.5753 27.5557 102
   7  -2   0 42.5301 24.7864 101
  -7   2   0 37.9664 28.0901 104
   7  -2   0 19.4601 19.9975 100
   7  -2   0 17.3711 21.0059  99
  -7   2   0 30.0696 30.6269  41
  -7   2   0 33.5667 32.1994  61
   7  -2   0 46.2712 27.1522  98
  -7   2   0 44.0177 29.6825  69
  -7   2   0 58.1413 32.3755  87
   7  -2   0 66.7347 29.3024  53
   7  -2   0 58.6462 30.4946  20
   7  -2   0 39.9224 23.5668  83
  -7   2   0 32.3182 26.0049  50
  -7   2   0 43.4395 26.8219  77
   7  -2   1 45.2588 21.0342  47
   7  -2   1 56.7887 25.8651  46
   7  -2   1 21.4277 23.4674  70
  -7   2  -1 22.7193 23.1923  69
  -7   2  -1 25.2378 26.8947 106
  -7   2  -1-9.90784 26.0648 105
  -7   2  -1 10.2004 24.7545  44
  -7   2  -1-13.3312 21.9915 104
  -7   2  -1-30.5748 24.8994 103
   7  -2   1 2.35578 23.5519 102
   7  -2   1 1.88276 20.9911 101
   7  -2   1 0.65535 22.1106 100
   7  -2   1-6.17725 22.3293  99
  -7   2  -1 21.0949 25.9231  41
  -7   2  -1 2.88734 22.2959  61
   7  -2   1-10.0282 23.2632  98
  -7   2  -1 19.2006 26.7769  87
   7  -2   1 10.5174 20.5782  53
   7  -2   1 2.48445 24.2034  20
   7  -2   1 20.9161 16.8328  83
  -7   2  -1 6.82349 22.3051  50
  -7   2  -1 4.77000 21.1281  77
   7  -2   2 583.381 55.6878  47
   7  -2   2 518.566 53.6772  46
   7  -2   2 633.608 60.6559  70
  -7   2  -2 520.793 54.0292  69
  -7   2  -2 580.657 62.2500 106
  -7   2  -2 538.564 59.8994 105
  -7   2  -2 561.181 61.2843  44
  -7   2  -2 617.766 63.0778 104
  -7   2  -2 503.742 60.1882 103
   7  -2   2 556.302 60.2725 102
   7  -2   2 608.752 62.7326 101
   7  -2   2 531.661 58.5148 100
  -7   2  -2 562.316 54.6945  41
  -7   2  -2 465.972 51.0473  61
   7  -2   2 572.058 59.7113  99
   7  -2   2 575.314 61.3888  98
  -7   2  -2 609.642 62.2521  87
   7  -2   2 621.844 59.4216  53
   7  -2   2 554.415 60.0118  20
  -7   2  -2 573.669 56.5289  50
  -7   2  -2 440.985 48.0467  77
   7  -2   3 15897.8 256.677  47
   7  -2   3 15912.5 259.197  46
   7  -2   3 15937.4 249.219  70
  -7   2  -3 15508.4 230.505  69
  -7   2  -3 15767.8 262.036 106
  -7   2  -3 15912.3 265.282 105
  -7   2  -3 16369.3 266.869  44
   7  -2   3 16186.4 263.883  14
  -7   2  -3 15356.0 259.513 104
  -7   2  -3 15160.3 260.562 103
   7  -2   3 15613.5 262.560 102
   7  -2   3 16179.7 267.113 101
   7  -2   3 16114.2 265.128 100
   7  -2   3 16151.6 264.844  99
   7  -2   3 15414.7 262.181  98
   7  -2   3 16136.8 262.682  20
  -7   2  -3 15797.8 257.321  87
  -7   2  -3 15933.7 242.244  50
   7  -2   4 1214.62 58.1638  47
   7  -2   4 1160.06 56.9461  46
  -7   2  -4 1260.58 59.7077  44
   7  -2   4 1211.96 59.0679  14
  -7   1   7 1139.85 59.2612  71
  -7   1   7 1123.09 63.2440  29
  -7   1   7 1049.39 54.9556  57
   7  -1  -7 1032.78 58.2635  56
   7  -1  -7 1094.98 56.7789  84
  -7   1   7 1105.41 62.7164  82
   7  -1  -6 517.646 48.2718  72
  -7   1   6 547.718 51.7442  71
   7  -1  -6 523.478 45.7523  45
  -7   1   6 506.889 54.1410  29
  -7   1   6 499.841 50.5343  57
   7  -1  -6 518.689 53.7993  84
  -7   1   6 505.810 53.7293  82
  -7   1   6 651.190 58.2871  50
  -7   1   5 209.008 39.2348  71
  -7   1   5 381.756 53.4287  69
   7  -1  -5 234.472 40.2406  45
  -7   1   5 176.559 43.5917  29
  -7   1   5 240.560 43.2608  44
  -7   1   5 313.200 47.9936  57
  -7   1   5 265.428 44.5077  10
   7  -1  -5 248.011 43.1813  84
  -7   1   5 244.045 45.1973  82
  -7   1   5 197.947 40.6516  50
  -7   1   4 60.6977 29.1494  71
  -7   1   4 25.7822 28.8410  69
   7  -1  -4 95.4317 34.0012  45
  -7   1   4 74.1511 35.9463  44
   7  -1  -4 48.0183 23.7040  27
  -7   1   4 48.0227 36.9078  41
  -7   1   4 43.0870 25.7384  57
  -7   1   4 73.9030 33.6741  10
  -7   1   4 43.9538 30.3410  87
   7  -1  -4 162.655 40.9885  84
   7  -1  -4 33.7728 23.6017  83
  -7   1   4 36.8327 30.1786  82
  -7   1   4 24.1303 29.5022  50
  -7   1   3 6622.32 208.125  71
  -7   1   3 6566.47 222.116  69
   7  -1  -3 6152.91 218.369  45
  -7   1   3 6497.86 225.064  44
   7  -1  -3 6492.81 218.000  27
  -7   1   3 6126.85 220.054  41
  -7   1   3 6273.90 210.526  57
  -7   1   3 6495.98 232.709  10
  -7   1   3 6280.36 215.675  87
   7  -1  -3 6167.01 195.424  53
   7  -1  -3 6293.74 219.738  84
   7  -1  -3 6339.01 219.212  83
  -7   1   3 6477.90 221.741  50
   7  -1  -2 119.366 38.1408  45
  -7   1   2 131.349 36.7447  71
   7  -1  -2 125.358 35.1576  70
  -7   1   2 88.0825 33.8082 106
  -7   1   2 102.461 37.1624 105
  -7   1   2 113.313 43.2205  69
  -7   1   2 103.542 43.0777  44
  -7   1   2 97.4894 33.0310 104
  -7   1   2 139.873 36.0739 103
   7  -1  -2 101.781 33.6222 102
   7  -1  -2 74.0509 32.3555  27
   7  -1  -2 124.307 37.8332 101
   7  -1  -2 82.2008 36.0502 100
   7  -1  -2 113.421 36.5409  99
  -7   1   2 87.2090 38.9996  41
   7  -1  -2 97.6199 36.6479  98
  -7   1   2 55.7844 30.8204  57
   7  -1  -2 75.0144 29.8651  53
   7  -1  -2 174.923 44.3388  84
   7  -1  -2 99.1835 34.6805  20
   7  -1  -2 87.4357 32.5293  83
  -7   1   2 79.4276 36.7951  50
  -7   1   2 125.912 44.6313  77
  -7   1   1 274.510 42.9210  71
   7  -1  -1 257.974 47.5357  70
  -7   1   1 198.191 47.1072  69
  -7   1   1 264.549 52.3811 106
  -7   1   1 265.226 53.9837 105
  -7   1   1 251.892 54.1511  44
  -7   1   1 267.212 51.6764 104
  -7   1   1 209.776 48.8100 103
   7  -1  -1 258.693 49.9192 102
   7  -1  -1 280.945 53.5753 101
   7  -1  -1 230.021 51.0319  27
   7  -1  -1 255.920 52.7539 100
   7  -1  -1 262.364 50.8095  99
  -7   1   1 297.593 57.5501  41
   7  -1  -1 224.309 48.2237  98
   7  -1  -1 229.852 49.5386  45
   7  -1  -1 323.465 55.2471  20
  -7   1   1 227.450 52.9080  87
   7  -1  -1 302.486 52.0672  53
   7  -1  -1 263.374 50.3997  84
   7  -1  -1 241.697 47.8277  83
  -7   1   1 234.028 50.3880  50
  -7   1   1 238.829 51.5369  77
   7  -1   0 498.245 56.3103  46
   7  -1   0 430.566 61.2063  70
  -7   1   0 414.444 61.7818  69
   7  -1   0 399.324 55.5542  45
  -7   1   0 535.343 70.2651 106
  -7   1   0 461.467 66.6910 105
  -7   1   0 420.768 64.3495  44
  -7   1   0 448.915 66.2202 104
  -7   1   0 425.401 65.2258 103
   7  -1   0 473.921 67.3470 102
   7  -1   0 440.352 63.4131  27
   7  -1   0 450.323 67.1249 101
   7  -1   0 364.819 58.7986 100
  -7   1   0 443.867 63.5185  41
  -7   1   0 400.622 62.9825  61
   7  -1   0 485.216 67.7656  99
   7  -1   0 334.951 58.7037  98
  -7   1   0 381.030 62.3012  87
   7  -1   0 437.708 66.0060  20
   7  -1   0 479.761 66.1929  53
   7  -1   0 424.951 61.3583  83
  -7   1   0 455.976 66.0623  50
  -7   1   0 495.075 67.8467  77
   7  -1   1 7871.29 222.927  47
   7  -1   1 7390.85 220.142  46
   7  -1   1 7413.24 237.422  70
  -7   1  -1 7848.76 228.663  69
   7  -1   1 7919.51 219.574  45
  -7   1  -1 7483.39 250.349 106
  -7   1  -1 7788.99 254.532 105
  -7   1  -1 7780.78 248.731  44
  -7   1  -1 7780.22 253.821 104
  -7   1  -1 7292.20 251.636 103
   7  -1   1 7578.10 250.888 102
   7  -1   1 7838.19 255.013 101
   7  -1   1 7610.69 250.557 100
  -7   1  -1 7266.07 221.842  41
  -7   1  -1 7574.81 236.879  61
   7  -1   1 7703.69 251.221  99
   7  -1   1 7649.74 252.731  98
  -7   1  -1 7700.94 245.009  87
   7  -1   1 7552.45 248.221  20
   7  -1   1 7587.81 242.280  53
   7  -1   1 7588.40 231.000  83
  -7   1  -1 7447.36 234.753  50
  -7   1  -1 7626.09 229.664  77
   7  -1   2 995.563 80.6776  47
   7  -1   2 856.687 77.1244  46
   7  -1   2 957.530 83.9170  70
  -7   1  -2 997.153 79.4725  69
  -7   1  -2 1014.81 90.3726 106
  -7   1  -2 970.830 88.4146 105
  -7   1  -2 910.247 85.6656  44
  -7   1  -2 1031.48 91.1517 104
  -7   1  -2 951.707 90.9074 103
   7  -1   2 869.774 83.7554 102
   7  -1   2 1034.35 90.1130 101
   7  -1   2 1032.92 90.2988 100
  -7   1  -2 806.175 70.3204  41
  -7   1  -2 827.759 75.1779  61
   7  -1   2 910.774 84.5712  99
   7  -1   2 978.672 88.1242  98
  -7   1  -2 983.659 86.3821  87
   7  -1   2 918.141 84.4086  20
   7  -1   2 965.366 83.8583  53
  -7   1  -2 1060.89 88.7017  50
  -7   1  -2 850.142 73.5871  77
   7  -1   3 172.257 35.3389  47
   7  -1   3 121.932 32.5931  46
   7  -1   3 174.104 36.7716  70
  -7   1  -3 120.092 34.3055 106
  -7   1  -3 209.294 39.3914 105
  -7   1  -3 173.175 39.9559  44
  -7   1  -3 162.474 38.4197 104
  -7   1  -3 181.149 34.3908  69
  -7   1  -3 168.847 36.3044 103
   7  -1   3 141.857 33.1657 102
   7  -1   3 138.978 34.2290 101
   7  -1   3 148.646 35.2157 100
   7  -1   3 146.759 36.4736  99
   7  -1   3 185.609 38.1804  98
  -7   1  -3 167.115 36.6818  87
   7  -1   3 144.489 31.4695  53
   7  -1   3 116.549 32.3045  20
  -7   1  -3 114.701 35.8948  50
   7  -1   4 2870.14 116.289  47
   7  -1   4 2712.45 112.776  46
  -7   1  -4 2576.26 105.358 106
  -7   1  -4 2693.14 107.414 105
  -7   1  -4 2815.28 116.892  44
   7  -1   4 2872.89 119.903  14
  -7   1  -4 2672.09 106.264 104
  -7   1  -4 2622.64 107.128 103
  -7   1  -4 2814.19 106.940  87
  -7   1  -4 2906.76 115.593  50
   7  -1   5 839.354 51.0512  47
   7  -1   5 842.322 51.1089  46
   7  -1   5 863.699 53.9704  14
  -7   1  -5 844.755 50.6879  44
  -7   1  -5 849.275 50.6980  50
  -7   0   7 6240.74 128.485  29
   7   0  -7 6429.09 153.089  58
   7   0  -7 6227.18 135.002  56
  -7   0   7 6439.23 163.016  21
  -7   0   7 6188.68 128.055  82
   7   0  -6 468.815 44.4791  72
  -7   0   6 454.796 48.2892  71
  -7   0   6 384.027 45.2573  29
  -7   0   6 479.618 45.9848  57
   7   0  -6 480.665 51.8044  56
   7   0  -6 444.752 48.3854  84
  -7   0   6 421.119 47.4368  82
  -7   0   6 489.285 56.0482  50
   7   0  -5 6334.91 197.413  72
  -7   0   5 6562.82 197.608  71
   7   0  -5 6533.90 187.159  45
  -7   0   5 6592.02 211.931  44
  -7   0   5 6493.66 205.056  29
  -7   0   5 6393.34 184.574  57
  -7   0   5 6318.95 204.048  10
   7   0  -5 6651.15 208.245  84
  -7   0   5 6481.27 205.126  82
  -7   0   5 6522.33 210.718  50
  -7   0   5 6627.65 207.946   8
   7   0  -4 7504.23 234.285  72
  -7   0   4 7735.49 229.889  71
  -7   0   4 7909.19 236.617  69
   7   0  -4 7898.17 236.154  45
  -7   0   4 7892.04 247.995  44
  -7   0   4 7668.48 216.133  57
  -7   0   4 7800.82 249.782  10
   7   0  -4 7791.92 244.301  84
   7   0  -4 7865.15 222.876  83
  -7   0   4 7645.70 245.266  82
  -7   0   4 7940.25 248.308  50
  -7   0   3 14696.2 321.103  71
  -7   0   3 14653.6 329.955  69
   7   0  -3 14889.9 342.926  45
  -7   0   3 14890.3 352.415  44
   7   0  -3 15056.7 322.489  27
   7   0  -3 14648.4 319.942 101
   7   0  -3 14705.7 317.955 100
  -7   0   3 14740.2 343.301  41
   7   0  -3 14534.4 317.146  99
   7   0  -3 14446.3 317.262  98
   7   0  -3 14568.7 315.216  97
  -7   0   3 15167.3 313.871  57
  -7   0   3 15224.0 364.026  10
  -7   0   3 14503.9 340.239  87
   7   0  -3 15259.4 353.270  84
   7   0  -3 14687.2 335.528  83
  -7   0   3 15325.1 359.530  82
  -7   0   3 14386.8 343.974  50
  -7   0   2 3632.31 160.616  71
  -7   0   2 3715.14 167.907  69
   7   0  -2 3730.72 176.864  45
  -7   0   2 3584.47 175.138 107
  -7   0   2 3691.88 180.989  44
  -7   0   2 3659.66 173.094 104
   7   0  -2 3825.51 174.247  27
   7   0  -2 3613.58 171.857 101
   7   0  -2 3644.67 171.376 100
  -7   0   2 3706.01 174.747  41
   7   0  -2 3686.18 172.613  99
   7   0  -2 3552.89 171.214  98
   7   0  -2 3652.72 171.584  97
  -7   0   2 3711.78 159.376  57
  -7   0   2 3623.32 181.652  10
  -7   0   2 3615.28 176.732  87
   7   0  -2 3706.15 161.242  53
  -7   0   2 3787.44 176.113 105
   7   0  -2 3563.17 172.635  84
   7   0  -2 3665.64 176.076  83
  -7   0   2 3799.94 181.706  50
  -7   0   2 3767.91 160.534  78
  -7   0   2 3389.64 172.323  77
  -7   0   1 550.522 62.7636  71
   7   0  -1 814.998 79.2433  70
  -7   0   1 695.891 77.1735  69
   7   0  -1 709.946 78.9020  45
  -7   0   1 672.589 79.3136 106
  -7   0   1 786.539 86.8319 105
  -7   0   1 734.698 86.4953  44
  -7   0   1 708.313 82.2657 104
  -7   0   1 675.233 81.8976 103
   7   0  -1 632.122 78.9934 102
   7   0  -1 627.649 76.5121  27
   7   0  -1 641.329 78.8188 101
   7   0  -1 618.402 76.9923 100
  -7   0   1 556.279 72.0826  41
   7   0  -1 679.711 80.2451  99
   7   0  -1 620.769 78.4786  98
   7   0  -1 644.031 77.4263  20
  -7   0   1 660.691 81.8117  87
   7   0  -1 626.601 72.3078  53
   7   0  -1 700.464 80.4146  84
   7   0  -1 681.163 79.6478  83
  -7   0   1 660.958 79.8917  50
  -7   0   1 799.828 78.0263  78
  -7   0   1 662.241 80.8471  77
   7   0   0 330.390 55.5316  70
   7   0   0 353.863 59.1815  45
  -7   0   0 382.283 63.8185 106
  -7   0   0 386.345 64.3341 105
  -7   0   0 312.598 59.1264  44
  -7   0   0 315.540 57.3873 104
  -7   0   0 320.528 59.6174 103
   7   0   0 353.793 61.6204 102
   7   0   0 316.954 57.8645 101
   7   0   0 370.482 62.2835 100
  -7   0   0 363.111 60.8724  41
   7   0   0 377.467 63.6226  99
   7   0   0 369.897 63.4367  98
   7   0   0 348.184 60.5762  20
   7   0   0 306.457 54.1877  53
  -7   0   0 327.421 61.8682  87
   7   0   0 337.064 54.8130  84
   7   0   0 392.587 62.2237  83
  -7   0   0 331.117 60.7320  50
  -7   0   0 271.775 50.5056  69
  -7   0   0 363.559 55.7443  78
  -7   0   0 338.512 59.2417  77
   7   0   1 11008.5 267.648  47
   7   0   1 11149.9 272.270  46
   7   0   1 10649.2 259.268  72
   7   0   1 10177.9 289.823  70
  -7   0  -1 10698.4 266.275  69
   7   0   1 10744.9 281.575  45
  -7   0  -1 10533.1 308.474 106
  -7   0  -1 10725.9 310.698 105
  -7   0  -1 10761.5 304.254  44
   7   0   1 11108.9 287.247  14
  -7   0  -1 10643.2 308.317 104
  -7   0  -1 10215.0 309.951 103
   7   0   1 10585.1 310.725 102
   7   0   1 10723.6 313.348 101
   7   0   1 10779.2 311.803 100
  -7   0  -1 10582.4 269.354  41
  -7   0  -1 10336.1 285.124  61
   7   0   1 10517.9 307.452  99
   7   0   1 10515.9 309.879  98
  -7   0  -1 10413.8 296.117  87
   7   0   1 10499.1 306.357  20
   7   0   1 9986.29 289.833  53
   7   0   1 10741.5 263.363  84
   7   0   1 10505.6 289.421  83
  -7   0  -1 10385.9 294.196  50
  -7   0  -1 11057.0 283.375  78
  -7   0  -1 10209.7 273.243  77
   7   0   2 3685.43 160.000  47
   7   0   2 3643.17 159.258  46
   7   0   2 3502.81 167.541  70
   7   0   2 3743.07 152.073  45
  -7   0  -2 3540.14 147.275  69
  -7   0  -2 3401.41 171.479 106
  -7   0  -2 3634.25 177.816 105
  -7   0  -2 3659.16 174.601  44
   7   0   2 3786.15 171.351  14
  -7   0  -2 3451.85 171.916 104
  -7   0  -2 3560.82 178.779 103
   7   0   2 3420.78 171.988 102
   7   0   2 3549.42 176.736 101
   7   0   2 3346.78 170.163 100
   7   0   2 3507.97 172.749  99
   7   0   2 3400.82 170.799  98
  -7   0  -2 3587.54 169.292  87
   7   0   2 3476.71 171.879  20
   7   0   2 3777.09 176.206  53
   7   0   2 3440.30 156.295  83
  -7   0  -2 3717.99 171.689  50
  -7   0  -2 3733.20 163.461  78
  -7   0  -2 3425.34 146.493  77
   7   0   3 4100.90 166.263  47
   7   0   3 4009.80 164.407  46
   7   0   3 4025.09 170.969  70
  -7   0  -3 3874.28 170.264 106
  -7   0  -3 3908.95 172.079 105
  -7   0  -3 4147.33 174.707  44
   7   0   3 3965.90 173.468  14
  -7   0  -3 3843.32 169.981 104
  -7   0  -3 3714.60 169.738 103
   7   0   3 3944.05 173.639 102
   7   0   3 4098.90 176.093 101
   7   0   3 4042.54 174.819 100
   7   0   3 3924.50 171.145  99
   7   0   3 4133.15 176.764  98
   7   0   3 3929.07 171.704  20
  -7   0  -3 4066.37 167.010  87
   7   0   3 3892.74 168.274  53
  -7   0  -3 4231.87 173.844  50
  -7   0  -3 4301.42 167.829  78
   7   0   4 229.726 39.1959  47
   7   0   4 218.993 41.6358  46
   7   0   4 216.630 38.1990  70
  -7   0  -4 184.691 36.4234 106
  -7   0  -4 181.891 36.4800 105
   7   0   4 238.437 47.0272  14
  -7   0  -4 235.423 43.5806  44
  -7   0  -4 190.192 36.4475 104
  -7   0  -4 222.236 42.3051 103
   7   0   4 229.194 40.2032 102
   7   0   4 183.995 35.3703  28
   7   0   4 231.599 40.9799 101
   7   0   4 208.262 37.4615 100
   7   0   4 181.436 36.5139  99
   7   0   4 240.833 40.1335  98
   7   0   4 263.688 41.8521  20
  -7   0  -4 252.641 42.5403  87
   7   0   4 262.356 42.2529  53
  -7   0  -4 216.464 41.8261  50
  -7   0  -4 221.636 41.6312  78
   7   0   5 3473.64 127.897  47
   7   0   5 3619.48 129.614  46
   7   0   5 3501.98 133.143  14
  -7   0  -5 3589.41 125.520  44
  -7   0  -5 3549.32 126.003  50
  -7   0  -5 3432.67 121.497  78
   7   0   6 86.2166 18.1647  47
   7   0   6 38.8652 13.4193  46
   7   0   6 53.2437 16.5186  14
  -7   0  -6 61.7120 18.5248  86
  -7   0  -6 58.4525 18.0029  50
  -7   0  -6 49.8471 15.7735  78
   7   1  -7 2071.99 82.7371  58
  -7  -1   7 2162.14 91.0225  21
  -7  -1   6 1577.15 92.6086  59
   7   1  -6 1670.66 94.9608  58
   7   1  -6 1494.13 84.0688  56
  -7  -1   6 1697.15 103.765  21
   7   1  -6 1616.53 78.9378  84
  -7  -1   6 1673.95 95.7619  50
   7   1  -5 1689.60 97.2412  72
  -7  -1   5 1718.08 99.6237  71
  -7  -1   5 1728.25 111.519  44
  -7  -1   5 1784.68 97.9897  29
  -7  -1   5 1658.31 109.197  59
   7   1  -5 1805.95 108.423  56
   7   1  -5 1714.51 102.541  84
  -7  -1   5 1665.37 95.9126  82
  -7  -1   5 1684.22 107.167   8
  -7  -1   5 1734.37 110.361  50
   7   1  -4 652.427 69.9806  72
  -7  -1   4 611.941 65.7657  71
   7   1  -4 673.485 67.9317  45
  -7  -1   4 561.855 73.5184  44
  -7  -1   4 515.603 62.6791  29
  -7  -1   4 570.219 73.1600  10
  -7  -1   4 614.836 64.3258  52
   7   1  -4 589.566 69.2143  84
   7   1  -4 605.356 61.2418  83
  -7  -1   4 521.210 63.2852  82
  -7  -1   4 736.063 81.3746  50
  -7  -1   4 635.709 76.8453   8
  -7  -1   4 648.253 67.6228  78
   7   1  -3 1690.83 118.058  72
  -7  -1   3 1651.20 110.952  71
  -7  -1   3 1698.11 111.886  69
   7   1  -3 1622.99 113.899  45
  -7  -1   3 1652.90 121.781  44
  -7  -1   3 1687.57 112.540 105
  -7  -1   3 1632.02 108.130 104
   7   1  -3 1602.96 108.104 101
   7   1  -3 1570.31 106.210 100
   7   1  -3 1580.67 106.851  99
   7   1  -3 1686.81 110.802  98
   7   1  -3 1596.17 106.875  97
  -7  -1   3 1555.41 119.592  10
  -7  -1   3 1585.32 117.432  87
  -7  -1   3 1577.99 112.724 107
  -7  -1   3 1671.07 112.128  52
   7   1  -3 1674.97 120.070  84
   7   1  -3 1690.47 113.986  83
  -7  -1   3 1602.34 112.499  82
  -7  -1   3 1662.23 121.338  50
  -7  -1   3 1597.27 110.584  78
   7   1  -2 4953.72 203.302  72
  -7  -1   2 4928.36 191.505  71
  -7  -1   2 5226.45 191.270  69
   7   1  -2 5104.54 207.358  45
  -7  -1   2 4666.51 203.825 107
  -7  -1   2 4841.98 208.199  44
  -7  -1   2 5015.67 205.147 105
  -7  -1   2 5018.01 202.833 104
   7   1  -2 4808.66 201.187 101
   7   1  -2 4994.14 203.347 100
  -7  -1   2 4696.36 193.579  41
   7   1  -2 4807.03 198.100  99
   7   1  -2 4869.77 202.247  98
   7   1  -2 4677.65 196.247  97
  -7  -1   2 5051.02 214.130  10
  -7  -1   2 4888.25 207.850  87
  -7  -1   2 5316.13 199.622  52
   7   1  -2 4817.51 203.498  84
   7   1  -2 4950.17 204.751  83
  -7  -1   2 4822.48 204.568  50
  -7  -1   2 5196.54 200.085  78
   7   1  -1 50.7188 27.3676  72
  -7  -1   1 100.389 32.9795  71
   7   1  -1 52.1060 25.2158  70
  -7  -1   1 83.5981 34.0091 107
  -7  -1   1 59.6321 31.8900 105
   7   1  -1 49.2808 33.8128  45
  -7  -1   1 55.5369 38.0649  44
  -7  -1   1 53.2714 30.0176 104
   7   1  -1 44.2999 28.9065 101
   7   1  -1 48.2340 30.4214 100
   7   1  -1 85.2218 40.4302  99
  -7  -1   1 71.4283 32.6666  41
  -7  -1   1 91.5165 34.9669  69
   7   1  -1 53.8893 36.2825  98
   7   1  -1 16.9359 24.6599  97
  -7  -1   1 46.5648 34.9886  10
  -7  -1   1 36.3745 36.2969  87
   7   1  -1 98.9278 34.0127  53
   7   1  -1 50.2484 33.2567  84
  -7  -1   1 204.527 46.1165  52
   7   1  -1 48.4261 31.2062  83
  -7  -1   1 78.3651 38.2129  50
  -7  -1   1 43.8074 31.7539  78
   7   1   0 2879.96 151.743  72
   7   1   0 3072.43 157.458  70
   7   1   0 3233.92 167.036  45
  -7  -1   0 3095.50 177.393 107
  -7  -1   0 3039.62 169.088 106
  -7  -1   0 3147.79 173.717 105
  -7  -1   0 3051.21 166.793  44
  -7  -1   0 3192.62 170.989 104
  -7  -1   0 3066.26 173.438 103
   7   1   0 3053.18 169.230 102
   7   1   0 3272.15 174.721 101
   7   1   0 3058.59 168.791 100
  -7  -1   0 3243.75 153.168  41
   7   1   0 3063.52 169.715  99
   7   1   0 2975.58 169.594  98
   7   1   0 3056.46 168.656  97
   7   1   0 3103.94 145.881  56
  -7  -1   0 3022.40 162.684  10
   7   1   0 3057.42 168.228  20
  -7  -1   0 2860.66 161.622  87
   7   1   0 2960.15 156.285  53
  -7  -1   0 3208.06 156.227  86
  -7  -1   0 3326.69 163.414  52
   7   1   0 3068.61 159.846  84
   7   1   0 3069.18 164.205  83
  -7  -1   0 3194.72 166.254  50
  -7  -1   0 3196.88 162.748  78
  -7  -1   0 3190.75 158.604  77
   7   1   1 8699.23 249.794  72
   7   1   1 9059.57 274.129  70
   7   1   1 8846.43 267.820  45
  -7  -1  -1 8598.57 281.952 106
  -7  -1  -1 9225.37 291.885 105
   7   1   1 9070.25 264.780  14
  -7  -1  -1 8897.75 277.405  44
  -7  -1  -1 8813.90 283.662 104
  -7  -1  -1 8869.35 291.033 103
   7   1   1 8539.30 284.293 102
   7   1   1 8911.46 287.223 101
   7   1   1 8873.69 285.033 100
   7   1   1 8891.32 285.384  99
   7   1   1 8708.76 284.939  98
  -7  -1  -1 9078.57 267.742  10
   7   1   1 9021.38 286.020  20
  -7  -1  -1 8824.25 274.997  87
   7   1   1 8726.20 272.747  53
  -7  -1  -1 8864.19 263.543  86
   7   1   1 8686.48 259.232  84
  -7  -1  -1 9107.94 262.917  52
   7   1   1 8831.84 273.686  83
  -7  -1  -1 9067.75 275.207  50
  -7  -1  -1 9022.27 271.209  78
  -7  -1  -1 8280.73 244.290  77
   7   1   2 3498.71 158.070  47
   7   1   2 3481.80 154.476  46
   7   1   2 3233.22 166.146  70
   7   1   2 3344.97 158.053  45
  -7  -1  -2 3298.20 173.860 106
  -7  -1  -2 3303.67 172.978 105
  -7  -1  -2 3284.18 167.344  44
   7   1   2 3418.84 168.660  14
  -7  -1  -2 3198.48 169.683 104
  -7  -1  -2 3287.49 174.636 103
   7   1   2 3224.25 171.116 102
   7   1   2 3217.63 172.035 101
   7   1   2 3102.77 167.747 100
   7   1   2 3281.90 171.298  99
   7   1   2 3184.82 169.617  98
   7   1   2 3118.19 167.713  20
  -7  -1  -2 3266.53 163.565  87
   7   1   2 3204.41 165.316  53
  -7  -1  -2 3216.71 162.236  86
   7   1   2 3419.51 151.123  84
  -7  -1  -2 3258.78 157.882  52
   7   1   2 3074.67 154.335  83
  -7  -1  -2 3336.40 166.518  50
  -7  -1  -2 3340.73 164.460  78
   7   1   3 2084.27 122.998  47
   7   1   3 1970.53 119.028  46
   7   1   3 2072.17 130.475  70
  -7  -1  -3 1951.53 127.634 106
  -7  -1  -3 2039.85 131.319 105
  -7  -1  -3 2008.99 125.507  44
   7   1   3 2152.22 134.578  14
  -7  -1  -3 2020.78 130.493 104
  -7  -1  -3 1899.48 127.978 103
   7   1   3 1949.50 127.199 102
   7   1   3 2038.01 129.841 101
   7   1   3 1914.11 126.343 100
   7   1   3 2097.64 131.365  99
   7   1   3 2049.11 130.081  98
   7   1   3 1747.95 120.514  20
  -7  -1  -3 1986.61 121.736  87
   7   1   3 1948.92 126.436  53
  -7  -1  -3 1954.38 119.562  52
   7   1   3 1956.98 114.140  83
  -7  -1  -3 2173.67 131.220  50
  -7  -1  -3 2068.49 129.739  78
   7   1   4 421.398 56.9863  47
   7   1   4 502.286 59.6702  46
   7   1   4 450.332 58.6376  70
  -7  -1  -4 469.089 60.0022 107
  -7  -1  -4 440.489 58.2606 106
  -7  -1  -4 485.588 59.6572 105
  -7  -1  -4 471.580 58.6696  44
   7   1   4 426.366 60.0770  14
  -7  -1  -4 411.784 55.4804 104
  -7  -1  -4 389.211 56.1584 103
   7   1   4 410.871 56.3195 102
   7   1   4 462.879 57.5056 101
   7   1   4 461.420 57.6769 100
   7   1   4 499.763 59.7296  99
   7   1   4 488.652 60.2969  98
   7   1   4 464.758 58.8235  97
   7   1   4 443.359 58.3941  20
  -7  -1  -4 450.374 54.4253  87
   7   1   4 390.501 56.9647  53
  -7  -1  -4 478.195 59.8486  52
  -7  -1  -4 495.887 63.3572  50
  -7  -1  -4 452.858 62.9473  78
   7   1   5 26642.9 390.511  47
   7   1   5 26687.6 387.728  46
   7   1   5 25844.2 368.496  70
  -7  -1  -5 24288.0 332.017 107
  -7  -1  -5 25008.2 331.302 105
   7   1   5 25994.1 401.161  14
  -7  -1  -5 25725.7 357.693  44
  -7  -1  -5 24841.4 328.567 104
   7   1   5 25813.5 365.150  28
   7   1   5 25967.7 370.557  53
  -7  -1  -5 26899.8 365.597  52
  -7  -1  -5 26224.7 375.528  50
  -7  -1  -5 26869.8 387.980  78
   7   1   6 631.147 52.8811  47
   7   1   6 573.149 49.8957  46
   7   1   6 529.334 51.6953  14
  -7  -1  -6 513.892 40.2354  44
  -7  -1  -6 568.679 47.8343  50
  -7  -1  -6 556.166 49.1672  78
  -7  -2   7 41.4981 15.3886  21
  -7  -2   6 6008.84 172.632  59
   7   2  -6 5780.64 162.256  58
   7   2  -6 5870.12 146.485  56
   7   2  -5 300.516 40.7350  72
  -7  -2   5 218.598 45.4214  59
   7   2  -5 255.645 45.8500  58
   7   2  -5 223.964 39.3150  56
  -7  -2   5 266.853 49.2422  21
   7   2  -5 301.152 41.6520  84
  -7  -2   5 234.371 42.1185  52
  -7  -2   5 298.050 47.4518  50
  -7  -2   5 233.848 43.8338   8
  -7  -2   5 315.194 47.4080  78
   7   2  -4 399.661 54.9978  72
   7   2  -4 464.253 52.4681  45
  -7  -2   4 239.975 52.9772  44
   7   2  -4 284.232 52.6349  58
   7   2  -4 303.195 51.8149  56
   7   2  -4 354.015 51.9355  84
  -7  -2   4 341.824 51.1739  52
  -7  -2   4 244.617 49.8663  50
  -7  -2   4 318.817 58.1610   8
  -7  -2   4 298.372 51.3142  78
   7   2  -3 1667.59 115.752  72
   7   2  -3 1866.96 116.295  45
  -7  -2   3 1706.27 112.986 107
  -7  -2   3 1609.06 119.502  44
  -7  -2   3 1756.21 115.283 105
  -7  -2   3 1706.16 111.324 104
   7   2  -3 1701.73 112.040 101
   7   2  -3 1691.10 110.689 100
   7   2  -3 1668.66 110.020  99
   7   2  -3 1615.43 108.831  98
   7   2  -3 1672.72 109.596  97
  -7  -2   3 1540.47 117.650  10
   7   2  -3 1753.40 119.299  56
  -7  -2   3 1739.05 116.875  52
   7   2  -3 1739.75 118.734  84
   7   2  -3 1707.55 109.278  83
  -7  -2   3 1634.28 117.346  50
  -7  -2   3 1716.47 126.408   8
  -7  -2   3 1716.17 117.622  78
   7   2  -2 3110.40 162.906  72
   7   2  -2 3270.82 162.908  45
  -7  -2   2 3002.26 162.097 107
  -7  -2   2 2990.62 162.718  44
  -7  -2   2 3309.32 166.920 105
  -7  -2   2 3195.33 161.880 104
   7   2  -2 3356.52 168.475 101
   7   2  -2 3396.22 167.399 100
   7   2  -2 3114.07 161.436  99
   7   2  -2 3157.01 163.347  98
   7   2  -2 3144.03 161.540  97
   7   2  -2 3145.90 154.467  58
  -7  -2   2 2813.07 160.919  10
   7   2  -2 3093.89 159.024  56
  -7  -2   2 3332.94 171.271  87
  -7  -2   2 3190.24 161.766  52
   7   2  -2 2952.65 159.585  84
   7   2  -2 2611.84 148.118  83
  -7  -2   2 2970.66 157.869  50
  -7  -2   2 3018.71 158.840  78
  -7  -2   1 5976.32 226.839  44
   7   2  -1 5972.28 224.768  72
   7   2  -1 6152.27 229.262  45
  -7  -2   1 6213.01 242.182 107
  -7  -2   1 6012.10 236.939 105
  -7  -2   1 6030.91 232.934 104
   7   2  -1 6133.76 237.694 101
   7   2  -1 6040.61 235.152 100
   7   2  -1 7408.13 267.253  99
   7   2  -1 5771.33 232.630  98
   7   2  -1 6124.88 234.680  97
   7   2  -1 6296.83 208.647  58
  -7  -2   1 5943.49 232.443  10
   7   2  -1 5948.49 218.487  56
  -7  -2   1 5969.06 230.954  87
  -7  -2   1 6328.21 218.119  86
  -7  -2   1 5961.36 221.915  52
   7   2  -1 5936.92 228.332  84
   7   2  -1 6067.90 229.224  83
  -7  -2   1 6144.42 226.648  50
  -7  -2   1 6061.63 227.054  78
   7   2   0 2207.63 135.317  72
   7   2   0 2363.54 135.233  70
   7   2   0 2311.66 141.982  45
  -7  -2   0 2254.68 151.692 107
  -7  -2   0 2376.58 152.940 105
  -7  -2   0 2257.02 142.064  44
  -7  -2   0 2442.49 151.737 104
   7   2   0 2176.11 146.031 101
   7   2   0 2408.76 151.698 100
   7   2   0 2396.05 152.005  99
   7   2   0 2378.44 152.700  98
   7   2   0 2290.98 147.863  97
  -7  -2   0 2399.05 145.623  10
   7   2   0 2328.22 131.862  56
  -7  -2   0 2296.46 144.358  87
   7   2   0 2482.14 139.316  53
  -7  -2   0 2431.15 142.212  86
  -7  -2   0 2251.75 139.113  52
   7   2   0 2207.11 139.502  84
   7   2   0 2365.53 145.370  83
  -7  -2   0 2371.42 143.444  50
  -7  -2   0 2239.62 140.699  78
   7   2   1 1197.82 97.0284  72
   7   2   1 1354.84 107.456  70
   7   2   1 1323.86 107.099  45
  -7  -2  -1 1241.52 114.264 107
   7   2   1 1390.03 105.909  14
  -7  -2  -1 1385.19 110.694  44
  -7  -2  -1 1342.84 114.568 104
  -7  -2  -1 1251.94 112.559 105
   7   2   1 1286.06 113.278 101
   7   2   1 1315.18 113.041 100
   7   2   1 1252.56 111.792  99
   7   2   1 1330.71 114.795  98
   7   2   1 1308.22 111.689  97
  -7  -2  -1 1429.68 106.552  10
  -7  -2  -1 1256.81 99.8925  89
  -7  -2  -1 1336.51 109.700  87
   7   2   1 1272.65 103.978  53
  -7  -2  -1 1306.97 109.681  86
   7   2   1 1201.36 102.530  84
  -7  -2  -1 1405.38 112.030  52
   7   2   1 1338.74 108.929  83
  -7  -2  -1 1308.50 106.162  50
  -7  -2  -1 1280.70 107.243  78
   7   2   2 10541.2 262.637  72
   7   2   2 10353.9 293.776  70
   7   2   2 10385.4 287.486  45
  -7  -2  -2 10051.7 305.900 107
  -7  -2  -2 10493.1 308.302 105
   7   2   2 10612.1 300.053  14
  -7  -2  -2 10925.7 294.936  44
  -7  -2  -2 10191.2 303.001 104
   7   2   2 10250.4 307.328 101
   7   2   2 10092.5 302.815 100
   7   2   2 10032.3 301.690  99
   7   2   2 10419.4 307.179  98
   7   2   2 10721.0 308.410  97
  -7  -2  -2 10475.6 286.021  89
  -7  -2  -2 10419.9 288.344  87
   7   2   2 10206.5 295.616  53
  -7  -2  -2 10346.4 297.481  86
   7   2   2 10279.0 281.593  84
  -7  -2  -2 10484.2 294.236  52
   7   2   2 10398.3 291.777  83
  -7  -2  -2 10605.8 291.299  50
  -7  -2  -2 10292.7 295.168  78
   7   2   3 4569.72 180.174  47
   7   2   3 4745.39 178.837  46
   7   2   3 4406.77 191.201  70
   7   2   3 4416.95 177.250  45
  -7  -2  -3 4332.56 195.814 107
  -7  -2  -3 4407.93 193.978 105
   7   2   3 4406.07 195.237  14
  -7  -2  -3 4351.65 180.036  44
  -7  -2  -3 4263.61 189.189 104
   7   2   3 4531.60 197.299 101
   7   2   3 4405.46 193.839 100
   7   2   3 4638.76 196.854  99
   7   2   3 4425.74 194.941  98
   7   2   3 4569.59 195.880  97
  -7  -2  -3 4668.40 182.562  87
   7   2   3 4573.50 196.003  53
  -7  -2  -3 4446.25 193.502  86
   7   2   3 4325.02 168.493  84
  -7  -2  -3 4390.13 187.355  52
   7   2   3 4452.42 179.612  83
  -7  -2  -3 4521.57 184.903  50
  -7  -2  -3 4330.51 187.620  78
   7   2   4 3436.35 155.806  47
   7   2   4 3270.46 148.240  46
   7   2   4 3061.09 152.621  70
  -7  -2  -4 3255.46 153.794 105
  -7  -2  -4 3165.54 152.716 107
   7   2   4 3351.75 166.745  14
  -7  -2  -4 3328.82 146.939  44
  -7  -2  -4 3226.76 152.945 104
   7   2   4 3078.21 156.956  28
   7   2   4 3208.55 153.486 101
   7   2   4 3149.43 151.747 100
   7   2   4 3216.90 152.087  99
   7   2   4 3114.04 150.238  98
   7   2   4 3121.77 148.826  97
   7   2   4 3082.26 154.158  53
  -7  -2  -4 3324.31 156.155  52
  -7  -2  -4 3347.94 151.312  50
  -7  -2  -4 3225.86 158.026  78
   7   2   5 8394.09 230.740  47
   7   2   5 8236.21 222.750  46
   7   2   5 7941.86 222.815  70
  -7  -2  -5 8074.37 203.513 107
  -7  -2  -5 7809.57 198.679 105
   7   2   5 8130.07 239.918  14
  -7  -2  -5 7822.61 196.672  44
  -7  -2  -5 7770.81 196.542 104
   7   2   5 7571.35 220.566  28
   7   2   5 8060.37 227.053  53
  -7  -2  -5 8025.42 222.670  52
  -7  -2  -5 7898.93 210.572  50
  -7  -2  -5 8181.98 229.975  78
   7   2   6 7113.46 185.754  46
   7   2   6 7060.38 196.273  14
  -7  -2  -6 7195.19 194.036  86
  -7  -2  -6 7093.41 183.449  52
  -7  -2  -6 6986.76 169.573  50
  -7  -2  -6 7077.53 185.603  78
   7   2   7 3456.67 103.643  46
  -7  -2  -7 3303.04 103.204  86
  -7  -2  -7 3261.36 96.8733  52
  -7  -2  -7 3354.40 99.4753  78
   7   3  -6 28.1710 15.5760  60
  -7  -3   6 42.6396 18.1797  59
   7   3  -6 50.5789 18.7446  58
  -7  -3   6 82.9473 20.9928  21
  -7  -3   6 59.1604 18.5944  52
  -7  -3   5 28997.9 391.160   7
  -7  -3   5 29930.1 427.747  59
   7   3  -5 30657.1 395.583  58
   7   3  -5 29313.0 367.601  56
  -7  -3   5 30183.6 408.227  21
  -7  -3   5 30420.2 400.086  52
  -7  -3   5 29455.1 388.983  78
   7   3  -4 668.926 64.0348  72
  -7  -3   4 714.589 80.0100  59
   7   3  -4 671.079 70.0111  58
   7   3  -4 733.617 70.4131  56
  -7  -3   4 708.412 73.3473  21
  -7  -3   4 650.717 68.7782  52
   7   3  -4 713.165 62.7744  84
  -7  -3   4 647.680 72.8951   8
  -7  -3   4 649.199 66.2210  50
  -7  -3   4 690.274 71.8759  78
   7   3  -3 41.0663 26.3864  72
  -7  -3   3 28.8623 23.7553  16
   7   3  -3 47.5652 22.4512  45
  -7  -3   3 15.7417 20.5725 107
  -7  -3   3 49.4428 35.9819  44
  -7  -3   3 35.0143 27.7037 104
   7   3  -3 33.6242 24.8565 103
  -7  -3   3-35.6182 22.6364 102
   7   3  -3-19.1296 18.9738 100
   7   3  -3-36.8708 20.1668  99
   7   3  -3 47.7048 22.7399  98
   7   3  -3 20.6794 24.1972  97
   7   3  -3 57.7066 34.5349  58
   7   3  -3 78.1768 32.8477  56
   7   3  -3 42.2372 25.0827  84
  -7  -3   3 16.9305 27.5947  52
   7   3  -3 59.0797 26.3514  83
  -7  -3   3 21.9770 25.0510  50
  -7  -3   3 47.4250 37.5813   8
  -7  -3   3 10.1027 27.2374  78
   7   3  -2 7791.18 250.624  72
   7   3  -2 8240.16 246.545  45
  -7  -3   2 7729.94 258.081 107
  -7  -3   2 7974.99 251.953  44
  -7  -3   2 7689.51 253.454 105
  -7  -3   2 7862.03 252.348 104
   7   3  -2 8133.14 259.602 101
   7   3  -2 8306.56 260.576 100
   7   3  -2 7737.09 249.093  99
   7   3  -2 7965.29 256.657  98
   7   3  -2 7870.71 253.415  97
   7   3  -2 7812.87 242.793  58
   7   3  -2 7999.46 254.292  56
  -7  -3   2 7920.21 240.896  86
  -7  -3   2 8189.94 259.514  52
   7   3  -2 8301.47 257.347  84
   7   3  -2 8328.14 249.817  83
  -7  -3   2 7844.29 242.600  50
  -7  -3   2 8010.96 268.533   8
  -7  -3   2 7884.77 255.918  78
   7   3  -1 455.328 65.1721  72
   7   3  -1 473.903 66.5616  45
  -7  -3   1 473.041 70.5388 107
  -7  -3   1 456.505 65.3317  44
  -7  -3   1 438.519 67.4274 105
  -7  -3   1 405.447 63.9426 104
   7   3  -1 523.847 73.1550 101
   7   3  -1 440.608 66.3916 100
   7   3  -1 510.320 70.7742  99
   7   3  -1 486.207 70.1322  98
   7   3  -1 454.514 66.6327  97
   7   3  -1 539.180 66.5691  58
  -7  -3   1 413.188 66.5375  10
   7   3  -1 502.660 68.5167  56
  -7  -3   1 464.551 61.7064  89
  -7  -3   1 403.320 67.2099  87
  -7  -3   1 555.746 72.4715  86
  -7  -3   1 483.005 69.9925  52
   7   3  -1 524.652 72.8317  84
   7   3  -1 490.105 66.8612  83
  -7  -3   1 555.392 70.6343  50
  -7  -3   1 503.084 72.5093  78
   7   3   0 4570.14 194.337  72
   7   3   0 4883.83 186.515  70
   7   3   0 4562.56 196.727  45
  -7  -3   0 4323.90 209.101 107
  -7  -3   0 4453.97 189.905  44
  -7  -3   0 4727.10 213.715 105
  -7  -3   0 4495.06 204.116 104
   7   3   0 4696.62 211.103 101
   7   3   0 4424.10 203.530 100
   7   3   0 4595.07 206.923  99
   7   3   0 4498.32 207.763  98
   7   3   0 4659.83 208.193  97
   7   3   0 4626.00 176.924  58
  -7  -3   0 4429.14 192.444  10
   7   3   0 4476.22 187.079  56
  -7  -3   0 4716.99 193.952  89
  -7  -3   0 4293.65 192.559  87
   7   3   0 4636.87 179.572  53
  -7  -3   0 4638.57 198.544  86
  -7  -3   0 4471.47 197.751  52
   7   3   0 4492.82 198.423  84
   7   3   0 4790.60 205.660  83
  -7  -3   0 4644.86 189.168  50
  -7  -3   0 4597.38 200.865  78
   7   3   1 27000.6 457.654  72
   7   3   1 28878.6 474.558  70
   7   3   1 27615.1 483.867  45
  -7  -3  -1 26743.7 512.298 107
  -7  -3  -1 28012.8 511.250 105
  -7  -3  -1 27974.6 463.894  44
  -7  -3  -1 28129.8 503.868 104
   7   3   1 27767.7 510.701 101
   7   3   1 27804.4 507.097 100
   7   3   1 27779.9 505.887  99
   7   3   1 27781.3 510.425  98
   7   3   1 27437.6 501.253  97
  -7  -3  -1 27656.8 451.589  10
   7   3   1 28163.5 446.156  56
  -7  -3  -1 28575.4 490.382  89
  -7  -3  -1 27205.6 469.976  87
   7   3   1 28148.9 465.678  53
  -7  -3  -1 27366.8 491.568  86
   7   3   1 27425.4 483.074  84
  -7  -3  -1 27877.2 490.443  52
   7   3   1 27464.4 488.392  83
  -7  -3  -1 28010.2 456.468  50
  -7  -3  -1 27623.1 486.155  78
   7   3   2 2397.03 130.746  72
   7   3   2 2390.89 141.137  70
   7   3   2 2144.54 134.034  45
   7   3   2 2090.42 137.042  14
  -7  -3  -2 2248.42 146.113 107
  -7  -3  -2 2304.39 147.492 105
  -7  -3  -2 2132.70 126.261  44
  -7  -3  -2 2347.01 146.350 104
   7   3   2 2179.08 143.762 101
   7   3   2 2266.30 144.199 100
   7   3   2 2147.75 141.698  99
   7   3   2 2189.01 142.597  98
   7   3   2 2351.23 145.371  97
  -7  -3  -2 2264.57 140.906  89
  -7  -3  -2 2244.82 132.016  87
   7   3   2 2253.89 136.654  53
  -7  -3  -2 2375.13 145.355  86
   7   3   2 2262.22 137.985  84
  -7  -3  -2 2435.42 147.366  52
   7   3   2 2329.35 140.952  83
  -7  -3  -2 2289.02 131.301  50
  -7  -3  -2 2355.14 142.655  78
   7   3   3 1108.00 87.5108  47
   7   3   3 1030.89 93.8886  70
   7   3   3 1029.36 90.8755  45
  -7  -3  -3 946.349 93.4024 107
   7   3   3 955.693 95.5167  14
  -7  -3  -3 974.550 92.7722 105
  -7  -3  -3 996.551 82.4277  44
  -7  -3  -3 888.669 88.9980 104
   7   3   3 1006.54 95.6526 101
   7   3   3 979.652 93.5440 100
   7   3   3 1005.04 95.4922  99
   7   3   3 1005.15 95.9663  98
   7   3   3 989.991 92.5560  97
  -7  -3  -3 1057.21 97.7852  89
  -7  -3  -3 1070.04 85.6584  87
   7   3   3 1040.55 94.8010  53
  -7  -3  -3 984.982 96.6417  86
   7   3   3 993.483 89.2248  84
  -7  -3  -3 885.625 89.1158  52
   7   3   3 985.392 87.7773  83
  -7  -3  -3 957.335 84.0509  50
  -7  -3  -3 933.528 93.0364  78
   7   3   4 2144.10 122.839  47
   7   3   4 2201.29 117.626  46
   7   3   4 2108.38 129.995  70
   7   3   4 2107.14 118.009  45
   7   3   4 2099.20 134.826  14
  -7  -3  -4 2146.94 126.957 105
  -7  -3  -4 1969.56 120.148 104
   7   3   4 1973.11 127.116  28
   7   3   4 2037.85 123.985 101
   7   3   4 1924.97 119.970 100
   7   3   4 2081.03 123.389  99
   7   3   4 2018.69 122.061  98
   7   3   4 1916.63 118.121  97
   7   3   4 1965.27 126.081  53
  -7  -3  -4 2150.55 133.982  86
  -7  -3  -4 1961.25 126.705  52
  -7  -3  -4 2237.78 118.722  50
  -7  -3  -4 1956.09 121.535 107
  -7  -3  -4 2238.22 132.672  78
   7   3   5 9300.38 235.486  46
   7   3   5 9175.29 248.498  70
   7   3   5 9142.08 261.198  14
   7   3   5 8902.99 249.753  28
   7   3   5 9003.91 248.520  53
  -7  -3  -5 9134.81 256.259  86
  -7  -3  -5 9396.94 253.435  52
  -7  -3  -5 9111.83 218.032  50
  -7  -3  -5 9517.44 249.249  78
   7   3   6 767.763 63.8343  46
   7   3   6 731.047 61.9400  70
   7   3   6 755.616 57.3874  15
   7   3   6 742.387 68.8138  14
   7   3   6 757.689 65.7626  28
   7   3   6 716.366 62.8414  53
  -7  -3  -6 804.110 71.0885  86
  -7  -3  -6 831.833 70.8985  52
  -7  -3  -6 794.550 56.3160  50
  -7  -3  -6 769.320 65.1820  78
   7   3   7 215.112 26.0921  15
  -7  -3  -7 266.589 35.9803  89
  -7  -3  -7 189.160 30.3835  86
  -7  -3  -7 262.712 35.5853  52
  -7  -3  -7 205.766 28.2661  78
  -7  -4   5 206.875 31.4223   7
   7   4  -5 187.611 32.5279  60
  -7  -4   5 192.524 31.0673  59
   7   4  -5 201.286 30.9194  58
   7   4  -5 201.296 25.3857  56
  -7  -4   5 238.055 31.4527  21
  -7  -4   5 204.908 33.0381  52
  -7  -4   5 235.181 34.5474  78
  -7  -4   4 8300.00 222.386   7
   7   4  -4 7952.29 181.193  72
   7   4  -4 8267.94 208.750  60
  -7  -4   4 7450.74 220.688  59
   7   4  -4 8215.37 212.053  58
   7   4  -4 8102.70 202.833  56
  -7  -4   4 8130.53 202.696  21
  -7  -4   4 8147.95 214.941  52
  -7  -4   4 7987.90 214.273  78
   7   4  -3 8467.85 227.980  72
   7   4  -3 7850.18 218.765 103
   7   4  -3 8123.41 218.676 100
   7   4  -3 8330.63 219.668  99
   7   4  -3 7973.60 216.970  98
   7   4  -3 7993.02 215.832  97
   7   4  -3 8510.48 228.588  60
   7   4  -3 8324.65 234.812  58
   7   4  -3 8372.22 234.707  56
  -7  -4   3 8581.73 228.163  21
  -7  -4   3 8223.57 238.212  52
   7   4  -3 8314.42 213.389  84
  -7  -4   3 8856.07 256.079   8
  -7  -4   3 8084.99 209.223  50
  -7  -4   3 8242.59 240.048  78
  -7  -4   2 1370.94 100.815  16
   7   4  -2 1447.52 106.005  72
   7   4  -2 1405.31 94.0779  45
  -7  -4   2 1408.94 105.100 107
  -7  -4   2 1347.25 97.0060  44
  -7  -4   2 1483.67 105.240 104
   7   4  -2 1371.06 106.809 103
  -7  -4   2 1322.76 103.634 102
   7   4  -2 1377.86 104.744 100
   7   4  -2 1455.85 106.168  99
   7   4  -2 1538.60 110.404  98
   7   4  -2 1417.96 104.535  97
   7   4  -2 1417.48 97.7968  60
   7   4  -2 1528.60 106.676  58
   7   4  -2 1402.23 104.574  56
  -7  -4   2 1320.78 99.3023  89
  -7  -4   2 1420.03 103.535  86
  -7  -4   2 1416.06 107.469  52
   7   4  -2 1374.78 99.6711  84
   7   4  -2 1376.18 95.4341  83
  -7  -4   2 1474.48 112.001   8
  -7  -4   2 1377.24 92.9981  50
  -7  -4   2 1408.78 108.277  78
   7   4  -1 9575.76 277.196  72
  -7  -4   1 9658.77 278.915  16
   7   4  -1 9702.78 268.888  45
  -7  -4   1 9301.44 288.853 107
  -7  -4   1 9673.84 260.446  44
  -7  -4   1 9261.58 287.065 105
  -7  -4   1 9589.40 285.563 104
   7   4  -1 9523.96 290.865 103
  -7  -4   1 9373.53 290.746 102
   7   4  -1 9514.09 289.456 101
   7   4  -1 9487.46 285.804 100
   7   4  -1 9507.16 284.732  99
   7   4  -1 9303.83 283.090  98
   7   4  -1 9505.38 282.411  97
   7   4  -1 9683.32 246.540  60
   7   4  -1 9660.05 267.846  58
   7   4  -1 9419.85 272.055  56
  -7  -4   1 9236.20 274.713  89
  -7  -4   1 9167.39 273.495  86
  -7  -4   1 9448.89 277.243  52
   7   4  -1 9928.06 278.748  84
   7   4  -1 9644.55 275.848  83
  -7  -4   1 9792.51 286.552   8
  -7  -4   1 9416.28 247.772  50
  -7  -4   1 9551.83 278.157  78
  -7  -4   0 6573.20 209.661  48
   7   4   0 6048.85 220.741  72
   7   4   0 5930.50 218.581  45
  -7  -4   0 5991.19 238.326 107
  -7  -4   0 6455.74 209.703  44
  -7  -4   0 5872.92 233.098 105
  -7  -4   0 6144.43 234.493 104
   7   4   0 6058.49 236.552 101
   7   4   0 5911.24 232.434 100
   7   4   0 5995.40 233.557  99
   7   4   0 5921.20 233.279  98
   7   4   0 6045.72 232.861  97
   7   4   0 6265.86 210.651  58
   7   4   0 5826.95 214.252  56
  -7  -4   0 5906.54 224.028  89
  -7  -4   0 6039.42 225.496  86
  -7  -4   0 6049.04 225.475  52
   7   4   0 5874.31 223.140  84
   7   4   0 5995.74 225.040  83
  -7  -4   0 5963.70 198.344  50
  -7  -4   0 6328.10 227.183   8
  -7  -4   0 6107.31 225.053  78
  -7  -4  -1 1239.55 95.0343  48
   7   4   1 1078.60 93.2628  72
   7   4   1 1162.82 93.6151  70
   7   4   1 1081.55 96.8213  45
  -7  -4  -1 1168.58 107.722 107
  -7  -4  -1 997.778 99.5653 105
  -7  -4  -1 1114.07 103.248 104
   7   4   1 1096.02 88.6151  28
   7   4   1 1065.00 101.930 101
   7   4   1 1122.39 103.194 100
   7   4   1 1107.09 103.213  99
   7   4   1 1050.80 102.592  98
   7   4   1 1044.14 100.708  97
   7   4   1 1104.37 84.6945  58
   7   4   1 1207.94 96.0942  56
  -7  -4  -1 1092.48 100.301  89
   7   4   1 1219.82 92.9794  53
  -7  -4  -1 1060.27 99.9587  86
   7   4   1 1121.00 100.559  84
  -7  -4  -1 1160.56 102.237  52
   7   4   1 1106.18 99.2615  83
  -7  -4  -1 1161.16 95.5710   8
  -7  -4  -1 1089.39 99.9972  78
  -7  -4  -2 24535.0 413.478  48
   7   4   2 23158.9 407.165  72
   7   4   2 23447.9 429.311  70
   7   4   2 22921.6 435.176  45
  -7  -4  -2 22796.4 457.339 107
  -7  -4  -2 22796.1 449.993 105
  -7  -4  -2 22989.9 444.540 104
   7   4   2 22579.7 413.300  28
   7   4   2 22789.6 452.580 101
   7   4   2 23136.4 450.866 100
   7   4   2 22876.2 449.596  99
   7   4   2 22982.2 451.250  98
   7   4   2 23270.4 451.429  97
   7   4   2 23688.4 392.256  56
  -7  -4  -2 22847.0 446.501  89
  -7  -4  -2 23069.1 400.498  87
   7   4   2 23176.9 417.472  53
  -7  -4  -2 23491.2 454.180  86
   7   4   2 22551.1 432.372  84
  -7  -4  -2 23811.0 444.211  52
   7   4   2 22950.4 435.108  83
  -7  -4  -2 23349.2 432.867  78
  -7  -4  -3 1024.90 87.4423  48
   7   4   3 977.654 90.9940  70
   7   4   3 916.061 86.7845  45
  -7  -4  -3 901.924 91.6832 107
  -7  -4  -3 951.316 93.0863 105
  -7  -4  -3 903.710 88.9701 104
   7   4   3 908.974 90.0289 101
   7   4   3 909.796 90.1054 100
   7   4   3 925.354 91.2817  99
   7   4   3 965.984 91.2280  98
   7   4   3 924.777 89.8628  97
  -7  -4  -3 993.396 96.9607  89
   7   4   3 1010.74 92.7159  53
  -7  -4  -3 1044.85 98.8860  86
   7   4   3 983.279 90.6331  84
  -7  -4  -3 993.802 94.1513  52
   7   4   3 1049.65 91.1374  83
  -7  -4  -3 979.000 91.6306  78
  -7  -4  -4 29362.2 449.463  48
   7   4   4 28989.0 469.763  70
   7   4   4 28783.0 444.674  45
  -7  -4  -4 28636.5 451.339 107
  -7  -4  -4 27603.2 445.238 105
  -7  -4  -4 29001.8 444.465 104
   7   4   4 28412.6 467.635  28
   7   4   4 27664.4 446.026 101
   7   4   4 27714.9 445.128 100
   7   4   4 28201.2 444.091  99
   7   4   4 28364.7 446.025  98
   7   4   4 28524.9 441.451  97
  -7  -4  -4 29110.2 490.255  89
   7   4   4 29165.4 470.631  53
  -7  -4  -4 29451.5 483.606  86
   7   4   4 28946.1 446.514  84
  -7  -4  -4 29829.7 474.056  52
   7   4   4 28398.2 426.966  83
  -7  -4  -4 29462.2 454.545  78
  -7  -4  -5 160.171 40.4418  48
   7   4   5 157.911 31.8429  46
   7   4   5 157.092 37.8193  70
   7   4   5 133.643 35.8879  28
  -7  -4  -5 181.587 48.0578  89
   7   4   5 166.954 38.3436  53
  -7  -4  -5 154.870 41.9341  86
  -7  -4  -5 176.299 43.2511  52
  -7  -4  -5 141.117 37.2103  78
   7   4   6 31.5046 22.4286  70
   7   4   6 17.6604 21.0724  28
  -7  -4  -6-1.15185 26.3056  89
   7   4   6 26.1068 20.9809  53
  -7  -4  -6 39.2835 25.8460  86
  -7  -4  -6 86.7488 31.2735  52
   7   4   6-0.21924 18.1601  51
  -7  -4  -6 8.38737 21.1433  78
   7   4   7 98.5649 22.6366  28
  -7  -4  -7 88.7992 24.5090  89
   7   4   7 95.3412 22.5286  53
  -7  -4  -7 102.891 23.6800  86
  -7  -4  -7 91.3880 23.9714  52
  -7  -4  -7 106.771 20.2476  78
  -7  -5   4 98.6373 25.1402   7
   7   5  -4 140.112 27.4549  60
  -7  -5   4 87.3333 21.4311  59
   7   5  -4 96.2430 21.3484  58
   7   5  -4 84.3312 19.1711  56
  -7  -5   4 110.260 27.3535  52
   7   5  -4 90.0022 23.9719  79
  -7  -5   4 82.2785 24.2661  78
  -7  -5   3 747.095 68.6784   7
   7   5  -3 667.451 55.4712  72
   7   5  -3 589.766 54.3690 105
   7   5  -3 635.424 56.2166 103
   7   5  -3 617.854 54.2336 100
   7   5  -3 629.759 53.7425  99
   7   5  -3 665.356 56.1506  98
   7   5  -3 665.963 56.1102  97
   7   5  -3 677.276 59.9841  60
  -7  -5   3 634.478 61.2061  59
   7   5  -3 687.082 64.0496  58
   7   5  -3 670.942 60.3956  56
  -7  -5   3 606.989 60.7740  52
  -7  -5   3 686.710 64.5651  78
  -7  -5   2 277.774 45.8313  16
   7   5  -2 278.687 43.6931  72
  -7  -5   2 239.732 42.4672 107
  -7  -5   2 292.029 47.5044 104
   7   5  -2 247.918 45.3961 103
  -7  -5   2 271.601 45.8449 102
   7   5  -2 331.602 50.0236 100
   7   5  -2 275.072 46.0921  99
   7   5  -2 306.981 47.0215  98
   7   5  -2 323.041 46.8923  60
   7   5  -2 232.264 41.5716  97
   7   5  -2 379.482 54.0319  58
   7   5  -2 290.747 47.5496  56
  -7  -5   2 303.178 48.3032  89
  -7  -5   2 321.489 52.1291  86
  -7  -5   2 297.465 48.8061  52
   7   5  -2 274.600 40.5665  84
  -7  -5   2 288.334 51.1544   8
   7   5  -2 319.081 41.4946  83
  -7  -5   2 338.267 51.9619  78
  -7  -5   1 714.299 72.3093  48
  -7  -5   1 813.515 79.0696  16
   7   5  -1 816.677 77.9445  72
   7   5  -1 740.503 67.8512  45
  -7  -5   1 684.777 77.9052 107
  -7  -5   1 846.852 82.8447 104
   7   5  -1 707.178 77.4310 103
  -7  -5   1 701.171 78.7246 102
   7   5  -1 730.319 77.7733 100
   7   5  -1 783.973 78.9993  99
   7   5  -1 758.987 78.8464  98
   7   5  -1 778.922 79.8397  97
   7   5  -1 724.714 73.5162  58
   7   5  -1 647.695 70.2955  56
  -7  -5   1 716.788 76.6803  89
  -7  -5   1 754.211 78.3748  86
  -7  -5   1 726.441 76.0856  52
   7   5  -1 827.857 76.1835  84
   7   5  -1 770.839 72.9550  83
  -7  -5   1 739.604 75.9662   8
  -7  -5   1 672.233 72.2589  78
  -7  -5   0 1277.10 95.0104  48
   7   5   0 1262.44 99.2340  72
  -7  -5   0 1273.26 101.691  16
   7   5   0 1181.32 92.7995  45
  -7  -5   0 1095.02 99.8728 107
  -7  -5   0 1095.11 97.1559 104
   7   5   0 1187.13 103.457 103
  -7  -5   0 1165.01 104.275 102
   7   5   0 1207.12 101.530 100
   7   5   0 1187.75 101.159  99
   7   5   0 1253.05 104.978  98
   7   5   0 1311.04 105.135  97
   7   5   0 1173.78 90.9628  58
   7   5   0 1204.84 96.1036  56
  -7  -5   0 1177.49 99.6786  89
  -7  -5   0 1123.93 98.7869  86
  -7  -5   0 1245.53 100.285  52
   7   5   0 1176.97 95.9292  84
   7   5   0 1253.14 100.656  83
  -7  -5   0 1286.24 96.1437   8
  -7  -5   0 1178.95 95.2959  78
  -7  -5  -1 2483.59 134.515  48
   7   5   1 2282.98 132.168  72
  -7  -5  -1 2414.60 140.649  16
   7   5   1 2337.42 135.940  45
  -7  -5  -1 2271.52 143.210 107
  -7  -5  -1 2391.26 143.327 104
   7   5   1 2422.21 146.781 103
  -7  -5  -1 2332.38 146.071 102
   7   5   1 2381.45 143.995 100
   7   5   1 2295.35 141.308  99
   7   5   1 2357.91 143.413  98
   7   5   1 2306.57 140.986  97
   7   5   1 2384.63 125.523  58
   7   5   1 2250.18 128.346  56
  -7  -5  -1 2327.82 142.001  89
  -7  -5  -1 2338.98 141.297  86
  -7  -5  -1 2328.73 137.361  52
   7   5   1 2344.28 136.338  84
   7   5   1 2433.78 141.415  83
  -7  -5  -1 2420.79 135.836  78
  -7  -5  -2 6176.20 214.388  48
   7   5   2 6014.23 205.074  72
  -7  -5  -2 6042.53 217.219  16
   7   5   2 6239.80 210.109  70
   7   5   2 5890.46 214.859  45
  -7  -5  -2 6135.14 227.244 107
  -7  -5  -2 6021.18 225.623 105
  -7  -5  -2 5997.89 220.501 104
   7   5   2 6313.42 200.594  28
   7   5   2 5989.35 226.074 103
  -7  -5  -2 6108.08 229.007 102
   7   5   2 6092.97 226.299 101
   7   5   2 6038.59 223.765 100
   7   5   2 6148.28 224.490  99
   7   5   2 6101.50 223.825  98
   7   5   2 6109.38 222.833  97
   7   5   2 6221.68 202.751  56
  -7  -5  -2 6060.14 229.587  89
   7   5   2 6429.28 205.083  53
  -7  -5  -2 6199.22 227.192  86
   7   5   2 6020.83 218.454  84
  -7  -5  -2 5956.51 216.282  52
   7   5   2 5999.45 217.593  83
  -7  -5  -2 6059.38 209.983  78
  -7  -5  -3 6414.81 224.184  48
   7   5   3 6910.31 205.285  72
  -7  -5  -3 6417.34 215.752  16
   7   5   3 6597.70 221.883  70
   7   5   3 6865.41 227.015  45
  -7  -5  -3 6550.47 225.693 107
  -7  -5  -3 6484.89 223.790 105
  -7  -5  -3 6890.78 225.740 104
   7   5   3 6996.98 219.191  28
   7   5   3 6519.96 227.053 103
  -7  -5  -3 6576.81 227.084 102
   7   5   3 6780.43 229.760 101
   7   5   3 6653.92 225.979 100
   7   5   3 6725.50 226.793  99
   7   5   3 6522.97 222.932  98
   7   5   3 6498.07 221.340  97
  -7  -5  -3 6873.50 239.657  89
   7   5   3 6818.56 218.594  53
  -7  -5  -3 6863.62 235.291  86
   7   5   3 6576.90 223.580  84
  -7  -5  -3 6920.55 229.059  52
   7   5   3 6749.22 222.695  83
  -7  -5  -3 6651.36 212.723  78
  -7  -5  -4 31.7178 29.1875  48
  -7  -5  -4 14.6382 20.9796  16
   7   5   4 46.4557 27.1373  70
   7   5   4 21.3672 24.9113  45
  -7  -5  -4 23.9858 21.6472 107
  -7  -5  -4 7.82974 20.0778 104
   7   5   4 64.6606 28.5869 103
   7   5   4 22.0391 22.8042  28
  -7  -5  -4 36.5125 21.9880 102
   7   5   4 40.3434 23.3824 100
   7   5   4 36.8908 25.4456  99
   7   5   4 47.3685 27.7468  98
   7   5   4 35.0893 23.9448  97
  -7  -5  -4 22.8876 30.6578  89
   7   5   4 38.8248 25.0010  53
  -7  -5  -4 22.5443 29.2732  86
   7   5   4 61.3026 27.3394  84
  -7  -5  -4 41.7054 30.2178  52
   7   5   4 62.5238 28.8597  83
  -7  -5  -4 48.7265 30.1524  78
  -7  -5  -5 3759.28 153.718  48
   7   5   5 3625.96 142.205  45
   7   5   5 3702.58 154.132  28
  -7  -5  -5 3865.75 165.303  89
   7   5   5 3879.10 158.657  53
  -7  -5  -5 3670.02 155.019  86
   7   5   5 3674.79 143.518  84
  -7  -5  -5 3445.02 146.411  52
   7   5   5 3585.78 153.889  51
  -7  -5  -5 3750.43 140.199  78
  -7  -5  -6 7633.68 195.662  48
   7   5   6 7342.84 197.575  28
  -7  -5  -6 7141.58 203.659  89
   7   5   6 7687.12 202.293  53
  -7  -5  -6 7226.33 190.833  86
  -7  -5  -6 7273.11 188.680  52
   7   5   6 6814.10 191.995  51
  -7  -5  -6 7063.89 160.290  78
  -7  -5  -7 35.0865 19.9200  48
   7   5   7 9.36704 14.0064  28
  -7  -5  -7 51.7495 21.2687  89
  -7  -5  -7 24.6101 16.6545  86
  -7  -5  -7 31.5686 16.9765  52
   7   5   7 47.2435 18.2553  51
  -7  -6   3 102.664 22.9330   7
   7   6  -3 179.017 25.4785  60
   7   6  -3 166.535 25.9334  58
   7   6  -3 138.478 21.9393  56
  -7  -6   3 167.238 26.6050  52
  -7  -6   3 159.448 25.7248  78
  -7  -6   2 615.373 57.8879   7
  -7  -6   2 671.997 55.3558  16
   7   6  -2 629.977 52.8006  72
  -7  -6   2 639.254 56.2827 107
   7   6  -2 602.186 55.5642 105
   7   6  -2 641.475 56.7399 103
  -7  -6   2 633.076 56.3241 102
  -7  -6   2 636.628 56.2170 101
   7   6  -2 656.209 56.1138  99
   7   6  -2 586.509 53.1115  98
   7   6  -2 650.244 56.2561  97
  -7  -6   2 479.035 47.4984  59
   7   6  -2 616.968 56.4640  58
   7   6  -2 638.634 55.8804  56
  -7  -6   2 703.112 60.9215  89
  -7  -6   2 679.876 59.2857  86
  -7  -6   2 682.217 56.9102  52
  -7  -6   2 674.501 57.0668  78
  -7  -6   1 10.1717 19.3188  48
  -7  -6   1 5.98659 17.9852   7
   7   6  -1 2.57866 17.8576  72
  -7  -6   1 18.6605 25.8283  16
  -7  -6   1 37.1883 21.3969 107
  -7  -6   1 14.4918 22.7070 104
   7   6  -1 22.2260 19.7961 103
  -7  -6   1 15.6455 20.6543 102
   7   6  -1 26.2309 23.3314 100
   7   6  -1 17.5297 18.3980  99
   7   6  -1-0.74575 19.1163  98
   7   6  -1 6.38316 17.6180  97
   7   6  -1 7.21001 24.0231  58
   7   6  -1 24.4548 20.7475  56
  -7  -6   1 3.62352 23.4610  89
  -7  -6   1 11.5448 26.5068  86
   7   6  -1-15.0560 16.3534  84
  -7  -6   1 37.8227 25.9329  52
   7   6  -1 20.8839 17.6023  83
  -7  -6   1 20.3876 23.1166  78
  -7  -6   0 34.3016 25.4433  48
   7   6   0 53.9930 27.2191  72
  -7  -6   0 73.0466 30.2540  16
   7   6   0 44.8576 21.1298  45
  -7  -6   0 64.1060 29.0271 107
   7   6   0 55.6550 23.0471   6
  -7  -6   0 53.4061 31.7091 104
   7   6   0 31.8818 28.5544 103
  -7  -6   0 1.45071 20.2299 102
   7   6   0 47.9584 27.3319 100
   7   6   0 31.1756 26.9826  99
   7   6   0 39.6715 28.0780  98
   7   6   0 53.3364 28.0674  97
   7   6   0 35.8575 24.5278  58
   7   6   0 8.45519 22.9612  56
  -7  -6   0 40.4022 32.1755  89
  -7  -6   0 23.0601 28.8119  86
   7   6   0 37.5049 22.2706  84
  -7  -6   0 41.7564 25.7852  52
   7   6   0 31.7881 22.0037  83
  -7  -6   0 40.0541 27.3812  78
  -7  -6  -1 1399.21 100.101  48
  -7  -6  -1 1480.20 104.037  16
   7   6   1 1410.92 98.3071  72
   7   6   1 1397.59 95.6077  45
  -7  -6  -1 1424.00 103.167 107
  -7  -6  -1 1571.43 107.086 104
   7   6   1 1427.84 107.347 103
  -7  -6  -1 1417.63 106.099 102
   7   6   1 1400.58 102.491 100
   7   6   1 1513.00 106.150  99
   7   6   1 1409.40 102.878  98
   7   6   1 1383.41 101.547  97
   7   6   1 1474.77 94.8972  58
   7   6   1 1548.19 101.566  56
  -7  -6  -1 1393.72 103.250  89
  -7  -6  -1 1570.06 108.751  86
  -7  -6  -1 1359.44 94.6389  52
   7   6   1 1438.28 98.5149  84
   7   6   1 1200.12 92.3078  83
  -7  -6  -1 1325.61 91.0097  78
  -7  -6  -2 1085.45 90.4269  48
  -7  -6  -2 1190.18 91.9541  16
   7   6   2 1013.52 81.5400  72
   7   6   2 1096.00 88.3478  45
  -7  -6  -2 1119.00 91.9374 107
  -7  -6  -2 1125.16 91.1877 104
   7   6   2 1062.56 90.9628 103
  -7  -6  -2 1116.28 93.1337 102
   7   6   2 1108.46 91.2514 100
   7   6   2 1060.43 88.5425  99
   7   6   2 1073.59 89.1261  98
   7   6   2 1136.34 91.1715  97
   7   6   2 1068.83 82.5094  56
  -7  -6  -2 1127.78 96.4506  89
  -7  -6  -2 1158.54 94.1541  86
   7   6   2 1032.42 86.1593  84
  -7  -6  -2 973.633 81.5061  52
   7   6   2 1142.63 91.5770  83
  -7  -6  -2 1072.12 81.3182  78
  -7  -6  -3 1316.50 98.7069  48
  -7  -6  -3 1523.73 98.1186  16
   7   6   3 1372.95 89.7137  72
   7   6   3 1349.32 96.6417  45
  -7  -6  -3 1358.41 95.5880 107
  -7  -6  -3 1419.65 97.3407 104
   7   6   3 1487.86 87.2453  28
   7   6   3 1333.44 96.6516 103
  -7  -6  -3 1321.58 95.1444 102
   7   6   3 1503.23 100.306 100
   7   6   3 1433.78 98.3511  99
   7   6   3 1471.28 99.5998  98
   7   6   3 1301.81 92.4916  97
  -7  -6  -3 1416.57 102.896  89
   7   6   3 1442.12 91.9011  53
  -7  -6  -3 1273.19 97.0115  86
   7   6   3 1392.67 98.8856  84
  -7  -6  -3 1406.74 93.3593  52
   7   6   3 1452.04 99.7976  83
  -7  -6  -3 1388.72 87.7151  78
  -7  -6  -4 1072.47 84.1123  48
  -7  -6  -4 882.865 66.8819  16
   7   6   4 933.624 77.6324  45
  -7  -6  -4 933.950 71.8517 107
  -7  -6  -4 991.435 72.6462 104
   7   6   4 974.661 73.1971  28
  -7  -6  -4 910.758 72.3335 102
  -7  -6  -4 957.022 84.7642  89
   7   6   4 921.919 74.7232  53
  -7  -6  -4 949.927 79.5686  86
   7   6   4 909.719 77.6674  84
  -7  -6  -4 871.067 71.0295  52
   7   6   4 989.618 76.0741  83
   7   6   4 839.905 73.2787  51
  -7  -6  -4 918.052 74.5895  49
  -7  -6  -5 2851.97 126.101  48
   7   6   5 2903.33 122.469  45
   7   6   5 2801.23 120.745  28
  -7  -6  -5 2851.76 131.814  89
  -7  -6  -5 2951.17 124.560  86
   7   6   5 2649.53 119.224  84
  -7  -6  -5 2714.72 112.299  52
   7   6   5 2680.83 121.180  51
  -7  -6  -6 3753.73 130.643  48
   7   6   6 3605.60 126.447  28
  -7  -6  -6 3574.17 131.546  89
  -7  -6  -6 3532.95 115.353  86
  -7  -6  -6 3498.28 109.927  52
   7   6   6 3566.22 126.750  51
   7   6   7 14570.0 211.008  26
  -7  -6  -7 14674.4 212.482  89
   7   6   7 14821.0 213.401  51
   7   7  -2 79.4197 16.7047  58
  -7  -7   2 48.6494 15.3243  89
  -7  -7   2 83.3449 18.4137  86
  -7  -7   1 3074.63 104.806  48
   7   7  -1 3050.28 101.048  72
  -7  -7   1 3042.21 107.049 107
   7   7  -1 2807.20 104.972 105
   7   7  -1 3036.47 108.968 103
  -7  -7   1 3074.67 108.473 102
  -7  -7   1 2892.32 105.304 101
   7   7  -1 3071.01 107.761  99
   7   7  -1 2857.60 104.123  98
   7   7  -1 2974.24 105.673  97
   7   7  -1 3132.47 107.338  58
   7   7  -1 2929.34 102.976  56
  -7  -7   1 3151.21 111.626  89
  -7  -7   1 3052.26 108.667  86
  -7  -7   0 5588.55 159.204  48
  -7  -7   0 4991.96 127.502   7
  -7  -7   0 6073.98 166.975  16
   7   7   0 5752.02 160.145  72
  -7  -7   0 5818.11 166.685 107
   7   7   0 5738.85 171.189 105
  -7  -7   0 5756.80 166.397 104
   7   7   0 6042.74 173.078 103
  -7  -7   0 5837.79 168.588 102
  -7  -7   0 5688.69 169.015 101
   7   7   0 5812.54 168.502 100
   7   7   0 5852.96 168.509  99
   7   7   0 5786.77 167.738  98
   7   7   0 5868.02 167.675  97
   7   7   0 5848.94 160.479  58
   7   7   0 5740.81 161.959  56
  -7  -7   0 5734.12 166.896  89
  -7  -7   0 5829.90 165.684  86
  -7  -7   0 5288.07 129.357  52
   7   7   0 5716.90 148.985  83
  -7  -7  -1 1311.32 83.1155  48
  -7  -7  -1 1249.94 81.4653  16
   7   7   1 1176.45 78.1611  72
   7   7   1 1247.35 72.0284  45
   7   7   1 1202.47 71.4964   6
  -7  -7  -1 1276.61 84.1339 107
  -7  -7  -1 1148.90 80.9230 104
   7   7   1 1262.03 85.6454 103
  -7  -7  -1 1216.73 83.4386 102
   7   7   1 1174.93 81.7160 100
   7   7   1 1271.81 84.2374  99
   7   7   1 1210.03 82.7830  98
   7   7   1 1237.92 82.8461  97
   7   7   1 1219.86 77.3299  58
   7   7   1 1292.59 81.9060  56
  -7  -7  -1 1237.59 85.0047  89
  -7  -7  -1 1210.29 81.6830  86
  -7  -7  -1 1103.97 64.5935  52
   7   7   1 1184.98 72.5062  84
   7   7   1 1160.42 77.1534  83
  -7  -7  -2 4425.97 153.173  48
  -7  -7  -2 4358.04 148.195  16
   7   7   2 3924.37 141.326  72
   7   7   2 3973.67 140.324  45
  -7  -7  -2 3950.91 147.846 107
   7   7   2 4170.43 143.838   6
  -7  -7  -2 3905.20 145.421 104
   7   7   2 3937.20 150.198 103
  -7  -7  -2 3923.24 149.490 102
   7   7   2 4171.40 151.054 100
   7   7   2 4205.12 150.473  99
   7   7   2 4090.43 150.220  98
   7   7   2 4045.96 147.777  97
   7   7   2 4048.01 141.526  56
  -7  -7  -2 3934.39 150.525  89
  -7  -7  -2 4093.56 147.267  86
  -7  -7  -2 3823.47 119.874  52
   7   7   2 4035.42 143.315  84
   7   7   2 4195.20 150.302  83
  -7  -7  -3 7610.34 199.503  48
  -7  -7  -3 7119.80 178.313  16
   7   7   3 7293.34 182.183  72
   7   7   3 7273.83 193.291  45
  -7  -7  -3 7049.21 182.898 107
   7   7   3 7283.34 193.219   6
  -7  -7  -3 6853.58 179.382 104
  -7  -7  -3 6814.31 182.031 102
   7   7   3 7117.25 184.198  99
   7   7   3 7040.98 185.202  98
  -7  -7  -3 7454.86 204.542  89
  -7  -7  -3 7232.47 193.019  86
   7   7   3 6927.46 193.430  84
   7   7   3 7234.41 193.732  83
  -7  -7  -4 1244.98 80.2870  48
  -7  -7  -4 1155.56 62.4391  16
   7   7   4 1188.95 77.1765  45
  -7  -7  -4 1010.87 60.1815 107
   7   7   4 1228.77 78.4315   6
  -7  -7  -4 1056.37 61.3595 104
  -7  -7  -4 1027.37 61.6872 102
  -7  -7  -4 1079.23 76.6389  89
  -7  -7  -4 1168.21 73.6101  86
   7   7   4 1089.61 75.5939  84
   7   7   4 1170.60 74.1465  83
   7   7   4 1002.03 61.2669  51
  -7  -7  -4 1159.90 75.4982  49
  -7  -7  -5 4047.11 132.555  48
   7   7   5 3889.88 126.568  45
   7   7   5 3905.14 125.567   6
  -7  -7  -5 3833.83 129.805  89
  -7  -7  -5 3746.53 111.253  86
   7   7   5 3891.45 128.524  84
   7   7   5 3525.24 111.015  51
  -7  -7  -5 3961.70 126.817  49
  -7  -7  -6 755.659 51.9484  48
   7   7   6 664.923 44.1430  26
  -7  -7  -6 749.738 49.5996  89
   7   7   6 738.452 46.3542  51
  -7  -7  -6 655.466 48.0994  49
  -7  -8  -1 994.627 54.1556  48
   7   8   1 906.965 50.7731  72
  -7  -8  -1 909.746 51.0951 107
   7   8   1 819.112 49.8243 105
   7   8   1 918.601 52.1435 103
  -7  -8  -1 891.794 50.9716 102
  -7  -8  -1 882.176 51.0445 101
   7   8   1 933.650 52.1668  99
   7   8   1 928.608 52.6469  98
   7   8   1 858.808 49.9185  97
   7   8   1 868.672 49.1480  58
   7   8   1 909.102 51.3912  56
  -7  -8  -1 890.065 51.8460  89
  -7  -8  -1 875.701 48.9794  86
  -7  -8  -1 774.678 49.2897  19
  -7  -8  -2 1446.84 69.5411  48
   7   8   2 1411.71 66.5015  72
   7   8   2 1298.79 58.5645   6
  -7  -8  -2 1388.55 64.0230 107
   7   8   2 1251.58 63.1143 105
   7   8   2 1333.27 64.1159 103
  -7  -8  -2 1397.97 64.6887 102
  -7  -8  -2 1299.53 62.4588 101
   7   8   2 1460.40 66.5639  99
   7   8   2 1368.66 64.8318  98
   7   8   2 1337.58 63.2439  97
   7   8   2 1362.73 64.9864  56
  -7  -8  -2 1484.52 70.1229  89
  -7  -8  -2 1439.78 63.8287  86
  -7  -8  -3 159.067 25.3875  48
   7   8   3 150.652 24.1162  45
   7   8   3 150.855 23.9791   6
  -7  -8  -3 177.590 26.2224  89
   7   8   3 136.489 22.5183  84
  -7  -8  -4 4401.79 116.663  48
   7   8   4 4347.73 113.843  45
   7   8   4 4475.65 115.271   6
  -7  -8  -4 4219.93 108.129  89
   7   8   4 4331.43 113.503  84
   7   8   5 1431.01 57.6943   6
   7   8   5 1470.76 61.0838  84
   8  -2  -4 1772.76 75.7611  72
  -8   2   4 1841.92 76.7352  69
   8  -2  -4 1868.90 77.9134  45
  -8   2   4 1780.32 78.7109  29
  -8   2   4 1764.28 76.0729  10
   8  -2  -4 1851.77 73.8708  84
   8  -2  -4 1703.33 65.8417  83
  -8   2   4 1691.18 77.1068  82
   8  -2  -3 1528.97 75.4460  72
  -8   2   3 1515.25 75.0475  69
   8  -2  -3 1614.44 78.4746  45
  -8   2   3 1667.51 82.5096  10
   8  -2  -3 1577.23 76.4495  83
  -8   2   3 1473.03 78.1968  82
   8  -2  -2 38.1264 17.5604  72
   8  -2  -2 25.1898 12.7711  70
   8  -2  -2 22.1350 15.7113  45
  -8   2   2 12.0762 19.4678  69
  -8   2   2 4.96961 17.4150  41
  -8   2   2 9.80107 12.5298  57
  -8   2   2 30.1863 20.9751  10
   8  -2  -2 21.1626 14.2562  53
   8  -2  -2 7.77650 13.3080  83
  -8   2   2 23.4947 18.5451  82
   8  -2  -1 2316.35 87.9371  70
  -8   2   1 2184.97 88.0953  69
   8  -2  -1 2104.10 86.8150 101
   8  -2  -1 2227.21 88.8817 100
  -8   2   1 2304.57 91.9305  41
   8  -2  -1 2256.24 89.1387  99
   8  -2  -1 2247.73 89.1048  98
   8  -2  -1 2112.95 85.4937  97
  -8   2   1 2275.69 96.1887  10
  -8   2   1 2316.64 93.8668  87
   8  -2  -1 2405.40 95.7709  53
   8  -2  -1 2386.82 97.3689  83
   8  -2   0 2479.32 91.8054  70
  -8   2   0 2337.69 83.5854  69
  -8   2   0 2372.92 93.8423 107
  -8   2   0 2474.65 91.7651  44
  -8   2   0 2396.55 94.2291 105
  -8   2   0 2417.44 93.5423 104
   8  -2   0 2301.09 91.4673 101
   8  -2   0 2363.81 92.1003 100
  -8   2   0 2329.20 84.5997  41
   8  -2   0 2541.52 95.0714  99
   8  -2   0 2452.95 93.8004  98
   8  -2   0 2418.50 92.3951  97
  -8   2   0 2251.02 85.2278  10
  -8   2   0 2512.48 95.2904  87
   8  -2   0 2461.38 94.2436  53
   8  -2   0 2415.90 88.7981  83
   8  -2   1 18.5817 12.1703  70
  -8   2  -1 10.9059 11.4552 107
  -8   2  -1 32.4757 16.3321 105
  -8   2  -1 22.2982 14.9472  44
  -8   2  -1 42.8164 16.1125 104
   8  -2   1 0.77116 10.3074 101
   8  -2   1 28.4879 13.2133 100
   8  -2   1 37.8967 14.2881  99
   8  -2   1 7.65106 10.7046  98
   8  -2   1 29.8636 14.9242  97
  -8   2  -1 21.3612 15.3403  87
   8  -2   1 16.1606 12.0034  53
   8  -1  -5 34609.1 317.763  72
   8  -1  -5 32277.1 286.047  45
  -8   1   5 33936.5 322.570  29
   8  -1  -5 35086.6 332.173  56
   8  -1  -5 35822.0 341.874  84
  -8   1   5 32624.7 316.882  82
   8  -1  -4 43793.6 426.630  72
  -8   1   4 44602.5 409.794  69
   8  -1  -4 43952.1 420.670  45
  -8   1   4 42554.9 424.352  29
  -8   1   4 43942.1 436.888  10
   8  -1  -4 44168.1 410.189  56
   8  -1  -4 44948.1 435.047  84
   8  -1  -4 42356.2 374.135  83
  -8   1   4 43022.8 426.288  82
  -8   1   4 45152.8 411.259  50
   8  -1  -3 8977.71 207.716  72
  -8   1   3 9127.01 199.009  69
   8  -1  -3 9555.12 216.670  45
  -8   1   3 9332.78 209.696  44
  -8   1   3 9550.66 222.411  10
   8  -1  -3 9079.96 207.024  84
   8  -1  -3 9167.05 205.762  83
  -8   1   3 8938.20 212.772  82
  -8   1   3 9370.87 205.941  50
   8  -1  -2 50.8812 22.0032  72
   8  -1  -2 56.8517 23.1181  45
  -8   1   2 33.5271 19.6168  69
  -8   1   2 48.7822 25.8568  44
   8  -1  -2 59.9737 19.8217 101
   8  -1  -2-8.72349 12.9840 100
   8  -1  -2 60.4041 20.6773  99
  -8   1   2 59.0684 26.7975  41
   8  -1  -2 35.2137 17.2708  98
   8  -1  -2 37.1328 17.3330  97
  -8   1   2-12.8867 16.5264  57
  -8   1   2 41.7486 24.5596  10
  -8   1   2 6.22169 20.0692  87
   8  -1  -2 40.2985 17.3497  53
   8  -1  -2 34.7882 21.6757  83
  -8   1   2 38.7841 22.2887  82
  -8   1   2 50.5596 26.7309  50
   8  -1  -1 8159.97 189.348  70
  -8   1   1 7935.18 188.161  69
   8  -1  -1 8511.06 205.812  45
  -8   1   1 7911.41 208.508 107
  -8   1   1 8152.71 207.637 105
  -8   1   1 8638.93 215.898  44
  -8   1   1 8198.30 207.641 104
   8  -1  -1 7991.68 204.957 101
   8  -1  -1 8150.94 207.121 100
  -8   1   1 8028.31 195.310  41
   8  -1  -1 7834.74 203.635  99
   8  -1  -1 8134.83 207.247  98
   8  -1  -1 8067.39 203.837  97
  -8   1   1 8238.77 210.368  10
  -8   1   1 8470.12 211.518  87
   8  -1  -1 8122.16 199.283  53
   8  -1  -1 8159.84 209.652  83
  -8   1   1 8027.50 201.889  50
   8  -1   0 2422.93 107.778  70
  -8   1   0 2332.84 97.2985  69
  -8   1   0 2471.50 118.690 107
  -8   1   0 2580.54 118.580 105
  -8   1   0 2600.24 117.565  44
  -8   1   0 2642.28 119.557 104
  -8   1   0 2409.36 116.502 103
   8  -1   0 2458.45 115.262 102
   8  -1   0 2508.40 116.899 101
   8  -1   0 2477.47 115.574 100
  -8   1   0 2417.99 100.610  41
   8  -1   0 2629.05 118.125  99
   8  -1   0 2394.40 115.801  98
   8  -1   0 2452.93 115.517  97
  -8   1   0 2411.68 107.800  10
   8  -1   0 2424.94 113.085  20
  -8   1   0 2542.64 116.329  87
   8  -1   0 2522.79 113.321  53
   8  -1   0 2509.59 112.152  83
  -8   1   0 2542.88 111.904  50
   8  -1   1 642.569 55.5847  70
  -8   1  -1 497.925 42.0120  69
  -8   1  -1 622.976 57.9441 107
  -8   1  -1 648.916 58.8532 105
  -8   1  -1 774.070 62.7534  44
  -8   1  -1 668.955 59.8498 104
  -8   1  -1 683.469 60.7061 103
   8  -1   1 599.529 55.7748 102
   8  -1   1 691.437 60.4208 101
   8  -1   1 629.044 58.5962 100
  -8   1  -1 601.316 45.4469  41
   8  -1   1 656.196 58.3018  99
   8  -1   1 557.806 54.3686  98
   8  -1   1 680.943 58.8032  97
  -8   1  -1 619.071 48.2168  10
   8  -1   1 600.068 56.1863  20
  -8   1  -1 681.259 58.5723  87
   8  -1   1 610.890 55.1691  53
  -8   1  -1 681.533 57.2177  50
   8  -1   2 3030.42 88.6223  46
   8  -1   2 3529.35 115.026  70
  -8   1  -2 3362.12 116.877 107
  -8   1  -2 3429.04 117.641 105
  -8   1  -2 3360.99 115.069  44
  -8   1  -2 3452.40 116.516 104
   8  -1   2 3404.30 116.370 102
   8  -1   2 3357.12 116.002 101
   8  -1   2 3538.77 118.773 100
   8  -1   2 3362.30 115.228  99
   8  -1   2 3361.53 116.292  98
   8  -1   2 3433.89 116.268  97
   8  -1   2 3275.14 113.830  20
  -8   1  -2 3094.63 108.484  87
   8  -1   2 3408.96 113.131  53
  -8   1  -2 3308.42 108.645  50
  -8   1  -3 8437.42 147.105  44
   8   0  -5 643.201 46.2549  72
  -8   0   5 505.433 38.8823  29
   8   0  -5 639.869 50.0988  56
   8   0  -5 597.827 47.5376  84
  -8   0   5 509.366 39.6198  82
  -8   0   5 644.641 50.9539  50
   8   0  -4 18985.0 295.698  72
   8   0  -4 18918.8 285.721  45
  -8   0   4 19122.7 303.044  44
  -8   0   4 17547.6 272.903  29
  -8   0   4 18488.8 303.374  10
   8   0  -4 19053.4 295.989  56
   8   0  -4 18889.2 302.353  84
   8   0  -4 18447.4 254.420  83
  -8   0   4 17212.3 271.295  82
  -8   0   4 18889.5 300.068  50
  -8   0   4 19148.0 305.950   8
   8   0  -3 2002.87 105.777  72
  -8   0   3 1843.37 93.3716  69
   8   0  -3 1917.35 103.280  45
  -8   0   3 2005.28 109.980  44
  -8   0   3 1973.08 109.595  10
   8   0  -3 1888.29 98.7939  56
   8   0  -3 1981.85 107.214  84
   8   0  -3 1967.27 100.881  83
  -8   0   3 1855.33 100.112  82
  -8   0   3 1984.94 107.581  50
   8   0  -2 3780.16 149.652  72
  -8   0   2 3651.42 133.266  69
   8   0  -2 3928.76 154.966  45
  -8   0   2 3880.11 157.194  44
   8   0  -2 3544.52 140.250 101
   8   0  -2 3659.48 142.283 100
  -8   0   2 3758.38 143.365  41
   8   0  -2 3749.30 142.556  99
   8   0  -2 3615.53 140.675  98
   8   0  -2 3723.90 141.879  97
  -8   0   2 3827.52 156.289  10
  -8   0   2 4011.73 155.611  87
   8   0  -2 3689.68 127.549  53
   8   0  -2 3981.09 152.763  84
   8   0  -2 3735.24 150.842  83
  -8   0   2 3702.05 149.087  82
  -8   0   2 3913.65 155.843  50
   8   0  -1 5594.27 178.212  72
   8   0  -1 5836.36 169.098  70
  -8   0   1 5458.36 160.954  69
   8   0  -1 5808.05 187.837  45
  -8   0   1 5770.89 192.528 107
  -8   0   1 5955.37 192.368 105
  -8   0   1 5948.33 196.874  44
  -8   0   1 5773.36 188.489 104
   8   0  -1 5861.76 191.493 101
   8   0  -1 5656.49 188.039 100
  -8   0   1 5668.74 172.395  41
   8   0  -1 5731.39 189.714  99
   8   0  -1 5596.15 187.921  98
   8   0  -1 5598.34 185.958  97
  -8   0   1 5660.68 188.060  10
  -8   0   1 5856.16 193.532  87
   8   0  -1 5757.23 177.750  53
   8   0  -1 5873.38 180.593  84
   8   0  -1 5704.02 190.064  83
  -8   0   1 5722.12 189.527  50
   8   0   0 1161.66 81.4635  70
  -8   0   0 1011.92 69.1845  69
   8   0   0 1166.94 83.1934  45
  -8   0   0 1074.52 86.9908 107
  -8   0   0 1268.27 92.1523 105
  -8   0   0 1248.83 92.0415  44
  -8   0   0 1198.94 89.4857 104
   8   0   0 1132.16 87.1040 101
   8   0   0 1195.62 89.1372 100
  -8   0   0 1069.44 73.6608  41
   8   0   0 1163.32 88.3013  99
   8   0   0 1159.21 88.4919  98
   8   0   0 1211.24 89.4872  97
  -8   0   0 1192.12 84.1972  10
  -8   0   0 1198.43 89.6116  87
   8   0   0 1171.70 83.6316  53
   8   0   0 1210.39 87.9722  83
  -8   0   0 1252.55 90.9689  50
   8   0   1 19294.7 327.511  70
  -8   0  -1 19306.8 352.826 107
  -8   0  -1 20153.2 353.391 105
  -8   0  -1 19164.0 337.120  44
  -8   0  -1 19465.7 345.041 104
   8   0   1 19896.0 350.344 101
   8   0   1 19357.1 347.023 100
   8   0   1 19138.6 345.851  99
   8   0   1 19177.0 348.967  98
   8   0   1 19404.7 346.554  97
  -8   0  -1 19575.5 298.559  10
  -8   0  -1 19207.4 333.762  87
   8   0   1 19100.2 332.028  53
   8   0   1 19309.8 322.379  83
  -8   0  -1 19686.1 334.514  50
   8   0   2 1766.75 78.0171  46
   8   0   2 1850.16 97.9756  70
  -8   0  -2 1814.34 102.710 107
   8   0   2 1833.18 88.5684  14
  -8   0  -2 1752.88 101.439 105
  -8   0  -2 1816.35 99.4372  44
  -8   0  -2 1759.14 100.392 104
   8   0   2 1814.36 101.610 101
   8   0   2 1799.66 100.247 100
   8   0   2 1888.26 102.035  99
   8   0   2 1875.42 102.702  98
   8   0   2 1946.39 103.436  97
  -8   0  -2 1712.40 93.6503  87
   8   0   2 1885.53 99.8212  53
  -8   0  -2 1855.97 98.1922  50
   8   0   3 1859.59 76.4293  47
   8   0   3 1752.09 73.6080  46
   8   0   3 1887.48 87.9687  70
  -8   0  -3 1763.50 87.0621 107
   8   0   3 1814.72 84.1281  14
  -8   0  -3 1768.80 86.6932 105
  -8   0  -3 1783.71 87.2771  44
  -8   0  -3 1821.15 87.3357 104
   8   0   3 1769.44 83.5628  28
   8   0   3 1807.79 87.8430 101
   8   0   3 1796.07 87.2048 100
   8   0   3 1857.03 88.4133  99
   8   0   3 1826.37 88.1546  98
   8   0   3 1788.60 86.8180  97
  -8   0  -3 1774.79 80.9255  87
   8   0   3 1792.41 85.8157  53
  -8   0  -3 1849.78 88.0741  50
   8   0   4 118.463 18.9356  70
   8   0   4 84.1475 18.1373  14
  -8   0  -4 155.565 23.5985  44
  -8   0  -4 144.317 22.9171  50
   8   1  -5 400.674 35.4687  72
   8   1  -5 453.918 41.7604  58
   8   1  -5 451.602 42.3699  56
  -8  -1   5 436.202 46.8130  21
   8   1  -5 474.267 40.5780  84
  -8  -1   5 388.362 41.3513  50
   8   1  -4 69.6011 23.4101  72
   8   1  -4 62.6624 20.4423  45
  -8  -1   4 19.3367 22.7265  44
   8   1  -4 26.9405 20.0176  56
   8   1  -4 49.1040 20.6162  84
  -8  -1   4 48.6092 24.3042  50
  -8  -1   4 49.8790 23.2847   8
   8   1  -3 132.297 32.8609  72
   8   1  -3 121.101 32.3427  45
  -8  -1   3 139.552 37.6700  44
   8   1  -3 125.379 33.3452  56
  -8  -1   3 133.468 37.6021  10
   8   1  -3 142.456 35.3230  84
   8   1  -3 128.081 30.1657  83
  -8  -1   3 106.505 27.8443  82
  -8  -1   3 144.359 35.7703  50
  -8  -1   3 183.521 42.9507   8
   8   1  -2 405.356 53.2607  72
   8   1  -2 400.940 54.5875  45
  -8  -1   2 358.376 51.0747 107
  -8  -1   2 357.849 54.5228  44
  -8  -1   2 367.296 49.9483 105
  -8  -1   2 367.683 49.4754 104
   8   1  -2 399.228 51.0628 101
   8   1  -2 383.937 49.2278 100
   8   1  -2 347.766 47.8657  99
   8   1  -2 364.060 48.3711  98
   8   1  -2 433.796 53.7399  97
  -8  -1   2 389.927 56.5451  10
   8   1  -2 404.569 51.1479  56
  -8  -1   2 296.709 50.6191  87
   8   1  -2 392.090 54.5962  84
   8   1  -2 391.243 52.9472  83
  -8  -1   2 325.734 48.6281  82
  -8  -1   2 502.880 60.6274  50
   8   1  -1 3044.25 139.958  72
   8   1  -1 3096.71 123.145  70
   8   1  -1 3098.92 144.956  45
  -8  -1   1 3002.63 145.794 107
  -8  -1   1 3218.46 149.947  44
  -8  -1   1 3081.59 145.587 105
  -8  -1   1 3135.30 145.628 104
   8   1  -1 3119.54 146.378 101
   8   1  -1 3078.36 145.250 100
   8   1  -1 2970.51 143.359  99
   8   1  -1 3123.48 147.922  98
   8   1  -1 2963.19 142.527  97
  -8  -1   1 3144.05 145.672  10
  -8  -1   1 3161.42 148.633  87
   8   1  -1 3006.10 127.397  53
   8   1  -1 3014.29 141.362  84
   8   1  -1 2997.32 143.260  83
  -8  -1   1 3198.52 147.417  50
  -8  -1   1 3117.50 134.332  78
   8   1   0 843.934 72.7404  72
   8   1   0 839.512 71.5243  70
   8   1   0 767.180 72.9560  45
  -8  -1   0 758.654 78.1509 107
  -8  -1   0 756.589 77.7265 105
  -8  -1   0 788.069 76.5407  44
  -8  -1   0 762.236 77.5982 104
   8   1   0 770.783 77.6330 101
   8   1   0 769.976 76.8482 100
   8   1   0 795.877 79.1373  99
   8   1   0 772.986 76.4675  98
   8   1   0 772.512 76.9699  97
  -8  -1   0 753.915 71.3379  10
  -8  -1   0 772.413 75.5987  87
   8   1   0 817.987 72.3270  53
   8   1   0 852.754 74.5394  84
   8   1   0 804.610 76.1052  83
  -8  -1   0 760.038 74.8843  50
  -8  -1   0 812.855 74.0902  78
   8   1   1 3773.64 152.918  70
   8   1   1 3763.87 150.528  45
  -8  -1  -1 3827.51 166.567 107
  -8  -1  -1 3917.89 165.904 105
  -8  -1  -1 3785.99 157.769  44
  -8  -1  -1 3872.24 164.886 104
   8   1   1 3994.34 168.295 101
   8   1   1 3831.36 164.553 100
   8   1   1 3829.42 164.675  99
   8   1   1 3853.75 165.760  98
   8   1   1 3732.98 161.192  97
  -8  -1  -1 3690.49 139.432  10
  -8  -1  -1 3686.76 153.981  87
   8   1   1 3712.05 153.693  53
   8   1   1 3910.78 157.803  83
  -8  -1  -1 3811.08 156.534  50
  -8  -1  -1 3720.00 150.128  78
   8   1   2 8890.93 230.761  70
  -8  -1  -2 9283.90 246.535 107
   8   1   2 9125.26 218.232  14
  -8  -1  -2 9045.19 240.453 105
  -8  -1  -2 9175.76 230.924  44
  -8  -1  -2 8884.32 234.818 104
   8   1   2 9496.10 245.650 101
   8   1   2 9473.03 244.511 100
   8   1   2 9295.01 241.497  99
   8   1   2 9306.78 243.423  98
   8   1   2 9547.47 243.058  97
  -8  -1  -2 8686.95 222.129  87
   8   1   2 8896.41 231.974  53
   8   1   2 9080.46 219.606  83
  -8  -1  -2 9263.07 232.356  50
  -8  -1  -2 9036.26 224.294  78
   8   1   3 2544.44 97.9272  47
   8   1   3 2312.18 91.0464  46
   8   1   3 2437.26 112.960  70
  -8  -1  -3 2345.65 113.554 107
   8   1   3 2315.00 107.683  14
  -8  -1  -3 2337.39 111.471 105
  -8  -1  -3 2322.19 107.972  44
  -8  -1  -3 2317.12 109.962 104
   8   1   3 2361.04 112.214  28
   8   1   3 2298.21 110.757 101
   8   1   3 2425.31 113.429 100
   8   1   3 2388.33 112.839  99
   8   1   3 2397.09 112.917  98
   8   1   3 2379.00 110.825  97
  -8  -1  -3 2297.71 101.091  87
   8   1   3 2455.99 113.717  53
  -8  -1  -3 2467.93 111.774  50
  -8  -1  -3 2474.82 110.620  78
   8   1   4 2549.20 91.1093  47
   8   1   4 2431.88 85.3306  46
   8   1   4 2535.35 99.9615  70
  -8  -1  -4 2088.32 84.7674 107
   8   1   4 2313.65 99.5447  14
  -8  -1  -4 2313.32 88.5881 105
  -8  -1  -4 2468.36 91.5009  44
  -8  -1  -4 2344.72 88.5328 104
   8   1   4 2420.88 95.8406  28
   8   1   4 2556.11 100.201  53
  -8  -1  -4 2524.12 98.6248  50
  -8  -1  -4 2556.36 97.7211  78
   8   1   5 2603.92 90.1590  14
   8   2  -5 9165.90 163.729  60
   8   2  -5 9307.21 171.171  58
   8   2  -5 9259.25 169.719  56
  -8  -2   5 9166.30 171.504  50
   8   2  -4 914.544 62.6227  72
  -8  -2   4 923.434 69.1066  44
  -8  -2   4 716.311 62.5389  59
   8   2  -4 849.070 62.5924  58
   8   2  -4 883.640 65.9864  56
   8   2  -4 832.109 60.4843  84
  -8  -2   4 980.898 72.5583   8
  -8  -2   4 845.747 65.1089  50
   8   2  -3 654.627 62.1105  72
   8   2  -3 700.572 60.2178  45
  -8  -2   3 684.317 66.6184  44
   8   2  -3 692.049 64.0390  56
   8   2  -3 677.310 63.1382  84
   8   2  -3 730.771 58.5776  83
  -8  -2   3 739.890 67.9169  50
  -8  -2   3 703.573 69.7268   8
  -8  -2   3 718.046 64.3704  78
   8   2  -2 206.017 40.8869  72
   8   2  -2 277.513 44.4320  45
  -8  -2   2 172.867 38.5875 107
  -8  -2   2 189.717 37.0144 105
  -8  -2   2 208.171 44.9067  44
  -8  -2   2 202.952 37.7766 104
   8   2  -2 171.126 34.9740 101
   8   2  -2 133.900 32.7234 100
   8   2  -2 133.485 33.2732  99
   8   2  -2 189.869 37.9769  98
   8   2  -2 160.046 34.8018  97
   8   2  -2 187.368 38.2383  56
   8   2  -2 195.519 40.1066  84
  -8  -2   2 197.081 39.4748  52
   8   2  -2 175.599 35.1391  83
  -8  -2   2 172.752 39.6170  50
  -8  -2   2 102.124 34.4266   8
  -8  -2   2 129.904 33.7932  78
   8   2  -1 6371.16 204.616  72
   8   2  -1 6603.97 212.351  45
  -8  -2   1 6400.58 214.775 107
  -8  -2   1 6295.89 207.215  44
  -8  -2   1 6513.64 214.095 105
  -8  -2   1 6661.35 213.620 104
   8   2  -1 6251.30 209.496 101
   8   2  -1 6179.32 207.223 100
   8   2  -1 6233.19 208.393  99
   8   2  -1 6199.04 208.567  98
   8   2  -1 6398.85 210.170  97
  -8  -2   1 6222.35 203.718  10
   8   2  -1 6459.33 194.773  56
  -8  -2   1 6745.61 216.959  87
  -8  -2   1 6375.39 195.994  52
   8   2  -1 6576.96 212.501  84
   8   2  -1 5794.90 199.386  83
  -8  -2   1 6160.05 201.547  50
  -8  -2   1 6464.82 204.863  78
   8   2   0 1362.35 94.4631  72
   8   2   0 1346.48 88.9647  70
   8   2   0 1400.61 99.9170  45
  -8  -2   0 1186.76 99.8074 107
  -8  -2   0 1152.44 98.5583 105
  -8  -2   0 1221.23 93.6753  44
  -8  -2   0 1352.01 102.296 104
   8   2   0 1179.30 97.2872 101
   8   2   0 1243.29 99.0195 100
   8   2   0 1222.91 98.0870  99
   8   2   0 1319.37 101.564  98
   8   2   0 1335.42 101.457  97
  -8  -2   0 1274.66 90.5546  10
  -8  -2   0 1282.61 96.3502  87
   8   2   0 1316.31 87.6698  53
  -8  -2   0 1328.66 93.4264  52
   8   2   0 1317.18 96.6231  84
   8   2   0 1392.39 101.277  83
  -8  -2   0 1234.03 93.6167  50
  -8  -2   0 1337.62 96.2353  78
   8   2   1 4366.01 156.567  72
   8   2   1 4522.95 168.702  70
   8   2   1 4412.33 170.923  45
  -8  -2  -1 4241.75 180.563 107
  -8  -2  -1 4320.12 179.951 105
  -8  -2  -1 4405.73 168.749  44
  -8  -2  -1 4179.03 174.914 104
   8   2   1 4164.20 176.880 101
   8   2   1 4175.99 177.533 100
   8   2   1 3980.35 172.926  99
   8   2   1 4097.71 176.235  98
   8   2   1 4072.44 175.222  97
  -8  -2  -1 4480.31 155.622  10
  -8  -2  -1 4287.07 169.250  87
   8   2   1 4258.14 164.386  53
  -8  -2  -1 4481.54 166.059  52
   8   2   1 4459.12 168.125  84
   8   2   1 4362.29 173.253  83
  -8  -2  -1 4281.64 167.099  50
  -8  -2  -1 4449.16 171.828  78
   8   2   2 8974.07 238.059  70
   8   2   2 9186.76 232.276  45
   8   2   2 8873.98 227.322  14
  -8  -2  -2 9263.26 256.940 107
  -8  -2  -2 9086.74 250.964 105
  -8  -2  -2 9084.80 228.873  44
  -8  -2  -2 9345.26 249.233 104
   8   2   2 9528.70 256.685 101
   8   2   2 9350.92 252.230 100
   8   2   2 9344.47 253.346  99
   8   2   2 9416.97 255.509  98
   8   2   2 9359.87 251.807  97
  -8  -2  -2 8894.96 227.762  87
   8   2   2 9081.75 240.371  53
  -8  -2  -2 9434.05 234.738  86
  -8  -2  -2 9360.37 232.544  52
   8   2   2 9354.06 237.398  83
  -8  -2  -2 8910.49 229.549  50
  -8  -2  -2 9105.28 241.041  78
   8   2   3 3718.10 147.506  70
   8   2   3 3662.83 144.609  14
  -8  -2  -3 3476.31 146.477 107
  -8  -2  -3 3525.58 145.632 105
  -8  -2  -3 3665.31 134.455  44
  -8  -2  -3 3446.33 142.022 104
   8   2   3 3503.36 144.881  28
   8   2   3 3669.70 147.705 101
   8   2   3 3682.26 147.563 100
   8   2   3 3714.35 147.516  99
   8   2   3 3642.23 147.285  98
   8   2   3 3602.53 144.767  97
  -8  -2  -3 3449.72 126.095  87
   8   2   3 3622.18 146.012  53
  -8  -2  -3 3772.84 144.200  86
  -8  -2  -3 3722.11 139.142  52
  -8  -2  -3 3588.98 136.963  50
  -8  -2  -3 3727.81 147.212  78
   8   2   4 8465.45 164.392  46
   8   2   4 8651.66 202.850  70
   8   2   4 8166.80 203.746  14
  -8  -2  -4 7914.82 181.910 107
  -8  -2  -4 8094.55 182.863 105
  -8  -2  -4 8120.45 166.573  44
  -8  -2  -4 8424.41 184.719 104
   8   2   4 8603.18 203.099  28
   8   2   4 8456.15 201.532  53
  -8  -2  -4 8861.50 201.069  86
  -8  -2  -4 8690.35 189.637  52
  -8  -2  -4 8583.18 187.915  50
  -8  -2  -4 8676.75 200.136  78
   8   2   5 120.616 18.5566  46
   8   2   5 134.627 22.4729  70
   8   2   5 151.734 24.6513  28
   8   2   5 171.935 25.0890  53
  -8  -2  -5 129.861 24.9893  86
  -8  -2  -5 168.041 24.6893  50
  -8  -2  -5 157.423 27.0924  78
   8   3  -5 11439.4 162.316  58
   8   3  -4 75.6046 18.5238  72
  -8  -3   4 93.5843 24.7434  59
   8   3  -4 61.0097 24.7391  58
   8   3  -4 56.6315 20.9165  56
  -8  -3   4 70.2004 21.3144  21
   8   3  -4 38.4169 13.9543  84
  -8  -3   4 87.1292 24.5189  52
  -8  -3   4 45.1809 18.0694  50
  -8  -3   4 62.4441 23.1162   8
  -8  -3   4 42.0757 19.7719  78
   8   3  -3 15467.2 274.749  72
   8   3  -3 15411.5 235.909  45
  -8  -3   3 15232.9 275.381  44
   8   3  -3 15785.7 268.561  58
   8   3  -3 15768.5 282.518  56
  -8  -3   3 14729.4 267.472  21
  -8  -3   3 15537.7 275.054  52
   8   3  -3 15374.3 269.360  84
   8   3  -3 15526.9 233.032  83
  -8  -3   3 15791.7 296.672   8
  -8  -3   3 14790.1 261.102  50
  -8  -3   3 14943.1 275.856  78
   8   3  -2 1141.36 83.7145  72
  -8  -3   2 1139.32 79.0752  16
   8   3  -2 1160.24 80.0749  45
  -8  -3   2 994.378 77.0599 107
  -8  -3   2 1111.08 82.1523  44
  -8  -3   2 1151.84 81.9105 104
   8   3  -2 1021.72 78.8653 103
  -8  -3   2 1085.58 81.5126 102
   8   3  -2 1140.97 81.7889 100
   8   3  -2 1083.54 80.3561  99
   8   3  -2 1067.16 79.2800  98
   8   3  -2 1054.88 77.8150  97
   8   3  -2 1190.43 84.0382  56
  -8  -3   2 1091.44 81.3756  52
   8   3  -2 1151.69 84.0253  84
   8   3  -2 1129.84 79.2965  83
  -8  -3   2 1202.97 90.6008   8
  -8  -3   2 1118.26 79.1636  50
  -8  -3   2 1224.56 88.9689  78
   8   3  -1 15460.9 312.859  72
   8   3  -1 15179.3 309.851  45
  -8  -3   1 15191.3 322.292 107
  -8  -3   1 15109.0 301.126  44
  -8  -3   1 14966.8 318.098 105
  -8  -3   1 15684.7 321.098 104
   8   3  -1 15061.6 319.641 101
   8   3  -1 15274.3 320.392 100
   8   3  -1 15315.8 318.865  99
   8   3  -1 15499.0 322.120  98
   8   3  -1 15165.6 316.404  97
   8   3  -1 15532.3 303.425  56
  -8  -3   1 15872.0 317.156  52
   8   3  -1 15169.3 317.805  84
   8   3  -1 15711.5 317.725  83
  -8  -3   1 15052.9 293.647  50
  -8  -3   1 15996.8 327.921   8
  -8  -3   1 15457.6 316.349  78
   8   3   0 1884.17 111.702  72
   8   3   0 1920.62 97.2332  70
   8   3   0 2144.72 122.431  45
  -8  -3   0 1765.90 116.642 107
  -8  -3   0 1765.88 105.715  44
  -8  -3   0 1933.58 123.804 105
  -8  -3   0 1926.97 120.123 104
   8   3   0 1946.45 101.314  28
   8   3   0 1513.77 108.593 101
   8   3   0 1693.70 113.684 100
   8   3   0 1564.75 109.705  99
   8   3   0 1571.26 109.845  98
   8   3   0 1590.17 109.504  97
   8   3   0 1937.24 105.163  56
  -8  -3   0 1893.94 108.692  86
  -8  -3   0 1887.16 113.532  52
   8   3   0 1906.81 115.858  84
   8   3   0 2133.64 122.760  83
  -8  -3   0 1841.71 106.017  50
  -8  -3   0 1800.67 111.147   8
  -8  -3   0 1807.15 112.762  78
   8   3   1 18945.1 333.543  72
   8   3   1 19476.8 336.508  70
   8   3   1 18605.5 354.024  45
  -8  -3  -1 20235.4 391.925 107
  -8  -3  -1 18889.2 330.206  44
  -8  -3  -1 20387.1 388.303 105
  -8  -3  -1 20570.3 385.044 104
   8   3   1 19313.9 341.116  28
   8   3   1 20328.8 387.816 101
   8   3   1 20746.1 391.045 100
   8   3   1 19959.4 384.595  99
   8   3   1 20311.5 389.167  98
   8   3   1 20576.5 387.512  97
  -8  -3  -1 18306.2 341.180  87
   8   3   1 19551.1 336.209  53
  -8  -3  -1 19746.9 354.320  86
  -8  -3  -1 19444.4 355.508  52
   8   3   1 18836.6 353.924  84
   8   3   1 19499.6 364.796  83
  -8  -3  -1 18864.1 328.996  50
  -8  -3  -1 19019.8 333.805   8
  -8  -3  -1 19433.4 360.983  78
   8   3   2 1927.34 110.761  70
   8   3   2 1975.32 112.165  45
  -8  -3  -2 1847.06 117.040 107
  -8  -3  -2 1977.61 119.431 105
  -8  -3  -2 1965.60 102.633  44
  -8  -3  -2 1995.17 116.292 104
   8   3   2 1949.10 111.237  28
   8   3   2 1862.82 115.740 101
   8   3   2 1964.90 117.545 100
   8   3   2 1968.87 117.895  99
   8   3   2 1909.36 117.607  98
   8   3   2 1949.14 117.552  97
  -8  -3  -2 1935.13 104.317  87
   8   3   2 1920.22 109.127  53
  -8  -3  -2 1918.85 111.935  86
   8   3   2 1924.03 108.453  84
  -8  -3  -2 2001.21 114.319  52
   8   3   2 1878.91 110.286  83
  -8  -3  -2 1939.13 103.293  50
  -8  -3  -2 1994.86 116.174  78
   8   3   3 5999.61 189.384  70
   8   3   3 6121.56 178.804  45
  -8  -3  -3 5811.05 189.930 107
  -8  -3  -3 5796.98 188.331 105
  -8  -3  -3 5917.26 186.862 104
   8   3   3 5744.23 186.040  28
   8   3   3 5915.72 189.746 101
   8   3   3 6119.93 191.721 100
   8   3   3 5978.90 189.463  99
   8   3   3 6086.15 192.065  98
   8   3   3 6035.65 188.819  97
   8   3   3 5914.69 187.303  53
  -8  -3  -3 6216.02 191.149  86
  -8  -3  -3 5953.14 185.425  52
   8   3   3 6019.49 176.748  83
  -8  -3  -3 6093.99 168.784  50
  -8  -3  -3 6083.69 188.856  78
   8   3   4 26317.9 367.156  70
  -8  -3  -4 24482.7 329.675 107
  -8  -3  -4 24276.2 327.629 105
  -8  -3  -4 25935.3 332.286 104
   8   3   4 25674.9 363.970  28
   8   3   4 26243.2 368.215  53
  -8  -3  -4 26717.3 369.923  86
  -8  -3  -4 26579.9 360.991  52
  -8  -3  -4 24498.7 300.514  50
  -8  -3  -4 26240.8 360.865  78
   8   3   5 9610.33 191.731  70
   8   3   5 9491.74 193.452  28
   8   3   5 9635.67 193.745  53
  -8  -3  -5 9988.34 199.778  86
  -8  -3  -5 9687.89 190.594  52
  -8  -3  -5 9562.20 188.675  78
  -8  -4   4 578.201 43.2638  59
   8   4  -4 651.956 43.5010  58
   8   4  -4 601.326 39.8228  56
  -8  -4   4 577.948 42.0178  52
  -8  -4   4 538.421 40.4117  78
   8   4  -3 7615.76 167.492  72
  -8  -4   3 6813.31 180.659  59
   8   4  -3 7819.83 174.773  58
   8   4  -3 7663.52 178.052  56
  -8  -4   3 7683.36 180.745  52
   8   4  -3 7339.91 148.258  84
  -8  -4   3 7163.26 182.581   8
  -8  -4   3 7509.72 178.705  78
   8   4  -2 1878.62 98.1987  72
   8   4  -2 1871.59 85.4481  45
   8   4  -2 1812.25 95.1897 103
   8   4  -2 1839.15 94.6404 100
   8   4  -2 1769.60 92.4523  99
   8   4  -2 1828.87 93.8138  98
   8   4  -2 1703.98 90.3392  97
   8   4  -2 1850.04 93.4221  58
   8   4  -2 1837.37 98.7960  56
  -8  -4   2 1870.87 100.262  52
   8   4  -2 1826.56 94.1246  84
   8   4  -2 1921.43 89.6398  83
  -8  -4   2 1839.56 101.565   8
  -8  -4   2 1770.88 81.5893  50
  -8  -4   2 1858.96 100.962  78
   8   4  -1 2099.07 111.051  72
  -8  -4   1 1965.58 107.215  16
   8   4  -1 1969.80 103.249  45
  -8  -4   1 1925.57 109.561 107
  -8  -4   1 1809.72 93.3007  44
  -8  -4   1 2014.52 110.523 104
   8   4  -1 1915.33 110.882 103
  -8  -4   1 1960.08 113.090 102
   8   4  -1 1969.50 110.209 100
   8   4  -1 2032.15 111.820  99
   8   4  -1 2031.04 111.638  98
   8   4  -1 1911.92 107.969  97
   8   4  -1 1956.31 105.743  56
  -8  -4   1 1993.79 109.696  52
   8   4  -1 1917.70 106.240  84
   8   4  -1 1972.74 105.326  83
  -8  -4   1 2025.52 109.624   8
  -8  -4   1 1840.01 89.5269  50
  -8  -4   1 1974.95 110.880  78
   8   4   0 1099.95 83.6346  72
  -8  -4   0 1025.22 84.0052  16
   8   4   0 1142.00 85.3356  45
  -8  -4   0 1063.60 86.9699 107
  -8  -4   0 978.434 69.7218  44
  -8  -4   0 912.271 81.8922 105
  -8  -4   0 1072.23 87.6540 104
   8   4   0 953.696 84.7860 103
  -8  -4   0 1004.22 86.3295 102
   8   4   0 1063.50 87.0607 101
   8   4   0 1053.25 85.9585 100
   8   4   0 1029.69 84.6642  99
   8   4   0 998.448 84.4008  98
   8   4   0 1138.21 88.4351  97
   8   4   0 1077.21 78.4090  56
  -8  -4   0 989.918 78.7272  86
  -8  -4   0 1170.50 88.3197  52
   8   4   0 1141.22 87.8387  84
   8   4   0 1115.34 85.5311  83
  -8  -4   0 1053.54 78.5363   8
  -8  -4   0 1059.12 70.3382  50
  -8  -4   0 1136.83 87.8191  78
   8   4   1 7557.47 207.841  72
   8   4   1 7452.38 193.998  70
   8   4   1 7503.89 217.956  45
  -8  -4  -1 7504.13 229.521 107
  -8  -4  -1 7490.54 228.593 105
  -8  -4  -1 7842.02 228.466 104
   8   4   1 7338.88 186.764  28
   8   4   1 7580.31 229.838 101
   8   4   1 7698.81 230.188 100
   8   4   1 7764.50 230.632  99
   8   4   1 7528.20 228.593  98
   8   4   1 7633.22 227.563  97
   8   4   1 7270.07 182.354  53
  -8  -4  -1 7797.02 221.980  86
  -8  -4  -1 7525.86 221.668  52
   8   4   1 7385.75 218.712  84
   8   4   1 7657.70 222.310  83
  -8  -4  -1 7733.58 196.630   8
  -8  -4  -1 7492.74 217.506  78
   8   4   2 3356.14 138.373  70
   8   4   2 3390.80 145.558  45
  -8  -4  -2 3424.49 152.694 107
  -8  -4  -2 3297.90 149.763 105
  -8  -4  -2 3260.14 145.546 104
   8   4   2 3376.61 135.131  28
   8   4   2 3305.27 149.219 101
   8   4   2 3459.16 151.178 100
   8   4   2 3335.54 148.217  99
   8   4   2 3383.64 150.335  98
   8   4   2 3434.71 149.951  97
  -8  -4  -2 3528.12 143.494  89
   8   4   2 3230.89 132.142  53
  -8  -4  -2 3449.55 148.406  86
   8   4   2 3480.03 146.197  84
  -8  -4  -2 3446.75 147.987  52
   8   4   2 3236.53 141.812  83
  -8  -4  -2 3327.69 144.081  78
   8   4   3 6912.36 197.371  70
   8   4   3 6865.94 193.414  45
  -8  -4  -3 6610.38 198.290 107
  -8  -4  -3 6600.78 195.955 105
  -8  -4  -3 6968.59 197.791 104
   8   4   3 6973.19 194.516  28
   8   4   3 6863.86 199.990 101
   8   4   3 6810.86 198.707 100
   8   4   3 6992.04 200.012  99
   8   4   3 6869.89 199.057  98
   8   4   3 6944.16 198.134  97
  -8  -4  -3 6933.17 195.392  89
   8   4   3 6961.13 193.947  53
  -8  -4  -3 7169.95 205.510  86
   8   4   3 6898.00 189.858  84
  -8  -4  -3 7119.91 202.894  52
   8   4   3 6976.97 191.437  83
  -8  -4  -3 7023.74 197.016  78
  -8  -4  -4 9819.64 197.851  16
   8   4   4 10164.6 225.559  70
  -8  -4  -4 9269.89 199.599 107
  -8  -4  -4 9185.19 197.037 105
  -8  -4  -4 10028.0 202.595 104
   8   4   4 10093.0 223.859  28
  -8  -4  -4 8905.03 197.038 102
  -8  -4  -4 10266.6 224.125  89
   8   4   4 10090.5 223.732  53
  -8  -4  -4 10733.1 235.160  86
  -8  -4  -4 10002.4 224.796  52
  -8  -4  -4 10041.6 216.559  78
   8   4   5 3231.38 113.789  28
  -8  -4  -5 3376.88 114.523  89
   8   4   5 3316.72 115.888  53
  -8  -4  -5 3279.28 116.011  86
  -8  -4  -5 3209.66 111.906  52
   8   4   5 3045.39 108.239  51
  -8  -4  -5 3189.73 106.277  78
   8   4   6 2202.56 73.3544  28
   8   4   6 2238.53 74.4545  53
  -8  -4  -6 2101.48 73.1698  86
  -8  -4  -6 2191.97 73.9703  52
  -8  -5   3 2026.67 77.7336   7
  -8  -5   3 1813.48 69.7588  59
   8   5  -3 2455.39 80.1310  58
   8   5  -3 2346.59 77.2762  56
  -8  -5   3 2233.32 79.3202  52
  -8  -5   3 2162.21 78.2924  78
  -8  -5   2 18207.2 277.767   7
   8   5  -2 19320.0 264.155  72
   8   5  -2 16740.5 241.065 103
   8   5  -2 18006.2 247.549 100
   8   5  -2 18154.7 246.932  99
   8   5  -2 18084.0 246.651  98
   8   5  -2 17067.5 238.279  97
  -8  -5   2 16830.9 264.039  59
   8   5  -2 20056.2 267.530  58
   8   5  -2 19358.1 273.579  56
  -8  -5   2 18964.6 275.057  52
   8   5  -2 17746.8 216.714  84
  -8  -5   2 18963.6 272.741  78
  -8  -5   1 240.219 36.9313  16
   8   5  -1 160.637 31.2128  72
   8   5  -1 159.963 26.9796  45
  -8  -5   1 169.883 34.6389 107
  -8  -5   1 195.088 35.0186 104
   8   5  -1 285.287 40.1776 103
  -8  -5   1 159.271 33.2280 102
   8   5  -1 246.706 36.7919 100
   8   5  -1 288.878 39.8018  99
   8   5  -1 265.239 37.8511  98
   8   5  -1 273.236 39.0898  97
   8   5  -1 192.516 31.2241  58
   8   5  -1 195.492 34.5997  56
  -8  -5   1 190.063 34.9647  86
   8   5  -1 170.314 30.7052  84
   8   5  -1 210.015 32.0155  83
  -8  -5   1 206.416 36.3860  52
  -8  -5   1 190.159 35.2913  78
  -8  -5   0 3985.20 146.817  16
   8   5   0 4036.63 144.906  72
   8   5   0 3599.05 133.227  45
  -8  -5   0 3956.95 151.931 107
  -8  -5   0 3843.45 146.604 104
   8   5   0 3700.18 150.985 103
  -8  -5   0 3618.86 147.623 102
   8   5   0 3994.11 150.889 100
   8   5   0 3791.19 147.418  99
   8   5   0 3920.86 151.394  98
   8   5   0 3791.09 147.360  97
   8   5   0 3754.54 136.203  56
  -8  -5   0 3935.32 143.494  86
  -8  -5   0 3667.15 141.031  52
   8   5   0 3763.34 140.239  84
  -8  -5   0 3585.01 126.791   8
   8   5   0 3894.78 142.782  83
  -8  -5   0 3647.90 138.915  78
   8   5   1 1234.17 80.7048  72
  -8  -5  -1 1256.31 85.9714  16
   8   5   1 1217.27 83.2392  45
  -8  -5  -1 1214.50 87.1386 107
  -8  -5  -1 1258.60 87.5306 104
   8   5   1 1274.83 90.6677 103
  -8  -5  -1 1212.16 88.2296 102
   8   5   1 1221.68 87.7334 100
   8   5   1 1367.52 92.8874  99
   8   5   1 1242.06 87.8520  98
   8   5   1 1241.57 86.9942  97
  -8  -5  -1 1190.44 80.9230  89
  -8  -5  -1 1288.70 86.9400  86
  -8  -5  -1 1267.19 86.3276  52
   8   5   1 1295.56 86.5037  84
   8   5   1 1237.84 85.0860  83
  -8  -5  -1 1187.69 81.4185  78
  -8  -5  -2 1270.07 85.5255  16
   8   5   2 1325.59 86.3670  45
  -8  -5  -2 1260.80 86.4207 107
  -8  -5  -2 1309.93 87.7252 104
   8   5   2 1315.71 90.2557 103
  -8  -5  -2 1182.64 86.7173 102
   8   5   2 1346.32 90.0196 100
   8   5   2 1284.39 87.4816  99
   8   5   2 1291.29 88.2494  98
   8   5   2 1362.03 88.5319  97
  -8  -5  -2 1386.03 89.4427  89
   8   5   2 1275.35 71.4620  53
  -8  -5  -2 1305.93 88.5190  86
   8   5   2 1229.98 84.8321  84
  -8  -5  -2 1212.98 84.3056  52
   8   5   2 1279.28 84.7273  83
  -8  -5  -2 1231.86 82.6322  78
  -8  -5  -3 379.252 45.4310  16
   8   5   3 388.295 46.9269  45
  -8  -5  -3 354.370 45.5264 107
  -8  -5  -3 335.004 43.9259 104
   8   5   3 406.642 43.8566  28
   8   5   3 334.990 44.7341 103
  -8  -5  -3 309.711 42.9107 102
   8   5   3 374.163 46.1307 100
   8   5   3 349.865 45.0779  99
   8   5   3 400.432 47.6849  98
   8   5   3 319.217 42.1233  97
  -8  -5  -3 406.222 50.3201  89
   8   5   3 391.409 43.3335  53
  -8  -5  -3 414.364 52.2269  86
   8   5   3 340.635 44.3823  84
  -8  -5  -3 384.885 49.4777  52
   8   5   3 344.046 43.5934  83
  -8  -5  -3 365.426 44.6930  78
  -8  -5  -4 761.286 51.5917  16
   8   5   4 807.866 58.7923  45
  -8  -5  -4 678.406 50.2341 107
  -8  -5  -4 764.637 52.5273 104
   8   5   4 793.714 58.1126  28
  -8  -5  -4 703.168 51.2571 102
  -8  -5  -4 773.159 62.7562  89
   8   5   4 786.377 58.3786  53
  -8  -5  -4 806.634 63.3964  86
  -8  -5  -4 697.896 56.9809  52
   8   5   4 750.286 60.1978  51
  -8  -5  -4 774.527 56.0719  78
   8   5   5 3638.92 111.711  28
  -8  -5  -5 3794.90 118.850  89
   8   5   5 3607.55 113.302  53
  -8  -5  -5 3731.96 116.378  86
  -8  -5  -5 3627.39 110.612  52
   8   5   5 3515.87 112.432  51
  -8  -5  -5 3278.75 91.9020  78
  -8  -6   1 20073.8 244.554  16
   8   6  -1 20624.3 251.354  72
  -8  -6   1 20373.7 250.802 107
   8   6  -1 19189.7 247.624 105
  -8  -6   1 20309.9 251.392 104
   8   6  -1 19236.0 248.011 103
  -8  -6   1 19744.6 249.050 102
  -8  -6   1 19846.1 250.418 101
   8   6  -1 20341.3 251.522 100
   8   6  -1 20331.9 251.376  99
   8   6  -1 19928.0 249.295  98
   8   6  -1 19932.3 247.723  97
   8   6  -1 20924.3 241.886  58
   8   6  -1 20843.8 257.077  56
  -8  -6   1 20489.9 248.000  86
  -8  -6   1 20138.5 241.205  52
  -8  -6   1 19421.2 233.687  78
  -8  -6   0 42310.2 404.031  16
   8   6   0 41234.6 396.937  72
   8   6   0 39050.1 330.339  45
  -8  -6   0 41223.1 410.681 107
  -8  -6   0 41242.3 407.360 104
   8   6   0 40174.7 410.531 103
  -8  -6   0 40052.5 409.815 102
   8   6   0 41148.0 408.968 100
   8   6   0 41622.4 409.928  99
   8   6   0 41150.9 411.332  98
   8   6   0 40416.9 403.874  97
   8   6   0 41332.1 390.703  56
  -8  -6   0 41928.0 392.003  89
  -8  -6   0 42032.6 402.668  86
  -8  -6   0 39850.7 377.193  52
   8   6   0 40071.7 364.532  84
   8   6   0 40334.8 376.453  83
  -8  -6   0 38995.5 362.992  78
  -8  -6  -1 2641.79 107.027  16
   8   6   1 2460.93 100.347  72
   8   6   1 2507.60 99.3540  45
  -8  -6  -1 2666.77 110.287 107
   8   6   1 2335.42 89.0635   6
  -8  -6  -1 2520.68 107.360 104
   8   6   1 2437.28 107.434 103
  -8  -6  -1 2415.83 106.139 102
   8   6   1 2582.55 109.351 100
   8   6   1 2508.50 108.455  99
   8   6   1 2671.13 110.843  98
   8   6   1 2574.04 108.058  97
   8   6   1 2460.93 95.7491  56
  -8  -6  -1 2590.81 105.580  89
  -8  -6  -1 2415.57 103.943  86
  -8  -6  -1 2422.77 98.0107  52
   8   6   1 2270.11 97.8070  84
   8   6   1 2464.15 102.556  83
  -8  -6  -1 2210.10 89.2487  78
   8   6   2 85.9043 21.4685  72
  -8  -6  -2 77.6972 23.8479  16
   8   6   2 91.6619 24.3865  45
  -8  -6  -2 66.1441 21.2705 107
  -8  -6  -2 69.7515 23.6976 104
   8   6   2 53.2292 21.2221 103
  -8  -6  -2 54.2886 21.9111 102
   8   6   2 78.3233 24.8463 100
   8   6   2 95.7587 25.4648  99
   8   6   2 91.8843 25.6809  98
   8   6   2 122.066 29.4582  97
  -8  -6  -2 82.3969 26.3347  89
  -8  -6  -2 73.9852 25.7889  86
   8   6   2 77.5681 24.4046  84
  -8  -6  -2 72.4469 23.2256  52
   8   6   2 64.5015 21.4152  83
   8   6   2 74.8212 19.9548  51
  -8  -6  -2 66.9087 21.6883  78
  -8  -6  -3 41738.9 382.412  16
   8   6   3 43031.5 417.598  45
  -8  -6  -3 39036.0 384.820 107
  -8  -6  -3 40367.9 384.209 104
  -8  -6  -3 36614.3 374.577 102
  -8  -6  -3 42899.7 430.173  89
  -8  -6  -3 42891.5 424.717  86
   8   6   3 40975.1 416.733  84
  -8  -6  -3 40131.6 382.090  52
   8   6   3 42489.6 407.704  83
  -8  -6  -3 37043.9 328.268  78
   8   6   4 3037.37 102.689  45
   8   6   4 2752.23 81.2838  28
  -8  -6  -4 3121.83 109.719  89
  -8  -6  -4 3055.64 105.600  86
   8   6   4 2933.10 100.766  84
  -8  -6  -4 2823.05 93.4010  52
   8   6   4 2734.74 95.2527  51
   8   6   5 4442.50 105.718   6
  -8  -6  -5 4381.56 114.026  89
  -8  -6  -5 4163.77 101.913  86
   8   6   5 4269.64 105.420  51
   8   7   1 3806.49 94.6856  72
  -8  -7  -1 3728.47 97.5291 107
   8   7   1 3393.09 95.7456 105
   8   7   1 3643.83 97.6738 103
  -8  -7  -1 3683.47 97.8319 102
  -8  -7  -1 3570.88 97.2440 101
   8   7   1 3820.63 98.8193  99
   8   7   1 3768.72 98.8250  98
   8   7   1 3868.41 99.0595  97
  -8  -7  -1 3861.06 99.5285  89
  -8  -7  -1 3670.97 96.9808  86
  -8  -7  -2 458.002 34.4189  16
  -8  -7  -2 447.886 34.3799 107
   8   7   2 403.049 33.3921 105
  -8  -7  -2 464.929 35.1745 104
   8   7   2 412.146 33.7350 103
  -8  -7  -2 425.183 33.6487 102
  -8  -7  -2 400.880 32.4851 101
   8   7   2 484.734 36.3044 100
   8   7   2 447.849 34.7708  99
   8   7   2 437.922 34.7057  98
   8   7   2 488.690 36.0462  97
  -8  -7  -2 494.822 39.0708  89
  -8  -7  -2 486.215 37.6616  86
   8   7   2 497.516 36.7048  84
   8   7   2 504.965 37.8127  83
   8   7   3 6300.40 125.826  45
   8   7   3 6045.37 121.067   6
  -8  -7  -3 5972.01 128.607  89
  -8  -7  -3 5819.15 120.231  86
   8   7   3 6019.32 126.197  84
   8   7   3 6123.78 123.593  83
  -9   0   1-9.20889 11.7039  44
   9   0  -1 17.3076 10.0132  83
  -9   0   1 13.5038 12.1288   8
  -9   0   0 605.337 40.0520  44
  -9   0   0 536.992 36.9618  87
   9   1  -2 625.398 42.2763  72
   9   1  -2 664.246 44.7343  45
  -9  -1   2 715.414 47.4479  44
   9   1  -2 628.332 43.2765  84
   9   1  -2 600.628 40.9703  83
  -9  -1   2 664.366 46.0552  50
  -9  -1   2 594.170 44.9615   8
   9   1  -1 234.772 29.6555  45
  -9  -1   1 262.505 32.2931  44
   9   1  -1 198.759 24.7162 101
   9   1  -1 214.019 26.2164 100
   9   1  -1 160.018 23.0671  99
   9   1  -1 212.542 26.0519  98
   9   1  -1 195.647 25.1647  97
   9   1  -1 212.741 27.2629  83
  -9  -1   1 217.653 29.8621  50
  -9  -1   1 297.508 34.2304   8
   9   1   0 370.187 34.7347  45
  -9  -1   0 398.873 37.5865 107
  -9  -1   0 357.049 37.1002  44
  -9  -1   0 373.869 37.5236 105
  -9  -1   0 378.969 36.9683 104
   9   1   0 319.640 31.2189  28
   9   1   0 369.145 36.6078 101
   9   1   0 337.702 35.3123 100
   9   1   0 326.917 34.7798  99
   9   1   0 367.342 36.5419  98
   9   1   0 372.389 36.9344  97
   9   1   0 344.800 34.5924  83
  -9  -1   0 344.918 36.2263  50
  -9  -1   0 310.026 33.4557   8
  -9  -1  -1 4692.42 121.776 107
  -9  -1  -1 4733.60 113.688  44
  -9  -1  -1 4861.46 123.068 105
  -9  -1  -1 4847.22 121.553 104
   9   1   1 4522.10 113.759  28
   9   1   1 4768.82 122.552 101
   9   1   1 4703.05 121.637 100
   9   1   1 4667.67 120.547  99
   9   1   1 4861.89 122.789  98
   9   1   1 4641.04 118.759  97
  -9  -1  -1 4326.93 109.295  87
   9   1   1 4515.74 105.243  53
   9   1   1 4588.78 108.593  83
  -9  -1  -1 4897.14 118.188  50
   9   2  -2 10.0957 12.6352  72
   9   2  -2-1.97931 11.4379  45
  -9  -2   2 19.2812 16.9686  44
   9   2  -2 12.3813 12.8189  84
   9   2  -2 2.13430 7.38462  83
  -9  -2   2 1.60116 12.2586  50
  -9  -2   2-13.3891 14.1767   8
   9   2  -1 2175.24 83.2432  72
   9   2  -1 2184.79 87.1136  45
  -9  -2   1 2038.26 82.4988  44
   9   2  -1 1856.09 77.6753 103
   9   2  -1 1933.56 78.5015 100
   9   2  -1 1936.40 78.2453  99
   9   2  -1 1957.73 79.0665  98
   9   2  -1 1937.85 77.6201  97
   9   2  -1 2202.85 86.5930  84
   9   2  -1 2169.67 86.6612  83
  -9  -2   1 2210.74 88.2028   8
  -9  -2   1 2259.80 85.9531  50
   9   2   0 155.398 26.5412  45
  -9  -2   0 156.883 26.4219 107
  -9  -2   0 136.734 26.7206 105
  -9  -2   0 115.182 24.0881  44
  -9  -2   0 163.325 27.5733 104
   9   2   0 157.396 22.2000  28
   9   2   0 145.476 26.8012 101
   9   2   0 113.099 24.4479 100
   9   2   0 124.568 25.5056  99
   9   2   0 121.827 25.3921  98
   9   2   0 152.075 27.0528  97
   9   2   0 172.478 27.9367  83
  -9  -2   0 141.540 25.3248  50
  -9  -2   0 152.161 25.9684   8
   9   2   1 7760.57 137.720  70
   9   2   1 8790.83 165.656  45
  -9  -2  -1 8571.12 178.044 107
  -9  -2  -1 8195.85 152.217  44
  -9  -2  -1 8483.41 177.841 105
  -9  -2  -1 8986.85 178.836 104
   9   2   1 8269.90 158.120  28
   9   2   1 8587.03 178.250 101
   9   2   1 8854.22 179.866 100
   9   2   1 8734.29 178.193  99
   9   2   1 8686.87 178.241  98
   9   2   1 8479.02 174.153  97
   9   2   1 7857.31 141.201  53
   9   2   1 8720.31 169.618  83
  -9  -2  -1 8319.43 158.820  50
  -9  -2  -1 8427.49 159.945  78
   9   2   2 6.78453 10.9887  70
  -9  -2  -2-3.55583 10.3185 107
  -9  -2  -2 7.72013 11.6521 105
  -9  -2  -2 11.6166 12.0630 104
   9   2   2-2.79611 9.28504  28
   9   2   2 17.1174 12.9282 101
   9   2   2 12.6773 12.9591 100
   9   2   2 20.8683 14.1032  99
   9   2   2 0.17190 10.7481  98
   9   2   2 1.67826 10.7104  97
   9   2   2 16.5965 11.4382  53
  -9  -2  -2 20.4517 12.4326  50
  -9  -2  -2 7.27558 12.0056  78
   9   3  -2 820.485 46.7915  72
   9   3  -2 755.968 45.3296  84
   9   3  -1 871.832 52.4880  72
   9   3  -1 890.714 53.6541  45
  -9  -3   1 794.553 45.7568  44
   9   3  -1 740.876 48.3587 103
   9   3  -1 767.042 48.6012 100
   9   3  -1 758.628 47.8907  99
   9   3  -1 809.960 50.2112  98
   9   3  -1 810.130 49.6917  97
   9   3  -1 860.088 54.4775  84
   9   3  -1 834.877 51.4924  83
  -9  -3   1 765.279 49.9691   8
  -9  -3   1 835.781 52.0975  78
  -9  -3   0 889.282 57.3290  16
   9   3   0 939.578 58.4091  45
  -9  -3   0 928.252 59.5550 107
  -9  -3   0 767.798 45.3977  44
  -9  -3   0 1005.38 60.9912 104
   9   3   0 924.839 59.2380 103
  -9  -3   0 894.971 58.5379 102
   9   3   0 920.192 59.1149 100
   9   3   0 866.093 57.7334  99
   9   3   0 962.522 60.3069  98
   9   3   0 885.207 57.3467  97
   9   3   0 992.689 59.6251  84
   9   3   0 973.384 59.8199  83
  -9  -3   0 859.674 50.3385   8
  -9  -3   0 872.044 48.5661  50
  -9  -3   0 850.068 55.8193  78
  -9  -3  -1 781.456 54.1417  16
   9   3   1 848.126 55.2403  45
  -9  -3  -1 794.010 55.6435 107
  -9  -3  -1 758.563 55.7154 105
  -9  -3  -1 812.038 55.9345 104
   9   3   1 767.843 55.5826 103
  -9  -3  -1 771.897 55.3943 102
   9   3   1 754.769 54.6135 101
   9   3   1 813.361 56.6619 100
   9   3   1 773.318 55.2530  99
   9   3   1 820.683 56.4780  98
   9   3   1 812.683 56.1777  97
   9   3   1 830.432 54.7474  83
  -9  -3  -1 653.910 40.7341  50
  -9  -3  -1 832.939 54.9583  78
  -9  -3  -2 6076.99 139.698  16
   9   3   2 6804.35 137.029  45
  -9  -3  -2 6921.92 150.897 107
  -9  -3  -2 6883.16 150.108 105
  -9  -3  -2 7279.15 152.158 104
   9   3   2 6883.40 134.226  28
   9   3   2 6910.99 152.963 103
  -9  -3  -2 6471.97 147.158 102
   9   3   2 7105.72 153.569 101
   9   3   2 7202.76 153.522 100
   9   3   2 7314.86 154.282  99
   9   3   2 7204.50 153.338  98
   9   3   2 6938.47 148.859  97
   9   3   2 6767.55 136.433  83
  -9  -3  -2 7206.48 148.734  78
  -9  -3  -3 268.362 27.4870  78
   9   4  -1 481.062 35.4969  72
  -9  -4   1 404.593 33.3189  52
   9   4  -1 471.101 35.5877  84
  -9  -4   1 489.412 37.6275  78
   9   4   0 14.8964 11.0611  72
  -9  -4   0 34.7678 16.3318  16
   9   4   0 6.77214 9.52279  45
  -9  -4   0 29.5762 15.6042 107
  -9  -4   0 16.5423 13.8332 104
   9   4   0 17.9850 14.2873 103
  -9  -4   0 11.4835 12.1498 102
   9   4   0 35.8536 15.8061 100
   9   4   0 6.46378 10.5267  99
   9   4   0 24.2914 13.7109  98
   9   4   0 0.90160 11.0680  97
   9   4   0-0.92951 11.2959  84
  -9  -4   0 30.1546 16.7237  52
   9   4   0-0.94601 9.30000  83
  -9  -4   0 21.4125 15.5185  78
  -9  -4  -1 7941.22 159.601  16
   9   4   1 8705.85 164.349  45
  -9  -4  -1 8276.54 165.677 107
  -9  -4  -1 8815.90 169.276 104
   9   4   1 8366.66 168.780 103
  -9  -4  -1 7821.10 164.476 102
   9   4   1 8629.01 169.525 100
   9   4   1 8407.15 167.285  99
   9   4   1 8520.48 168.352  98
   9   4   1 8495.96 166.419  97
  -9  -4  -1 8398.38 159.256  52
   9   4   1 8556.01 162.117  84
   9   4   1 8520.72 163.170  83
  -9  -4  -1 8257.85 159.914  78
  -9  -4  -2 2598.17 87.2389  16
   9   4   2 3149.52 93.8152  45
  -9  -4  -2 2927.71 94.1326 107
  -9  -4  -2 3155.24 95.9544 104
   9   4   2 2756.70 91.6824 103
  -9  -4  -2 2785.53 92.0450 102
   9   4   2 2975.76 94.6837 100
   9   4   2 2898.93 93.4166  99
   9   4   2 3022.78 95.2417  98
   9   4   2 2895.69 92.4546  97
  -9  -4  -2 3139.07 94.0847  52
   9   4   2 3221.92 92.7145  83
  -9  -4  -2 3016.05 93.3017  78
   0   0   0    0.00    0.00   0
;
_shelx_hkl_checksum              12932
_shelx_res_file
;
TITL MAGD144 IN P-1
 magd144.res created by SHELXL-2016/4 at 21:29:18 on 17-May-2017
CELL  1.54184  7.38850  8.07200  9.29760 69.03900 89.49800 75.91500
ZERR 2  0.00090  0.00100  0.00130  0.01200  0.01000  0.01000
LATT 1
SFAC C H N O
UNIT 20 24 8 2
TEMP -173
PLAN 30
FMAP 2
L.S. 15
SIZE 0.15 0.10 0.08
BOND $H
OMIT -6 150
EQIV $1 -X, 1-Y, 2-Z
EQIV $2 -X, 2-Y, 1-Z
HTAB N1 O_$1
HTAB N1 N4_$2
CONF
ACTA
WGHT    0.034900    0.180600
EXTI    0.011658
FVAR      12.91282
C1    1    0.151327    0.687512    0.896733    11.00000    0.02253    0.01785 =
         0.01298   -0.00563    0.00187   -0.00632
C2    1    0.255939    0.833804    0.820118    11.00000    0.02140    0.01642 =
         0.01581   -0.00486    0.00124   -0.00613
AFIX  13
H3    2    0.165006    0.949315    0.752342    11.00000   -1.20000
AFIX   0
C3    1    0.405060    0.769114    0.723637    11.00000    0.01947    0.01971 =
         0.01712   -0.00652    0.00073   -0.00706
AFIX  23
H4    2    0.488091    0.853320    0.694399    11.00000   -1.20000
H5    2    0.482564    0.645326    0.787098    11.00000   -1.20000
AFIX   0
C4    1    0.352206    0.871307    0.946226    11.00000    0.03436    0.02858 =
         0.02073   -0.01101    0.00232   -0.01436
AFIX 137
H8    2    0.258168    0.911025    1.010223    11.00000   -1.20000
H6    2    0.416372    0.967988    0.898144    11.00000   -1.20000
H7    2    0.443677    0.758907    1.011003    11.00000   -1.20000
AFIX   0
C5    1    0.291535    0.617631    0.555214    11.00000    0.01523    0.01800 =
         0.01732   -0.00681    0.00301   -0.00458
C6    1    0.215740    0.694075    0.401427    11.00000    0.01710    0.01869 =
         0.01628   -0.00483    0.00259   -0.00304
C7    1    0.166020    0.584150    0.328590    11.00000    0.01903    0.02780 =
         0.01823   -0.01031    0.00208   -0.00504
AFIX  43
H9    2    0.113426    0.634772    0.224400    11.00000   -1.20000
AFIX   0
C8    1    0.196880    0.400250    0.414801    11.00000    0.01999    0.02591 =
         0.02580   -0.01477    0.00555   -0.00826
AFIX  43
H10   2    0.165146    0.321802    0.369143    11.00000   -1.20000
AFIX   0
C9    1    0.274903    0.324854    0.570164    11.00000    0.02086    0.01783 =
         0.02560   -0.00709    0.00529   -0.00634
AFIX  43
H11   2    0.294873    0.196704    0.625394    11.00000   -1.20000
AFIX   0
C10   1    0.322827    0.430185    0.644053    11.00000    0.01865    0.01816 =
         0.01785   -0.00353    0.00205   -0.00489
AFIX  43
H12   2    0.373910    0.379176    0.748680    11.00000   -1.20000
AFIX   0
N1    3   -0.034361    0.747071    0.890242    11.00000    0.02072    0.01646 =
         0.02132   -0.00183    0.00223   -0.00504
AFIX  93
H2    2   -0.101453    0.669647    0.936062    11.00000   -1.20000
H1    2   -0.089861    0.863817    0.840137    11.00000   -1.20000
AFIX   0
N2    3    0.324495    0.762308    0.583949    11.00000    0.02060    0.01524 =
         0.01485   -0.00374    0.00182   -0.00526
N3    3    0.273018    0.917367    0.456987    11.00000    0.02548    0.01701 =
         0.01703   -0.00322    0.00218   -0.00463
N4    3    0.207015    0.878510    0.346038    11.00000    0.02472    0.01953 =
         0.01695   -0.00496    0.00072   -0.00373
O     4    0.238540    0.525597    0.964983    11.00000    0.02221    0.01718 =
         0.02337   -0.00203    0.00252   -0.00455
HKLF 4
REM  MAGD144 IN P-1
REM R1 =  0.0320 for    2012 Fo > 4sig(Fo)  and  0.0325 for all    2053 data
REM    138 parameters refined using      0 restraints
END
WGHT      0.0349      0.1807
REM Highest difference peak  0.333,  deepest hole -0.208,  1-sigma level  0.039
Q1    1   0.2046  0.7644  0.8574  11.00000  0.05    0.33
Q2    1   0.2622  0.6443  0.4812  11.00000  0.05    0.33
Q3    1   0.3085  0.6768  0.5814  11.00000  0.05    0.25
Q4    1   0.3271  0.7980  0.7753  11.00000  0.05    0.25
Q5    1   0.1733  0.6465  0.3784  11.00000  0.05    0.24
Q6    1   0.2935  0.5313  0.5967  11.00000  0.05    0.23
Q7    1   0.2408  0.3759  0.4852  11.00000  0.05    0.22
Q8    1   0.3047  0.8448  0.8826  11.00000  0.05    0.20
Q9    1   0.3525  0.7621  0.6572  11.00000  0.05    0.19
Q10   1   0.1958  0.7763  0.3749  11.00000  0.05    0.19
Q11   1   0.2605  0.3868  0.6216  11.00000  0.05    0.19
Q12   1   0.3348  0.3824  0.5881  11.00000  0.05    0.18
Q13   1   0.2144  0.4809  0.3728  11.00000  0.05    0.18
Q14   1   0.1722  0.4993  0.3843  11.00000  0.05    0.17
Q15   1   0.1464  0.9575  0.2773  11.00000  0.05    0.17
Q16   1   0.2626  1.0213  0.4601  11.00000  0.05    0.15
Q17   1   0.3046  0.8435  0.5253  11.00000  0.05    0.13
Q18   1   0.1969  0.9035  0.7780  11.00000  0.05    0.11
Q19   1   0.2227  0.8976  0.4010  11.00000  0.05    0.11
Q20   1   0.2757  0.0374  0.6107  11.00000  0.05    0.10
Q21   1   0.2173  0.2376  0.4026  11.00000  0.05    0.10
Q22   1  -0.0905  0.8493  0.7899  11.00000  0.05    0.10
Q23   1   0.2852  0.1617  0.5962  11.00000  0.05    0.09
Q24   1   0.2323  0.1898  0.6396  11.00000  0.05    0.09
Q25   1   0.1619  0.4521  0.9970  11.00000  0.05    0.09
Q26   1   0.1975  1.0455  0.3187  11.00000  0.05    0.09
Q27   1   0.2892  0.1069  0.5001  11.00000  0.05    0.09
Q28   1   0.1679  0.6010  0.2871  11.00000  0.05    0.09
Q29   1   0.4453  0.8780  0.6590  11.00000  0.05    0.08
Q30   1   0.3429  1.0461  0.8833  11.00000  0.05    0.08
;
_shelx_res_checksum              83517
loop_
_space_group_symop_operation_xyz
'x, y, z'
'-x, -y, -z'
loop_
_atom_site_type_symbol
_atom_site_label
_atom_site_fract_x
_atom_site_fract_y
_atom_site_fract_z
_atom_site_U_iso_or_equiv
_atom_site_adp_type
_atom_site_calc_flag
_atom_site_occupancy
C C1 0.15133(14) 0.68751(14) 0.89673(11) 0.0176(2) Uani d 1
C C2 0.25594(14) 0.83380(13) 0.82012(11) 0.0179(2) Uani d 1
H H3 0.165006 0.949315 0.752342 0.022 Uiso calc 1
C C3 0.40506(14) 0.76911(14) 0.72364(11) 0.0184(2) Uani d 1
H H4 0.488091 0.853320 0.694399 0.022 Uiso calc 1
H H5 0.482564 0.645326 0.787098 0.022 Uiso calc 1
C C4 0.35221(17) 0.87131(16) 0.94623(13) 0.0262(3) Uani d 1
H H8 0.258168 0.911025 1.010223 0.031 Uiso calc 1
H H6 0.416372 0.967988 0.898144 0.031 Uiso calc 1
H H7 0.443677 0.758907 1.011003 0.031 Uiso calc 1
C C5 0.29153(13) 0.61763(14) 0.55521(12) 0.0167(2) Uani d 1
C C6 0.21574(14) 0.69407(14) 0.40143(12) 0.0181(2) Uani d 1
C C7 0.16602(14) 0.58415(15) 0.32859(12) 0.0213(2) Uani d 1
H H9 0.113426 0.634772 0.224400 0.026 Uiso calc 1
C C8 0.19688(14) 0.40025(15) 0.41480(13) 0.0220(2) Uani d 1
H H10 0.165146 0.321802 0.369143 0.026 Uiso calc 1
C C9 0.27490(14) 0.32485(14) 0.57016(13) 0.0214(2) Uani d 1
H H11 0.294873 0.196704 0.625394 0.026 Uiso calc 1
C C10 0.32283(14) 0.43018(14) 0.64405(12) 0.0191(2) Uani d 1
H H12 0.373910 0.379176 0.748680 0.023 Uiso calc 1
N N1 -0.03436(12) 0.74707(12) 0.89024(10) 0.0209(2) Uani d 1
H H2 -0.101453 0.669647 0.936062 0.025 Uiso calc 1
H H1 -0.089861 0.863817 0.840137 0.025 Uiso calc 1
N N2 0.32450(12) 0.76231(11) 0.58395(10) 0.0173(2) Uani d 1
N N3 0.27302(13) 0.91737(12) 0.45699(10) 0.0209(2) Uani d 1
N N4 0.20701(13) 0.87851(12) 0.34604(10) 0.0213(2) Uani d 1
O O 0.23854(10) 0.52560(10) 0.96498(9) 0.02255(19) Uani d 1
loop_
_atom_site_aniso_label
_atom_site_aniso_U_11
_atom_site_aniso_U_22
_atom_site_aniso_U_33
_atom_site_aniso_U_12
_atom_site_aniso_U_13
_atom_site_aniso_U_23
C1 0.0225(5) 0.0179(5) 0.0130(4) -0.0063(4) 0.0019(4) -0.0056(4)
C2 0.0214(5) 0.0164(5) 0.0158(5) -0.0061(4) 0.0012(4) -0.0049(4)
C3 0.0195(5) 0.0197(5) 0.0171(5) -0.0071(4) 0.0007(4) -0.0065(4)
C4 0.0344(6) 0.0286(6) 0.0207(5) -0.0144(5) 0.0023(4) -0.0110(4)
C5 0.0152(4) 0.0180(5) 0.0173(5) -0.0046(4) 0.0030(4) -0.0068(4)
C6 0.0171(5) 0.0187(5) 0.0163(5) -0.0030(4) 0.0026(4) -0.0048(4)
C7 0.0190(5) 0.0278(6) 0.0182(5) -0.0050(4) 0.0021(4) -0.0103(4)
C8 0.0200(5) 0.0259(5) 0.0258(6) -0.0083(4) 0.0055(4) -0.0148(4)
C9 0.0209(5) 0.0178(5) 0.0256(5) -0.0063(4) 0.0053(4) -0.0071(4)
C10 0.0187(5) 0.0182(5) 0.0178(5) -0.0049(4) 0.0021(4) -0.0035(4)
N1 0.0207(4) 0.0165(4) 0.0213(4) -0.0050(3) 0.0022(3) -0.0018(3)
N2 0.0206(4) 0.0152(4) 0.0148(4) -0.0053(3) 0.0018(3) -0.0037(3)
N3 0.0255(5) 0.0170(4) 0.0170(4) -0.0046(3) 0.0022(3) -0.0032(3)
N4 0.0247(5) 0.0195(4) 0.0170(4) -0.0037(4) 0.0007(3) -0.0050(3)
O 0.0222(4) 0.0172(4) 0.0234(4) -0.0045(3) 0.0025(3) -0.0020(3)
loop_
_atom_type_symbol
_atom_type_description
_atom_type_scat_dispersion_real
_atom_type_scat_dispersion_imag
_atom_type_scat_source
C C 0.0181 0.0091 'International Tables Vol C Tables 4.2.6.8 and 6.1.1.4'
H H 0.0000 0.0000 'International Tables Vol C Tables 4.2.6.8 and 6.1.1.4'
N N 0.0311 0.0180 'International Tables Vol C Tables 4.2.6.8 and 6.1.1.4'
O O 0.0492 0.0322 'International Tables Vol C Tables 4.2.6.8 and 6.1.1.4'
loop_
_geom_angle_atom_site_label_1
_geom_angle_atom_site_label_2
_geom_angle_atom_site_label_3
_geom_angle
O C1 N1 123.48(9)
O C1 C2 120.43(9)
N1 C1 C2 116.03(9)
C3 C2 C1 110.96(8)
C3 C2 C4 108.61(9)
C1 C2 C4 108.83(8)
C3 C2 H3 109.5
C1 C2 H3 109.5
C4 C2 H3 109.5
N2 C3 C2 112.50(8)
N2 C3 H4 109.1
C2 C3 H4 109.1
N2 C3 H5 109.1
C2 C3 H5 109.1
H4 C3 H5 107.8
C2 C4 H8 109.5
C2 C4 H6 109.5
H8 C4 H6 109.5
C2 C4 H7 109.5
H8 C4 H7 109.5
H6 C4 H7 109.5
N2 C5 C6 104.07(9)
N2 C5 C10 133.36(9)
C6 C5 C10 122.55(10)
N4 C6 C5 108.40(9)
N4 C6 C7 130.82(10)
C5 C6 C7 120.77(10)
C8 C7 C6 116.99(10)
C8 C7 H9 121.5
C6 C7 H9 121.5
C7 C8 C9 121.51(10)
C7 C8 H10 119.2
C9 C8 H10 119.2
C10 C9 C8 122.44(10)
C10 C9 H11 118.8
C8 C9 H11 118.8
C9 C10 C5 115.74(10)
C9 C10 H12 122.1
C5 C10 H12 122.1
C1 N1 H2 120.0
C1 N1 H1 120.0
H2 N1 H1 120.0
N3 N2 C5 110.44(8)
N3 N2 C3 119.41(8)
C5 N2 C3 130.14(8)
N4 N3 N2 108.81(8)
N3 N4 C6 108.28(8)
loop_
_geom_bond_atom_site_label_1
_geom_bond_atom_site_label_2
_geom_bond_distance
C1 O 1.2369(13)
C1 N1 1.3329(14)
C1 C2 1.5271(14)
C2 C3 1.5261(14)
C2 C4 1.5316(14)
C2 H3 1.0000
C3 N2 1.4576(13)
C3 H4 0.9900
C3 H5 0.9900
C4 H8 0.9800
C4 H6 0.9800
C4 H7 0.9800
C5 N2 1.3628(13)
C5 C6 1.3977(14)
C5 C10 1.4014(14)
C6 N4 1.3752(13)
C6 C7 1.4049(15)
C7 C8 1.3730(15)
C7 H9 0.9500
C8 C9 1.4157(16)
C8 H10 0.9500
C9 C10 1.3744(15)
C9 H11 0.9500
C10 H12 0.9500
N1 H2 0.8800
N1 H1 0.8800
N2 N3 1.3505(12)
N3 N4 1.3096(13)
loop_
_geom_hbond_atom_site_label_D
_geom_hbond_atom_site_label_H
_geom_hbond_atom_site_label_A
_geom_hbond_site_symmetry_A
_geom_hbond_distance_DH
_geom_hbond_distance_HA
_geom_hbond_distance_DA
_geom_hbond_angle_DHA
N1 H2 O 2_567 0.88 2.02 2.8970(12) 174.6
N1 H1 N4 2_576 0.88 2.16 3.0017(14) 161.1
loop_
_geom_torsion_atom_site_label_1
_geom_torsion_atom_site_label_2
_geom_torsion_atom_site_label_3
_geom_torsion_atom_site_label_4
_geom_torsion
O C1 C2 C3 47.10(12)
N1 C1 C2 C3 -135.56(9)
O C1 C2 C4 -72.35(12)
N1 C1 C2 C4 104.99(10)
C1 C2 C3 N2 70.99(10)
C4 C2 C3 N2 -169.42(8)
N2 C5 C6 N4 0.01(11)
C10 C5 C6 N4 -178.56(9)
N2 C5 C6 C7 178.91(9)
C10 C5 C6 C7 0.34(15)
N4 C6 C7 C8 178.10(10)
C5 C6 C7 C8 -0.53(15)
C6 C7 C8 C9 0.13(15)
C7 C8 C9 C10 0.51(16)
C8 C9 C10 C5 -0.69(15)
N2 C5 C10 C9 -177.82(10)
C6 C5 C10 C9 0.27(15)
C6 C5 N2 N3 -0.07(11)
C10 C5 N2 N3 178.28(11)
C6 C5 N2 C3 -179.08(9)
C10 C5 N2 C3 -0.74(18)
C2 C3 N2 N3 82.84(11)
C2 C3 N2 C5 -98.22(12)
C5 N2 N3 N4 0.11(11)
C3 N2 N3 N4 179.24(8)
N2 N3 N4 C6 -0.10(11)
C5 C6 N4 N3 0.06(11)
C7 C6 N4 N3 -178.70(10)

_cod_database_fobs_code 2242159
