#------------------------------------------------------------------------------
#$Date: 2017-07-25 12:30:33 +0300 (Tue, 25 Jul 2017) $
#$Revision: 199132 $
#$URL: file:///home/coder/svn-repositories/cod/cif/2/24/21/2242161.cif $
#------------------------------------------------------------------------------
#
# This file is available in the Crystallography Open Database (COD),
# http://www.crystallography.net/. The original data for this entry
# were provided by IUCr Journals, http://journals.iucr.org/.
#
# The file may be used within the scientific community so long as
# proper attribution is given to the journal article from which the
# data were obtained.
#
data_2242161
loop_
_publ_author_name
'Amenta, Donna S.'
'Liebing, Phil'
'Biero, Julia E.'
'Sherman, Robert J.'
'Gilje, John W.'
'Edelmann, Frank T.'
_publ_section_title
;
 Synthesis and crystal structures of three new benzotriazolylpropanamides
;
_journal_issue                   6
_journal_name_full               'Acta Crystallographica Section E'
_journal_page_first              880
_journal_page_last               885
_journal_paper_doi               10.1107/S2056989017007472
_journal_volume                  73
_journal_year                    2017
_chemical_formula_moiety         'C11 H14 N4 O'
_chemical_formula_sum            'C11 H14 N4 O'
_chemical_formula_weight         218.26
_chemical_name_systematic
;
3-(1<i>H</i>-Benzotriazol-1-yl)-<i>N</i>,<i>N</i>-dimethylpropanamide
;
_space_group_crystal_system      triclinic
_space_group_IT_number           2
_space_group_name_Hall           '-P 1'
_space_group_name_H-M_alt        'P -1'
_symmetry_space_group_name_Hall  '-P 1'
_symmetry_space_group_name_H-M   'P -1'
_atom_sites_solution_hydrogens   geom
_atom_sites_solution_primary     direct
_atom_sites_solution_secondary   difmap
_audit_creation_method           SHELXL-2016/4
_cell_angle_alpha                83.910(6)
_cell_angle_beta                 86.247(6)
_cell_angle_gamma                81.528(6)
_cell_formula_units_Z            2
_cell_length_a                   7.1732(6)
_cell_length_b                   7.9945(6)
_cell_length_c                   9.5912(7)
_cell_measurement_reflns_used    6240
_cell_measurement_temperature    153(2)
_cell_measurement_theta_max      29.160
_cell_measurement_theta_min      2.138
_cell_volume                     540.25(7)
_computing_cell_refinement
;
X-AREA (Stoe & Cie, 2002)
;
_computing_data_collection
;
X-AREA (Stoe & Cie, 2002)
;
_computing_data_reduction
;
X-AREA and X-RED (Stoe & Cie, 2002)
;
_computing_molecular_graphics
;
DIAMOND (Brandenburg, 1999)
;
_computing_publication_material
;
SHELXL2016 (Sheldrick, 2015)
;
_computing_structure_refinement
;
SHELXL2016 (Sheldrick, 2015)
;
_computing_structure_solution
;
SIR97 (Altomare <i>et al.</i>,  1999)
;
_diffrn_ambient_temperature      153(2)
_diffrn_detector_area_resol_mean 6.67
_diffrn_measured_fraction_theta_full 0.995
_diffrn_measured_fraction_theta_max 0.995
_diffrn_measurement_device_type  'Stoe IPDS 2T'
_diffrn_measurement_method       'area detector'
_diffrn_radiation_type           MoK\a
_diffrn_radiation_wavelength     0.71073
_diffrn_reflns_av_R_equivalents  0.0617
_diffrn_reflns_limit_h_max       8
_diffrn_reflns_limit_h_min       -8
_diffrn_reflns_limit_k_max       9
_diffrn_reflns_limit_k_min       -9
_diffrn_reflns_limit_l_max       11
_diffrn_reflns_limit_l_min       -11
_diffrn_reflns_number            4194
_diffrn_reflns_theta_full        24.996
_diffrn_reflns_theta_max         24.996
_diffrn_reflns_theta_min         2.138
_exptl_absorpt_coefficient_mu    0.091
_exptl_absorpt_correction_type   none
_exptl_crystal_colour            colorless
_exptl_crystal_density_diffrn    1.342
_exptl_crystal_description       block
_exptl_crystal_F_000             232
_exptl_crystal_size_max          0.340
_exptl_crystal_size_mid          0.320
_exptl_crystal_size_min          0.280
_refine_diff_density_max         0.215
_refine_diff_density_min         -0.203
_refine_ls_extinction_coef       0.062(15)
_refine_ls_extinction_expression Fc^*^=kFc[1+0.001xFc^2^\l^3^/sin(2\q)]^-1/4^
_refine_ls_extinction_method
;
SHELXL2016 (Sheldrick, 2015)
;
_refine_ls_goodness_of_fit_ref   1.031
_refine_ls_hydrogen_treatment    constr
_refine_ls_matrix_type           full
_refine_ls_number_parameters     149
_refine_ls_number_reflns         1904
_refine_ls_number_restraints     0
_refine_ls_restrained_S_all      1.031
_refine_ls_R_factor_all          0.0560
_refine_ls_R_factor_gt           0.0465
_refine_ls_shift/su_max          0.001
_refine_ls_shift/su_mean         0.000
_refine_ls_structure_factor_coef Fsqd
_refine_ls_weighting_details
'w=1/[\s^2^(Fo^2^)+(0.0794P)^2^+0.0730P] where P=(Fo^2^+2Fc^2^)/3'
_refine_ls_weighting_scheme      calc
_refine_ls_wR_factor_gt          0.1244
_refine_ls_wR_factor_ref         0.1305
_reflns_number_gt                1596
_reflns_number_total             1904
_reflns_threshold_expression     'I > 2\s(I)'
_cod_data_source_file            zl2702sup1.cif
_cod_data_source_block           3
_cod_database_code               2242161
_shelx_space_group_comment
;
The symmetry employed for this shelxl refinement is uniquely defined
by the following loop, which should always be used as a source of
symmetry information in preference to the above space-group names.
They are only intended as comments.
;
_shelx_estimated_absorpt_t_min   0.970
_shelx_estimated_absorpt_t_max   0.975
_shelx_hkl_file
;
  -5   7  -4    2.18    2.37   2 0.38781-0.96341 0.83868-0.10590-0.30158-0.03382
  -5   7  -3    5.55    2.33   2 0.38781-0.96688 0.83868-0.11340-0.30158 0.04137
  -5   8  -2   -0.68    2.52   2 0.38872-0.98453 0.83839-0.02986-0.30046 0.10555
  -4   4  -6   33.00    2.89   3 0.39700-0.82635 0.83575-0.37221-0.29019-0.17355
  -4   4  -1   62.99    2.32   2 0.38690-0.83597 0.83895-0.41311-0.30270 0.21226
  -4   5  -8    9.38    2.29   2 0.38963-0.82462 0.83811-0.26998-0.29934-0.32290
  -3   2  -6   17.65    1.80   2 0.38690-0.69103 0.83895-0.57093-0.30270-0.14794
  -3   2  -5   10.43    2.51   3 0.39740-0.70435 0.83561-0.57566-0.28969-0.08586
  -3   2  -3   66.76    2.68   3 0.39919-0.71444 0.83501-0.58967-0.28744 0.06081
  -3   2  -2  783.43    5.04   2 0.38598-0.70500 0.83923-0.60107-0.30383 0.15158
  -3   3  -8    1.27    2.59   3 0.39779-0.70768 0.83548-0.46269-0.28920-0.31979
  -2   1  -6   20.12    2.45   3 0.39694-0.58813 0.83577-0.67140-0.29026-0.15663
  -2   1  -2    6.13    2.42   3 0.39971-0.60626 0.83484-0.70106-0.28679 0.13870
  -2   2  -9   30.30    2.08   2 0.39054-0.58426 0.83783-0.56191-0.29821-0.38160
  -2   5   5   40.11    4.53   3 0.41482-0.69798 0.82943-0.38601-0.26758 0.60635
  -1   0  -5  484.50    4.05   2 0.38872-0.47074 0.83839-0.78723-0.30046-0.06768
  -1   0  -4  133.02    2.68   2 0.39327-0.47968 0.83696-0.79289-0.29484 0.00120
  -1   0  -3  151.15    2.99   2 0.38598-0.47543 0.83923-0.80294-0.30383 0.08539
  -1   1  -9   29.67    2.08   2 0.38781-0.46789 0.83868-0.66772-0.30158-0.37441
  -1   2   3    0.81    2.57   3 0.39576-0.53265 0.83615-0.66368-0.29173 0.50266
   0   0  -8   24.70    2.03   2 0.38963-0.36013 0.83811-0.77895-0.29934-0.29807
   0   1 -10   33.51    3.00   3 0.39983-0.37525 0.83480-0.67071-0.28664-0.46821
   1   0  -9   98.56    3.27   3 0.39716-0.26388 0.83569-0.78334-0.28998-0.38712
   1   1 -11   41.42    3.35   2 0.39521-0.26603 0.83633-0.67791-0.29241-0.54216
   1   2   5  749.95    5.11   2 0.39145-0.33571 0.83754-0.70805-0.29709 0.64698
   1   7   9   24.10    3.23   3 0.39969-0.42234 0.83485-0.28264-0.28681 0.89026
   2   6   9   12.68    2.19   2 0.39236-0.30177 0.83725-0.39008-0.29596 0.90336
   3  -1  -7   35.08    3.15   3 0.40336-0.06359 0.83359-0.91498-0.28219-0.24714
   3   0 -10   34.20    3.28   3 0.39785-0.05974 0.83546-0.80390-0.28912-0.47307
   3   2   6  216.84    3.28   2 0.39617-0.14398 0.83602-0.74256-0.29123 0.70640
   3   3   7   90.44    2.34   2 0.38598-0.15029 0.83923-0.66187-0.30383 0.78466
   3   4   8   81.46    2.38   2 0.39145-0.17165 0.83754-0.57792-0.29709 0.84342
   4  -1  -7   21.18    3.79   3 0.41252 0.02778 0.83030-0.92507-0.27053-0.26396
   4   0 -10   -1.60    3.03   3 0.39914 0.03952 0.83503-0.81851-0.28750-0.47894
   4   2   6    7.98    1.82   2 0.38507-0.03246 0.83951-0.75979-0.30495 0.71477
   4   5   9    2.82    2.06   2 0.39327-0.08898 0.83696-0.50830-0.29484 0.90076
   4   7  10   27.83    2.75   2 0.38781-0.11331 0.83868-0.33698-0.30158 0.96483
   5  -1  -1   28.94    2.05   2 0.38690 0.13118 0.83895-0.99342-0.30270 0.21263
   5   2   6    2.83    1.79   2 0.38690 0.06779 0.83895-0.77400-0.30270 0.70696
   5   5   9    4.95    2.20   2 0.39054 0.01374 0.83783-0.52359-0.29821 0.89976
   6  -1  -2   63.42    3.13   3 0.39826 0.22369 0.83533-0.99621-0.28861 0.11802
   6   0   2   36.26    2.05   2 0.38781 0.20616 0.83868-0.93922-0.30158 0.42142
   6   2   6   48.45    2.81   3 0.39779 0.15591 0.83548-0.78465-0.28920 0.68895
   6   3   7    3.31    1.90   2 0.38598 0.15099 0.83923-0.70594-0.30383 0.76820
   6   4   8   38.98    2.37   2 0.38598 0.13471 0.83923-0.62175-0.30383 0.83500
   6   5   9    1.94    3.33   2 0.39508 0.11035 0.83638-0.53563-0.29258 0.88874
   7   0   1    4.13    1.87   2 0.38415 0.31468 0.83978-0.94700-0.30607 0.34482
   7   4   8    0.88    3.24   3 0.39869 0.22248 0.83518-0.63154-0.28807 0.81225
   8   0   0  169.64    3.89   3 0.40050 0.40187 0.83457-0.94771-0.28580 0.24499
   8   1   3   10.25    2.92   2 0.39779 0.38064 0.83548-0.88113-0.28920 0.46398
   8   2   5   13.55    3.15   3 0.39965 0.35843 0.83486-0.80386-0.28687 0.60111
   8   3   6   26.78    2.43   2 0.38324 0.35835 0.84005-0.72636-0.30719 0.68796
   9   2   4    4.27    3.28   3 0.39976 0.46269 0.83482-0.81160-0.28673 0.52137
  -4   4  -5   58.63    2.21   3 0.40596-0.83987 0.83277-0.37767-0.27910-0.11010
  -4   4  -4    7.75    2.54   4 0.41419-0.84977 0.82976-0.38182-0.26858-0.04582
  -4   4  -3    0.28    2.53   3 0.41309-0.85386 0.83018-0.39025-0.27000 0.03196
  -4   4  -2   12.63    1.89   3 0.40596-0.85071 0.83277-0.39987-0.27910 0.11381
  -4   5  -7    2.72    2.17   3 0.40685-0.84623 0.83245-0.27191-0.27796-0.26938
  -4   5   0   36.74    2.77   4 0.41538-0.88040 0.82932-0.32048-0.26705 0.24269
  -4   6  -8   11.14    2.52   3 0.40507-0.85322 0.83308-0.17508-0.28023-0.34948
  -4   7   2    0.21    2.87   4 0.41220-0.90899 0.83051-0.15556-0.27114 0.37671
  -3   2  -4   39.17    1.91   3 0.40148-0.71283 0.83433-0.58182-0.28477-0.01717
  -3   3  -7   -0.95    2.48   4 0.41707-0.73114 0.82867-0.46376-0.26486-0.26945
  -3   4  -9   -1.48    1.99   3 0.40685-0.72479 0.83245-0.36177-0.27796-0.41429
  -3   4   2  179.78    4.32   4 0.41817-0.77801 0.82825-0.43870-0.26344 0.39237
  -3   5 -10    4.18    2.46   3 0.40238-0.72981 0.83402-0.26500-0.28364-0.49288
  -2   1  -5   86.21    2.20   3 0.40864-0.60366 0.83181-0.67580-0.27569-0.09623
  -2   1  -4    2.23    2.46   4 0.41574-0.61382 0.82918-0.68150-0.26657-0.02925
  -2   1  -3   -0.02    2.51   3 0.41486-0.61760 0.82951-0.68807-0.26772 0.04458
  -2   2  -8  123.99    3.11   4 0.41638-0.61319 0.82893-0.56029-0.26575-0.33944
  -2   3 -10    7.31    2.15   3 0.40327-0.60513 0.83371-0.46000-0.28250-0.48081
  -2   4 -11   -2.36    2.43   3 0.40238-0.61292 0.83402-0.36178-0.28364-0.56329
  -1   1  -8   67.88    2.82   4 0.41713-0.50029 0.82865-0.66470-0.26479-0.33657
  -1   2 -10    1.00    1.99   3 0.41131-0.50024 0.83084-0.56231-0.27228-0.48578
  -1   3 -11   51.76    3.49   4 0.41646-0.51370 0.82890-0.46281-0.26565-0.57731
  -1   6   7  107.57    3.80   4 0.41957-0.62251 0.82770-0.32242-0.26162 0.73495
   0   2 -11   85.58    3.70   4 0.41640-0.40071 0.82893-0.56663-0.26572-0.57304
   0   3 -12    2.85    3.53   4 0.41663-0.41045 0.82884-0.46947-0.26543-0.65683
   0   6   8    0.85    2.75   3 0.41767-0.52388 0.82844-0.34517-0.26409 0.80570
   1   2 -12    5.12    2.43   3 0.40685-0.28678 0.83245-0.57718-0.27796-0.64025
   1   5   8    1.28    1.88   3 0.40327-0.39694 0.83371-0.45546-0.28250 0.82870
   2  -1  -6  201.58    4.23   4 0.41628-0.18068 0.82897-0.90310-0.26588-0.18354
   2   1 -11    1.12    3.09   4 0.41928-0.19095 0.82782-0.68408-0.26200-0.57746
   2   3   7   35.43    2.04   3 0.41131-0.27475 0.83084-0.63990-0.27228 0.75686
   2   4   8   57.29    2.81   4 0.41768-0.29865 0.82843-0.55390-0.26407 0.81492
   3   0   3    9.57    2.64   4 0.41820-0.12938 0.82823-0.89287-0.26340 0.47176
   3   5   9    5.61    2.02   3 0.40775-0.20553 0.83213-0.48950-0.27683 0.88747
   3   7  10    2.82    2.51   3 0.40417-0.23051 0.83340-0.31698-0.28137 0.94988
   4  -1   0   20.28    2.48   3 0.41253 0.00079 0.83038-0.97811-0.27071 0.26004
   4   0   3  108.06    2.34   3 0.40685-0.01771 0.83245-0.91132-0.27796 0.48158
   4   1   5  309.47    3.14   3 0.41042-0.04114 0.83116-0.83444-0.27342 0.61674
   4   6  10    0.83    3.28   3 0.41574-0.12937 0.82918-0.41681-0.26657 0.93635
   5   0   3  119.76    2.46   3 0.41131 0.07855 0.83084-0.92442-0.27228 0.47030
   5   1   5   53.69    2.07   3 0.41220 0.05781 0.83051-0.84887-0.27114 0.60955
   5   6  10    3.24    2.42   3 0.41131-0.02460 0.83084-0.43372-0.27228 0.93924
   6  -1  -1  273.74    4.22   4 0.41901 0.19905 0.82792-0.99572-0.26235 0.16584
   6   0  -9    0.65    4.18   5 0.42954 0.20549 0.82366-0.84061-0.24855-0.45293
   7   0   2  115.89    3.22   4 0.41627 0.27837 0.82898-0.94331-0.26590 0.37993
   7   1   4   30.80    2.10   3 0.40238 0.27214 0.83402-0.87215-0.28364 0.53914
   7   2   6   27.27    2.98   4 0.41534 0.23866 0.82933-0.79271-0.26710 0.66225
   7   3   7   10.53    2.20   3 0.40238 0.23535 0.83402-0.71400-0.28364 0.74410
   9   1   2    3.81    2.27   3 0.40953 0.47306 0.83149-0.88426-0.27455 0.37020
  -4   5  -6   -1.13    2.05   4 0.42273-0.86543 0.82640-0.27255-0.25734-0.21480
  -4   5  -5   67.04    3.10   5 0.43385-0.88116 0.82177-0.27646-0.24265-0.15438
  -4   5  -1    6.05    2.66   5 0.43650-0.89844 0.82062-0.30501-0.23911 0.13907
  -4   6  -7   19.61    2.45   4 0.42361-0.87461 0.82605-0.17581-0.25619-0.29991
  -4   6   1   25.22    2.27   4 0.42448-0.90604 0.82569-0.23370-0.25504 0.29628
  -4   8   2   16.43    3.31   4 0.43140-0.94115 0.82282-0.05737-0.24591 0.34363
  -4   9   2    0.61    3.59   4 0.43194-0.95542 0.82259 0.03332-0.24520 0.33364
  -3   3  -6   65.08    2.76   5 0.43541-0.75259 0.82109-0.46306-0.24057-0.21868
  -3   4  -8   14.71    2.02   4 0.42972-0.75258 0.82353-0.35939-0.24815-0.36921
  -3   5  -9    0.38    2.24   4 0.42798-0.75920 0.82426-0.26254-0.25045-0.45104
  -3   5   3    1.10    3.19   5 0.44400-0.81923 0.81723-0.34548-0.22899 0.42279
  -2   2   1   36.23    3.00   5 0.43233-0.66225 0.82243-0.62042-0.24468 0.31178
  -2   3  -9   61.16    3.12   5 0.43242-0.63754 0.82239-0.45526-0.24457-0.44363
  -2   4 -10    3.77    3.11   5 0.43282-0.64686 0.82221-0.35728-0.24402-0.52788
   0   0  -7   48.22    2.13   4 0.42009-0.39344 0.82744-0.77568-0.26078-0.26166
   0   1  -9   30.72    2.80   5 0.43547-0.41442 0.82107-0.66430-0.24049-0.44015
   1   0  -8  194.57    3.70   5 0.43611-0.30710 0.82079-0.77542-0.23963-0.36311
   1   1 -10  108.23    3.58   5 0.43534-0.31155 0.82113-0.67077-0.24067-0.52020
   2  -1  -1  215.01    5.39   4 0.42721-0.21084 0.82458-0.93597-0.25146 0.17589
   2   0  -9   44.31    3.08   4 0.43182-0.19710 0.82264-0.78345-0.24536-0.43636
   2   2 -12    0.19    3.43   4 0.42972-0.20996 0.82353-0.58225-0.24815-0.67529
   2   2   6    5.30    1.71   4 0.42273-0.27085 0.82640-0.71783-0.25734 0.67726
   2   5   9   22.34    2.84   5 0.43600-0.33259 0.82083-0.46333-0.23978 0.85609
   2   7  10    3.18    3.36   5 0.43407-0.35936 0.82168-0.29125-0.24237 0.91583
   3  -1   0  347.52    4.50   4 0.42536-0.11258 0.82534-0.95831-0.25390 0.24745
   3   1 -11   -0.89    3.23   5 0.43578-0.10562 0.82093-0.69192-0.24008-0.60528
   3   1   5  619.63    4.17   4 0.42273-0.15390 0.82640-0.81517-0.25734 0.60628
   3   6  10   -0.79    3.19   5 0.43492-0.24859 0.82131-0.39640-0.24123 0.91810
   4   3   8  111.75    3.16   5 0.43373-0.10044 0.82182-0.66666-0.24281 0.79273
   5  -1   0  262.75    3.48   4 0.42097 0.09324 0.82710-0.98850-0.25963 0.24381
   5   3   8    2.79    1.93   4 0.42972 0.00382 0.82353-0.68373-0.24815 0.79248
   5   4   9    9.71    3.07   5 0.43284-0.01607 0.82221-0.59881-0.24400 0.85479
   6   0   3   61.71    2.22   4 0.42536 0.16506 0.82534-0.93249-0.25390 0.44746
   6   1   5   35.32    2.10   4 0.42185 0.14775 0.82675-0.85789-0.25849 0.59291
   6   3   8   56.45    3.14   5 0.43372 0.09964 0.82183-0.69516-0.24282 0.78267
   6   4   9   12.17    3.20   5 0.43435 0.08297 0.82156-0.61098-0.24199 0.84690
   7   0  -8    2.01    5.55   6 0.46353 0.26812 0.80758-0.84763-0.20196-0.43104
   8   0   1    3.59    2.06   4 0.42448 0.37415 0.82569-0.94656-0.25504 0.28916
   8   1   4    1.80    2.95   5 0.43319 0.34213 0.82206-0.87823-0.24354 0.49448
   8   3   7    3.39    2.36   4 0.42273 0.31535 0.82640-0.71964-0.25734 0.71278
   9   0  -4   -1.56    3.69   5 0.43492 0.48237 0.82131-0.91858-0.24123-0.10238
   9   0  -3    2.65    3.44   4 0.42957 0.48499 0.82360-0.92973-0.24835-0.02038
   9   0  -2   10.87    3.46   4 0.43108 0.47888 0.82296-0.93662-0.24634 0.05270
   9   1   3   31.67    3.44   5 0.43501 0.44344 0.82127-0.88100-0.24111 0.41071
   9   2   5    1.88    3.42   4 0.43145 0.42717 0.82280-0.80657-0.24584 0.55547
  -4   5  -4    2.93    1.85   5 0.44264-0.89358 0.81768-0.28006-0.23085-0.09084
  -4   5  -3  136.99    3.26   5 0.44900-0.90228 0.81470-0.28310-0.22217-0.02582
  -4   5  -2   67.96    2.96   5 0.44833-0.90496 0.81502-0.29097-0.22309 0.04974
  -4   6  -6   12.21    2.24   5 0.43921-0.89486 0.81923-0.17561-0.23548-0.24557
  -4   6  -5    0.25    2.91   5 0.45030-0.91178 0.81407-0.17763-0.22039-0.18862
  -4   6   0    4.90    2.76   6 0.45452-0.93212 0.81201-0.21321-0.21457 0.18066
  -4   7  -6    2.22    3.31   6 0.44936-0.91670 0.81452-0.08035-0.22168-0.26740
  -4   7   1   71.04    3.54   6 0.45309-0.94784 0.81272-0.13024-0.21655 0.24857
  -3   3  -5  140.63    3.08   6 0.45030-0.77106 0.81407-0.46308-0.22039-0.16433
  -3   4  -7  127.91    3.28   6 0.45090-0.77708 0.81378-0.35755-0.21956-0.32342
  -3   5  -8   15.17    3.13   6 0.45114-0.78553 0.81366-0.26137-0.21923-0.40800
  -3   6  -9   -0.03    2.51   5 0.44179-0.78545 0.81807-0.16641-0.23201-0.47842
  -2   2  -7    4.65    1.75   5 0.44007-0.63995 0.81885-0.55879-0.23432-0.29487
  -2   5 -10    2.91    3.37   6 0.45199-0.67975 0.81325-0.25952-0.21807-0.56228
  -1   1  -7  295.23    3.22   5 0.44435-0.53205 0.81689-0.65964-0.22853-0.29787
  -1   2  -9   36.63    2.10   5 0.44264-0.53562 0.81768-0.55586-0.23085-0.45394
  -1   3 -10    3.86    2.92   6 0.45030-0.55147 0.81407-0.45450-0.22039-0.54773
  -1   4 -11    1.44    2.37   5 0.44520-0.55515 0.81649-0.35917-0.22737-0.62428
  -1   8   8   23.78    4.32   6 0.45917-0.69104 0.80967-0.13188-0.20809 0.73919
   0   0  -6   36.74    2.55   5 0.44869-0.42641 0.81484-0.76981-0.22260-0.22521
   0   2 -10    6.16    2.87   5 0.45153-0.44053 0.81348-0.56001-0.21870-0.54686
   0   8   9    4.23    3.44   6 0.44889-0.58588 0.81475-0.15678-0.22232 0.82321
   1   1   4    3.83    1.79   5 0.44007-0.36809 0.81885-0.77216-0.23432 0.51829
   1   2 -11    5.04    3.12   6 0.45008-0.33374 0.81418-0.56613-0.22070-0.62231
   1   3 -12   14.02    3.70   6 0.44874-0.34121 0.81482-0.46797-0.22254-0.70357
   1   6   9   -2.33    2.00   5 0.43921-0.44939 0.81923-0.35713-0.23548 0.84822
   2  -1  -5  186.22    4.36   6 0.45716-0.22529 0.81069-0.89262-0.21090-0.16414
   3   0  -9  155.23    4.26   6 0.45380-0.11911 0.81236-0.78845-0.21556-0.47212
   3   3   8   57.79    2.86   5 0.44986-0.21740 0.81429-0.64539-0.22100 0.77635
   4  -1   1  138.25    3.14   6 0.45150-0.04175 0.81349-0.96782-0.21874 0.28127
   4   1 -11    0.83    2.44   5 0.44350-0.01400 0.81728-0.70232-0.22969-0.62077
   4   2   7  107.52    2.40   5 0.44093-0.09125 0.81846-0.74655-0.23317 0.71711
   4   4   9   94.69    2.61   5 0.43835-0.12198 0.81962-0.58118-0.23664 0.85248
   4   5  10    1.56    3.12   6 0.45283-0.15212 0.81284-0.49138-0.21690 0.89884
   5  -1   1   20.55    2.55   6 0.45302 0.05707 0.81275-0.98123-0.21665 0.27532
   5   2   7   22.07    1.94   5 0.43749 0.01142 0.82000-0.76175-0.23779 0.71764
   5   5  10    5.00    2.37   5 0.44435-0.04359 0.81689-0.50903-0.22853 0.90470
   6  -1   0  106.20    2.69   5 0.44350 0.17081 0.81728-0.99324-0.22969 0.20754
   6   2   7    2.72    1.94   5 0.44264 0.10651 0.81768-0.77423-0.23085 0.70522
   6   5  10    6.57    2.52   5 0.44520 0.05527 0.81649-0.52471-0.22737 0.89823
   7  -1  -3    0.79    2.76   5 0.44690 0.27803 0.81569-0.98367-0.22505-0.02412
   7  -1  -2    7.72    2.82   5 0.44925 0.27285 0.81458-0.99005-0.22183 0.04613
   7   0   3    1.71    2.70   5 0.44775 0.24454 0.81529-0.93785-0.22388 0.41134
   7   1   5  142.20    2.79   5 0.43921 0.23144 0.81923-0.86525-0.23548 0.56414
   7   3   8   16.43    2.31   5 0.44435 0.18965 0.81689-0.70368-0.22853 0.76344
   7   4   9    3.98    2.47   5 0.44435 0.17300 0.81689-0.62111-0.22853 0.82940
   8   0   2   -1.85    2.89   6 0.44987 0.34519 0.81428-0.94357-0.22098 0.33076
   8   2   6    7.45    2.28   5 0.43663 0.31754 0.82038-0.79739-0.23895 0.62847
   9   0  -1    0.83    2.26   5 0.43921 0.46804 0.81923-0.94002-0.23548 0.11499
   9   0   0    6.01    3.34   6 0.45154 0.45195 0.81347-0.94131-0.21868 0.17341
  -4   6  -4   19.44    2.16   6 0.46290-0.92609 0.80771-0.17915-0.20290-0.12856
  -4   6  -3   71.47    3.19   7 0.46905-0.93642 0.80443-0.18354-0.19418-0.06309
  -4   6  -1  195.56    3.83   7 0.46763-0.94198 0.80520-0.19874-0.19620 0.08840
  -4   7  -5    4.12    2.28   6 0.46207-0.93422 0.80814-0.08100-0.20407-0.21240
  -4   8  -5    3.79    3.71   7 0.46593-0.94919 0.80611 0.01029-0.19861-0.22562
  -4   8   1   41.69    3.63   7 0.46624-0.97264 0.80595-0.03285-0.19818 0.22177
  -4   9   1    4.54    3.59   6 0.46494-0.98410 0.80664 0.05616-0.20002 0.21363
  -3   3  -4   28.30    1.86   6 0.46124-0.78617 0.80857-0.46475-0.20524-0.10489
  -3   3  -3   70.92    2.77   7 0.46766-0.79586 0.80518-0.46960-0.19617-0.03953
  -3   3  -2  127.13    3.05   7 0.46767-0.79962 0.80518-0.47721-0.19614 0.03522
  -3   3  -1    2.11    1.68   6 0.45873-0.79420 0.80986-0.48873-0.20874 0.12210
  -3   6  -8   10.15    3.28   6 0.46619-0.81325 0.80597-0.16090-0.19825-0.43661
  -2   2  -6   50.22    2.09   6 0.46124-0.66554 0.80857-0.55492-0.20524-0.25047
  -2   3  -8  104.97    2.46   6 0.45873-0.66737 0.80986-0.45091-0.20874-0.40527
  -2   4  -9    2.07    1.99   6 0.46040-0.67909 0.80900-0.35208-0.20641-0.49134
  -1   1  -6   71.52    2.68   7 0.46902-0.56001 0.80445-0.65576-0.19423-0.25750
   0   1  -8  180.63    3.44   7 0.46909-0.45281 0.80441-0.65562-0.19412-0.41218
   0   1   3   19.74    2.03   6 0.46124-0.48563 0.80857-0.74030-0.20524 0.41930
   0   3 -11    6.82    2.30   6 0.45454-0.45217 0.81196-0.45993-0.21458-0.63376
   0   3   6  458.94    4.51   6 0.45622-0.51759 0.81113-0.58345-0.21225 0.63320
   0   4   7  448.45    4.54   6 0.45790-0.53560 0.81028-0.49991-0.20991 0.69680
   1   0   2 2093.20   10.54   6 0.46040-0.36795 0.80900-0.83789-0.20641 0.34976
   1   3   7   26.37    1.96   6 0.46040-0.42443 0.80900-0.60317-0.20641 0.69745
   1   4   8  165.06    3.45   6 0.46605-0.44732 0.80605-0.51759-0.19845 0.75518
   2   0   3   45.52    2.14   6 0.45454-0.26589 0.81196-0.86237-0.21458 0.42837
   2   1 -10    4.59    2.94   6 0.46659-0.24154 0.80576-0.67098-0.19768-0.56625
   2   1   5    5.73    1.79   6 0.45370-0.28608 0.81238-0.78694-0.21575 0.56860
   2   6  10   35.98    3.35   6 0.46662-0.38049 0.80574-0.36541-0.19764 0.88058
   3  -1  -6    0.54    2.62   7 0.46704-0.13025 0.80551-0.89437-0.19704-0.25691
   3   2   7  160.71    2.65   6 0.45622-0.20753 0.81113-0.72390-0.21225 0.70194
   3   4   9    5.22    1.92   6 0.45454-0.23911 0.81196-0.55848-0.21458 0.83515
   4   0  -9   10.96    3.07   7 0.46754-0.03265 0.80524-0.79548-0.19633-0.49601
   4   0   4   15.51    1.76   6 0.45538-0.06987 0.81155-0.89744-0.21341 0.49215
   4   1   6    2.97    1.83   6 0.46207-0.09678 0.80814-0.81882-0.20407 0.62309
   5   0  -9   34.37    3.72   6 0.46493 0.07075 0.80664-0.81075-0.20003-0.49694
   5   0   4    2.81    1.80   6 0.45370 0.03290 0.81238-0.91340-0.21575 0.48868
   5   1   6  376.91    3.51   6 0.45706 0.00893 0.81071-0.83488-0.21108 0.62481
   6  -1   1    9.76    2.58   7 0.46768 0.14313 0.80517-0.98805-0.19614 0.25006
   6   0   4   10.30    1.80   6 0.46124 0.12509 0.80857-0.92263-0.20524 0.47415
   6   1   6   56.52    2.34   6 0.46207 0.10446 0.80814-0.84696-0.20407 0.61211
   7  -1  -4    4.52    2.92   6 0.46355 0.26701 0.80737-0.96878-0.20198-0.12210
   7  -1  -1    7.36    2.01   6 0.45873 0.25969 0.80986-0.99257-0.20874 0.10826
   7   2   7    7.24    2.23   6 0.45454 0.19634 0.81196-0.78203-0.21458 0.68431
   8   1   5   12.77    2.22   6 0.46124 0.30910 0.80857-0.86854-0.20524 0.52873
   8   3   8    6.80    2.57   6 0.46040 0.27359 0.80900-0.70974-0.20641 0.73623
   9   0   1   17.12    3.32   7 0.46704 0.43182 0.80551-0.94070-0.19704 0.22734
   9   1   4    5.31    2.36   6 0.46124 0.41349 0.80857-0.87506-0.20524 0.45019
   9   2   6    3.02    2.46   6 0.46290 0.39173 0.80771-0.79921-0.20290 0.58790
  -4   6  -2    2.68    1.94   7 0.47201-0.94258 0.80281-0.18848-0.19004 0.00738
  -4   7  -4   11.08    2.31   7 0.47283-0.94900 0.80236-0.08414-0.18887-0.15199
  -4   7  -3   12.04    3.09   8 0.48259-0.96079 0.79675-0.08465-0.17470-0.09128
  -4   7  -2   25.28    3.04   8 0.48478-0.96837 0.79544-0.09118-0.17148-0.02085
  -4   7  -1   45.40    3.15   8 0.48338-0.97061 0.79628-0.09996-0.17354 0.05639
  -4   7   0    0.66    2.07   7 0.47446-0.96550 0.80144-0.11168-0.18651 0.14416
  -4   8  -4    0.27    2.40   7 0.47609-0.96475 0.80052 0.00943-0.18416-0.16565
  -4   8  -3   14.32    3.45   8 0.48407-0.97662 0.79587 0.00522-0.17252-0.10293
  -4   8   0    5.24    3.12   8 0.48315-0.98592 0.79641-0.01598-0.17387 0.12283
  -4   9  -1   37.27    3.98   8 0.48484-0.99793 0.79540 0.08123-0.17138 0.03624
  -4   9   0    6.37    3.66   8 0.48170-0.99588 0.79727 0.07301-0.17600 0.11613
  -3   4  -6    2.34    1.80   7 0.47037-0.79948 0.80372-0.35624-0.19239-0.27500
  -3   4   1    8.81    2.55   8 0.48884-0.84496 0.79297-0.39578-0.16547 0.21908
  -3   5  -7    0.87    1.98   7 0.47365-0.81229 0.80190-0.25567-0.18769-0.36300
  -2   2  -5    0.70    1.63   7 0.48015-0.68742 0.79818-0.55295-0.17826-0.20249
  -2   3  -7    2.30    2.56   8 0.48338-0.69589 0.79628-0.44525-0.17354-0.36543
  -2   5  -9    2.34    2.19   7 0.48015-0.71124 0.79818-0.25134-0.17826-0.52820
  -1   2  -8   54.48    2.21   7 0.47365-0.56924 0.80190-0.54784-0.18769-0.42213
  -1   3  -9    3.17    2.72   8 0.48296-0.58700 0.79653-0.44517-0.17415-0.51783
  -1   4 -10   34.03    2.51   7 0.47772-0.59226 0.79959-0.34999-0.18180-0.59464
  -1   4   6    1.29    2.68   7 0.48352-0.65738 0.79620-0.46450-0.17334 0.59031
   0   0  -5  783.33    5.38   7 0.47446-0.45587 0.80144-0.76454-0.18651-0.18638
   0   2   5  489.47    5.12   8 0.48338-0.52790 0.79628-0.65230-0.17354 0.52847
   0   4 -11   -2.54    3.29   8 0.48297-0.49254 0.79652-0.35342-0.17413-0.68220
   0   5   8   21.45    2.92   7 0.48001-0.57416 0.79826-0.40575-0.17848 0.73130
   0   7   9    1.25    3.12   8 0.48338-0.60924 0.79628-0.23035-0.17354 0.78539
   1   0  -7   76.72    2.37   7 0.47528-0.34895 0.80098-0.76369-0.18534-0.34251
   1   1  -9   13.35    1.96   7 0.47691-0.35538 0.80005-0.65714-0.18298-0.50386
   1   2   6   89.85    2.32   7 0.47446-0.42290 0.80144-0.67897-0.18651 0.61128
   1   5   9   17.62    2.90   8 0.48434-0.48176 0.79570-0.42401-0.17213 0.79389
   1   7  10   16.61    3.48   8 0.48515-0.51244 0.79522-0.25051-0.17094 0.84940
   2   0  -8    2.28    1.89   7 0.47772-0.24809 0.79959-0.76896-0.18180-0.42477
   2   2 -11    2.82    2.30   7 0.47609-0.26009 0.80052-0.56677-0.18416-0.66514
   2   3   8  601.63    4.43   7 0.47934-0.34697 0.79865-0.61553-0.17944 0.73945
   2   4   9   70.66    3.13   8 0.48447-0.36892 0.79563-0.52831-0.17194 0.79727
   3  -1   1   12.34    1.87   7 0.47283-0.16432 0.80236-0.94245-0.18887 0.25728
   3   0   4   54.69    2.15   7 0.47201-0.18749 0.80281-0.87453-0.19004 0.47326
   3   1   6    2.22    1.68   7 0.47853-0.21475 0.79912-0.79540-0.18062 0.60428
   3   5  10   23.21    2.28   7 0.47119-0.27230 0.80326-0.46705-0.19122 0.87804
   4   3   9    2.79    2.79   8 0.48579-0.15674 0.79483-0.64729-0.17000 0.79489
   4   6  11   12.41    2.71   7 0.47609-0.19335 0.80052-0.39711-0.18416 0.93185
   5  -1   2   92.11    2.97   8 0.48390 0.02244 0.79597-0.97219-0.17278 0.30524
   5   2   8  137.44    3.26   7 0.48297-0.03736 0.79652-0.74640-0.17415 0.72811
   5   3   9   20.11    2.16   7 0.47772-0.04855 0.79959-0.66607-0.18180 0.80177
   5   4  10    8.14    3.21   7 0.48243-0.06961 0.79684-0.58067-0.17492 0.86123
   6   2   8   12.73    2.86   7 0.48338 0.06207 0.79628-0.75968-0.17354 0.72209
   6   3   9   -0.91    2.21   7 0.47772 0.05190 0.79959-0.67979-0.18180 0.79691
   6   4  10   10.60    2.56   7 0.48015 0.03257 0.79818-0.59602-0.17826 0.85787
   7  -1   0   56.59    2.42   7 0.47283 0.24191 0.80236-0.99213-0.18887 0.16299
   7   0   4    6.79    1.94   7 0.47772 0.20906 0.79959-0.92927-0.18180 0.44515
   7   1   6    8.14    2.02   7 0.47446 0.19148 0.80144-0.85502-0.18651 0.58988
   7   3   9   27.57    3.54   8 0.48395 0.14550 0.79594-0.68974-0.17270 0.78233
   8   0   3    0.80    2.06   7 0.47365 0.31620 0.80190-0.93776-0.18769 0.37225
   8   2   7   10.41    2.36   7 0.47119 0.27805 0.80326-0.78739-0.19122 0.65571
   9   0   2    1.19    3.23   7 0.48338 0.41136 0.79628-0.93764-0.17354 0.27702
  -4   8  -2    4.51    2.33   8 0.48896-0.98507 0.79292 0.00116-0.16522-0.03510
  -4   8  -1    8.65    2.34   8 0.48896-0.98870 0.79292-0.00581-0.16522 0.03863
  -3   4  -5    3.58    1.90   8 0.48736-0.82068 0.79390-0.35214-0.16759-0.22600
  -3   4  -4   23.98    2.75   9 0.50103-0.83841 0.78519-0.35187-0.14705-0.17146
  -3   5  -6   71.99    2.37   8 0.49293-0.83563 0.79044-0.25145-0.15930-0.31773
  -3   6  -7    3.02    2.14   8 0.48736-0.83825 0.79390-0.15700-0.16759-0.39341
  -3   7  -7    5.71    2.42   8 0.49372-0.85843 0.78994-0.06321-0.15811-0.41113
  -3   7   4   15.12    3.11   9 0.49859-0.90427 0.78680-0.14052-0.15076 0.40190
  -2   2  -4  367.95    3.89   8 0.49791-0.70882 0.78725-0.54789-0.15180-0.15434
  -2   4  -8   -1.09    1.86   8 0.48736-0.70867 0.79390-0.34490-0.16759-0.45587
  -2   6  -9    2.32    2.43   8 0.49293-0.73708 0.79044-0.15221-0.15930-0.55483
  -1   1  -5   62.87    2.12   8 0.49293-0.58796 0.79044-0.64829-0.15930-0.21777
  -1   3   5  227.09    4.55   8 0.49880-0.65627 0.78667-0.53809-0.15045 0.50199
  -1   5 -10   -1.20    2.38   8 0.49609-0.62296 0.78843-0.24837-0.15455-0.63175
  -1   5   7   16.14    2.76   9 0.50403-0.69424 0.78319-0.36845-0.14247 0.62534
  -1   7   8    5.77    3.13   9 0.49963-0.71956 0.78612-0.19826-0.14919 0.68902
   0   0  -4 1943.50    9.06   9 0.49968-0.48525 0.78609-0.75609-0.14911-0.14953
   0   2  -9   47.69    2.28   8 0.48896-0.48106 0.79292-0.54561-0.16522-0.52489
   0   3 -10    7.45    2.09   8 0.49134-0.49244 0.79144-0.44633-0.16167-0.61144
   1   2 -10   -1.69    1.99   8 0.49055-0.37813 0.79193-0.55120-0.16285-0.60626
   1   3 -11    8.51    2.33   8 0.48736-0.38546 0.79390-0.45603-0.16759-0.68510
   2  -1   0 1081.98    8.59   8 0.49055-0.27799 0.79193-0.91046-0.16285 0.16105
   2   2   7   98.00    2.36   8 0.48736-0.33940 0.79390-0.69299-0.16759 0.66267
   2   5  10   45.27    3.23   9 0.50155-0.40174 0.78485-0.43426-0.14626 0.83758
   3   1 -10    3.81    2.21   8 0.48896-0.16355 0.79292-0.67135-0.16522-0.60541
   3   2 -11   32.96    3.55   9 0.49769-0.18009 0.78739-0.56777-0.15212-0.70134
   3   6  11   13.11    3.57   8 0.49679-0.31492 0.78797-0.37054-0.15348 0.90618
   4  -1  -6  349.34    7.73   9 0.50529-0.06865 0.78233-0.88509-0.14054-0.31905
   4  -1   2  340.85    3.62   8 0.48736-0.08120 0.79390-0.95542-0.16759 0.30536
   4   0   5   55.61    2.71   8 0.49830-0.11621 0.78699-0.88153-0.15120 0.50445
   4   1 -10   70.09    4.05   9 0.50289-0.07773 0.78395-0.67668-0.14421-0.63187
   4   2   8   16.65    1.97   8 0.48975-0.14432 0.79242-0.72715-0.16404 0.72293
   4   4  10    5.21    2.21   8 0.49055-0.17848 0.79193-0.56015-0.16285 0.85309
   5  -1  -6   35.77    4.92  10 0.51700 0.02007 0.77407-0.89140-0.12229-0.34228
   5   0   5   89.09    2.29   8 0.49134-0.00894 0.79144-0.89944-0.16167 0.50959
   5   1   7  187.47    3.34   8 0.49882-0.03667 0.78665-0.81953-0.15042 0.63891
   6  -1   2   36.43    2.14   8 0.49214 0.11473 0.79094-0.98135-0.16048 0.28778
   6   0   5   93.65    2.42   8 0.49530 0.08734 0.78893-0.91195-0.15574 0.49802
   6   1   7   11.95    2.80   9 0.49922 0.06281 0.78639-0.83256-0.14980 0.63305
   7  -1  -5    1.60    4.23  10 0.51720 0.21569 0.77392-0.92657-0.12196-0.27787
   7  -1   1   36.93    2.28   8 0.48975 0.22171 0.79242-0.98927-0.16404 0.21209
   7   2   8   16.45    2.36   8 0.49134 0.15443 0.79144-0.76954-0.16167 0.70546
   8  -1  -2    4.87    3.02   9 0.49966 0.32267 0.78610-0.97568-0.14914-0.03051
   8  -1  -1    6.74    2.99   9 0.49963 0.31881 0.78612-0.98246-0.14919 0.04222
   8   0   4    4.18    3.00   8 0.49875 0.28806 0.78670-0.93079-0.15053 0.40906
   8   1   6    2.59    2.25   8 0.49134 0.27302 0.79144-0.85872-0.16167 0.56049
   9   1   5    6.05    2.49   8 0.48736 0.38254 0.79390-0.86856-0.16759 0.48632
  -3   4  -3    6.39    2.57   9 0.51326-0.85354 0.77677-0.35029-0.12815-0.11620
  -3   5  -5    1.60    1.89   9 0.51086-0.85691 0.77847-0.24787-0.13191-0.26998
  -3   6  -6    3.14    2.06   9 0.50702-0.86196 0.78115-0.15201-0.13787-0.34849
  -3   7  -6    0.00    3.17  10 0.51467-0.88120 0.77575-0.05628-0.12594-0.36874
  -3   8  -6    9.38    3.57  10 0.51453-0.89456 0.77586 0.03382-0.12617-0.37870
  -3   8   4    1.99    3.65  10 0.52264-0.94128 0.76986-0.03382-0.11330 0.35587
  -3   9   4   -0.97    4.08  10 0.52072-0.95178 0.77131 0.05463-0.11637 0.35051
  -2   2  -3  483.01    4.04   9 0.51009-0.72541 0.77901-0.54713-0.13310-0.09826
  -2   2  -1   93.26    3.14  10 0.51730-0.73978 0.77384-0.55761-0.12179 0.03953
  -2   3  -6    1.06    1.75   9 0.50702-0.72287 0.78115-0.43640-0.13787-0.32784
  -2   4  -7   25.23    2.67  10 0.51358-0.73764 0.77654-0.33510-0.12765-0.42019
  -2   5  -8    8.73    2.05   9 0.50702-0.74124 0.78115-0.24195-0.13787-0.49345
  -2   6   6   77.96    6.82  11 0.53783-0.83741 0.75782-0.23153-0.08854 0.49386
  -1   1  -4    1.21    2.53   9 0.51467-0.61331 0.77575-0.64102-0.12594-0.17651
  -1   2  -7    5.32    1.74   9 0.50237-0.60166 0.78430-0.53791-0.14501-0.39037
  -1   3  -8    9.43    2.61   9 0.51320-0.62109 0.77681-0.43183-0.12825-0.49008
  -1   4  -9   -1.16    2.06   9 0.50856-0.62633 0.78008-0.33778-0.13549-0.56731
   0   1  -7  694.91    4.76   9 0.50392-0.49032 0.78326-0.64127-0.14263-0.38889
   0   4 -10    5.69    3.04  10 0.51695-0.53083 0.77410-0.33960-0.12235-0.65977
   0   6   9    1.65    2.97  10 0.51573-0.62660 0.77499-0.29857-0.12427 0.74277
   1   0  -6   12.13    2.42  10 0.51467-0.39229 0.77575-0.74602-0.12594-0.32667
   1   1  -8  116.43    3.24  10 0.51657-0.39959 0.77438-0.63948-0.12295-0.48844
   1   1   5  426.03    3.94   9 0.51086-0.44210 0.77847-0.73974-0.13191 0.49051
   1   4 -11    6.44    3.38  10 0.51467-0.42377 0.77575-0.34787-0.12594-0.73540
   1   6  10   32.57    3.38  10 0.51509-0.52894 0.77545-0.32119-0.12528 0.81267
   2  -1  -4 1441.90   12.32   9 0.51127-0.28336 0.77818-0.86697-0.13127-0.16833
   2   0   4   49.59    2.17   9 0.50856-0.32366 0.78008-0.83784-0.13549 0.42328
   2   1  -9  153.75    3.72   9 0.51343-0.29109 0.77664-0.64733-0.12788-0.56299
   2   1   6 1025.34    5.34   9 0.51086-0.34578 0.77847-0.76148-0.13191 0.56028
   2   3 -11    9.82    3.28  10 0.51533-0.31185 0.77528-0.45090-0.12491-0.73284
   3  -1   2    1.51    1.72   9 0.51086-0.20472 0.77847-0.92643-0.13191 0.27536
   3   0  -8  276.53    4.65   9 0.51181-0.18031 0.77780-0.76080-0.13041-0.48179
   3   0   5   20.20    2.50  10 0.51579-0.23346 0.77494-0.85452-0.12417 0.48135
   3   2   8   87.22    2.31   9 0.50779-0.26242 0.78062-0.70140-0.13668 0.70077
   3   3   9   15.30    2.02   9 0.50314-0.27510 0.78378-0.62051-0.14382 0.77352
   3   4  10   -0.01    2.01   9 0.51086-0.29854 0.77847-0.53370-0.13191 0.82857
   4   1   7    0.12    1.81   9 0.50624-0.14515 0.78168-0.79973-0.13906 0.63289
   4   2 -11   10.34    2.65   9 0.51009-0.09341 0.77901-0.57338-0.13310-0.72624
   4   5  11    8.42    2.50   9 0.50470-0.20927 0.78273-0.46742-0.14144 0.89752
   5  -1   3  181.59    3.35   9 0.51322-0.01068 0.77679-0.96113-0.12821 0.33591
   5   1 -10    3.29    2.49   9 0.50702 0.01916 0.78115-0.68815-0.13787-0.64296
   6  -1   3   39.70    2.82  10 0.51642 0.08625 0.77449-0.97231-0.12319 0.32575
   7  -1   2  105.05    2.70   9 0.50932 0.19784 0.77955-0.98462-0.13429 0.25686
   7   0   5   91.44    2.58   9 0.50624 0.17678 0.78168-0.91866-0.13906 0.47725
   7   1   7   21.04    2.27   9 0.50702 0.15617 0.78115-0.84199-0.13787 0.61526
   8  -1  -3   11.24    3.38   9 0.51055 0.31634 0.77869-0.96116-0.13239-0.12288
   8  -1   0    2.03    2.00   9 0.50702 0.30822 0.78115-0.98517-0.13787 0.10692
   8  -1   1    2.56    2.86   9 0.51596 0.29507 0.77482-0.98425-0.12390 0.16751
   8   2   8    5.97    2.53   9 0.50392 0.24244 0.78326-0.77497-0.14263 0.68120
   9   0   3    1.57    2.39   9 0.50314 0.38740 0.78378-0.93399-0.14382 0.32141
  -3   4  -2   21.44    1.96  10 0.52001-0.86453 0.77197-0.35298-0.11769-0.05213
  -3   4  -1   37.06    2.11  10 0.52151-0.86971 0.77085-0.35956-0.11530 0.02007
  -3   5  -4  122.99    2.48  10 0.52673-0.87725 0.76686-0.24166-0.10691-0.22017
  -3   5   2    5.65    2.50  10 0.52534-0.89686 0.76794-0.28835-0.10916 0.22964
  -3   6  -5   -0.78    1.89  10 0.52525-0.88368 0.76801-0.14622-0.10931-0.30266
  -3   6   3   38.92    3.06  11 0.53082-0.92021 0.76365-0.20058-0.10027 0.28485
  -3   7  -5    5.57    2.98  11 0.53190-0.90281 0.76279-0.05183-0.09852-0.32194
  -3   8  -5   -2.13    3.41  11 0.53079-0.91669 0.76367 0.03906-0.10032-0.32994
  -2   2  -2   10.43    1.97  10 0.51851-0.73687 0.77309-0.54902-0.12009-0.03752
  -2   3  -5   25.74    2.58  10 0.52891-0.74874 0.76517-0.42835-0.10339-0.28630
  -2   5  -7   33.63    2.89  11 0.53161-0.76953 0.76303-0.23201-0.09899-0.45809
  -2   6  -8    2.37    2.16  10 0.51851-0.76565 0.77309-0.14418-0.12009-0.52020
  -2   7  -8    0.91    2.37  10 0.52376-0.78394 0.76915-0.04843-0.11171-0.53838
  -1   2  -6  131.58    3.01  11 0.53021-0.63349 0.76413-0.52520-0.10127-0.35953
  -1   5  -9   15.01    2.26  10 0.52673-0.65758 0.76686-0.23397-0.10691-0.60358
   0   0  -3  535.89    5.43  10 0.52301-0.51246 0.76972-0.74734-0.11290-0.11053
   0   2  -8  107.65    2.46  10 0.52450-0.51968 0.76858-0.52822-0.11051-0.50464
   0   3  -9   33.11    2.23  10 0.52599-0.53091 0.76744-0.42942-0.10811-0.59072
   1   0   3  114.78    2.82  10 0.52673-0.43824 0.76686-0.80328-0.10691 0.32390
   1   2  -9    2.01    2.63  10 0.52895-0.42059 0.76513-0.53238-0.10332-0.59215
   1   3 -10    8.53    2.18  10 0.52673-0.42764 0.76686-0.43562-0.10691-0.67161
   1   3   8    5.61    2.64  10 0.52673-0.49507 0.76686-0.56999-0.10691 0.67068
   1   4   9   31.72    2.90  11 0.53169-0.51632 0.76296-0.48137-0.09886 0.72948
   2  -1   1  137.48    3.54  11 0.52969-0.32148 0.76455-0.89015-0.10212 0.17490
   2   0  -7   18.85    2.69  10 0.52680-0.29913 0.76681-0.74336-0.10680-0.42577
   2   2 -10   11.96    2.17  10 0.52076-0.30767 0.77141-0.54603-0.11650-0.65741
   2   6  11    2.22    3.39  10 0.52969-0.44705 0.76455-0.33273-0.10212 0.85996
   3   1   7  164.95    2.63  10 0.52450-0.26311 0.76858-0.77285-0.11051 0.60842
   3   5  11    1.88    2.35  10 0.52599-0.33149 0.76744-0.43940-0.10811 0.86923
   4  -1   3    9.87    1.83  10 0.52001-0.11737 0.77197-0.94162-0.11769 0.33005
   4   0  -8   90.06    3.57  11 0.53268-0.10177 0.76216-0.76002-0.09723-0.52122
   4   3  10    1.94    3.03  10 0.52969-0.20468 0.76455-0.62257-0.10212 0.80031
   5   0   6    4.01    1.80  10 0.52525-0.04708 0.76801-0.88306-0.10931 0.53151
   5   2   9   -1.08    2.09  10 0.52301-0.08093 0.76972-0.72571-0.11290 0.74174
   5   3  10   21.05    2.47  10 0.52076-0.09575 0.77141-0.64553-0.11650 0.81095
   5   4  11    2.21    2.42  10 0.52599-0.11796 0.76744-0.55769-0.10811 0.86834
   6   0  -8    1.08    3.89  11 0.53530 0.09556 0.76004-0.78617-0.09292-0.53466
   6   0   6    2.80    2.01  10 0.52599 0.05271 0.76744-0.89722-0.10811 0.52574
   6   2   9    1.96    2.16  10 0.52151 0.02086 0.77085-0.74185-0.11530 0.73939
   6   3  10    4.91    2.43  10 0.51775 0.00755 0.77364-0.66151-0.12128 0.81073
   7  -1   3  116.05    3.36  10 0.52929 0.17379 0.76486-0.97760-0.10277 0.30030
   7   2   9    5.82    2.38  10 0.52525 0.11713 0.76801-0.75274-0.10931 0.72734
   8  -1  -4    5.52    4.05  11 0.54110 0.28923 0.75522-0.93007-0.08328-0.24718
   8  -1   2   12.72    3.03  11 0.53049 0.27612 0.76391-0.98170-0.10081 0.21771
   8   0   5    1.07    2.25  10 0.52226 0.26001 0.77028-0.92115-0.11410 0.44646
   8   1   7    7.64    2.38  10 0.52076 0.24246 0.77141-0.84661-0.11650 0.58957
   9   0   4   15.14    2.55  10 0.52301 0.36310 0.76972-0.92736-0.11290 0.36613
  -3   5  -3   99.77    2.39  11 0.54062-0.89386 0.75570-0.23830-0.08408-0.16902
  -3   6  -4    0.16    1.88  11 0.54134-0.90406 0.75510-0.14012-0.08288-0.25369
  -2   4  -6    6.36    1.83  11 0.53701-0.76686 0.75872-0.32192-0.09009-0.38341
  -2   6  -7   22.62    2.96  12 0.54372-0.79295 0.75306-0.13082-0.07887-0.48731
  -1   1  -3  557.79    4.71  11 0.53410-0.63579 0.76110-0.63467-0.09490-0.13262
  -1   3  -7   40.45    2.03  11 0.54134-0.65425 0.75510-0.41716-0.08288-0.46173
  -1   4  -8   16.81    2.07  11 0.53845-0.65993 0.75752-0.32278-0.08769-0.53988
  -1   6  -9    8.44    2.38  11 0.53701-0.68013 0.75872-0.13438-0.09009-0.63083
  -1   6   8   84.57    3.85  12 0.54722-0.75315 0.75002-0.25301-0.07294 0.62170
   0   0  -2   16.49    3.19  12 0.54582-0.53833 0.75125-0.73642-0.07533-0.07441
   0   1  -6   93.95    2.30  11 0.53773-0.52783 0.75812-0.62337-0.08889-0.36782
   0   1   4  102.21    3.34  12 0.54635-0.57427 0.75078-0.68978-0.07442 0.36320
   0   3   7  315.28    3.86  11 0.53773-0.60283 0.75812-0.53842-0.08889 0.58425
   0   4   8  272.09    3.80  11 0.53990-0.62107 0.75631-0.45455-0.08528 0.64670
   0   5 -10    3.34    2.33  11 0.53410-0.56160 0.76110-0.23468-0.09490-0.69631
   0   6 -10   16.26    3.67  12 0.54420-0.58390 0.75265-0.13741-0.07806-0.72194
   1   2   7   -0.52    1.75  11 0.53628-0.48854 0.75932-0.64377-0.09129 0.59126
   2   2   8    2.78    1.83  11 0.53918-0.39576 0.75692-0.66411-0.08649 0.65475
   2   3   9   98.09    2.58  11 0.53483-0.40761 0.76051-0.58413-0.09370 0.72876
   2   4 -11    0.82    2.44  11 0.54062-0.35047 0.75570-0.34111-0.08408-0.78329
   2   4  10   20.76    3.03  11 0.54192-0.43058 0.75460-0.49622-0.08189 0.78282
   3  -1  -5    1.97    2.54  11 0.54298-0.21013 0.75370-0.84983-0.08012-0.29913
   3  -1   3 1664.43    7.24  11 0.54338-0.24228 0.75336-0.90880-0.07945 0.29706
   3   1  -9   57.17    3.33  11 0.54174-0.21911 0.75475-0.63976-0.08220-0.61331
   3   2 -10    1.89    3.06  12 0.54491-0.23199 0.75203-0.53962-0.07686-0.70287
   3   3 -11   68.87    3.26  11 0.53628-0.23324 0.75932-0.44895-0.09129-0.77179
   4   0   6   83.91    2.29  11 0.53410-0.15671 0.76110-0.86165-0.09490 0.52313
   4   1   8  104.89    3.01  12 0.54465-0.18703 0.75226-0.77777-0.07731 0.64508
   4   2   9   17.91    2.10  11 0.53337-0.19293 0.76169-0.70432-0.09610 0.72998
   4   4  11   -1.34    2.34  11 0.53773-0.22955 0.75812-0.53516-0.08889 0.85407
   5  -1   4    0.67    1.90  11 0.53918-0.04024 0.75692-0.94798-0.08649 0.36878
   5   0  -8    2.39    2.91  11 0.54427-0.01295 0.75259-0.76366-0.07795-0.54581
   5   1   8   18.94    2.01  11 0.53483-0.07663 0.76051-0.79971-0.09370 0.65673
   6  -1   4   34.16    2.06  11 0.53990 0.05918 0.75631-0.96144-0.08528 0.36236
   6   1   8    9.13    2.07  11 0.53337 0.02463 0.76169-0.81519-0.09610 0.65465
   7   0   6   -0.03    2.03  11 0.53337 0.14513 0.76169-0.90571-0.09610 0.50921
   7   1   8    5.61    2.34  11 0.53773 0.12066 0.75812-0.82551-0.08889 0.64195
   8  -1   3    3.19    3.07  11 0.54499 0.25836 0.75196-0.97608-0.07672 0.26782
   8   0   6   -2.75    3.23  12 0.54491 0.23411 0.75203-0.90872-0.07686 0.48380
   9  -1  -1   25.90    3.63  11 0.54382 0.37505 0.75298-0.96384-0.07871-0.03269
   9  -1   0    2.34    3.28  11 0.54380 0.37109 0.75299-0.97093-0.07873 0.04213
   9   0   5    4.84    3.54  11 0.54312 0.34020 0.75358-0.91869-0.07988 0.40785
  -3   5  -2  197.59    2.98  12 0.55061-0.90760 0.74701-0.23790-0.06739-0.11140
  -3   5  -1    4.31    2.62  12 0.55754-0.91805 0.74066-0.23886-0.05539-0.04858
  -3   5   1  115.89    2.80  12 0.54991-0.91849 0.74764-0.26082-0.06859 0.11317
  -3   6  -3  167.57    2.92  12 0.55480-0.92199 0.74320-0.13569-0.06015-0.20126
  -3   7  -4   13.34    2.15  12 0.54779-0.92250 0.74952-0.04587-0.07221-0.27421
  -3   7   3   28.54    3.06  13 0.56106-0.96287 0.73732-0.08373-0.04920 0.22494
  -3   8  -4    4.36    2.22  12 0.54779-0.93513 0.74952 0.04463-0.07221-0.28383
  -3   9  -3    3.68    2.44  12 0.55480-0.95988 0.74320 0.13508-0.06015-0.22977
  -3   9   3    8.32    3.42  13 0.55962-0.98695 0.73870 0.09538-0.05174 0.20838
  -2   3  -4    1.15    1.66  12 0.54850-0.77268 0.74889-0.41938-0.07100-0.24435
  -2   4  -5   95.99    2.93  13 0.55878-0.79146 0.73949-0.31304-0.05322-0.34589
  -2   5  -6   -0.10    1.81  12 0.55550-0.79682 0.74256-0.21842-0.05895-0.42342
  -2   7  -7    2.04    2.28  12 0.54779-0.81110 0.74952-0.03670-0.07221-0.50311
  -2   8  -7    5.66    2.54  12 0.54708-0.82440 0.75014 0.05301-0.07341-0.50976
  -1   2  -5   15.20    2.45  12 0.55790-0.66457 0.74032-0.50828-0.05476-0.33184
  -1   5  -8   11.88    1.97  12 0.55550-0.68975 0.74256-0.21665-0.05895-0.57721
   0   2  -7   31.52    2.77  13 0.55796-0.55664 0.74027-0.50798-0.05466-0.48626
   0   2   6   37.01    2.57  12 0.55739-0.60624 0.74080-0.60465-0.05564 0.48509
   0   3  -8   80.03    2.98  13 0.55931-0.56730 0.73899-0.40942-0.05228-0.57197
   0   4  -9    3.20    2.02  12 0.55061-0.56656 0.74701-0.31939-0.06739-0.64136
   0   5   9   20.18    3.00  12 0.55826-0.65643 0.73998-0.35492-0.05412 0.68126
   0   7  10    3.32    3.32  12 0.56000-0.68512 0.73834-0.17919-0.05107 0.73278
   1   0  -5 1208.80    7.40  12 0.55757-0.43859 0.74063-0.71777-0.05533-0.32280
   1   1  -7   60.85    2.85  13 0.55795-0.44345 0.74027-0.61239-0.05466-0.48187
   1   4 -10   11.85    2.23  12 0.55131-0.46416 0.74638-0.32597-0.06618-0.72096
   1   5  10    9.56    2.16  12 0.54991-0.55085 0.74764-0.38361-0.06859 0.76529
   2  -1   2    6.60    2.52  13 0.55921-0.35275 0.73908-0.87284-0.05245 0.19964
   2   0   5  712.66    4.61  12 0.55131-0.37022 0.74638-0.81157-0.06618 0.42848
   2   1  -8  225.67    3.87  13 0.55826-0.33966 0.73998-0.61888-0.05412-0.56220
   2   1   7   17.81    2.58  12 0.55670-0.39611 0.74144-0.73197-0.05686 0.55998
   2   3 -10   10.56    3.07  12 0.55685-0.35685 0.74130-0.42358-0.05659-0.72697
   2   5  11    3.74    3.14  13 0.55826-0.46423 0.73998-0.39802-0.05412 0.82020
   3   0   6   38.57    1.98  12 0.55411-0.27654 0.74384-0.83133-0.06136 0.49345
   3   2   9  264.12    3.34  12 0.55201-0.31111 0.74575-0.67390-0.06498 0.70351
   3   3  10  137.40    2.94  12 0.55061-0.32620 0.74701-0.59246-0.06739 0.77186
   3   4  11    0.62    3.15  12 0.55757-0.34899 0.74063-0.50345-0.05533 0.82487
   4  -1   4   46.13    2.00  12 0.54850-0.15051 0.74889-0.92551-0.07100 0.35878
   4   1  -9   -0.75    2.97  13 0.55964-0.13760 0.73868-0.63932-0.05171-0.65005
   5   0   7  166.03    3.40  12 0.55698-0.08310 0.74118-0.86430-0.05637 0.55419
   5   2  10   21.32    3.15  13 0.55937-0.12216 0.73894-0.70200-0.05218 0.75553
   5   3  11    5.57    3.32  12 0.55857-0.13745 0.73969-0.62005-0.05358 0.82187
   6   0   7   49.62    2.39  12 0.55411 0.02089 0.74384-0.88046-0.06136 0.55325
   6   2  10    3.70    2.43  12 0.55550-0.01785 0.74256-0.72095-0.05895 0.75686
   7  -1   4    4.22    2.00  12 0.54850 0.15014 0.74889-0.96838-0.07100 0.34245
   7   0   7    5.01    3.07  12 0.55849 0.11681 0.73977-0.88974-0.05373 0.54192
   8   1   8   -0.59    2.49  12 0.54779 0.21080 0.74952-0.83154-0.07221 0.61983
   9  -1  -2   -0.47    2.43  12 0.55061 0.37225 0.74701-0.95020-0.06739-0.11856
   9  -1   1    2.64    2.38  12 0.54920 0.36071 0.74826-0.97393-0.06980 0.10849
   9  -1   2   13.45    3.46  13 0.55826 0.34930 0.73998-0.97312-0.05412 0.16739
  -3   6  -2   88.19    2.49  13 0.56707-0.93651 0.73160-0.13176-0.03844-0.14970
  -3   6   2    7.52    2.58  13 0.56759-0.95200 0.73107-0.16104-0.03750 0.14805
  -3   7  -3   24.81    2.26  13 0.56165-0.93997 0.73690-0.04036-0.04810-0.22426
  -3   7  -2   31.56    2.94  14 0.57342-0.95558 0.72516-0.03572-0.02694-0.17011
  -3   8  -3   17.42    2.26  13 0.56165-0.95241 0.73690 0.04942-0.04810-0.23255
  -3   8  -2   45.93    3.31  14 0.57229-0.96773 0.72632 0.05317-0.02899-0.17735
  -3   8   3    1.21    2.95  14 0.56996-0.98259 0.72869 0.01557-0.03322 0.20052
  -3   9  -2    3.83    2.48  13 0.56572-0.97431 0.73293 0.13778-0.04086-0.17391
  -3   9  -1    3.09    3.30  14 0.57329-0.98650 0.72528 0.13883-0.02716-0.11217
  -3   9   2    1.12    3.26  13 0.57175-0.99773 0.72688 0.11540-0.02999 0.11547
  -2   3  -3   36.00    1.97  13 0.56707-0.79434 0.73160-0.40988-0.03844-0.20241
  -2   6  -6   38.25    2.26  13 0.56572-0.81969 0.73293-0.11871-0.04086-0.45066
  -2   7  -6   28.38    3.13  14 0.57075-0.83619 0.72789-0.02291-0.03180-0.46793
  -2   8  -6    2.83    2.34  13 0.56841-0.84861 0.73026 0.06582-0.03603-0.47331
  -1   2   4  202.67    4.79  13 0.57094-0.71244 0.72770-0.56219-0.03145 0.31685
  -1   3  -6    9.41    2.56  14 0.57076-0.68589 0.72788-0.39779-0.03178-0.43680
  -1   4  -7  121.82    2.47  13 0.56639-0.69132 0.73227-0.30525-0.03965-0.51396
  -1   6  -8    3.55    2.08  13 0.56437-0.71168 0.73426-0.11847-0.04327-0.60203
  -1   7  -8    5.16    2.39  13 0.56774-0.72728 0.73093-0.02532-0.03723-0.61830
   0   1  -5    3.23    2.35  13 0.57133-0.56555 0.72731-0.60057-0.03075-0.35010
   0   5  -9    4.62    2.13  13 0.56639-0.59580 0.73227-0.21340-0.03965-0.67691
   1   0   4  192.34    3.63  13 0.57141-0.48702 0.72722-0.77067-0.03059 0.32353
   1   1   6   45.23    2.05  13 0.56165-0.49773 0.73690-0.70383-0.04810 0.48175
   1   2  -8   15.30    1.91  13 0.56841-0.46334 0.73026-0.50435-0.03603-0.58380
   1   3  -9   28.33    2.13  13 0.56437-0.46712 0.73426-0.41130-0.04327-0.66050
   1   5 -10   25.75    2.52  13 0.56707-0.49252 0.73160-0.22027-0.03844-0.75730
   2   2  -9   16.24    2.15  13 0.56369-0.35364 0.73492-0.51637-0.04448-0.65553
   3  -1   4   43.46    2.57  13 0.57097-0.27383 0.72766-0.89030-0.03139 0.32389
   3   0  -7    0.55    2.71  14 0.57175-0.24601 0.72688-0.71628-0.02999-0.50525
   3   1   8    8.13    1.99  13 0.56369-0.30654 0.73492-0.74585-0.04448 0.61756
   4  -1   5   61.53    2.85  14 0.57337-0.17918 0.72520-0.90810-0.02702 0.38906
   4   0   7   -0.28    1.87  13 0.56639-0.19199 0.73227-0.84071-0.03965 0.54181
   4   2 -10   18.72    2.62  13 0.56233-0.14838 0.73624-0.53911-0.04689-0.73725
   4   2  10    4.65    2.93  13 0.57089-0.23373 0.72776-0.67784-0.03155 0.73978
   4   3  11    6.61    3.33  13 0.57132-0.25097 0.72732-0.59461-0.03077 0.80518
   5  -2  -1   20.89    2.75  14 0.57281-0.04212 0.72578-0.96996-0.02805-0.05380
   5  -2   0  281.06    4.25  14 0.57143-0.04478 0.72720-0.97897-0.03055 0.02325
   5  -1   5   30.09    2.09  13 0.56369-0.06951 0.73492-0.93268-0.04448 0.40137
   5   1  -9    2.14    3.18  13 0.57175-0.04948 0.72688-0.64084-0.02999-0.67661
   5   1   9   31.39    2.31  13 0.56774-0.11357 0.73093-0.77749-0.03723 0.67452
   5   2 -10    3.46    3.44  14 0.57241-0.05824 0.72620-0.54267-0.02878-0.76041
   6  -2  -1  210.98    4.34  14 0.57380 0.05706 0.72476-0.98285-0.02624-0.06119
   6  -2   0  221.44    4.08  14 0.57215 0.05487 0.72646-0.99244-0.02925 0.01693
   6  -1   5   30.45    2.17  13 0.56233 0.03235 0.73624-0.94812-0.04689 0.39920
   6   1  -9    6.69    3.50  14 0.57175 0.05106 0.72688-0.65540-0.02999-0.68128
   6   1   9    5.12    2.20  13 0.56437-0.01098 0.73426-0.79578-0.04327 0.67525
   7  -1   5    6.31    2.05  13 0.56841 0.12680 0.73026-0.95705-0.03603 0.38287
   7   1   9    3.51    2.40  13 0.56639 0.08876 0.73227-0.80688-0.03965 0.66739
   8  -1   4    3.13    2.28  13 0.56301 0.23634 0.73558-0.96931-0.04569 0.31194
   8   0   7   12.47    2.48  13 0.56841 0.20557 0.73026-0.89552-0.03603 0.51792
   9  -1  -3    1.56    3.58  14 0.57128 0.35478 0.72735-0.92397-0.03083-0.22956
   9  -1   3    7.98    3.47  13 0.56974 0.33358 0.72892-0.97006-0.03362 0.22163
  -3   6  -1  469.91    4.20  14 0.57583-0.94873 0.72272-0.13027-0.02285-0.09107
  -3   6   1   10.83    1.99  14 0.57844-0.95937 0.71995-0.14278-0.01801 0.05365
  -3   7  -1   12.28    2.80  14 0.58349-0.96848 0.71446-0.03129-0.00857-0.11332
  -3   7   1    6.11    2.82  15 0.58856-0.98242 0.70877-0.04116 0.00107 0.02674
  -3   7   2   15.67    2.90  14 0.58340-0.98025 0.71457-0.05343-0.00875 0.11057
  -3   8  -1    2.97    2.08  14 0.58104-0.98062 0.71715 0.05520-0.01318-0.11654
  -3   8   0    2.73    2.97  15 0.58655-0.98972 0.71105 0.05448-0.00277-0.05355
  -3   8   1   11.32    3.14  15 0.58779-0.99477 0.70965 0.04843-0.00041 0.01861
  -3   8   2    2.82    2.99  14 0.58380-0.99374 0.71412 0.03685-0.00798 0.10152
  -3   9   0    8.90    2.40  14 0.57974-0.99472 0.71855 0.13686-0.01560-0.05059
  -3   9   1    5.09    2.34  14 0.58039-0.99955 0.71785 0.13124-0.01439 0.02405
  -2   3  -2  116.62    2.94  14 0.58388-0.81469 0.71404-0.39951-0.00784-0.15808
  -2   4  -4   27.95    1.90  14 0.57974-0.81644 0.71855-0.29884-0.01560-0.30866
  -2   5  -5   -3.48    1.80  14 0.57714-0.82271 0.72134-0.20421-0.02043-0.38729
  -2   6  -5   11.48    2.79  15 0.58595-0.84558 0.71173-0.10424-0.00392-0.41281
  -2   9  -5    6.28    2.48  14 0.58233-0.87801 0.71574 0.16279-0.01076-0.43292
  -1   2  -4  718.07    5.09  15 0.58489-0.69539 0.71291-0.48805-0.00592-0.30528
  -1   4   7    1.38    2.60  14 0.58489-0.76303 0.71291-0.38864-0.00592 0.49791
  -1   5  -7    8.31    1.91  14 0.58233-0.72069 0.71574-0.19724-0.01076-0.55035
   0   4  -8    7.30    1.92  14 0.58233-0.60340 0.71574-0.29612-0.01076-0.62115
   0   6  -9   14.98    2.36  14 0.57517-0.61712 0.72341-0.11496-0.02406-0.70109
   0   6  10    5.56    3.20  15 0.58799-0.70171 0.70941-0.24127-0.00002 0.69241
   0   7  -9    6.02    2.59  14 0.57844-0.63314 0.71995-0.02149-0.01801-0.71606
   1   2   8   74.52    2.99  14 0.58454-0.54091 0.71330-0.60562-0.00659 0.58074
   1   3   9  101.08    2.63  14 0.57974-0.55241 0.71855-0.52815-0.01560 0.65562
   1   4  -9   21.99    2.98  15 0.58600-0.50237 0.71167-0.29850-0.00382-0.70876
   1   4  10    9.00    2.91  15 0.58579-0.57547 0.71191-0.43766-0.00422 0.70901
   1   6 -10   -0.82    2.55  14 0.57583-0.51383 0.72272-0.12078-0.02285-0.78223
   1   6  11   16.73    2.59  14 0.57779-0.59633 0.72064-0.27375-0.01922 0.78093
   2  -1   3   -0.90    2.67  15 0.58489-0.38389 0.71291-0.85324-0.00592 0.22894
   2   0  -6  222.48    3.47  14 0.57649-0.35294 0.72203-0.70650-0.02164-0.43639
   2   0   6  189.69    3.26  15 0.58573-0.40805 0.71197-0.78436-0.00432 0.44172
   2   2   9   74.85    2.37  14 0.58168-0.44130 0.71645-0.63053-0.01197 0.65537
   2   3  10    6.61    2.10  14 0.58039-0.45639 0.71785-0.54899-0.01439 0.72387
   2   4 -10    8.01    2.29  14 0.57909-0.39241 0.71925-0.31328-0.01680-0.77507
   3   0   7    0.50    2.54  14 0.58489-0.30979 0.71291-0.80719-0.00592 0.51168
   3   3 -10    3.60    2.25  14 0.57974-0.27842 0.71855-0.41731-0.01560-0.77280
   4  -2   0  225.58    3.88  15 0.58641-0.15999 0.71121-0.94804-0.00304-0.00065
   4   1   9   62.70    2.36  14 0.57844-0.22517 0.71995-0.75205-0.01801 0.66023
   5  -2  -2   37.90    3.05  15 0.58888-0.05450 0.70840-0.94480 0.00169-0.15928
   5  -2   1  144.74    2.84  14 0.57714-0.05440 0.72134-0.98061-0.02043 0.08793
   5  -2   2   25.63    2.78  15 0.58588-0.06718 0.71180-0.97764-0.00404 0.14594
   5  -1   6  103.75    3.17  15 0.58639-0.09500 0.71123-0.91603-0.00308 0.43420
   5   0   8   21.28    2.86  14 0.58454-0.11376 0.71331-0.84315-0.00660 0.57902
   6  -2  -2   68.99    3.59  15 0.58828 0.04649 0.70909-0.95971 0.00052-0.16350
   6  -2   1    1.23    1.88  14 0.57583 0.04550 0.72272-0.99520-0.02285 0.08539
   6  -2   2    0.74    2.66  15 0.58489 0.03392 0.71291-0.99352-0.00592 0.14244
   6  -1   6   17.35    2.82  14 0.58449 0.00710 0.71335-0.93379-0.00668 0.43322
   6   0   8  129.12    2.96  14 0.58039-0.00927 0.71785-0.86138-0.01439 0.58090
   7  -2  -1   16.74    2.98  15 0.58814 0.14327 0.70924-0.98160 0.00027-0.09274
   7  -2   0    4.11    2.84  14 0.58456 0.14236 0.71328-0.99402-0.00655-0.01022
   7  -2   1   44.73    3.15  15 0.58536 0.13824 0.71239-0.99928-0.00504 0.06143
   7   0   8   30.32    3.42  14 0.58343 0.08715 0.71453-0.87371-0.00868 0.57048
   8  -1   5    0.92    2.27  14 0.57909 0.21590 0.71925-0.95961-0.01680 0.35700
   9  -1   4    2.21    2.43  14 0.58168 0.31906 0.71645-0.96394-0.01197 0.27323
  -2   3  -1    2.12    2.46  16 0.59720-0.83036 0.69850-0.39451 0.01772-0.10832
  -2   3   2  262.56    5.63  15 0.59539-0.84151 0.70067-0.41572 0.01417 0.11808
  -2   4  -3  117.47    2.93  16 0.59897-0.83940 0.69633-0.28416 0.02124-0.27110
  -2   5  -4   12.64    2.62  16 0.59786-0.84643 0.69769-0.18830 0.01903-0.35235
  -2   7  -5   28.79    2.24  15 0.59002-0.86101 0.70699-0.00907 0.00372-0.42931
  -2   8  -5   16.86    2.31  15 0.58813-0.87221 0.70916 0.07868 0.00009-0.43403
  -2   9  -4    7.92    3.42  16 0.59902-0.89939 0.69627 0.17459 0.02134-0.39043
  -1   3  -5   51.98    2.74  16 0.59718-0.71626 0.69852-0.37641 0.01769-0.41206
  -1   3   6   36.73    2.87  15 0.59471-0.75630 0.70148-0.46050 0.01284 0.41374
  -1   4  -6   92.59    2.35  15 0.59376-0.72261 0.70262-0.28179 0.01098-0.48945
  -1   5   8    1.21    2.82  16 0.59936-0.79370 0.69586-0.28885 0.02200 0.53490
  -1   6  -7  305.16    3.63  15 0.59064-0.74049 0.70627-0.09787 0.00493-0.57568
  -1   7  -7   52.87    2.68  15 0.59314-0.75651 0.70335-0.00412 0.00977-0.58887
  -1   8  -7    1.98    2.48  15 0.59127-0.76657 0.70554 0.08282 0.00614-0.59499
  -1   8   9    2.07    4.29  16 0.60205-0.83909 0.69251-0.02240 0.02738 0.57964
   0   1   5  292.17    4.07  16 0.59813-0.63024 0.69736-0.64386 0.01957 0.34424
   0   2  -6    4.04    1.72  15 0.59127-0.59567 0.70554-0.47920 0.00614-0.47114
   0   3  -7  117.58    2.52  15 0.59189-0.60365 0.70481-0.38149 0.00735-0.55669
   0   3   8   47.51    2.97  15 0.59626-0.66521 0.69963-0.48795 0.01588 0.55444
   0   4   9   11.31    2.90  16 0.59870-0.68328 0.69667-0.40110 0.02068 0.61490
   0   5  -8    2.58    2.76  15 0.59673-0.62940 0.69906-0.18751 0.01681-0.65773
   1   1  -6   71.45    2.89  16 0.59784-0.48749 0.69771-0.57697 0.01899-0.48106
   1   3  -8   56.01    2.90  16 0.59898-0.50715 0.69633-0.38077 0.02124-0.65039
   1   5  -9    6.47    3.04  16 0.59929-0.52839 0.69595-0.19295 0.02186-0.74295
   2  -1  -3  517.10    9.95  16 0.60116-0.37689 0.69363-0.78995 0.02558-0.25057
   2   1   8   12.41    1.95  15 0.59314-0.43675 0.70335-0.70008 0.00977 0.56778
   2   3  -9    3.26    2.85  15 0.59561-0.39893 0.70041-0.39126 0.01460-0.72302
   2   4  11   38.95    2.55  15 0.58813-0.48129 0.70916-0.45682 0.00009 0.77480
   2   5 -10    0.85    2.40  15 0.59314-0.41853 0.70335-0.20602 0.00977-0.81138
   3  -1   5    2.01    1.70  15 0.59500-0.30025 0.70114-0.87147 0.01339 0.35309
   3   1  -8   45.38    2.35  15 0.59064-0.27207 0.70627-0.59898 0.00493-0.62689
   3   1   9   26.27    2.88  16 0.59746-0.34451 0.69818-0.71654 0.01823 0.62976
   3   2  -9   10.30    2.13  15 0.59064-0.28154 0.70627-0.50044 0.00493-0.71057
   3   2  10   72.43    2.62  15 0.58939-0.35228 0.70772-0.64262 0.00251 0.71073
   3   3  11   13.59    2.29  15 0.59064-0.37132 0.70627-0.55909 0.00493 0.77372
   3   4  12   25.28    3.63  16 0.59826-0.39435 0.69721-0.46688 0.01981 0.82384
   4  -2  -1   58.46    3.05  15 0.59375-0.16353 0.70263-0.93281 0.01095-0.08862
   4  -2   1   43.33    2.04  15 0.59127-0.16911 0.70554-0.95060 0.00614 0.06529
   4  -2   2    0.66    2.53  16 0.59929-0.18195 0.69595-0.94769 0.02186 0.12603
   4  -1   6   87.34    2.91  16 0.59746-0.20650 0.69818-0.88970 0.01823 0.41776
   4   0  -7   55.32    3.20  16 0.60037-0.17265 0.69461-0.69954 0.02401-0.56773
   4   0   8  154.26    2.77  15 0.59500-0.22381 0.70114-0.81791 0.01339 0.56254
   4   3 -10   10.06    3.30  16 0.59746-0.19673 0.69818-0.40915 0.01823-0.81173
   5  -2   3    8.45    2.73  15 0.59770-0.08228 0.69789-0.97132 0.01871 0.19635
   5   1  10    6.16    3.11  16 0.59746-0.14737 0.69818-0.75292 0.01823 0.69341
   5   2  11    3.20    2.36  15 0.59189-0.15762 0.70481-0.67610 0.00735 0.77002
   6  -2   3    0.25    2.60  15 0.59561 0.01960 0.70041-0.98841 0.01460 0.19680
   6   1  10    1.01    2.40  15 0.59252-0.04174 0.70408-0.77251 0.00856 0.69872
   7  -2   2    1.28    2.00  15 0.59189 0.12618 0.70481-0.99957 0.00735 0.12498
   7  -1   6    1.36    2.11  15 0.58749 0.10395 0.70988-0.94402-0.00112 0.42179
   8  -1   6   28.04    3.50  16 0.59685 0.19496 0.69892-0.94818 0.01703 0.39944
  -2   3   1  481.28    5.98  17 0.60945-0.85216 0.68285-0.39070 0.04235 0.01538
  -2   6  -4   12.71    1.91  16 0.60651-0.86856 0.68670-0.08604 0.03631-0.37764
  -2   7  -4    1.85    2.86  17 0.60919-0.88319 0.68320 0.00847 0.04180-0.39248
  -2   8  -4    1.99    2.09  16 0.60651-0.89259 0.68670 0.09519 0.03631-0.39704
  -1   2  -3    2.23    2.57  17 0.61023-0.72421 0.68181-0.46549 0.04396-0.28085
  -1   5  -6   13.70    2.60  16 0.60832-0.74924 0.68435-0.17282 0.04001-0.52616
  -1   7   9    2.61    3.98  17 0.61427-0.83919 0.67637-0.09655 0.05238 0.56171
   0   0   1   33.68    2.33  16 0.60831-0.61253 0.68435-0.69166 0.04000 0.03451
   0   1  -4  153.27    2.84  16 0.60651-0.60412 0.68670-0.56616 0.03631-0.34405
   0   2   7  116.75    3.25  16 0.60771-0.66095 0.68514-0.55635 0.03876 0.46589
   0   6  -8    7.74    2.19  16 0.60293-0.64939 0.69127-0.09000 0.02906-0.67934
   0   7  -8    6.09    2.35  16 0.60473-0.66334 0.68899 0.00292 0.03269-0.69319
   1   0  -4   16.91    2.14  16 0.60413-0.48848 0.68975-0.67430 0.03148-0.33529
   1   0   5  450.72    4.06  16 0.60473-0.52422 0.68899-0.74003 0.03269 0.33494
   1   1   7   21.03    1.96  16 0.60173-0.54212 0.69278-0.66774 0.02664 0.48129
   1   2  -7  131.01    2.63  16 0.60532-0.50343 0.68823-0.46960 0.03389-0.57991
   1   5  11   16.88    2.44  16 0.60293-0.60863 0.69127-0.33581 0.02906 0.74182
   1   6  -9    3.20    2.36  16 0.60592-0.54876 0.68747-0.09289 0.03510-0.76532
   1   7  -9    7.18    3.55  17 0.60900-0.56255 0.68344 0.00199 0.04143-0.77965
   2  -1   4    2.27    1.87  16 0.60710-0.41083 0.68593-0.83369 0.03752 0.25759
   2   1  -7  135.87    2.87  16 0.60293-0.38775 0.69127-0.57763 0.02906-0.57098
   2   2  -8   14.93    2.02  16 0.60413-0.39863 0.68975-0.47824 0.03148-0.65730
   2   5  12    1.24    2.48  16 0.60473-0.51437 0.68899-0.35525 0.03269 0.80842
   3   4 -10    3.88    2.32  16 0.60173-0.31306 0.69278-0.29975 0.02664-0.82402
   4  -2   3    2.08    2.41  16 0.60971-0.19387 0.68250-0.94178 0.04289 0.17757
   4   1  10   12.51    2.98  16 0.60869-0.25965 0.68385-0.72388 0.04079 0.67690
   4   2  -9   82.47    3.55  17 0.61028-0.20035 0.68175-0.49168 0.04406-0.75427
   4   2  11   16.97    2.38  16 0.60353-0.26962 0.69051-0.64852 0.03027 0.75173
   4   3  12    0.69    2.47  16 0.60532-0.28951 0.68823-0.56237 0.03389 0.81331
   5  -2   4   63.43    2.97  17 0.61089-0.09992 0.68094-0.96173 0.04533 0.24543
   5  -1   7   47.19    2.87  16 0.60867-0.12220 0.68388-0.89758 0.04074 0.46507
   5   0   9   85.64    3.48  17 0.60945-0.14328 0.68285-0.82006 0.04235 0.60388
   5   3 -10    2.23    3.59  17 0.60894-0.10705 0.68352-0.40888 0.04130-0.83928
   6  -2   4   21.85    2.90  16 0.60805 0.00337 0.68470-0.98067 0.03946 0.24529
   6  -1   7  183.27    3.39  16 0.60413-0.01670 0.68975-0.91681 0.03148 0.46899
   6   0   9   11.45    2.31  16 0.60473-0.03837 0.68899-0.84047 0.03269 0.60821
   7  -2  -2    1.42    2.79  16 0.60614 0.12825 0.68718-0.95379 0.03556-0.20327
   7  -2   3   18.57    2.23  16 0.60052 0.11531 0.69429-0.99631 0.02423 0.18176
   7  -2   4   25.33    3.03  17 0.61084 0.10089 0.68100-0.98994 0.04522 0.23560
   7  -1   7   52.55    2.64  16 0.60592 0.08202 0.68747-0.92890 0.03510 0.45971
   7   0  -7   12.10    4.27  17 0.61821 0.11024 0.67089-0.71880 0.06073-0.61954
   7   0   9    4.51    2.56  16 0.60532 0.06191 0.68823-0.85434 0.03389 0.60123
   8  -2  -1    6.70    3.12  17 0.61033 0.22146 0.68169-0.96856 0.04416-0.14168
   8  -2   0    2.06    2.14  16 0.60293 0.22347 0.69127-0.98583 0.02906-0.05157
   8  -2   1    3.32    2.14  16 0.60173 0.22221 0.69278-0.99417 0.02664 0.02414
   8  -2   2    4.94    2.17  16 0.60532 0.21374 0.68823-0.99730 0.03389 0.09286
   8  -2   3   23.15    3.29  17 0.61145 0.20433 0.68019-0.99613 0.04648 0.15410
  -2   4  -2   15.19    1.80  17 0.61697-0.86080 0.67265-0.26824 0.05800-0.23303
  -2   5  -3   15.66    2.02  17 0.61697-0.86936 0.67265-0.16996 0.05800-0.31613
  -2   8  -3   20.16    3.08  18 0.62234-0.91279 0.66500 0.10817 0.06954-0.35535
  -2   9  -3   20.75    2.59  17 0.61469-0.91821 0.67582 0.18736 0.05318-0.34763
  -1   3  -4 1626.59    6.86  18 0.62216-0.74578 0.66525-0.35048 0.06916-0.38974
  -1   4  -5  709.66    4.81  17 0.61996-0.75072 0.66843-0.25552 0.06440-0.46826
  -1   6  -6   55.89    2.28  17 0.61411-0.76742 0.67660-0.07675 0.05197-0.54891
  -1   7  -6  140.99    2.92  17 0.61583-0.78209 0.67424 0.01678 0.05559-0.56076
  -1   8  -6    2.55    2.26  17 0.61296-0.79279 0.67817 0.10317 0.04956-0.56297
   0   3  -6    0.63    2.51  18 0.62258-0.63792 0.66465-0.34701 0.07006-0.54580
   0   4  -7    9.04    1.89  17 0.61180-0.63640 0.67973-0.26666 0.04715-0.60544
   0   5  10    8.64    3.12  17 0.61839-0.72194 0.67066-0.29370 0.06103 0.64122
   1   2   9   -0.76    2.69  18 0.62146-0.58123 0.66626-0.56629 0.06765 0.58001
   1   3  10   23.10    2.98  17 0.62091-0.59767 0.66706-0.48390 0.06644 0.64838
   1   4  -8   -1.19    1.90  17 0.61810-0.53832 0.67106-0.26455 0.06042-0.69884
   2   0   7   10.48    1.86  17 0.61469-0.44208 0.67582-0.75560 0.05318 0.45817
   2   2  10    6.64    2.02  17 0.61697-0.48086 0.67265-0.59439 0.05800 0.65955
   2   3  11   42.00    2.55  17 0.61810-0.49789 0.67106-0.51020 0.06042 0.72324
   2   4  -9   50.89    2.49  17 0.61469-0.43037 0.67582-0.27641 0.05318-0.77095
   3  -2   1  164.45    3.47  18 0.62226-0.30043 0.66511-0.89537 0.06936 0.00745
   3  -1   6   24.91    1.98  17 0.61697-0.32659 0.67265-0.85020 0.05800 0.38354
   3   0   8  273.42    3.26  17 0.61296-0.34387 0.67817-0.77904 0.04956 0.53230
   3   2  11   29.98    3.24  18 0.62128-0.38891 0.66652-0.60827 0.06726 0.72011
   3   3  -9   17.36    3.00  17 0.62019-0.32242 0.66810-0.37296 0.06488-0.77867
   3   5 -10    1.16    2.56  17 0.61354-0.33966 0.67739-0.19360 0.05077-0.85796
   4  -2  -2   95.25    3.93  18 0.62127-0.18729 0.66655-0.88913 0.06722-0.21936
   4  -2   4  404.96    4.33  18 0.62220-0.21109 0.66519-0.93149 0.06924 0.22628
   4  -1  -5  138.91    4.80  18 0.62119-0.18770 0.66666-0.77740 0.06704-0.45147
   4  -1   7   14.17    1.90  17 0.61866-0.23198 0.67027-0.86904 0.06162 0.44866
   4   0   9   10.56    2.82  17 0.62059-0.25457 0.66752-0.79165 0.06576 0.58575
   4   1  -8   26.34    2.25  17 0.61469-0.19557 0.67582-0.58385 0.05318-0.67966
   4   4 -10    1.25    2.40  17 0.61753-0.22934 0.67186-0.29278 0.05921-0.86244
   5   0  -7    9.13    3.00  18 0.62155-0.09336 0.66614-0.68552 0.06783-0.61643
   5   2  -9    8.73    3.19  18 0.62299-0.11232 0.66404-0.48884 0.07096-0.78613
   6  -2  -3   35.25    4.14  18 0.62899 0.00977 0.65505-0.89909 0.08419-0.32136
   6  -2   5   15.00    2.85  18 0.62074-0.01315 0.66731-0.97010 0.06607 0.29433
   7  -2   5    3.62    3.00  18 0.62174 0.08499 0.66586-0.98090 0.06825 0.28636
   8  -2   4    4.65    3.24  18 0.62065 0.19113 0.66744-0.99209 0.06588 0.20866
   8  -1   7   -2.53    2.47  17 0.61238 0.17486 0.67895-0.93433 0.04835 0.44104
   9  -2   1    2.72    3.45  17 0.62163 0.30116 0.66602-0.98038 0.06800-0.02192
   9  -2   2    1.27    3.46  18 0.62313 0.29672 0.66384-0.98655 0.07126 0.04918
  -2   4  -1    6.40    2.48  19 0.63311-0.88090 0.64868-0.25146 0.09358-0.19407
  -2   5  -2  322.94    3.92  19 0.63318-0.89031 0.64856-0.15378 0.09375-0.27816
  -2   6  -3   27.44    1.98  18 0.62479-0.88952 0.66143-0.06846 0.07500-0.34253
  -2   7  -3    2.33    1.95  18 0.62589-0.90415 0.65980 0.02247 0.07740-0.35249
  -2   9  -2   14.61    2.41  18 0.62806-0.93589 0.65652 0.19997 0.08222-0.30190
  -2   9   6    1.05    3.34  18 0.63205-0.97112 0.65035 0.14722 0.09118 0.28599
  -2  10  -1   16.03    2.61  18 0.62698-0.95155 0.65817 0.28080 0.07981-0.23418
  -1   2   5  105.01    3.50  19 0.63266-0.77789 0.64939-0.49085 0.09256 0.26743
  -1   5  -5 1119.22    5.75  19 0.63158-0.77550 0.65109-0.14793 0.09012-0.50304
  -1   6   9    2.53    3.62  19 0.63568-0.84703 0.64455-0.15433 0.09948 0.52421
  -1   8  -5    9.64    3.09  19 0.63271-0.81594 0.64931 0.12462 0.09268-0.53262
  -1   9  -5   -0.44    2.47  18 0.62589-0.82131 0.65980 0.20479 0.07740-0.52638
   0   0   2   14.28    2.34  18 0.62479-0.63323 0.66143-0.67562 0.07500 0.07450
   0   1   6  733.73    5.54  19 0.63241-0.66854 0.64978-0.60308 0.09200 0.34645
   0   2  -5  655.28    4.46  18 0.62369-0.62946 0.66306-0.44601 0.07259-0.46375
   0   5  -7   -0.38    1.92  18 0.62369-0.65989 0.66306-0.15980 0.07259-0.63985
   0   6  -7   37.39    2.16  18 0.62860-0.67841 0.65570-0.06197 0.08342-0.65977
   0   7  -7   92.89    2.79  18 0.62967-0.69167 0.65405 0.03053 0.08582-0.67072
   0   8  -7   16.53    2.49  18 0.62643-0.70177 0.65899 0.11549 0.07861-0.67250
   1   0   6   52.50    2.71  18 0.63148-0.55523 0.65125-0.70987 0.08989 0.35255
   1   1   8   30.28    2.83  19 0.63247-0.57626 0.64969-0.63184 0.09213 0.49022
   1   3  -7    4.85    2.61  19 0.63214-0.54478 0.65022-0.34139 0.09137-0.64554
   1   4  11   31.21    2.52  18 0.62860-0.62177 0.65570-0.38997 0.08342 0.69645
   1   5  -8   21.01    2.16  18 0.62914-0.56134 0.65488-0.15797 0.08462-0.73163
   2  -1   5   80.55    2.30  18 0.62698-0.43362 0.65817-0.81364 0.07981 0.29188
   2   0  -5   -0.62    2.47  19 0.63101-0.41170 0.65198-0.64283 0.08883-0.47223
   2   1   9   79.16    2.37  18 0.62369-0.47150 0.66306-0.66597 0.07259 0.58008
   2   3  -8   80.20    3.11  19 0.63159-0.43764 0.65107-0.34970 0.09014-0.72429
   2   4  12    1.13    2.37  18 0.62698-0.52330 0.65817-0.41422 0.07981 0.77009
   2   5  -9    4.61    2.17  18 0.62589-0.45409 0.65980-0.17051 0.07740-0.80373
   2   6  -9    4.86    3.27  19 0.63128-0.47298 0.65155-0.07044 0.08944-0.82447
   3  -2   0  159.41    3.25  18 0.62698-0.30129 0.65817-0.88152 0.07981-0.07746
   3  -2   2  752.10    5.14  18 0.62589-0.30780 0.65980-0.89741 0.07740 0.07434
   3   0  -6  236.30    3.79  18 0.62752-0.30289 0.65735-0.65580 0.08101-0.54454
   3   1  10    2.11    1.92  18 0.62589-0.37639 0.65980-0.68603 0.07740 0.64415
   3   2  -8   32.18    2.93  19 0.63257-0.32616 0.64953-0.45298 0.09236-0.72296
   3   3  12   -1.21    2.39  18 0.62479-0.40870 0.66143-0.52239 0.07500 0.77877
   4   2  12    0.71    3.52  18 0.63181-0.30192 0.65073-0.61591 0.09063 0.76503
   5  -2   5   12.92    1.94  18 0.62479-0.11842 0.66143-0.94972 0.07500 0.29103
   5  -1   8   61.44    2.46  18 0.62806-0.14536 0.65652-0.87690 0.08222 0.49829
   5   0  10   45.68    3.33  19 0.63181-0.16922 0.65073-0.79490 0.09063 0.62966
   5   1  -8   73.53    3.59  19 0.63131-0.11119 0.65152-0.57329 0.08950-0.72074
   5   1  11    1.25    2.44  18 0.62369-0.17769 0.66306-0.72469 0.07259 0.71432
   6  -1   8   32.16    2.44  18 0.62314-0.04041 0.66387-0.89718 0.07139 0.50515
   6   0  -7    5.87    3.06  19 0.63120-0.00269 0.65169-0.68525 0.08924-0.64175
   6   0  10   10.62    2.50  18 0.62698-0.06521 0.65817-0.81736 0.07981 0.63552
   6   2  -9    5.44    3.58  18 0.62927-0.01819 0.65468-0.49238 0.08490-0.80509
   7  -1   8    2.90    2.31  18 0.62369 0.06075 0.66306-0.91201 0.07259 0.49623
   7   1  -8    2.29    3.59  19 0.63272 0.08696 0.64930-0.59944 0.09269-0.73559
   8  -2  -2    7.95    3.25  18 0.62930 0.20615 0.65463-0.93485 0.08498-0.25714
   8  -2   5    4.34    3.38  18 0.63055 0.17771 0.65270-0.98491 0.08779 0.26225
   9  -2   0    1.07    2.52  18 0.62643 0.30104 0.65899-0.96699 0.07861-0.10731
   9  -2   3    0.99    2.54  18 0.62752 0.28879 0.65735-0.98822 0.08101 0.11429
  -2   4   4    4.13    3.97  22 0.66254-0.92917 0.59532-0.23402 0.16597 0.10624
  -2   6  -2  106.58    3.15  19 0.64144-0.90976 0.63497-0.04906 0.11288-0.30548
  -2   7  -2  103.09    3.21  20 0.64156-0.92262 0.63476 0.04088 0.11318-0.31500
  -2   8  -2    8.81    2.13  19 0.63658-0.93148 0.64306 0.12303 0.10151-0.31213
  -2   9  -1    8.15    3.11  19 0.64117-0.95077 0.63542 0.21362 0.11225-0.25683
  -2  10   0    1.87    2.51  19 0.63606-0.96464 0.64391 0.28855 0.10031-0.17937
  -2  10   1   83.14    4.32  20 0.64320-0.97511 0.63195 0.29184 0.11708-0.12336
  -1   2  -2  156.76    2.94  19 0.63710-0.75512 0.64222-0.43247 0.10271-0.26480
  -1   4  -4   36.97    2.71  20 0.64297-0.77886 0.63236-0.22735 0.11652-0.44598
  -1   4   8    7.06    2.73  20 0.64378-0.82462 0.63095-0.31428 0.11846 0.44789
  -1   6  -5   34.32    2.10  19 0.63658-0.79348 0.64306-0.04977 0.10151-0.52356
  -1   7  -5    1.64    2.02  19 0.63658-0.80728 0.64306 0.03793 0.10151-0.53108
  -1   9  -4    1.83    3.23  20 0.64320-0.84305 0.63195 0.22553 0.11708-0.49132
   0   0   3  577.68    6.06  19 0.64161-0.65367 0.63469-0.65669 0.11328 0.10992
   0   1  -3  135.26    3.48  20 0.64252-0.64427 0.63312-0.52053 0.11546-0.34805
   0   2   8   59.64    2.98  20 0.64275-0.69902 0.63273-0.51077 0.11600 0.46294
   0   3   9   42.78    2.29  19 0.63813-0.71080 0.64052-0.43593 0.10510 0.53999
   0   4  -6    3.73    1.82  19 0.64018-0.66887 0.63711-0.23023 0.10990-0.59263
   0   4  10   11.55    2.98  20 0.64364-0.73213 0.63119-0.34354 0.11813 0.59245
   0   6  11   12.69    3.65  20 0.64381-0.76176 0.63090-0.16976 0.11854 0.64925
   0   9  -6    5.49    3.60  19 0.64168-0.73259 0.63456 0.22274 0.11345-0.64032
   1   1  -5    0.18    1.69  19 0.63762-0.53052 0.64137-0.52948 0.10390-0.49091
   1   2  -6   84.76    2.78  19 0.64133-0.54263 0.63517-0.42438 0.11261-0.58327
   1   5  12   11.49    3.68  20 0.64385-0.65302 0.63084-0.28132 0.11862 0.72603
   1   6  -8    7.76    2.13  19 0.63397-0.57951 0.64727-0.06065 0.09551-0.75110
   1   7  -8    4.58    2.32  19 0.63450-0.59244 0.64643 0.03032 0.09671-0.76175
   2   0   8  122.82    2.65  19 0.63916-0.46946 0.63882-0.72641 0.10750 0.47920
   2   2  -7  648.26    5.15  20 0.64251-0.44075 0.63314-0.42934 0.11543-0.66641
   3  -2   3   51.44    2.14  19 0.63397-0.32032 0.64727-0.89237 0.09551 0.13156
   3  -2   4   43.27    2.61  20 0.64339-0.33273 0.63163-0.88421 0.11753 0.18314
   3  -1  -4  552.91    8.64  20 0.64857-0.31980 0.62245-0.72605 0.13011-0.43531
   3  -1   7  349.84    3.53  19 0.63658-0.35042 0.64306-0.82747 0.10151 0.41472
   3   0   9  162.89    2.98  19 0.63710-0.37114 0.64222-0.75113 0.10271 0.55380
   3   1  -7  163.44    3.11  19 0.63813-0.32297 0.64052-0.54104 0.10510-0.65241
   3   4  -9   32.04    2.35  19 0.63658-0.35283 0.64306-0.25785 0.10151-0.82474
   4  -2   5   27.32    2.02  19 0.63606-0.22931 0.64391-0.91847 0.10031 0.27094
   4  -1   8  224.82    3.29  19 0.63813-0.25507 0.64052-0.84656 0.10510 0.48022
   4   0  10    3.54    3.06  19 0.64220-0.27997 0.63368-0.76422 0.11468 0.61000
   4   1  11   12.24    2.42  19 0.63450-0.28894 0.64643-0.69410 0.09671 0.69461
   4   3  -9   22.02    2.35  19 0.63813-0.24185 0.64052-0.35905 0.10510-0.82392
   5  -2  -3   41.92    4.29  20 0.64334-0.10512 0.63172-0.86154 0.11740-0.34941
   5  -2   6   15.75    1.96  19 0.63813-0.13465 0.64052-0.93600 0.10510 0.33488
   6  -2   6   26.03    2.17  19 0.63397-0.02980 0.64727-0.95729 0.09551 0.34011
   6  -1   9   -3.51    3.19  20 0.64169-0.06252 0.63454-0.87767 0.11349 0.53672
   6   1  -8   50.38    3.05  19 0.63762-0.01786 0.64137-0.57723 0.10390-0.74091
   7  -2  -3    4.35    3.05  20 0.64172 0.09684 0.63449-0.89286 0.11355-0.35593
   7  -2   6    5.67    2.23  19 0.63502 0.06915 0.64559-0.97011 0.09791 0.33151
   7  -1   9   11.71    3.63  19 0.64113 0.03803 0.63549-0.89320 0.11215 0.53178
   8  -2   6   -1.74    3.50  20 0.64144 0.16304 0.63497-0.97536 0.11289 0.31233
   9  -2  -1    1.86    2.57  19 0.63762 0.29382 0.64137-0.94248 0.10390-0.20780
  -2   5  -1    0.64    1.84  20 0.64954-0.91102 0.62057-0.13138 0.13259-0.24010
  -2   8  -1    1.89    2.05  20 0.64905-0.94815 0.62145 0.13763 0.13139-0.26693
  -2   8   6   49.42    4.65  22 0.65877-0.98389 0.60288 0.10518 0.15609 0.22870
  -2   9   0   21.63    3.22  21 0.65102-0.96473 0.61784 0.22363 0.13627-0.20593
  -2  10   2   -0.70    2.59  20 0.64760-0.98351 0.62409 0.29333 0.12781-0.05721
  -2  10   3    6.13    2.62  20 0.64857-0.98859 0.62233 0.28747 0.13020 0.01362
  -1   3  -3 2902.69    8.97  20 0.64760-0.77488 0.62409-0.31651 0.12781-0.37333
  -1   3   7  216.93    3.86  20 0.64711-0.81284 0.62496-0.39089 0.12662 0.37428
  -1   5  -4   31.07    2.69  21 0.65271-0.80175 0.61466-0.11973 0.14052-0.47868
  -1   8  -4    4.70    2.93  20 0.65132-0.83825 0.61728 0.14840 0.13702-0.50051
  -1  10  -3    4.42    2.47  20 0.64760-0.86550 0.62409 0.31563 0.12781-0.43429
   0   3  -5   84.54    2.90  21 0.65148-0.67042 0.61698-0.30897 0.13742-0.53696
   0   5  -6  126.31    2.47  20 0.64905-0.68962 0.62145-0.12457 0.13139-0.62391
   0   6  -6   40.31    2.88  21 0.65229-0.70590 0.61545-0.02899 0.13947-0.64086
   0   7  -6   40.53    3.03  21 0.65193-0.71793 0.61614 0.06043 0.13854-0.64838
   0   8  -6   47.68    2.62  20 0.64760-0.72718 0.62409 0.14235 0.12781-0.64712
   1  -1   3  551.56    4.74  20 0.64662-0.54556 0.62584-0.75226 0.12543 0.10152
   1   0   7    1.14    2.59  20 0.65193-0.57841 0.61614-0.68112 0.13854 0.37786
   1   2  10    6.59    2.86  21 0.65193-0.61520 0.61614-0.52322 0.13854 0.58582
   1   3  11    5.11    2.97  21 0.65302-0.63312 0.61409-0.43833 0.14129 0.64695
   1   4  -7   39.68    2.12  20 0.64808-0.57191 0.62321-0.22413 0.12901-0.69221
   2  -1   6   12.28    1.89  20 0.64465-0.45438 0.62932-0.79258 0.12065 0.32525
   2   1  -6   30.81    2.08  20 0.64613-0.43521 0.62671-0.52057 0.12423-0.59130
   2   1  10   26.25    2.18  20 0.64954-0.49932 0.62057-0.63277 0.13259 0.59423
   2   2  11    0.75    2.13  20 0.64662-0.51424 0.62584-0.55521 0.12543 0.66768
   2   3  12    2.26    2.33  20 0.64954-0.53412 0.62057-0.46622 0.13259 0.72604
   2   4  -8   59.64    2.36  20 0.64662-0.46613 0.62584-0.23406 0.12543-0.76867
   3  -2  -1  124.31    3.46  20 0.64662-0.31708 0.62584-0.84146 0.12543-0.19807
   3   1  11   65.07    3.43  20 0.65094-0.40560 0.61797-0.65222 0.13608 0.66094
   3   2  12   -0.04    2.35  20 0.64857-0.41941 0.62233-0.57253 0.13020 0.73104
   3   5  -9   22.76    2.43  20 0.64613-0.37502 0.62671-0.15157 0.12423-0.85569
   3   6  -9    2.70    2.51  20 0.65050-0.39167 0.61880-0.05258 0.13497-0.87517
   4  -2   6    3.19    1.85  20 0.64857-0.24520 0.62233-0.90398 0.13020 0.31481
   4   2  -8  226.47    4.16  21 0.65326-0.24744 0.61364-0.43059 0.14190-0.77781
   4   4  -9   46.65    3.39  21 0.65310-0.26904 0.61392-0.24340 0.14151-0.86925
   5  -2   7    1.51    2.83  21 0.65172-0.15188 0.61652-0.92001 0.13804 0.37699
   5  -1   9   50.43    2.49  20 0.64613-0.16685 0.62671-0.85482 0.12423 0.53057
   5   0  11    3.95    3.39  20 0.65193-0.19254 0.61614-0.76850 0.13854 0.65500
   5   3  -9    0.21    3.25  20 0.65002-0.15176 0.61969-0.35201 0.13378-0.85876
   6  -2   7    1.65    2.11  20 0.64711-0.04682 0.62496-0.94304 0.12662 0.38177
   7  -2   7   27.94    2.56  20 0.64711 0.05352 0.62496-0.95674 0.12662 0.37706
  -2   4   1  343.18    4.58  22 0.66050-0.91569 0.59929-0.21658 0.16099-0.11185
  -2   6  -1    6.45    1.89  21 0.65511-0.92848 0.61001-0.03167 0.14695-0.26481
  -2   7  -1   30.57    2.14  21 0.65418-0.94036 0.61180 0.05636 0.14458-0.27192
  -2   7   6    1.36    4.13  22 0.66893-0.98321 0.58125 0.03543 0.18399 0.21043
  -2   8   0    0.44    2.86  22 0.66035-0.96202 0.59959 0.15135 0.16060-0.22247
  -2   9   1   69.16    2.76  21 0.65741-0.97740 0.60550 0.22873 0.15289-0.14848
  -2   9   2   17.68    3.22  22 0.66305-0.98672 0.59402 0.23309 0.16780-0.09027
  -2   9   5   39.57    3.91  22 0.65943-0.99295 0.60147 0.20350 0.15817 0.14389
  -1   5   9    5.20    2.93  21 0.66069-0.85925 0.59890-0.20057 0.16151 0.47119
  -1   6  -4   50.46    2.16  21 0.65650-0.81775 0.60731-0.02179 0.15052-0.49740
  -1   7  -4    4.73    1.99  21 0.65511-0.83011 0.61001 0.06672 0.14695-0.50285
  -1   9  -3   38.96    2.52  21 0.65878-0.86297 0.60278 0.24711 0.15645-0.45462
  -1  10  -2   22.02    3.66  22 0.66141-0.88096 0.59744 0.33385 0.16340-0.39744
   0   0   4 1675.57    8.24  21 0.65603-0.67173 0.60821-0.63747 0.14933 0.14840
   0   1   7   14.02    1.94  21 0.65832-0.69784 0.60369-0.56535 0.15527 0.35709
   0   2  -4  676.81    4.76  21 0.65511-0.66546 0.61001-0.40007 0.14695-0.46305
   0   5  11    7.98    3.34  21 0.66047-0.76695 0.59936-0.22927 0.16091 0.61582
   0   9  -5    1.42    2.41  21 0.65923-0.75514 0.60187 0.24836 0.15764-0.61148
   1  -1   0  808.95    9.43  21 0.65464-0.54266 0.61091-0.71452 0.14576-0.14244
   1  -1   4    3.75    1.89  21 0.65695-0.56007 0.60641-0.74024 0.15171 0.14926
   1   0  -3   94.29    2.92  21 0.65832-0.54714 0.60369-0.59518 0.15527-0.38432
   1   1   9    7.82    1.96  21 0.65787-0.60512 0.60460-0.59501 0.15408 0.50343
   1   4  12    2.20    3.39  21 0.66102-0.65711 0.59822-0.33933 0.16238 0.69080
   1   5  -7  100.90    2.56  21 0.65557-0.59297 0.60911-0.12003 0.14814-0.72015
   1   6  -7   19.29    2.21  21 0.65832-0.60927 0.60369-0.02389 0.15527-0.73612
   1   7  -7   11.58    2.28  21 0.65787-0.62119 0.60460 0.06588 0.15408-0.74326
   1   8  -7    5.30    2.39  21 0.65418-0.62968 0.61180 0.14887 0.14458-0.74289
   2  -1   7  985.50    5.54  21 0.66079-0.47503 0.59870-0.76920 0.16177 0.35914
   2   0   9  164.98    3.41  21 0.66012-0.49494 0.60008-0.69558 0.15997 0.50169
   2   5  -8   17.65    2.19  21 0.65464-0.48777 0.61091-0.12920 0.14576-0.79699
   2   6  -8   13.49    2.25  21 0.65787-0.50361 0.60460-0.03152 0.15408-0.81440
   2   7  -8    8.68    2.38  21 0.65741-0.51560 0.60550 0.05812 0.15289-0.82233
   3  -2   5    7.69    1.81  21 0.65418-0.34805 0.61180-0.87192 0.14458 0.23063
   3  -1   8    0.51    1.78  21 0.65418-0.37091 0.61180-0.80432 0.14458 0.44606
   3   0  10    3.26    2.07  21 0.65741-0.39433 0.60550-0.72159 0.15289 0.57839
   3   3  -8   32.62    2.26  21 0.65557-0.36248 0.60911-0.32158 0.14814-0.78735
   4  -2   7  125.72    3.19  22 0.66102-0.26157 0.59822-0.88705 0.16238 0.35716
   4  -1   9    7.35    2.00  21 0.65557-0.27666 0.60911-0.82254 0.14814 0.51177
   4   0  -6  101.75    3.61  22 0.66332-0.23927 0.59346-0.60616 0.16852-0.63765
   4   0  11   18.58    3.42  22 0.66178-0.30368 0.59666-0.73373 0.16439 0.63642
   4   1  -7  173.59    3.89  22 0.66274-0.24814 0.59466-0.50986 0.16697-0.71965
   4   1  12    5.37    2.50  21 0.65695-0.31435 0.60641-0.66214 0.15171 0.71408
   4   5  -9   -0.49    3.25  22 0.66080-0.28952 0.59868-0.13735 0.16179-0.89913
   5  -3   2   19.36    2.75  22 0.66080-0.12995 0.59868-0.95529 0.16179-0.01232
   5  -3   3   17.11    2.77  22 0.66165-0.13484 0.59694-0.96044 0.16404 0.06101
   5  -1  10    2.33    3.27  22 0.66235-0.18757 0.59547-0.83035 0.16593 0.56336
   6  -3   1  199.62    3.61  21 0.65787-0.02223 0.60460-0.96819 0.15408-0.08406
   6  -3   2   84.26    2.76  21 0.65557-0.02346 0.60911-0.98014 0.14814-0.00340
   6  -3   3   17.09    2.15  21 0.65695-0.02868 0.60641-0.98465 0.15171 0.06804
   6  -3   4    4.91    2.79  22 0.66134-0.03710 0.59757-0.98378 0.16322 0.13010
   6  -2   8    3.98    3.21  21 0.65968-0.06395 0.60096-0.92566 0.15882 0.42519
   6  -1  10    0.49    2.45  21 0.65741-0.08197 0.60550-0.85469 0.15289 0.57150
   6   3  -9    2.29    2.51  21 0.65603-0.05703 0.60821-0.35637 0.14933-0.87906
   7  -3   1   42.94    3.28  21 0.66021 0.07607 0.59989-0.97832 0.16022-0.09518
   7  -3   2    4.07    2.14  21 0.65741 0.07467 0.60550-0.99096 0.15289-0.01366
   7  -3   3   24.93    2.29  21 0.65832 0.07006 0.60369-0.99642 0.15527 0.05849
   7  -3   4   -0.98    2.99  22 0.66147 0.06253 0.59731-0.99659 0.16356 0.12621
   7  -2   8    4.30    2.43  21 0.65923 0.03696 0.60187-0.94137 0.15764 0.42012
   8  -2  -3    2.14    4.03  22 0.66726 0.17127 0.58497-0.85812 0.17932-0.42603
   9  -2  -2    1.52    3.64  22 0.65975 0.27618 0.60083-0.89556 0.15900-0.33723
  -2   4   2    0.19    2.44  22 0.66969-0.92910 0.57970-0.20452 0.18607-0.06190
  -2   4   3    1.46    3.00  23 0.67608-0.93810 0.56467-0.19818 0.20460-0.00634
  -2   5   0   79.73    2.39  22 0.66371-0.92777 0.59275-0.11245 0.16956-0.20431
  -2   6   0    7.48    2.69  22 0.66859-0.94507 0.58216-0.01149 0.18299-0.22566
  -2   7   0    1.41    1.87  22 0.66631-0.95592 0.58719 0.07416 0.17664-0.22919
  -2   8   1    7.76    2.88  23 0.66942-0.97490 0.58031 0.16339 0.18531-0.17208
  -2   9   3   13.45    2.42  22 0.66631-0.99347 0.58719 0.23292 0.17664-0.02384
  -2   9   4    2.09    2.32  22 0.66545-0.99649 0.58905 0.22301 0.17428 0.05364
  -1   2  -1 1488.31    8.35  22 0.66415-0.78602 0.59183-0.38973 0.17074-0.25797
  -1   2   6   34.10    2.18  22 0.66631-0.81512 0.58719-0.43663 0.17664 0.25824
  -1   4  -3  462.90    3.79  22 0.66545-0.80505 0.58905-0.19126 0.17428-0.42873
  -1   8  -3   10.44    2.15  22 0.66674-0.85813 0.58626 0.17299 0.17782-0.46850
   0   0   5  788.71    5.62  23 0.66991-0.68942 0.57920-0.61593 0.18669 0.18579
   0   2   9  370.89    4.48  22 0.66969-0.72972 0.57970-0.46526 0.18607 0.46780
   0   3  10    8.20    2.88  23 0.66950-0.74737 0.58012-0.38231 0.18554 0.53373
   0   4  -5    3.47    1.84  22 0.66545-0.69740 0.58905-0.19001 0.17428-0.58284
   0   8  -5   35.77    2.44  22 0.66674-0.74973 0.58626 0.17395 0.17782-0.62222
   1  -1   5   52.27    2.16  22 0.66759-0.57356 0.58439-0.72607 0.18018 0.19558
   1   0   8  489.79    4.48  23 0.67050-0.60099 0.57786-0.65054 0.18836 0.40324
   1   3  -6   10.99    2.01  22 0.66284-0.57829 0.59460-0.29381 0.16719-0.64662
   1   9  -6    3.17    2.46  22 0.66716-0.65886 0.58532 0.25831 0.17900-0.71225
   2  -2   2   11.21    1.93  22 0.66631-0.44866 0.58719-0.81030 0.17664-0.02171
   2  -2   3  468.80    4.09  22 0.66759-0.45359 0.58439-0.81549 0.18018 0.05014
   2   1  11   21.22    3.13  23 0.67076-0.52528 0.57726-0.59530 0.18911 0.61231
   2   2  12    2.96    3.25  23 0.67010-0.54115 0.57876-0.51464 0.18724 0.67984
   2   3  -7    6.67    1.89  22 0.66415-0.47532 0.59183-0.29732 0.17074-0.72938
   3  -2   6   13.22    1.89  22 0.66502-0.36194 0.58998-0.85787 0.17310 0.27663
   3  -1   9  101.07    3.28  23 0.66969-0.39093 0.57970-0.77859 0.18607 0.47893
   3   2  -7   32.47    2.91  23 0.67022-0.36879 0.57849-0.38917 0.18758-0.74302
   3   4  -8    2.32    2.12  22 0.66759-0.38773 0.58439-0.20624 0.18018-0.82870
   4   6  -9   10.16    2.58  22 0.66415-0.30638 0.59183-0.04080 0.17074-0.91647
   5  -3   1   71.32    2.54  22 0.66371-0.12820 0.59275-0.94226 0.16956-0.09384
   5  -3   4    3.56    1.89  22 0.66588-0.14183 0.58812-0.95985 0.17546 0.12345
   5  -2   8    5.92    2.10  22 0.66458-0.16865 0.59090-0.90218 0.17192 0.41756
   5  -1  -5   32.48    3.94  23 0.67414-0.14078 0.56935-0.69415 0.19888-0.58873
   5   2  -8    2.87    2.07  22 0.66674-0.16025 0.58626-0.41782 0.17782-0.81886
   5   4  -9    3.73    2.48  22 0.66415-0.17934 0.59183-0.23568 0.17074-0.90353
   5   5  -9    3.39    3.64  23 0.67134-0.20049 0.57592-0.12898 0.19077-0.93247
   6  -3   0    1.13    1.92  22 0.66588-0.02551 0.58812-0.94516 0.17546-0.17820
   6  -3   5    8.47    2.09  22 0.66674-0.04610 0.58626-0.97901 0.17782 0.19107
   7  -3   0   -0.11    2.83  23 0.66864 0.07143 0.58205-0.95383 0.18313-0.19277
   7  -3   5   13.26    2.33  22 0.66674 0.05329 0.58626-0.99265 0.17782 0.18658
   8  -3   1    3.32    3.13  22 0.66814 0.16792 0.58317-0.97547 0.18172-0.12201
   8  -3   2    1.29    2.30  22 0.66458 0.16791 0.59090-0.99053 0.17192-0.03734
   8  -3   3    0.17    2.32  22 0.66458 0.16378 0.59090-0.99786 0.17192 0.03635
   8  -3   4    3.32    2.46  22 0.66674 0.15807 0.58626-0.99983 0.17782 0.10518
   8  -3   5    3.30    3.46  23 0.67057 0.14854 0.57771-0.99735 0.18856 0.17000
  -2   8   2   73.83    3.33  23 0.67654-0.98550 0.56343 0.17294 0.20631-0.11789
  -2   8   3  163.94    4.10  24 0.67987-0.99414 0.55506 0.17434 0.21640-0.05426
  -2   8   5   29.50    3.35  24 0.67721-0.99849 0.56178 0.15329 0.20831 0.10322
  -1   3  -2   27.30    2.08  23 0.67168-0.80182 0.57504-0.27586 0.19207-0.36336
  -1   3   8  663.02    6.34  24 0.67851-0.84689 0.55852-0.33227 0.21224 0.36334
  -1   5  -3  143.43    2.66  23 0.67290-0.82498 0.57219-0.08449 0.19559-0.45935
  -1   6  -3  664.93    4.35  23 0.67451-0.83973 0.56837 0.00996 0.20028-0.47295
  -1   7  -3   -0.74    1.88  23 0.67250-0.85033 0.57314 0.09600 0.19442-0.47552
  -1   9  -2    1.41    2.22  23 0.67250-0.87946 0.57314 0.26889 0.19442-0.42014
  -1  10  -1   56.95    3.08  23 0.67250-0.89756 0.57314 0.35103 0.19442-0.35364
   0   1   8  247.40    3.90  24 0.67810-0.72135 0.55956-0.52793 0.21099 0.37700
   0   3  -4 1369.38    6.42  24 0.67765-0.70079 0.56068-0.26000 0.20964-0.53492
   0   4  11    0.91    3.19  23 0.67648-0.76974 0.56357-0.28358 0.20613 0.57904
   0   5  -5  802.31    4.65  23 0.67168-0.71566 0.57504-0.08693 0.19207-0.61009
   0   6  -5  197.21    2.83  23 0.67331-0.73015 0.57124 0.00749 0.19676-0.62362
   0   7  -5    6.57    2.01  23 0.67127-0.74161 0.57599 0.09216 0.19090-0.62635
   0   9  -4    5.20    2.30  23 0.67570-0.77556 0.56550 0.27689 0.20379-0.58207
   1  -1   6   67.98    2.81  24 0.67815-0.58828 0.55942-0.70778 0.21116 0.24013
   1   1  -4  323.52    4.29  23 0.67745-0.57446 0.56117-0.45536 0.20905-0.52130
   1   1  10   24.84    2.88  23 0.67784-0.62820 0.56020-0.55864 0.21022 0.52102
   1   2  -5    6.00    1.77  23 0.67331-0.58001 0.57124-0.36826 0.19676-0.59237
   1   2  11    2.93    2.09  23 0.67570-0.64386 0.56550-0.48015 0.20379 0.59407
   1   3  12   18.49    3.41  24 0.67859-0.66180 0.55833-0.39045 0.21248 0.65084
   1   4  -6    7.82    1.93  23 0.67411-0.60291 0.56933-0.17873 0.19911-0.68694
   1   7  -6    0.31    2.78  24 0.67804-0.64474 0.55971 0.10329 0.21080-0.72696
   1   8  -6    8.33    2.29  23 0.67371-0.65298 0.57028 0.18257 0.19794-0.72266
   2  -2   1   81.96    2.65  23 0.67168-0.45046 0.57504-0.79104 0.19207-0.10994
   2  -2   4  303.91    3.33  23 0.67209-0.46264 0.57409-0.81224 0.19324 0.11282
   2  -2   5    5.97    2.55  23 0.67792-0.47089 0.56000-0.80527 0.21045 0.17033
   2  -1   8   25.87    2.09  23 0.67491-0.49320 0.56742-0.74501 0.20145 0.39360
   2   0  10   41.98    3.05  23 0.67741-0.51635 0.56128-0.66364 0.20892 0.52734
   2   2  -6    3.62    2.65  24 0.67748-0.48091 0.56110-0.36532 0.20913-0.68259
   2   4  -7    2.85    1.92  23 0.67491-0.49708 0.56742-0.18305 0.20145-0.77018
   2   8  -7    2.25    2.33  23 0.67491-0.55047 0.56742 0.17865 0.20145-0.80529
   3  -2   7   31.34    2.06  23 0.67530-0.37610 0.56646-0.84093 0.20262 0.32186
   3   0  11   91.97    2.98  23 0.67530-0.41644 0.56646-0.69079 0.20262 0.60225
   3   1  12    5.76    2.38  23 0.67127-0.43015 0.57599-0.61642 0.19090 0.68043
   3   5  -8   36.00    2.38  23 0.67371-0.40596 0.57028-0.10239 0.19794-0.85491
   3   6  -8    1.91    2.31  23 0.67570-0.42099 0.56550-0.00686 0.20379-0.86927
   3   7  -8    5.32    2.40  23 0.67451-0.43251 0.56837 0.08123 0.20028-0.87489
   4  -3   1  308.21    4.30  24 0.67819-0.24303 0.55933-0.89452 0.21127-0.13118
   4  -3   2   82.92    2.44  23 0.67331-0.24203 0.57124-0.91357 0.19676-0.04134
   4  -3   3  286.46    3.48  23 0.67331-0.24626 0.57124-0.92112 0.19676 0.03350
   4  -3   4   51.71    2.32  23 0.67609-0.25260 0.56454-0.92200 0.20496 0.09918
   4  -2   8    4.59    1.97  23 0.67290-0.27726 0.57219-0.86840 0.19559 0.39803
   4  -1  10   23.44    2.37  23 0.67127-0.29695 0.57599-0.79655 0.19090 0.54391
   4   0  12    8.92    3.70  24 0.67880-0.32481 0.55777-0.70300 0.21314 0.66147
   4   3  -8    9.28    2.07  23 0.67290-0.27972 0.57219-0.29895 0.19559-0.83968
   5  -3   0   -0.77    1.96  23 0.67250-0.13357 0.57314-0.91521 0.19442-0.19285
   5  -3   5   12.92    2.03  23 0.67127-0.15103 0.57599-0.95475 0.19090 0.18386
   5  -3   6   32.31    2.99  24 0.67792-0.16142 0.56000-0.94619 0.21046 0.23824
   5  -2   9   11.22    2.18  23 0.67609-0.18433 0.56454-0.88223 0.20496 0.45787
   5  -1  11   -6.95    3.63  24 0.67746-0.20634 0.56116-0.80445 0.20905 0.59575
   5   1  -7  103.66    3.69  24 0.67940-0.16445 0.55624-0.48496 0.21498-0.77275
   6  -3   6   15.05    2.17  23 0.67371-0.05678 0.57028-0.97096 0.19794 0.24527
   6  -2   9   28.97    2.67  23 0.67168-0.07965 0.57504-0.90685 0.19207 0.46644
   6   2  -8   29.14    2.66  23 0.67411-0.06811 0.56933-0.41439 0.19911-0.84521
   7  -3   6    2.47    2.27  23 0.67331 0.04347 0.57124-0.98554 0.19676 0.24199
   7   2  -8   15.28    3.79  23 0.67607 0.03029 0.56459-0.42344 0.20490-0.85515
   8  -3   0    9.12    3.44  23 0.67647 0.16347 0.56361-0.94890 0.20609-0.22006
  -2   5   2    1.48    2.62  25 0.68620-0.95760 0.53814-0.07384 0.23645-0.12262
  -2   5   5   36.44    4.59  26 0.69475-0.97810 0.51218-0.06797 0.26601 0.07238
  -2   7   2   47.84    3.07  25 0.68469-0.98124 0.54235 0.10406 0.23153-0.13399
  -2   8   4    7.44    2.23  24 0.68112-0.99907 0.55194 0.16943 0.22021 0.01626
  -1   4  -2    2.52    2.48  25 0.68584-0.82947 0.53913-0.14783 0.23529-0.41535
  -1   4   9   15.03    2.92  24 0.68285-0.86881 0.54737-0.23877 0.22563 0.41601
  -1   6  10    0.11    4.01  26 0.69115-0.90784 0.52360-0.04071 0.25316 0.44538
  -1   7  10    8.20    4.52  25 0.68912-0.91679 0.52969 0.04229 0.24621 0.44344
  -1   8  -2   31.77    2.27  24 0.68112-0.87623 0.55194 0.19955 0.22021-0.43548
  -1   9  -1   29.37    3.24  25 0.68503-0.89492 0.54140 0.29309 0.23264-0.38226
  -1  10   0   27.37    2.63  24 0.68297-0.91069 0.54704 0.37072 0.22602-0.30986
   0   0   6   33.04    2.02  24 0.68260-0.70593 0.54802-0.59269 0.22486 0.22259
   0   1  -2 5157.31   16.17  24 0.68186-0.68722 0.54999-0.44458 0.22253-0.38046
   0   2  -3 1425.07    7.21  25 0.68513-0.69974 0.54112-0.33796 0.23297-0.47454
   0   8  -4    3.91    2.05  24 0.68333-0.77054 0.54606 0.20586 0.22718-0.59616
   0  10  -3    6.04    2.56  24 0.67962-0.79681 0.55584 0.36867 0.21555-0.52886
   1   0   9   99.21    3.22  25 0.68583-0.61981 0.53917-0.61989 0.23525 0.43067
   1   5  -6   42.75    2.06  24 0.67924-0.62010 0.55682-0.07582 0.21438-0.71188
   1   6  -6    2.01    1.88  24 0.68037-0.63396 0.55390 0.01721 0.21788-0.72395
   1   9  -5    6.52    3.33  25 0.68472-0.67875 0.54228 0.29290 0.23162-0.68825
   2  -2   6   52.78    2.84  25 0.68561-0.48216 0.53980-0.79319 0.23451 0.22062
   2   0  -4  361.50    5.16  25 0.68513-0.46970 0.54112-0.53950 0.23297-0.54196
   2   1  -5  527.32    4.92  25 0.68557-0.47931 0.53990-0.44034 0.23440-0.62720
   2   5  -7    0.31    1.94  24 0.67962-0.51624 0.55584-0.08060 0.21555-0.79309
   2   6  -7   -0.70    2.09  24 0.68075-0.53009 0.55292 0.01200 0.21904-0.80544
   2   7  -7    6.86    2.17  24 0.67924-0.54151 0.55682 0.09829 0.21438-0.80891
   3  -2   8    3.72    2.68  25 0.68557-0.39014 0.53991-0.82186 0.23438 0.36457
   3  -1  10    9.58    2.12  24 0.68370-0.40850 0.54507-0.75203 0.22834 0.51107
   3   0  -5   97.77    3.36  24 0.68400-0.36396 0.54424-0.54953 0.22932-0.61758
   3   1  -6  341.70    3.89  24 0.68075-0.36967 0.55292-0.46071 0.21904-0.69122
   3   3  -7   80.90    3.12  25 0.68593-0.39700 0.53889-0.25861 0.23557-0.80037
   4  -3   5    9.75    1.92  24 0.68075-0.26135 0.55292-0.91771 0.21904 0.15985
   4  -2   9    1.44    2.83  25 0.68499-0.29323 0.54151-0.84727 0.23252 0.43801
   4  -1  11   17.96    3.48  25 0.68513-0.31355 0.54112-0.76971 0.23297 0.57600
   4   4  -8    4.22    2.11  24 0.68260-0.30275 0.54802-0.18375 0.22486-0.87849
   5  -3   7   -1.15    2.98  25 0.68513-0.17231 0.54112-0.93465 0.23297 0.29027
   5   0  -6    1.91    2.77  24 0.68583-0.16210 0.53916-0.56608 0.23525-0.70951
   5   3  -8   12.62    3.14  24 0.68467-0.19097 0.54241-0.28156 0.23146-0.88093
   6  -3  -1    2.53    1.94  24 0.68112-0.03790 0.55194-0.90050 0.22021-0.29867
   6  -3   7   19.18    2.39  24 0.68112-0.06882 0.55194-0.95974 0.22021 0.29778
   7  -3  -1   25.61    3.31  24 0.68302 0.06102 0.54689-0.91038 0.22619-0.31065
   7  -3   7    2.38    2.37  24 0.68037 0.03245 0.55390-0.97548 0.21788 0.29487
  -2   5   3    8.28    2.70  26 0.69414-0.96988 0.51403-0.05532 0.26414-0.07522
  -2   6   2   34.06    2.27  25 0.68787-0.97281 0.53324 0.02270 0.24231-0.13657
  -2   7   3   21.41    2.86  25 0.69025-0.99062 0.52618 0.11305 0.25041-0.07897
  -2   7   4   10.06    2.89  26 0.69217-0.99734 0.52028 0.11186 0.25711-0.01171
  -2   7   5   26.46    3.22  26 0.69105-0.99912 0.52377 0.10103 0.25315 0.06753
  -1   1   3   80.32    3.76  25 0.69128-0.81593 0.52305-0.44086 0.25397-0.03404
  -1   1   4   51.16    3.23  25 0.69150-0.81990 0.52236-0.44755 0.25476 0.03987
  -1   2   7   60.97    2.46  25 0.68787-0.84108 0.53324-0.38955 0.24231 0.26769
  -1   5  -2   19.25    1.87  25 0.69058-0.84740 0.52520-0.04360 0.25153-0.43970
  -1   6  -2  311.21    3.38  25 0.69058-0.86019 0.52520 0.04701 0.25153-0.44834
  -1   7  -2   33.26    2.10  25 0.68718-0.86888 0.53523 0.12610 0.24000-0.44699
  -1  10   1   72.71    3.68  26 0.69170-0.92182 0.52174 0.38847 0.25545-0.26490
   0   2  10  190.53    3.40  25 0.68991-0.75298 0.52722-0.42123 0.24923 0.47945
   0   3  11    1.64    3.01  25 0.69189-0.77223 0.52115-0.33237 0.25612 0.53716
   0   4  -4  782.91    4.61  25 0.68787-0.72363 0.53324-0.14208 0.24231-0.57621
   0   5  -4   69.79    2.93  26 0.69176-0.73990 0.52157-0.03986 0.25564-0.59825
   0   5  12    6.07    3.78  25 0.69120-0.80202 0.52328-0.16021 0.25371 0.59690
   0   6  -4  259.78    3.50  26 0.69162-0.75236 0.52200 0.04993 0.25516-0.60669
   0   7  -4    4.39    1.92  25 0.68856-0.76160 0.53123 0.13089 0.24462-0.60621
   0   9  -3    6.25    2.21  25 0.68957-0.79277 0.52822 0.30734 0.24807-0.55277
   0  10  -2    7.23    3.38  26 0.69189-0.81172 0.52115 0.39712 0.25612-0.49458
   1  -1   7  288.17    3.39  25 0.68856-0.60241 0.53123-0.68755 0.24462 0.28134
   1   3  -5    3.33    1.78  25 0.68957-0.60838 0.52822-0.23328 0.24807-0.65411
   1   8  -5    1.21    2.18  25 0.69058-0.67326 0.52520 0.22010 0.25153-0.70212
   1  10  -4    3.22    2.55  25 0.68924-0.70089 0.52923 0.38912 0.24692-0.64084
   2  -2   0  148.51    3.35  25 0.68822-0.46274 0.53224-0.74087 0.24347-0.23672
   2  -1   9   83.32    2.46  25 0.68753-0.50935 0.53424-0.71930 0.24116 0.42894
   2   0  11   16.74    3.07  26 0.69179-0.53415 0.52148-0.63040 0.25575 0.55516
   2   1  12    3.80    2.35  25 0.68890-0.54898 0.53023-0.55636 0.24577 0.63050
   2   2  13    8.82    2.64  25 0.68957-0.56511 0.52822-0.47206 0.24807 0.69288
   2   3  -6   16.53    2.82  25 0.69171-0.50606 0.52171-0.23375 0.25548-0.74064
   2   8  -6    6.82    3.24  26 0.69242-0.57163 0.51950 0.21889 0.25799-0.78824
   2   9  -6    7.32    2.57  25 0.68648-0.57784 0.53723 0.29152 0.23769-0.77540
   3  -3   2  115.24    3.16  26 0.69269-0.36171 0.51867-0.84669 0.25893-0.09910
   3  -3   3   53.24    2.23  25 0.69024-0.36278 0.52621-0.86159 0.25038-0.01680
   3  -3   4   34.36    2.70  25 0.69150-0.36880 0.52236-0.86600 0.25475 0.05504
   3   0  12    3.45    2.43  25 0.69024-0.43719 0.52621-0.65647 0.25038 0.62821
   3   8  -7   24.05    2.69  25 0.68991-0.46523 0.52722 0.20446 0.24923-0.85880
   4  -3   0  145.61    3.24  25 0.68890-0.24963 0.53023-0.85767 0.24577-0.24040
   4  -3   6   -0.03    1.85  25 0.68648-0.26991 0.53723-0.90993 0.23769 0.21672
   4  -3   7    7.00    2.79  26 0.69249-0.28201 0.51927-0.89753 0.25824 0.27002
   4   2  -7    0.41    1.91  25 0.68924-0.28728 0.52923-0.35362 0.24692-0.80748
   4   5  -8    4.58    2.21  25 0.68718-0.31908 0.53523-0.08128 0.24000-0.90227
   4   6  -8    4.40    2.36  25 0.68822-0.33344 0.53224 0.01171 0.24347-0.91435
   4   7  -8    4.19    2.49  25 0.68683-0.34451 0.53623 0.09736 0.23885-0.91831
   5  -3  -1  247.06    4.93  25 0.69066-0.14700 0.52495-0.86007 0.25181-0.32619
   5  -3   8   36.82    3.36  26 0.69244-0.18401 0.51945-0.92002 0.25805 0.34069
   5  -2  10   17.36    2.56  25 0.68718-0.19892 0.53523-0.86009 0.24000 0.49807
   5   4  -8   14.22    3.18  26 0.69232-0.21238 0.51983-0.17019 0.25762-0.91661
   6  -3   8   15.70    2.54  25 0.68856-0.08024 0.53123-0.94595 0.24462 0.34811
   6  -1  -5   33.18    4.71  27 0.69810-0.06445 0.50066-0.63939 0.27894-0.67396
   6   1  -7   13.72    2.29  25 0.68822-0.07294 0.53224-0.47518 0.24347-0.80596
   6   3  -8   10.79    3.41  25 0.69084-0.09777 0.52441-0.27906 0.25242-0.90672
   7   1  -7   24.36    3.65  25 0.69062 0.02534 0.52507-0.48221 0.25167-0.81826
   7   3  -8    0.03    3.67  25 0.69189 0.00104 0.52115-0.29041 0.25612-0.91789
   8  -3  -1    3.87    3.27  25 0.69093 0.15318 0.52412-0.90121 0.25275-0.34220
   8   0  -6   -1.89    3.61  26 0.69189 0.13251 0.52115-0.59020 0.25612-0.74497
  -2   5   4  191.04    4.93  27 0.69849-0.97828 0.49929-0.04784 0.28079-0.01705
  -2   6   3   24.78    2.14  26 0.69470-0.98343 0.51219 0.03695 0.26655-0.08668
  -2   6   4  239.10    4.76  27 0.69880-0.99125 0.49816 0.04359 0.28203-0.02730
  -2   6   5  427.17    7.02  27 0.69794-0.99411 0.50121 0.03350 0.27869 0.05062
  -1   1   5    1.02    2.57  27 0.69804-0.83034 0.50086-0.43446 0.27908 0.08859
  -1   3  -1   49.78    2.21  26 0.69407-0.82883 0.51424-0.22194 0.26426-0.36019
  -1   5  10   35.34    3.71  26 0.69681-0.89967 0.50511-0.11317 0.27440 0.43281
  -1   8  -1    5.21    2.02  26 0.69343-0.89151 0.51628 0.22814 0.26197-0.40304
  -1   9   0    5.48    2.10  26 0.69438-0.90985 0.51322 0.31471 0.26541-0.34039
  -1  10   2   28.37    3.56  27 0.69797-0.93307 0.50110 0.40165 0.27881-0.21385
   0   0   7   40.71    2.11  26 0.69343-0.72123 0.51628-0.56734 0.26197 0.26064
   0   1   9   33.31    2.23  26 0.69407-0.74215 0.51424-0.48948 0.26426 0.39888
   0   4  12    2.96    3.51  27 0.69950-0.79731 0.49566-0.22117 0.28475 0.57438
   0   8  -3    3.50    2.76  26 0.69742-0.78748 0.50303 0.24228 0.27669-0.57126
   1  -1   8   68.35    2.98  26 0.69789-0.61559 0.50139-0.66515 0.27849 0.32175
   1   0  10   32.14    3.00  27 0.69823-0.63594 0.50019-0.58726 0.27981 0.46131
   1   1  11   36.88    2.40  26 0.69407-0.64889 0.51424-0.51851 0.26426 0.54268
   1   2  12   -0.60    2.24  26 0.69407-0.66555 0.51424-0.43605 0.26426 0.60809
   1   4  -5   19.22    1.92  26 0.69685-0.62876 0.50500-0.12037 0.27453-0.68810
   1   6  -5   42.20    2.78  27 0.69844-0.65591 0.49944 0.06475 0.28063-0.71218
   1   7  -5    3.31    1.92  26 0.69563-0.66593 0.50912 0.14477 0.26997-0.71015
   1   9  -4   -0.30    3.19  27 0.69804-0.69703 0.50086 0.32774 0.27908-0.66263
   2  -2   7    1.05    1.86  26 0.69312-0.49552 0.51730-0.77677 0.26083 0.26816
   2  -1  10    7.87    2.88  27 0.69822-0.52386 0.50021-0.69142 0.27978 0.46506
   2   4  -6   10.67    2.65  26 0.69804-0.52599 0.50086-0.12406 0.27908-0.77220
   2   7  -6   31.53    3.09  27 0.69760-0.56207 0.50238 0.14574 0.27740-0.79674
   3  -3   5  113.85    2.51  26 0.69375-0.37414 0.51526-0.86537 0.26312 0.12146
   3  -3   6   65.34    2.95  27 0.69804-0.38269 0.50086-0.85867 0.27907 0.17954
   3  -2   9   45.57    2.39  26 0.69501-0.40342 0.51117-0.80076 0.26769 0.40606
   3  -1  11   10.82    2.26  26 0.69563-0.42397 0.50912-0.72383 0.26997 0.54365
   3   4  -7   80.03    2.48  26 0.69343-0.41687 0.51628-0.14612 0.26197-0.83519
   3   5  -7    7.44    2.01  26 0.69624-0.43292 0.50706-0.04603 0.27225-0.85470
   3   6  -7   46.00    2.48  26 0.69624-0.44574 0.50706 0.04446 0.27225-0.86368
   3   7  -7    7.84    2.33  26 0.69407-0.45598 0.51424 0.12714 0.26426-0.86474
   4  -2  10   17.81    2.44  26 0.69438-0.30709 0.51322-0.82434 0.26541 0.47804
   5   5  -8   86.01    2.98  26 0.69593-0.22850 0.50809-0.06802 0.27111-0.93880
   5   6  -8   11.54    2.65  26 0.69654-0.24157 0.50603 0.02477 0.27339-0.95001
   6  -4   3    0.27    2.92  26 0.69804-0.05779 0.50086-0.96746 0.27908-0.05024
   6  -4   4    2.23    2.95  27 0.69834-0.06341 0.49982-0.97526 0.28021 0.02259
   6  -3   9    1.37    2.56  26 0.69593-0.09136 0.50809-0.92982 0.27111 0.39602
   6   0  -6   -1.23    2.90  27 0.69804-0.07410 0.50086-0.54121 0.27908-0.75773
   6   4  -8    4.82    3.43  26 0.69812-0.11847 0.50057-0.16452 0.27939-0.94333
   7  -4   3   39.41    3.37  27 0.69847 0.04253 0.49936-0.98207 0.28072-0.05723
   7  -4   4    8.24    3.24  26 0.69787 0.03897 0.50145-0.99109 0.27842 0.01919
   7  -4   5    6.56    3.42  27 0.69857 0.03443 0.49900-0.99417 0.28111 0.09046
   7  -1  -5    1.41    3.83  27 0.70125 0.03249 0.48919-0.64190 0.29174-0.69190
   7   0  -6   61.89    4.61  27 0.70045 0.02456 0.49219-0.54717 0.28851-0.77190
  -1   1   6  103.06    3.16  28 0.70420-0.83976 0.47811-0.41773 0.30373 0.13982
  -1   2   8   86.60    3.31  27 0.70302-0.85969 0.48282-0.34723 0.29873 0.28567
  -1   3   9   97.68    3.03  27 0.70016-0.87325 0.49365-0.27361 0.28709 0.36279
  -1   4  -1  297.16    3.81  28 0.70365-0.85113 0.48032-0.09753 0.30139-0.40633
  -1   4  10   15.14    3.16  28 0.70489-0.89293 0.47530-0.17357 0.30669 0.40912
  -1   6  -1   88.01    3.09  28 0.70395-0.87698 0.47911 0.08439 0.30268-0.42635
  -1   7  -1  322.83    3.48  27 0.70016-0.88540 0.49365 0.16024 0.28709-0.41864
  -1   8   0   26.67    2.97  28 0.70373-0.90544 0.47999 0.25677 0.30174-0.36863
  -1   9   1    9.12    3.12  28 0.70352-0.92090 0.48083 0.33897 0.30085-0.30064
   0   0   8   27.74    2.89  27 0.70320-0.73410 0.48211-0.54162 0.29949 0.29680
   0   3  -3 3708.72   10.13  27 0.70100-0.72826 0.49052-0.19739 0.29048-0.54064
   0   7  -3    1.42    2.66  28 0.70373-0.77969 0.47999 0.17395 0.30174-0.58539
   0   9  -2   25.28    2.36  27 0.70128-0.80878 0.48947 0.33802 0.29161-0.52173
   0  10  -1   20.28    2.54  27 0.70184-0.82593 0.48737 0.42339 0.29386-0.45832
   1  -2   3   -0.76    2.80  28 0.70386-0.58987 0.47946-0.69570 0.30230-0.06652
   1  -2   4  689.63    5.10  27 0.70324-0.59354 0.48193-0.70618 0.29968 0.01064
   1  -2   5   17.05    2.61  28 0.70430-0.59798 0.47770-0.70837 0.30417 0.08004
   1   2  -4    6.11    1.84  27 0.70211-0.61228 0.48632-0.29204 0.29499-0.61510
   1   5  -5   14.77    1.88  27 0.69929-0.64428 0.49678-0.02221 0.28369-0.70570
   1  10  -3   -0.56    2.50  27 0.70128-0.71734 0.48947 0.42247 0.29161-0.61005
   2  -2   8  101.20    2.52  27 0.70072-0.50552 0.49156-0.75951 0.28935 0.31466
   2   0  12   11.11    3.38  28 0.70390-0.54983 0.47931-0.59563 0.30246 0.58247
   2   5  -6   25.48    2.11  27 0.70044-0.54066 0.49261-0.02523 0.28822-0.79046
   2   6  -6   10.70    2.05  27 0.69987-0.55366 0.49470 0.06303 0.28596-0.79676
   2   9  -5    4.82    2.38  27 0.70100-0.59642 0.49052 0.33091 0.29048-0.75365
   3  -3   1    2.84    1.75  27 0.69958-0.36504 0.49574-0.81650 0.28483-0.19874
   3  -3   7    1.19    2.63  28 0.70337-0.39290 0.48141-0.84777 0.30023 0.23232
   3  -2  -2 1004.03   12.64  28 0.70531-0.37191 0.47354-0.68169 0.30856-0.45627
   3  -2  10    7.30    2.97  27 0.70373-0.41712 0.47999-0.77685 0.30174 0.44601
   3   2  -6   88.13    2.59  27 0.70100-0.40337 0.49052-0.30788 0.29048-0.77170
   4  -3   8    4.37    2.03  27 0.69929-0.29036 0.49678-0.88389 0.28369 0.32057
   4  -2  11    6.04    3.42  27 0.70352-0.31838 0.48082-0.80001 0.30086 0.51717
   4   1  -6  177.59    3.83  27 0.70289-0.29117 0.48333-0.40550 0.29819-0.77467
   4   3  -7   71.84    2.47  27 0.70072-0.31160 0.49156-0.22551 0.28935-0.85899
   4   7  -7    5.62    3.28  28 0.70432-0.36631 0.47764 0.15091 0.30423-0.91050
   5  -4   3  108.26    3.46  27 0.70310-0.16283 0.48248-0.93767 0.29909-0.06565
   5  -4   4    1.20    1.92  27 0.70239-0.16590 0.48527-0.94769 0.29612 0.01215
   5  -4   5   14.06    2.98  27 0.70343-0.17115 0.48120-0.95079 0.30045 0.08306
   5  -3   9   14.53    2.53  27 0.69958-0.19461 0.49574-0.90341 0.28483 0.38776
   5   2  -7   27.40    2.20  27 0.70100-0.19866 0.49052-0.32908 0.29048-0.85619
   6  -4   2    4.10    2.06  27 0.70156-0.05625 0.48842-0.94966 0.29274-0.13965
   6  -4   5    6.39    2.14  27 0.69958-0.06673 0.49574-0.97826 0.28483 0.09334
   6  -4   6    1.32    2.28  27 0.70239-0.07280 0.48527-0.97605 0.29612 0.15615
   6   5  -8   14.04    2.63  27 0.70156-0.13337 0.48842-0.06299 0.29274-0.96502
   7  -4   2    3.37    2.25  27 0.70100 0.04357 0.49052-0.96528 0.29048-0.14105
   7  -4   6    4.01    2.60  27 0.70184 0.02746 0.48737-0.99233 0.29386 0.15354
   8  -4   2    3.42    3.51  28 0.70452 0.14045 0.47681-0.96612 0.30510-0.16142
   8  -4   3    1.01    2.58  27 0.70156 0.13798 0.48842-0.98490 0.29274-0.07487
   8  -4   4    6.16    2.55  27 0.70072 0.13640 0.49156-0.99539 0.28935 0.00307
  -1   5  -1   86.01    2.36  28 0.70555-0.86598 0.47253 0.00030 0.30948-0.42383
  -1   9   2   34.35    3.24  29 0.70962-0.93219 0.45443 0.35839 0.32823-0.25504
  -1  10   4   20.25    2.68  28 0.70656-0.94983 0.46826 0.42031 0.31395-0.10068
  -1  10   5    4.98    3.71  29 0.70873-0.95533 0.45860 0.42252 0.32396-0.03550
   0  -1   3  132.10    3.58  29 0.70873-0.70750 0.45860-0.57061 0.32396-0.09206
   0  -1   4  169.07    2.98  28 0.70656-0.70916 0.46826-0.58796 0.31395-0.00727
   0  -1   5    2.12    1.75  28 0.70754-0.71459 0.46398-0.58991 0.31840 0.06119
   0   1  10    6.99    2.05  28 0.70631-0.75722 0.46933-0.45258 0.31283 0.42430
   0   2  11    0.22    2.12  28 0.70530-0.77289 0.47360-0.37373 0.30836 0.49471
   0   3  12    7.23    3.45  28 0.70860-0.79322 0.45921-0.27640 0.32332 0.54495
   0   4  -3 1485.44    6.27  28 0.70681-0.74650 0.46719-0.08348 0.31506-0.57442
   0   5  -3  414.77    4.01  28 0.70833-0.75961 0.46045 0.01355 0.32205-0.58997
   0   6  -3   72.59    2.31  28 0.70631-0.77170 0.46933 0.09458 0.31283-0.59034
   0   8  -2   34.79    2.98  29 0.70873-0.80297 0.45860 0.27846 0.32396-0.54492
   1  -2   2  163.71    3.66  29 0.70889-0.59100 0.45785-0.66674 0.32472-0.16360
   1  -2   6   95.31    2.33  28 0.70754-0.60419 0.46398-0.70320 0.31840 0.14094
   1  -1   9   30.70    2.13  28 0.70631-0.62752 0.46933-0.64007 0.31283 0.36294
   1   0  11   -3.07    2.92  29 0.70885-0.65089 0.45806-0.55249 0.32451 0.49084
   1   1  12    2.44    2.20  28 0.70705-0.66508 0.46612-0.47827 0.31618 0.56535
   1   2  13   -0.82    3.58  28 0.70826-0.68344 0.46075-0.38906 0.32174 0.62426
   1   8  -4   -0.34    2.09  28 0.70478-0.69124 0.47572 0.26240 0.30612-0.68065
   1   9  -3  100.60    3.60  29 0.70936-0.71259 0.45569 0.36495 0.32694-0.63627
   2  -3   4    0.34    2.52  28 0.70873-0.48603 0.45860-0.78721 0.32396-0.01040
   2  -3   5   19.89    2.70  29 0.70911-0.48940 0.45684-0.79259 0.32576 0.06401
   2  -2   9   26.39    2.17  28 0.70754-0.51601 0.46398-0.73883 0.31840 0.36031
   2  -1  11    1.05    2.18  28 0.70778-0.53650 0.46290-0.66222 0.31951 0.49993
   2   2  -5  131.46    2.64  28 0.70555-0.51150 0.47253-0.28369 0.30948-0.71044
   2   8  -5   67.28    2.56  28 0.70705-0.58939 0.46612 0.26500 0.31618-0.77063
   3  -3   8    1.38    1.91  28 0.70778-0.39967 0.46290-0.83479 0.31951 0.28824
   3  -1  12    5.93    2.51  28 0.70581-0.43803 0.47146-0.69212 0.31060 0.57803
   3   3  -6   11.33    2.80  29 0.70953-0.42433 0.45486-0.18263 0.32779-0.81774
   3   8  -6    9.97    2.43  28 0.70555-0.48445 0.47253 0.25142 0.30948-0.84401
   4  -4   4    7.50    2.81  29 0.70889-0.27340 0.45786-0.90512 0.32471-0.01206
   4  -4   5   48.31    2.97  29 0.70928-0.27609 0.45604-0.91095 0.32658 0.06122
   4  -3  -1   39.90    3.06  28 0.70834-0.26545 0.46038-0.78072 0.32212-0.39117
   4  -3   9   15.85    2.29  28 0.70530-0.30037 0.47360-0.86678 0.30836 0.36927
   4   4  -7   54.24    2.34  28 0.70606-0.32854 0.47040-0.11462 0.31172-0.88967
   4   5  -7    1.09    2.08  28 0.70754-0.34391 0.46398-0.01667 0.31840-0.90548
   4   6  -7   41.45    2.51  28 0.70681-0.35621 0.46719 0.06923 0.31506-0.91146
   5  -4   2   47.27    2.40  28 0.70581-0.16143 0.47146-0.91890 0.31060-0.15130
   5  -4   6   24.14    2.27  28 0.70555-0.17634 0.47253-0.94900 0.30948 0.14808
   5  -4   7   29.20    3.28  28 0.70873-0.18443 0.45860-0.94247 0.32396 0.20781
   5  -3  10   -0.07    2.51  28 0.70631-0.20531 0.46933-0.88397 0.31283 0.43445
   5   3  -7   70.09    3.38  29 0.70945-0.22052 0.45526-0.20387 0.32738-0.90278
   6  -4   1   83.36    3.08  28 0.70705-0.05860 0.46612-0.91997 0.31618-0.23713
   6  -4   7   -1.26    2.38  28 0.70555-0.07999 0.47253-0.96969 0.30948 0.21740
   6  -4   8   10.93    3.65  29 0.70930-0.08771 0.45595-0.95993 0.32667 0.27466
   6  -3  -2    4.74    2.90  28 0.70822-0.06081 0.46092-0.80285 0.32156-0.47501
   6   2  -7   22.35    3.25  28 0.70761-0.10419 0.46366-0.31672 0.31873-0.88885
   7  -4   1    6.52    2.22  28 0.70656 0.04144 0.46826-0.93595 0.31395-0.23942
   7  -3  -2   10.64    3.22  28 0.70747 0.04045 0.46428-0.82061 0.31809-0.47658
   7   2  -7    1.09    3.31  29 0.70943-0.00775 0.45536-0.32308 0.32728-0.90282
   8  -4   1    1.12    3.43  29 0.70948 0.13872 0.45512-0.93580 0.32752-0.25826
  -1   1   7   20.43    1.99  29 0.71100-0.85087 0.44672-0.39325 0.33612 0.18264
  -1   2   9  142.01    3.68  30 0.71312-0.87295 0.43565-0.30677 0.34721 0.31163
  -1   3   0 2277.13   10.25  30 0.71360-0.85220 0.43297-0.14811 0.34987-0.37158
  -1   3  10   43.12    3.33  30 0.71366-0.88940 0.43263-0.22154 0.35021 0.37434
  -1   7   0   11.98    1.98  29 0.71012-0.89976 0.45107 0.19571 0.33171-0.38908
  -1   8   1   33.69    2.22  29 0.71165-0.91770 0.44344 0.28697 0.33942-0.33147
   0  -1   6   87.45    2.34  29 0.71035-0.72122 0.44998-0.58381 0.33281 0.12390
   0   0   9  257.82    3.41  29 0.71100-0.74576 0.44672-0.51299 0.33612 0.33535
   0   9  -1   39.08    2.30  29 0.71057-0.82226 0.44889 0.37167 0.33392-0.48908
   0  10   0   66.17    2.77  29 0.70990-0.83791 0.45215 0.45084 0.33060-0.42017
   1  -2   7    2.64    1.86  29 0.71122-0.61268 0.44563-0.69161 0.33722 0.19765
   1  -1  10   15.22    2.90  30 0.71301-0.63848 0.43621-0.61352 0.34666 0.40188
   1   1  -3  203.97    3.43  29 0.71122-0.61246 0.44563-0.34691 0.33722-0.57530
   1   3  -4   31.83    2.04  29 0.71100-0.63393 0.44672-0.16029 0.33612-0.66639
   1   6  -4   29.74    2.84  30 0.71271-0.67374 0.43788 0.11895 0.34499-0.70139
   1   7  -4    9.82    1.92  29 0.70945-0.68273 0.45432 0.19374 0.32839-0.69443
   1  10  -2   37.51    2.65  29 0.71079-0.73095 0.44781 0.45564 0.33502-0.57872
   2  -3   3   35.86    2.07  29 0.70967-0.48260 0.45324-0.77450 0.32950-0.08910
   2  -3   6   -1.20    1.92  29 0.71100-0.49520 0.44672-0.79009 0.33612 0.12801
   2  -2  10   21.42    3.10  30 0.71339-0.52602 0.43417-0.71553 0.34868 0.40493
   2   3  -5  138.56    3.29  30 0.71281-0.53143 0.43732-0.15790 0.34555-0.75558
   2   7  -5   14.97    2.08  29 0.71122-0.58082 0.44563 0.19532 0.33722-0.78272
   2   9  -4    5.20    2.28  29 0.71207-0.61153 0.44126 0.37383 0.34162-0.73053
   3  -3   0   52.10    2.32  29 0.71143-0.37291 0.44454-0.75782 0.33832-0.32686
   3  -3   9   31.39    3.03  29 0.71261-0.40826 0.43839-0.81859 0.34449 0.33752
   3  -2  11   -0.86    2.27  29 0.71079-0.42675 0.44781-0.75170 0.33502 0.48802
   3   1  -5  159.91    3.54  30 0.71302-0.40622 0.43620-0.35165 0.34667-0.74423
   3   4  -6    9.69    2.64  30 0.71283-0.43916 0.43723-0.07461 0.34564-0.84418
   3   5  -6    7.32    2.70  30 0.71315-0.45441 0.43548 0.01829 0.34738-0.85504
   3   6  -6   23.44    2.10  29 0.71207-0.46477 0.44126 0.10236 0.34162-0.85854
   3   7  -6   15.46    2.20  29 0.70945-0.47550 0.45432 0.17926 0.32839-0.85397
   3   9  -5    3.56    2.44  29 0.71186-0.50730 0.44235 0.36549 0.34052-0.80908
   4  -4   2    9.69    2.86  30 0.71289-0.26859 0.43687-0.86987 0.34600-0.18094
   4  -4   3    1.94    1.95  29 0.70967-0.27001 0.45324-0.89261 0.32950-0.09193
   4  -4   6   23.63    2.18  29 0.71079-0.28188 0.44781-0.90997 0.33502 0.12773
   4  -4   7   25.05    3.09  30 0.71320-0.28886 0.43520-0.90425 0.34766 0.18929
   4  -3  10    4.81    2.40  29 0.71122-0.31050 0.44563-0.84732 0.33722 0.41551
   4   0  -5  252.00    4.61  29 0.71257-0.29205 0.43863-0.45868 0.34425-0.73745
   5  -4   1   12.21    2.10  29 0.71100-0.16275 0.44672-0.88600 0.33612-0.25201
   5  -4   8   -1.13    2.30  29 0.71186-0.19063 0.44235-0.93287 0.34052 0.26652
   5   1  -6   29.81    3.00  30 0.71378-0.20286 0.43200-0.36814 0.35084-0.83381
   5   4  -7   60.56    3.28  30 0.71303-0.23681 0.43611-0.09394 0.34676-0.93028
   5   6  -7   37.09    3.55  30 0.71304-0.26294 0.43609 0.08663 0.34678-0.94858
   5   7  -7    1.84    2.49  29 0.71100-0.27255 0.44672 0.16679 0.33612-0.94653
   8  -3  -2    5.24    3.49  30 0.71326 0.13418 0.43488-0.80406 0.34798-0.51198
  -1   1   2  446.37   12.32  31 0.71807-0.83855 0.40336-0.31350 0.37858-0.23381
  -1   1   8  276.15    4.18  31 0.71663-0.85991 0.41330-0.36743 0.36907 0.22397
  -1   5   0  136.50    3.23  31 0.71707-0.88111 0.41037 0.05544 0.37188-0.41179
  -1   5  11   13.60    3.66  31 0.71652-0.92235 0.41404-0.02927 0.36835 0.41301
  -1   6   0   13.23    1.97  30 0.71445-0.89120 0.42684 0.12929 0.35589-0.40512
  -1   6  11    0.01    4.35  31 0.71791-0.93738 0.40452 0.07076 0.37748 0.39490
   0  -1   2 5421.92   16.91  30 0.71612-0.71155 0.41659-0.52114 0.36588-0.20869
   0  -1   7  604.55    4.40  30 0.71387-0.72870 0.43016-0.57133 0.35262 0.17859
   0   1  11   13.11    2.29  30 0.71501-0.76876 0.42352-0.41536 0.35915 0.45217
   0   2  12   -3.63    3.19  31 0.71608-0.78845 0.41684-0.32558 0.36564 0.51277
   0   7  -2   41.27    2.18  30 0.71368-0.79528 0.43126 0.21570 0.35153-0.56347
   0   8  -1   50.43    2.95  31 0.71689-0.81572 0.41157 0.31829 0.37073-0.51735
   0  10   1    2.85    3.28  31 0.71623-0.84651 0.41590 0.48036 0.36655-0.38131
   1  -2   8   50.94    2.28  30 0.71501-0.61953 0.42352-0.67754 0.35915 0.24991
   1   0  -2    5.69    3.40  31 0.71643-0.61006 0.41461-0.41445 0.36780-0.52001
   1   0  12    3.71    3.28  31 0.71643-0.66213 0.41461-0.51696 0.36780 0.52244
   1   1  13    7.83    3.68  30 0.71634-0.67908 0.41522-0.43664 0.36721 0.58810
   1   4  -4  259.87    3.08  30 0.71387-0.64934 0.43016-0.05380 0.35262-0.69181
   1   5  -4   20.87    1.99  30 0.71406-0.66265 0.42905 0.03834 0.35371-0.70161
   1   8  -3   39.14    2.23  30 0.71482-0.70628 0.42463 0.30557 0.35806-0.65812
   2  -3   2  100.68    2.51  30 0.71368-0.48366 0.43126-0.74510 0.35153-0.18601
   2  -3   7    3.65    1.91  30 0.71368-0.50310 0.43126-0.78157 0.35153 0.18638
   2  -3   8  101.42    3.17  31 0.71666-0.50848 0.41310-0.77102 0.36925 0.24385
   2  -1  12    2.28    2.39  30 0.71501-0.54795 0.42352-0.63084 0.35915 0.53485
   2   1  -4  110.54    3.22  31 0.71626-0.51336 0.41571-0.32432 0.36674-0.68405
   2   4  -5   55.00    2.17  30 0.71519-0.54649 0.42241-0.05219 0.36023-0.77931
   2   5  -5    3.06    1.86  30 0.71537-0.56049 0.42130 0.03834 0.36132-0.78814
   2   6  -5   14.83    1.98  30 0.71387-0.57097 0.43016 0.12053 0.35262-0.78926
   2  10  -3   19.29    2.63  30 0.71426-0.63160 0.42795 0.46868 0.35480-0.67801
   3  -4   4   21.04    2.93  31 0.71658-0.38011 0.41365-0.84647 0.36872-0.05041
   3  -4   5    5.06    2.60  31 0.71643-0.38560 0.41461-0.85403 0.36780 0.02497
   3  -3  10    3.22    3.14  31 0.71677-0.41670 0.41237-0.79882 0.36996 0.38696
   3  -2  12    2.99    3.55  31 0.71677-0.43571 0.41237-0.72457 0.36996 0.52791
   3   8  -5   11.45    3.12  31 0.71643-0.49855 0.41461 0.30207 0.36780-0.82838
   4  -4   8    2.72    2.97  31 0.71621-0.29588 0.41602-0.89492 0.36643 0.24561
   4  -1  -4   74.03    4.29  31 0.71860-0.28971 0.39950-0.51702 0.38224-0.69274
   4   2  -6   67.16    2.37  30 0.71463-0.31613 0.42573-0.25747 0.35698-0.84297
   4   7  -6    0.70    3.08  31 0.71694-0.38249 0.41125 0.20843 0.37103-0.90141
   4   8  -6   29.04    2.64  30 0.71348-0.39233 0.43237 0.27757 0.35044-0.88972
   5  -4   9    3.71    2.50  30 0.71537-0.19753 0.42130-0.92024 0.36132 0.31989
   5  -3  -2   82.89    4.02  31 0.71685-0.17019 0.41181-0.73921 0.37049-0.51784
   5   5  -7   21.68    2.36  30 0.71368-0.25083 0.43126 0.00072 0.35153-0.94394
   6  -4   0  151.33    3.94  30 0.71501-0.06286 0.42352-0.87001 0.35915-0.35415
   6   3  -7   -0.48    2.13  30 0.71426-0.12508 0.42795-0.19041 0.35480-0.93380
   6   4  -7   13.62    3.32  31 0.71664-0.14055 0.41324-0.08483 0.36912-0.95890
   6   6  -7   38.11    3.84  31 0.71654-0.16679 0.41386 0.09472 0.36852-0.97557
   7  -4   0    2.57    2.10  30 0.71463 0.03793 0.42573-0.88651 0.35698-0.35744
   7   3  -7    4.67    3.38  31 0.71620-0.02647 0.41611-0.19242 0.36635-0.95026
   8  -4   0    1.49    3.38  31 0.71710 0.13549 0.41016-0.88408 0.37209-0.37717
  -1   4   0   82.20    2.40  31 0.71739-0.86862 0.40769-0.03242 0.37426-0.40514
  -1   4  11    3.96    3.20  31 0.71901-0.91266 0.39590-0.10259 0.38544 0.40442
  -1   7   1    7.35    1.96  31 0.71772-0.91093 0.40545 0.23331 0.37640-0.36066
  -1   8   2  178.15    3.14  31 0.71772-0.92757 0.40545 0.31693 0.37640-0.29355
  -1   9   4   11.96    2.31  31 0.71787-0.94888 0.40432 0.39362 0.37748-0.15464
  -1   9   5   10.24    3.29  32 0.72030-0.95464 0.38528 0.40536 0.39536-0.09894
   0  -1   8  149.50    2.81  31 0.71756-0.73579 0.40657-0.55499 0.37533 0.23072
   0   0  10   47.92    2.38  31 0.71723-0.75637 0.40882-0.48134 0.37319 0.37331
   0   1  -1  231.25    4.51  31 0.71864-0.72781 0.39868-0.30065 0.38282-0.46622
   0   3  -2  681.60    4.85  31 0.71834-0.74915 0.40094-0.11509 0.38069-0.55671
   0   4  -2  233.23    3.53  32 0.71987-0.76378 0.38897-0.01328 0.39193-0.57684
   0   5  -2  625.10    4.68  32 0.71946-0.77532 0.39232 0.07418 0.38880-0.58243
   0   6  -2   69.08    2.34  31 0.71723-0.78624 0.40882 0.14757 0.37319-0.57606
   0   9   0    2.75    2.12  31 0.71756-0.83279 0.40657 0.40561 0.37533-0.45639
   1  -2   1 1470.20    8.44  31 0.71819-0.59663 0.40207-0.60357 0.37962-0.29288
   1  -2   9   24.94    2.12  31 0.71879-0.62715 0.39755-0.65951 0.38389 0.29910
   1  -1  11    2.17    2.17  31 0.71864-0.64722 0.39868-0.58484 0.38282 0.44161
   1   7  -3   28.75    2.01  31 0.71894-0.69757 0.39642 0.24483 0.38495-0.67626
   1   9  -2   32.77    2.30  31 0.71739-0.72442 0.40769 0.40550 0.37426-0.60907
   1  10  -1   44.29    2.61  31 0.71772-0.74195 0.40545 0.49078 0.37640-0.54558
   2  -3   1    1.98    2.56  32 0.72000-0.48614 0.38788-0.69285 0.39295-0.30363
   2  -3   9   63.93    3.19  32 0.71969-0.51548 0.39040-0.75578 0.39060 0.29704
   2  -2  -1   33.94    3.05  31 0.71926-0.49016 0.39393-0.59517 0.38730-0.45465
   2  -2  11    6.12    2.31  31 0.71849-0.53470 0.39981-0.69089 0.38175 0.44603
   2   8  -4    4.97    1.96  31 0.71707-0.60365 0.40994 0.31351 0.37211-0.75161
   2   9  -3   11.48    3.12  32 0.71973-0.62364 0.39008 0.41620 0.39089-0.70664
   3  -4   3    0.79    1.99  31 0.71819-0.37802 0.40207-0.82807 0.37962-0.13584
   3  -4   6    0.78    1.87  31 0.71723-0.38820 0.40882-0.85688 0.37319 0.09386
   3  -4   7   88.06    2.62  31 0.71879-0.39357 0.39755-0.85335 0.38389 0.15815
   3   7  -5    4.44    2.91  32 0.71979-0.48999 0.38961 0.23566 0.39133-0.84223
   4  -4   1   47.78    2.52  31 0.71803-0.26982 0.40319-0.82890 0.37855-0.28910
   4  -4   9    1.74    2.41  31 0.71879-0.30093 0.39755-0.88284 0.38389 0.30226
   4   3  -6    2.90    2.77  32 0.71931-0.33331 0.39354-0.13497 0.38766-0.88127
   4   6  -6    6.16    2.94  32 0.71933-0.37238 0.39336 0.13643 0.38783-0.90764
   4   9  -5   10.01    2.67  31 0.71834-0.41420 0.40094 0.39197 0.38069-0.85452
   5  -4   0   76.35    3.48  31 0.71891-0.16683 0.39662-0.82918 0.38477-0.37511
   6  -5   4   15.72    3.28  31 0.71936-0.06914 0.39313-0.96048 0.38804-0.07559
   6  -5   5    2.17    2.30  31 0.71879-0.07269 0.39755-0.97111 0.38389 0.00235
   6  -5   6    8.15    3.44  31 0.71935-0.07790 0.39319-0.97514 0.38799 0.07365
   6   1  -6   -0.78    2.87  32 0.71937-0.10869 0.39302-0.34344 0.38814-0.87459
   6   5  -7   23.10    2.56  31 0.71739-0.15387 0.40769 0.01047 0.37426-0.97189
   7  -5   4    7.45    3.62  31 0.71907 0.03100 0.39542-0.97672 0.38590-0.07988
   7  -5   5   15.85    2.86  31 0.71849 0.02711 0.39981-0.98773 0.38175-0.00063
   7   4  -7    2.21    2.46  31 0.71849-0.04189 0.39981-0.08583 0.38175-0.97566
   8   1  -6   13.58    3.69  32 0.71951 0.09218 0.39189-0.37064 0.38921-0.88730
  -1   0   4   17.85    2.91  33 0.72218-0.83718 0.36594-0.38171 0.41314-0.11008
  -1   0   5  928.60    6.23  32 0.72073-0.84062 0.38053-0.40300 0.39984-0.02228
  -1   0   6    8.95    1.85  32 0.72098-0.84433 0.37824-0.40838 0.40194 0.05066
  -1   0   7   85.18    3.17  33 0.72218-0.84895 0.36592-0.40261 0.41316 0.11418
  -1   1   9  134.49    2.96  32 0.72121-0.86810 0.37594-0.33855 0.40404 0.26360
  -1   2   1  361.35    6.38  32 0.72140-0.85063 0.37412-0.18706 0.40571-0.34400
  -1   2  10   49.89    2.52  32 0.72035-0.88560 0.38395-0.26152 0.39667 0.33635
  -1   3  11   51.69    3.63  32 0.72189-0.90237 0.36905-0.16529 0.41032 0.38897
  -1   6   1  117.65    3.29  33 0.72187-0.90228 0.36931 0.17994 0.41009-0.38420
  -1   9   6   61.37    3.89  33 0.72166-0.95864 0.37152 0.41204 0.40807-0.03675
  -1   9   7   20.68    3.74  33 0.72162-0.96248 0.37185 0.40454 0.40778 0.03713
   0  -1   9   27.16    2.11  32 0.72085-0.74227 0.37938-0.53570 0.40089 0.27914
   0   0  11  219.95    4.16  33 0.72189-0.76430 0.36905-0.44995 0.41032 0.41027
   0   1  12    8.55    2.28  32 0.72145-0.78003 0.37365-0.37299 0.40614 0.48081
   0   7  -1    0.77    1.97  32 0.72121-0.80616 0.37594 0.26280 0.40404-0.54302
   0   9   1   40.81    3.13  33 0.72228-0.84107 0.36480 0.44105 0.41417-0.42100
   0  10   2    6.31    2.40  32 0.72035-0.85586 0.38395 0.50503 0.39667-0.33768
   1  -3   4 1536.48    6.80  33 0.72212-0.59860 0.36660-0.68077 0.41254-0.09320
   1  -3   5   48.78    2.83  32 0.72167-0.60297 0.37135-0.69350 0.40823-0.01469
   1  -3   6    8.59    2.73  33 0.72189-0.60750 0.36905-0.69810 0.41032 0.05881
   1  -2  10    1.36    2.91  33 0.72189-0.63450 0.36905-0.63791 0.41032 0.34813
   1   0  13   -1.64    3.72  33 0.72189-0.67184 0.36905-0.47967 0.41032 0.55333
   1   2  -3  448.86    4.25  32 0.72145-0.63568 0.37365-0.18438 0.40614-0.65289
   1   6  -3  491.11    4.28  33 0.72180-0.68588 0.37007 0.17980 0.40940-0.69153
   1   8  -2   24.60    2.90  33 0.72187-0.71579 0.36934 0.35292 0.41006-0.63638
   2  -2  12    4.31    3.45  33 0.72221-0.54220 0.36559-0.66301 0.41345 0.48930
   2   7  -4    3.32    1.94  32 0.72048-0.59359 0.38281 0.25086 0.39773-0.76896
   2  10  -2   17.25    2.45  32 0.72073-0.64121 0.38053 0.50767 0.39984-0.64929
   3  -4   2   21.78    2.06  32 0.72098-0.37673 0.37824-0.79690 0.40194-0.23266
   3  -4   8   19.33    2.15  32 0.72048-0.39947 0.38281-0.84533 0.39773 0.21870
   3  -3  11   20.97    2.70  32 0.72048-0.42389 0.38281-0.77735 0.39773 0.43381
   3   0  -4  261.68    4.60  33 0.72195-0.40610 0.36840-0.38133 0.41092-0.72490
   3   2  -5   51.25    2.24  32 0.72085-0.42668 0.37938-0.20454 0.40089-0.80706
   3   6  -5   54.94    3.06  33 0.72189-0.47876 0.36905 0.16684 0.41032-0.85219
   3   9  -4    6.13    2.28  32 0.71996-0.51834 0.38737 0.41289 0.39350-0.78808
   3  10  -3    1.50    2.47  32 0.72145-0.53779 0.37365 0.50912 0.40614-0.73503
   4  -4  10    1.00    2.52  32 0.72133-0.30802 0.37480-0.86687 0.40509 0.35590
   4   4  -6   96.87    2.56  32 0.72035-0.34726 0.38395-0.03562 0.39667-0.90016
   4   5  -6    5.40    2.00  32 0.72009-0.36079 0.38623 0.05256 0.39456-0.90764
   4   8  -5    2.77    3.27  33 0.72189-0.40474 0.36905 0.33292 0.41032-0.87396
   5  -5   3   20.40    2.98  33 0.72218-0.16929 0.36592-0.91082 0.41315-0.16989
   5  -5   4   17.64    2.19  32 0.72085-0.17124 0.37938-0.93111 0.40089-0.08412
   5  -5   5   35.87    2.42  32 0.72048-0.17494 0.38281-0.94252 0.39773-0.00566
   5  -5   6   15.28    2.43  32 0.72073-0.17886 0.38053-0.94744 0.39984 0.06749
   5  -5   7    1.89    3.23  32 0.72169-0.18442 0.37117-0.94662 0.40840 0.13303
   5   2  -6   13.45    2.05  32 0.72121-0.22261 0.37594-0.22187 0.40404-0.89507
   5   7  -6   -0.06    2.35  32 0.72098-0.28730 0.37824 0.22730 0.40194-0.93793
   6  -5   3   84.11    3.14  32 0.72048-0.06675 0.38281-0.94177 0.39773-0.16003
   6  -5   7    5.88    2.61  32 0.72009-0.08204 0.38623-0.97449 0.39456 0.14105
   7  -5   3   -0.18    2.33  32 0.72022 0.03299 0.38509-0.95820 0.39562-0.16291
   7   1  -6   11.52    2.33  32 0.72061-0.00872 0.38167-0.34664 0.39878-0.89132
  -1   0   8  186.28    3.67  34 0.72381-0.85439 0.34456-0.38882 0.43255 0.16946
   0  -2   4  714.31    5.26  34 0.72372-0.71381 0.34602-0.55561 0.43127-0.11569
   0  -2   5  643.35    4.44  33 0.72288-0.71671 0.35765-0.57467 0.42096-0.03050
   0  -2   6    2.06    1.82  33 0.72297-0.72080 0.35649-0.58089 0.42200 0.04275
   0  -2   7   34.92    2.86  33 0.72368-0.72535 0.34663-0.57892 0.43073 0.10919
   0  -1  10   34.35    3.01  33 0.72368-0.75013 0.34666-0.51128 0.43070 0.32395
   0   2  13    3.61    2.54  33 0.72250-0.79835 0.36229-0.27791 0.41682 0.53487
   0   6  -1  156.93    3.26  34 0.72392-0.79635 0.34292 0.20651 0.43398-0.56244
   0   8   0    2.21    2.00  33 0.72259-0.82495 0.36113 0.36137 0.41786-0.48888
   0  10   3   45.68    3.59  33 0.72344-0.86175 0.35018 0.53051 0.42760-0.29292
   1  -3   3 2954.91    9.52  34 0.72372-0.59675 0.34602-0.65275 0.43127-0.18645
   1  -3   7   52.56    2.18  33 0.72269-0.61207 0.35997-0.69628 0.41889 0.12485
   1  -3   8   12.06    2.78  34 0.72372-0.61557 0.34602-0.68994 0.43127 0.18663
   1  -1  12   27.07    2.56  33 0.72259-0.65608 0.36113-0.55271 0.41786 0.48100
   1   3  -3  103.57    3.26  34 0.72369-0.65046 0.34647-0.06763 0.43087-0.68629
   1   4  -3   91.98    3.03  34 0.72384-0.66381 0.34418 0.02466 0.43288-0.69779
   1   5  -3  254.58    3.06  33 0.72323-0.67533 0.35301 0.10696 0.42510-0.69879
   1   9  -1   20.53    2.18  33 0.72278-0.73327 0.35881 0.44696 0.41993-0.58032
   1  10   0    9.87    2.33  33 0.72240-0.75042 0.36344 0.52475 0.41578-0.51124
   2  -4   4   21.46    2.77  34 0.72368-0.48849 0.34656-0.76579 0.43079-0.10686
   2  -4   5   81.58    2.39  33 0.72315-0.49129 0.35417-0.78086 0.42407-0.02598
   2  -4   6    5.80    1.89  33 0.72323-0.49484 0.35301-0.78734 0.42510 0.04685
   2  -4   7   19.72    2.79  34 0.72372-0.49921 0.34602-0.78720 0.43127 0.11680
   2  -3  10    2.68    2.19  33 0.72230-0.52183 0.36460-0.73835 0.41474 0.34702
   2   0  -3    0.55    2.64  33 0.72384-0.51162 0.34405-0.35048 0.43299-0.66816
   2   2  -4  150.78    2.71  33 0.72278-0.53282 0.35881-0.17712 0.41993-0.74645
   2   5  -4   32.36    2.79  34 0.72390-0.57253 0.34318 0.10963 0.43375-0.78730
   2   6  -4    6.64    1.90  33 0.72269-0.58368 0.35997 0.18168 0.41889-0.78087
   2   8  -3   14.93    2.13  33 0.72332-0.61366 0.35184 0.36487 0.42613-0.73133
   3  -4   9    1.07    2.12  33 0.72240-0.40377 0.36344-0.83492 0.41578 0.27466
   3   3  -5   89.14    2.41  33 0.72315-0.44099 0.35417-0.08843 0.42407-0.83924
   3   4  -5   26.06    2.88  34 0.72361-0.45484 0.34760 0.00746 0.42987-0.85291
   3   5  -5  102.98    2.48  33 0.72306-0.46697 0.35533 0.09072 0.42303-0.85637
   3   8  -4    0.92    2.06  33 0.72323-0.50947 0.35301 0.35666 0.42510-0.81000
   4  -5   4    2.27    2.77  33 0.72348-0.27344 0.34952-0.88784 0.42819-0.10604
   4  -5   5   44.46    2.40  33 0.72297-0.27753 0.35649-0.90144 0.42200-0.02441
   4  -5   6    1.70    2.10  33 0.72306-0.28180 0.35533-0.90744 0.42303 0.04734
   4  -5   7    3.29    3.11  33 0.72363-0.28629 0.34732-0.90804 0.43012 0.11591
   4  -4   0   49.41    3.21  34 0.72391-0.27216 0.34308-0.76115 0.43384-0.41858
   4   1  -5   13.19    2.86  34 0.72377-0.31697 0.34529-0.27458 0.43190-0.83465
   4   7  -5    9.27    3.16  34 0.72388-0.39448 0.34345 0.26860 0.43352-0.88990
   4   9  -4   28.45    3.57  34 0.72392-0.42317 0.34284 0.44247 0.43405-0.83343
   5  -5   2   76.14    3.40  34 0.72400-0.16663 0.34148-0.87885 0.43524-0.26683
   5  -5   8    9.35    2.54  33 0.72269-0.18927 0.35997-0.94180 0.41889 0.19739
   5   0  -5   76.95    3.41  33 0.72332-0.20224 0.35188-0.38645 0.42609-0.82339
   5   3  -6  185.00    3.74  33 0.72353-0.23631 0.34882-0.10462 0.42880-0.92770
   5   4  -6   -0.18    2.91  33 0.72372-0.25147 0.34602-0.01075 0.43127-0.94195
   5   5  -6   85.26    3.32  34 0.72369-0.26273 0.34647 0.07824 0.43087-0.94811
   5   6  -6    7.22    2.27  33 0.72269-0.27436 0.35997 0.15463 0.41889-0.94619
   6  -5   2    5.50    2.19  33 0.72269-0.06600 0.35997-0.91159 0.41889-0.25510
   6  -4  -1    3.45    2.89  34 0.72395-0.06751 0.34235-0.78134 0.43448-0.50419
   6   2  -6   77.69    3.30  34 0.72377-0.12516 0.34525-0.20528 0.43194-0.92877
   6   7  -6    0.66    2.56  33 0.72315-0.18925 0.35417 0.23780 0.42407-0.96487
   7  -5   2   47.91    3.06  33 0.72250 0.03462 0.36229-0.92819 0.41682-0.25819
   7  -4  -1    1.57    3.06  33 0.72364 0.03290 0.34718-0.80108 0.43024-0.50415
  -1   1  10  117.80    2.95  34 0.72438-0.87564 0.33680-0.30510 0.43941 0.30317
  -1   2  11    5.54    2.17  34 0.72451-0.89231 0.33445-0.22038 0.44144 0.36621
  -1   4  12    3.69    3.60  35 0.72510-0.92236 0.32094-0.03337 0.45301 0.41159
  -1   5   1   20.87    2.04  34 0.72425-0.89176 0.33915 0.11982 0.43737-0.40293
  -1   8   4   10.62    2.19  34 0.72445-0.94210 0.33563 0.37233 0.44042-0.20852
   0  -2   8  104.82    2.51  34 0.72468-0.72985 0.33092-0.57098 0.44448 0.16971
   0   0  12    8.56    3.31  34 0.72493-0.77164 0.32537-0.41525 0.44924 0.44589
   0   1  13   11.76    3.68  34 0.72498-0.78763 0.32412-0.33014 0.45030 0.51021
   0   9   2   96.16    3.40  35 0.72504-0.84728 0.32266 0.47572 0.45155-0.38325
   0  10   4   23.97    3.55  35 0.72504-0.86798 0.32266 0.55125 0.45155-0.24347
   1  -3   9    6.49    2.81  35 0.72497-0.62150 0.32427-0.67707 0.45018 0.24286
   1  -2  11   -1.49    2.29  34 0.72432-0.64052 0.33797-0.61429 0.43839 0.39473
   1   7  -2   18.03    2.08  34 0.72457-0.70641 0.33327 0.29962 0.44245-0.65905
   1  10   1   43.71    3.48  35 0.72508-0.75645 0.32162 0.56006 0.45243-0.47412
   2  -4   3   93.52    2.34  34 0.72479-0.48492 0.32857-0.74015 0.44651-0.19787
   2  -4   8    6.96    1.96  34 0.72457-0.50528 0.33327-0.78079 0.44245 0.17771
   2  -3  11    2.28    2.33  34 0.72438-0.52704 0.33680-0.71749 0.43941 0.39726
   2   3  -4  156.06    2.67  34 0.72445-0.54707 0.33563-0.06354 0.44042-0.77585
   2   4  -4   11.72    1.88  34 0.72457-0.56031 0.33327 0.02974 0.44245-0.78691
   2   9  -2   58.51    2.50  34 0.72445-0.63185 0.33563 0.46355 0.44042-0.67996
   2  10  -1    7.41    2.33  34 0.72457-0.64923 0.33327 0.54899 0.44245-0.61620
   3  -4   1   35.81    2.23  34 0.72451-0.37591 0.33445-0.74558 0.44144-0.34702
   3  -4  10   16.06    2.51  34 0.72412-0.41058 0.34149-0.81891 0.43533 0.33038
   3  -3  -1  362.67    5.56  34 0.72487-0.38240 0.32680-0.63294 0.44802-0.51195
   3   7  -4   10.77    2.85  35 0.72507-0.49920 0.32177 0.29771 0.45231-0.82864
   3   9  -3   13.48    2.35  34 0.72468-0.52856 0.33092 0.46100 0.44448-0.76326
   3  10  -2   33.04    3.58  35 0.72504-0.54516 0.32266 0.55202 0.45155-0.70602
   4  -5   3   94.86    2.69  34 0.72457-0.27162 0.33327-0.86403 0.44245-0.19503
   4  -5   8   10.78    2.35  34 0.72438-0.29145 0.33680-0.90362 0.43941 0.18122
   4  -5   9    4.24    3.43  34 0.72504-0.29439 0.32258-0.89606 0.45162 0.24268
   4   6  -5    0.42    2.85  35 0.72516-0.38323 0.31911 0.20259 0.45456-0.90139
   5   8  -5    8.91    2.46  34 0.72445-0.30691 0.33563 0.35258 0.44042-0.91038
   6  -5   1   34.87    3.31  35 0.72510-0.06414 0.32094-0.86485 0.45301-0.36438
   6   3  -6   60.97    3.31  35 0.72510-0.13940 0.32101-0.09070 0.45295-0.95792
   6   5  -6    0.41    3.15  35 0.72508-0.16676 0.32148 0.08924 0.45255-0.97538
   6   6  -6    7.28    2.43  34 0.72445-0.17744 0.33563 0.16598 0.44042-0.97305
   7  -5   1    3.83    3.28  35 0.72501 0.03573 0.32325-0.88125 0.45105-0.36792
   7   2  -6    3.66    3.17  34 0.72483-0.02616 0.32770-0.20188 0.44725-0.94740
   8  -4  -1   28.65    4.03  35 0.72504 0.13146 0.32266-0.79027 0.45155-0.53146
   8   2  -6    9.26    2.62  34 0.72451 0.07404 0.33445-0.22252 0.44144-0.94798
  -1   0   3   84.53    2.88  35 0.72542-0.83678 0.30713-0.31492 0.46457-0.23692
  -1   0   9   78.68    2.44  35 0.72517-0.86070 0.31664-0.36717 0.45660 0.21998
  -1   1  11   13.48    3.17  36 0.72557-0.87955 0.29593-0.27246 0.47383 0.34261
  -1   3  12    0.17    3.48  35 0.72544-0.91068 0.30594-0.10884 0.46556 0.40636
  -1   7   3  246.88    3.53  35 0.72537-0.92647 0.30951 0.31547 0.46258-0.29697
  -1   8   5   33.03    3.22  35 0.72552-0.94582 0.30128 0.39903 0.46942-0.16205
  -1   8   9    0.17    4.08  35 0.72555-0.96473 0.29877 0.37297 0.47149 0.13372
   0  -2   3 1232.91    6.53  35 0.72521-0.71156 0.31546-0.51741 0.45760-0.21678
   0  -2   9   43.58    2.30  35 0.72534-0.73462 0.31070-0.55729 0.46159 0.22778
   0  -1   1  263.35    5.19  35 0.72552-0.71671 0.30100-0.39821 0.46965-0.38714
   0  -1  11    6.98    2.14  35 0.72524-0.75471 0.31427-0.48523 0.45860 0.37076
   0   5  -1   57.07    2.10  35 0.72524-0.78500 0.31427 0.14449 0.45860-0.57746
   0   7   0   12.12    2.01  35 0.72517-0.81477 0.31664 0.31563 0.45660-0.51921
   0   8   1   13.02    2.07  35 0.72537-0.83106 0.30951 0.40566 0.46258-0.45896
   0  10   5   21.97    3.68  36 0.72556-0.87279 0.29766 0.56929 0.47241-0.19001
   1  -3   2   27.79    2.13  35 0.72548-0.59512 0.30355-0.60231 0.46754-0.29860
   1  -3  10    9.62    3.06  35 0.72552-0.62708 0.30109-0.66029 0.46958 0.29724
   1  -2  12   11.40    2.48  35 0.72546-0.64533 0.30475-0.58777 0.46655 0.44042
   1   6  -2  579.10    4.50  36 0.72555-0.69468 0.29877 0.24399 0.47149-0.67914
   1   8  -1   23.99    2.04  35 0.72528-0.72333 0.31308 0.40243 0.45960-0.61121
   1   9   0   20.64    2.15  35 0.72537-0.74057 0.30951 0.48888 0.46258-0.54813
   2  -4   9    0.90    2.10  35 0.72521-0.50876 0.31546-0.77178 0.45760 0.23801
   2  -4  10   -4.93    3.24  36 0.72556-0.51146 0.29698-0.75903 0.47297 0.29693
   2  -3   0  655.53    6.20  36 0.72555-0.48709 0.29877-0.59732 0.47149-0.45576
   2   7  -3    4.72    1.91  35 0.72517-0.60322 0.31664 0.30874 0.45660-0.75268
   3  -5   4  139.42    2.74  35 0.72546-0.37673 0.30475-0.82801 0.46655-0.13975
   3  -5   5    1.89    1.93  35 0.72524-0.38129 0.31427-0.84423 0.45860-0.05963
   3  -5   6   63.57    2.38  35 0.72517-0.38419 0.31664-0.85444 0.45660 0.02005
   3  -5   7    4.55    2.00  35 0.72531-0.38797 0.31189-0.85709 0.46059 0.08899
   3  -5   8   19.31    3.13  35 0.72553-0.39301 0.30028-0.85403 0.47025 0.15429
   4  -5   2   45.29    2.37  35 0.72546-0.26899 0.30475-0.82754 0.46655-0.29377
   4   2  -5    7.33    2.91  36 0.72554-0.33058 0.29940-0.13962 0.47097-0.88116
   4   5  -5   26.69    2.90  36 0.72554-0.36931 0.29925 0.13251 0.47110-0.90891
   4   8  -4    1.04    2.18  35 0.72544-0.41204 0.30594 0.38961 0.46556-0.85607
   5  -5   1    7.96    2.92  36 0.72555-0.16421 0.29877-0.82849 0.47149-0.37870
   5  -4  -1  173.22    4.47  35 0.72549-0.16947 0.30287-0.72820 0.46811-0.53332
   5   7  -5    0.92    2.26  35 0.72544-0.29451 0.30594 0.29241 0.46556-0.92689
   6  -6   5    1.64    3.59  36 0.72555-0.06678 0.29815-0.96098 0.47201-0.07652
   6   0  -5   89.07    3.56  35 0.72552-0.10441 0.30122-0.34950 0.46947-0.87274
   6   4  -6   73.30    2.65  35 0.72521-0.15202 0.31546 0.00461 0.45760-0.97161
   7   3  -6    3.37    2.26  35 0.72544-0.04030 0.30594-0.08975 0.46556-0.97512
   7   4  -6    3.44    3.29  36 0.72554-0.05294 0.29952 0.00743 0.47088-0.98882
   7   5  -6    6.14    2.42  35 0.72542-0.06574 0.30713 0.08998 0.46457-0.99281
   8   0  -5    7.03    3.38  36 0.72554 0.09506 0.29922-0.37486 0.47112-0.88543
   8   3  -6    1.88    2.56  35 0.72539 0.06148 0.30832-0.10722 0.46358-0.97864
  -1  -1   5   -0.34    1.67  36 0.72541-0.83169 0.28334-0.39607 0.48423-0.09811
  -1  -1   6   52.47    2.26  36 0.72543-0.83606 0.29295-0.41270 0.47643-0.01483
  -1  -1   7   46.65    2.17  36 0.72543-0.83989 0.28935-0.41685 0.47936 0.05718
  -1  -1   8  122.27    3.27  36 0.72533-0.84392 0.27620-0.41149 0.48997 0.12072
  -1   0  10    0.64    2.02  36 0.72542-0.86457 0.28575-0.34399 0.48229 0.26919
  -1   2  12    7.19    3.48  36 0.72538-0.89796 0.27978-0.17386 0.48710 0.39493
  -1   8   6   52.93    3.54  37 0.72533-0.94990 0.27618 0.41663 0.48999-0.10847
  -1   8   8   15.10    4.22  37 0.72477-0.95673 0.25459 0.42319 0.50699 0.02344
   0  -2  10    3.12    2.05  36 0.72542-0.73926 0.28575-0.53960 0.48229 0.28040
   0  -1  12    7.53    3.27  37 0.72534-0.75958 0.27636-0.45534 0.48984 0.41395
   0   0  13    9.05    2.61  36 0.72541-0.77463 0.28334-0.37924 0.48423 0.48525
   0   3  -1  965.54    6.02  36 0.72542-0.76017 0.28575-0.00727 0.48229-0.58324
   0   4  -1    8.90    1.90  36 0.72542-0.77296 0.29415 0.07283 0.47544-0.58517
   0   6   0  148.71    3.35  37 0.72525-0.80195 0.27141 0.27038 0.49378-0.54756
   0   9   3   22.92    2.24  36 0.72540-0.85202 0.28213 0.50925 0.48521-0.34181
   0  10   6    2.94    3.63  37 0.72532-0.87598 0.27527 0.58369 0.49071-0.13342
   1  -4   5  667.72    4.81  37 0.72531-0.59334 0.27489-0.68718 0.49101-0.08802
   1  -4   6   83.75    2.37  36 0.72538-0.59682 0.27972-0.69998 0.48715-0.01052
   1  -4   7  134.92    3.23  36 0.72534-0.60169 0.27632-0.70387 0.48987 0.06241
   1  -3  11   42.08    3.53  36 0.72532-0.62978 0.27553-0.64189 0.49050 0.35126
   1  -2   0    9.15    3.06  37 0.72523-0.60078 0.27037-0.46273 0.49461-0.48286
   1  10   2    1.79    3.21  37 0.72534-0.75855 0.27642 0.59746 0.48979-0.43445
   2  -4   2   15.88    1.93  36 0.72543-0.48181 0.29295-0.69680 0.47643-0.30293
   2  -4  11    3.86    3.42  37 0.72528-0.51561 0.27265-0.74174 0.49280 0.35189
   2   6  -3   90.72    2.39  36 0.72542-0.59071 0.28454 0.25171 0.48326-0.77098
   2   8  -2   21.42    2.02  36 0.72543-0.61960 0.29055 0.41846 0.47838-0.70905
   2   9  -1   49.74    2.37  36 0.72539-0.63650 0.28093 0.51161 0.48618-0.65128
   2  10   0    5.68    2.27  36 0.72542-0.65263 0.28454 0.59030 0.48326-0.58277
   3  -5   3   97.04    2.59  36 0.72541-0.37281 0.28334-0.79975 0.48423-0.23194
   3  -5   9    0.81    2.35  36 0.72543-0.39568 0.28695-0.84767 0.48131 0.21910
   3   1  -4   36.29    2.81  37 0.72533-0.42231 0.27606-0.19864 0.49008-0.81224
   3   6  -4  287.43    3.12  36 0.72543-0.48586 0.29175 0.23727 0.47741-0.84443
   3   8  -3    3.10    2.00  36 0.72543-0.51592 0.28935 0.41286 0.47936-0.78945
   3   9  -2    2.26    3.19  37 0.72527-0.53182 0.27247 0.51249 0.49294-0.73731
   4  -3  -2  356.78    6.43  36 0.72533-0.27859 0.27614-0.58891 0.49001-0.63343
   4   3  -5    8.65    2.02  36 0.72542-0.34341 0.28575-0.03468 0.48229-0.90211
   4   4  -5    7.42    1.94  36 0.72543-0.35757 0.28815 0.05392 0.48034-0.90922
   4   9  -3   56.87    2.69  36 0.72541-0.42869 0.28334 0.49542 0.48423-0.80886
   4  10  -2   54.46    3.85  37 0.72530-0.44545 0.27383 0.58700 0.49186-0.75069
   5  -6   4   34.44    3.46  37 0.72526-0.16344 0.27169-0.91359 0.49356-0.16761
   5  -6   5   13.70    2.46  36 0.72541-0.16719 0.28334-0.93277 0.48423-0.08333
   5  -6   6    1.14    2.38  36 0.72543-0.17121 0.28695-0.94383 0.48131-0.00616
   5  -6   7    9.46    2.58  36 0.72542-0.17523 0.28454-0.94869 0.48326 0.06581
   5   1  -5  201.51    3.87  37 0.72532-0.21762 0.27544-0.21874 0.49058-0.89806
   5   6  -5    3.73    2.94  36 0.72535-0.28144 0.27743 0.23035 0.48899-0.93954
   6  -6   4    2.54    2.43  36 0.72542-0.06357 0.28575-0.94230 0.48229-0.16134
   6   7  -5   15.73    2.50  36 0.72538-0.19420 0.27972 0.30527 0.48715-0.95336
   7   0  -5    3.75    2.98  36 0.72540-0.00380 0.28200-0.34393 0.48531-0.89340
  -1  -1   4  307.49    4.22  37 0.72466-0.82773 0.25130-0.35643 0.50942-0.19781
  -1  -1   9   13.63    1.96  37 0.72492-0.84674 0.25800-0.40100 0.50422 0.18120
  -1   0  11  109.01    3.77  38 0.72464-0.86712 0.25069-0.31767 0.50989 0.31576
  -1   1  12    4.12    3.34  38 0.72457-0.88395 0.24917-0.23237 0.51106 0.37987
  -1   7   4  124.60    2.98  37 0.72496-0.92969 0.25922 0.35855 0.50327-0.26224
  -1   8   7   29.42    3.45  37 0.72489-0.95272 0.25715 0.42786 0.50488-0.04856
   0  -3   5   74.38    2.25  37 0.72504-0.70607 0.26165-0.56910 0.50136-0.10231
   0  -3   6   -0.17    1.84  37 0.72523-0.71072 0.26893-0.58359 0.49563-0.02147
   0  -3   7  100.49    2.46  37 0.72520-0.71435 0.26772-0.58949 0.49659 0.05229
   0  -3   8   66.70    2.30  37 0.72492-0.71771 0.25800-0.58809 0.50422 0.11866
   0  -2   2 9999.99   19.52  37 0.72469-0.70740 0.25196-0.44651 0.50891-0.34287
   0  -2  11   63.66    2.83  37 0.72488-0.74173 0.25679-0.51975 0.50517 0.33243
   0   7   1    9.04    2.73  38 0.72470-0.81729 0.25216 0.37240 0.50875-0.49612
   0   8   2    7.04    1.95  37 0.72492-0.83439 0.25800 0.44978 0.50422-0.42684
   1  -4   4   27.84    2.02  37 0.72496-0.58925 0.25922-0.66401 0.50327-0.17523
   1  -4   8   15.39    2.09  37 0.72523-0.60503 0.26893-0.70276 0.49563 0.13075
   1  -4   9    4.26    2.91  37 0.72476-0.60860 0.25376-0.69585 0.50751 0.19376
   1  -3  12    6.55    3.60  37 0.72458-0.63038 0.24930-0.62140 0.51097 0.40362
   1   1  -2  161.45    3.72  37 0.72496-0.63035 0.25922-0.16815 0.50327-0.66595
   1   5  -2  105.66    2.37  37 0.72520-0.68117 0.26772 0.18408 0.49659-0.69573
   1   7  -1  636.68    4.22  37 0.72517-0.71056 0.26651 0.35894 0.49755-0.63977
   1   8   0    0.31    2.70  38 0.72464-0.72386 0.25069 0.45809 0.50989-0.58557
   1   9   1   57.53    2.42  37 0.72496-0.74373 0.25922 0.53261 0.50327-0.51412
   2  -5   5   -0.71    1.86  37 0.72492-0.48004 0.25800-0.77433 0.50422-0.09740
   2  -5   6    1.56    1.88  37 0.72507-0.48389 0.26287-0.78723 0.50041-0.01981
   2  -5   7   28.16    2.23  37 0.72504-0.48810 0.26165-0.79284 0.50136 0.05440
   2  -5   8   13.75    2.94  38 0.72470-0.49210 0.25210-0.79240 0.50880 0.12215
   2   5  -3  454.62    4.15  37 0.72472-0.57571 0.25258 0.19273 0.50843-0.78631
   3  -5   2  172.00    3.69  38 0.72460-0.36773 0.24970-0.75795 0.51066-0.33265
   3  -5  10   -1.53    2.57  37 0.72523-0.39962 0.26893-0.83670 0.49563 0.27886
   3  -4   0  359.18    4.74  37 0.72474-0.37357 0.25322-0.65712 0.50794-0.48834
   3  -1  -3   10.17    3.17  38 0.72392-0.39936 0.23632-0.34700 0.52088-0.75121
   3   4  -4   86.71    3.04  38 0.72456-0.45965 0.24884 0.09969 0.51132-0.86104
   3   5  -4   35.09    2.11  37 0.72520-0.47311 0.26772 0.17064 0.49659-0.85521
   3   7  -3   81.60    3.03  38 0.72456-0.50184 0.24877 0.36293 0.51137-0.81283
   3  10  -1    2.17    2.40  37 0.72526-0.54900 0.27014 0.59724 0.49467-0.67338
   4  -6   5   -0.74    2.12  37 0.72488-0.26684 0.25679-0.89220 0.50517-0.10013
   4  -6   6   11.06    2.27  37 0.72504-0.27057 0.26165-0.90494 0.50136-0.02202
   4  -6   7   12.65    2.45  37 0.72500-0.27494 0.26044-0.91086 0.50232 0.05191
   4  -6   8    6.63    3.55  38 0.72470-0.27911 0.25223-0.91128 0.50870 0.12057
   4  -5   1    6.65    2.81  37 0.72476-0.26466 0.25366-0.76939 0.50759-0.41120
   4   7  -4   15.07    2.13  37 0.72526-0.39935 0.27014 0.33496 0.49467-0.87572
   5  -6   3   16.04    3.26  38 0.72461-0.15953 0.24991-0.88442 0.51049-0.25905
   5  -1  -4  166.65    5.14  38 0.72387-0.19441 0.23530-0.36688 0.52165-0.83741
   5   5  -5   15.68    2.05  37 0.72488-0.26866 0.25679 0.16090 0.50516-0.94777
   5   8  -4   14.68    2.42  37 0.72520-0.31148 0.26772 0.41331 0.49659-0.89148
   6  -6   3   25.06    2.64  37 0.72514-0.05896 0.26529-0.91422 0.49850-0.25279
   6  -5   0   -0.51    2.96  38 0.72464-0.05988 0.25069-0.78844 0.50989-0.49700
   6   6  -5   14.85    3.24  38 0.72466-0.18072 0.25121 0.24266 0.50949-0.96605
   7  -5   0    1.14    3.30  37 0.72488 0.03908 0.25679-0.80847 0.50517-0.49484
  -2   2   7   46.17    3.30  39 0.72291-0.97498 0.22101-0.06350 0.53242-0.01762
  -2   3   7    2.70    2.85  38 0.72328-0.98903 0.22630 0.02198 0.52848-0.02335
  -2   3   8  221.44    5.18  39 0.72305-0.99216 0.22298 0.01709 0.53096 0.05001
  -1  -1  10   86.87    2.73  38 0.72375-0.84935 0.23368-0.38422 0.52294 0.23667
  -1   6   3  126.16    2.86  38 0.72417-0.91227 0.24103 0.29342 0.51736-0.34223
   0  -3   4 1226.07    5.83  38 0.72417-0.70169 0.24103-0.54076 0.51736-0.19245
   0  -3   9   34.80    2.24  38 0.72429-0.72163 0.24348-0.57980 0.51549 0.18277
   0  -3  10    4.20    3.05  39 0.72317-0.72312 0.22470-0.56891 0.52967 0.24247
   0  -2  12   45.11    3.89  39 0.72323-0.74403 0.22555-0.49459 0.52904 0.38356
   0   5   0  129.68    3.22  39 0.72322-0.78659 0.22532 0.22654 0.52921-0.57384
   0   9   4    1.98    2.15  38 0.72423-0.85432 0.24226 0.54117 0.51643-0.29850
   1  -4   3  456.97    4.22  38 0.72344-0.58451 0.22861-0.62609 0.52675-0.27267
   1  -4  10   32.69    2.53  38 0.72390-0.61142 0.23613-0.68460 0.52109 0.25498
   1  -3   1   51.10    3.02  38 0.72333-0.58942 0.22695-0.51891 0.52800-0.43239
   1   2  -2 5883.26   14.87  39 0.72311-0.64113 0.22374-0.04235 0.53039-0.70274
   1   3  -2  185.91    3.62  39 0.72315-0.65368 0.22438 0.04704 0.52991-0.71133
   1   4  -2    9.17    1.89  38 0.72417-0.66784 0.24103 0.11937 0.51736-0.70676
   1  10   3   -0.00    2.29  38 0.72404-0.76357 0.23858 0.62771 0.51923-0.38966
   2  -5   4   15.79    2.01  38 0.72423-0.47560 0.24226-0.75193 0.51643-0.18371
   2  -5   9    5.28    2.26  38 0.72417-0.49542 0.24103-0.78737 0.51736 0.18668
   2  -5  10    3.41    3.37  39 0.72323-0.49755 0.22548-0.77828 0.52909 0.25036
   2  -4   1    6.82    1.96  38 0.72368-0.47665 0.23245-0.62935 0.52387-0.42327
   2   1  -3   88.46    2.73  38 0.72417-0.52536 0.24103-0.15704 0.51736-0.76024
   2   4  -3   44.83    2.78  38 0.72343-0.56163 0.22845 0.12700 0.52687-0.79623
   2   7  -2    1.07    1.84  38 0.72441-0.60660 0.24593 0.37178 0.51362-0.73489
   2   8  -1  130.06    3.20  39 0.72331-0.62093 0.22666 0.47469 0.52821-0.68430
   2   9   0    5.84    2.92  39 0.72324-0.63820 0.22558 0.55889 0.52901-0.62033
   2  10   1  143.46    3.07  38 0.72397-0.65563 0.23736 0.63020 0.52016-0.54504
   3  -6   6    0.30    2.97  39 0.72324-0.36970 0.22568-0.85374 0.52894-0.04309
   3  -6   7    4.23    3.11  39 0.72328-0.37287 0.22630-0.86197 0.52848 0.03195
   3   2  -4  227.31    3.13  38 0.72435-0.43386 0.24470-0.07747 0.51456-0.84627
   3   3  -4  137.18    2.66  38 0.72410-0.44643 0.23981 0.01828 0.51829-0.85941
   3   8  -2   15.69    2.95  39 0.72311-0.51721 0.22384 0.47056 0.53032-0.76665
   4  -6   4   17.31    2.21  38 0.72435-0.26283 0.24470-0.87161 0.51456-0.18342
   4  -4  -1  515.39    6.03  38 0.72343-0.26770 0.22843-0.63926 0.52689-0.58686
   4   0  -4  177.81    4.08  39 0.72312-0.30694 0.22392-0.25093 0.53026-0.85003
   4   6  -4   49.14    2.24  38 0.72397-0.38471 0.23736 0.27738 0.52016-0.89297
   4   8  -3    4.17    2.00  38 0.72404-0.41373 0.23858 0.45086 0.51923-0.83476
   4   9  -2   -1.55    3.16  39 0.72311-0.43033 0.22384 0.54814 0.53032-0.78164
   5  -5   0   43.24    3.23  38 0.72333-0.15847 0.22692-0.74991 0.52801-0.50931
   5   2  -5    2.09    2.01  38 0.72429-0.23011 0.24348-0.09709 0.51549-0.93157
   5   3  -5  284.91    3.41  38 0.72390-0.24145 0.23613 0.00138 0.52109-0.94695
   5   4  -5   41.11    2.22  38 0.72423-0.25526 0.24226 0.08448 0.51643-0.95082
   5   7  -4   25.25    3.17  38 0.72345-0.29570 0.22876 0.36181 0.52664-0.91184
   5   9  -3   32.52    2.63  38 0.72441-0.32773 0.24593 0.51829 0.51362-0.84392
   6  -6   2   23.31    3.40  38 0.72351-0.05391 0.22975-0.87203 0.52589-0.35454
   6   1  -5   12.33    2.24  38 0.72383-0.11593 0.23490-0.19277 0.52201-0.93504
   6   5  -5   26.55    3.12  38 0.72342-0.16644 0.22830 0.17478 0.52699-0.97498
   6   8  -4   25.26    2.55  38 0.72417-0.21030 0.24103 0.42577 0.51736-0.91763
   7  -6   2   15.65    3.82  38 0.72356 0.04622 0.23050-0.88693 0.52533-0.35896
   7   1  -5    3.47    3.02  39 0.72294-0.01523 0.22142-0.19362 0.53211-0.95123
   7   6  -5   10.00    2.54  38 0.72397-0.08024 0.23736 0.24166 0.52016-0.98312
   8   1  -5   12.94    3.48  39 0.72331 0.08429 0.22674-0.21241 0.52815-0.95140
  -2   2   6   75.64    4.04  40 0.72003-0.96928 0.19085-0.02543 0.55457-0.11447
  -2   2   8   -1.04    1.88  39 0.72207-0.97887 0.21285-0.06311 0.53867 0.05012
  -2   2   9   23.38    3.09  40 0.72053-0.98015 0.19582-0.05349 0.55102 0.11331
  -2   3   6   50.90    5.33  41 0.71705-0.97892 0.16524 0.09051 0.57248-0.14128
  -2   3   9   41.23    3.34  40 0.72076-0.99333 0.19820 0.03455 0.54931 0.10629
  -1  -2   5    9.10    2.59  40 0.72089-0.81398 0.19951-0.40293 0.54837-0.15286
  -1  -2   6   72.70    2.18  39 0.72226-0.82045 0.21532-0.42517 0.53685-0.06608
  -1  -2   7  122.97    2.66  39 0.72246-0.82551 0.21779-0.43469 0.53503 0.01042
  -1  -2   8   16.00    1.94  39 0.72207-0.82779 0.21285-0.43818 0.53867 0.08039
  -1  -2   9    1.22    2.78  39 0.72110-0.82950 0.20171-0.43411 0.54678 0.14679
  -1  -1  11   45.09    3.37  39 0.72124-0.85198 0.20333-0.36121 0.54561 0.28889
  -1   0  12   20.12    2.60  39 0.72196-0.86868 0.21162-0.28618 0.53957 0.36098
  -1   4   2 1287.57    8.30  40 0.72101-0.87978 0.20081 0.16046 0.54743-0.42901
  -1   7   5  188.34    4.05  39 0.72160-0.92933 0.20733 0.40267 0.54270-0.22673
   0  -3   3 3835.84   10.60  40 0.72110-0.69463 0.20171-0.49424 0.54678-0.29665
   0  -3  11    5.02    3.29  40 0.72103-0.72537 0.20101-0.55203 0.54728 0.29918
   0   8   3    8.44    2.84  40 0.72127-0.83387 0.20366 0.49647 0.54537-0.39283
   1  -4  11    5.76    2.41  39 0.72207-0.61427 0.21285-0.66909 0.53867 0.31191
   1   6  -1   90.11    2.37  39 0.72255-0.69441 0.21903 0.31611 0.53412-0.66783
   1   9   2   17.72    2.21  39 0.72165-0.74349 0.20791 0.57679 0.54229-0.47832
   1  10   4    1.49    3.29  40 0.72103-0.76411 0.20101 0.65889 0.54729-0.34377
   2  -5   3   20.27    2.11  39 0.72226-0.47033 0.21532-0.71701 0.53685-0.27884
   2   2  -3   90.71    2.54  39 0.72207-0.53558 0.21285-0.03837 0.53867-0.79062
   2   3  -3  163.11    2.71  39 0.72217-0.54825 0.21409 0.05050 0.53776-0.79866
   2   6  -2  122.52    3.12  40 0.72110-0.58947 0.20171 0.32653 0.54678-0.75985
   3  -6   4   -3.16    2.73  40 0.72104-0.35999 0.20109-0.81482 0.54723-0.21084
   3  -6   5    3.83    2.04  39 0.72246-0.36519 0.21779-0.83860 0.53503-0.12434
   3  -6   8    2.65    2.39  39 0.72264-0.37763 0.22026-0.86324 0.53320 0.10102
   3  -6   9    0.28    2.50  39 0.72186-0.37988 0.21038-0.86082 0.54048 0.16870
   3   6  -3  118.18    2.43  39 0.72176-0.48570 0.20914 0.31260 0.54138-0.83397
   3   9  -1   41.64    2.36  39 0.72217-0.53265 0.21409 0.56360 0.53776-0.70806
   3  10   0    7.11    2.32  39 0.72255-0.54957 0.21903 0.64193 0.53412-0.63902
   4  -6   3   52.57    2.49  39 0.72264-0.25669 0.22026-0.84051 0.53320-0.27619
   4   5  -4    7.60    1.96  39 0.72154-0.36926 0.20667 0.21692 0.54319-0.90653
   4  10  -1   -1.60    2.40  39 0.72255-0.44529 0.21903 0.63406 0.53412-0.71859
   5  -6   2  163.33    3.77  39 0.72217-0.15239 0.21409-0.84174 0.53776-0.36065
   5   8  -3   41.28    3.30  40 0.72091-0.31118 0.19969 0.47415 0.54824-0.86961
   6   2  -5    4.99    1.99  39 0.72165-0.12505 0.20791-0.07596 0.54229-0.96402
   6   3  -5   21.97    2.93  40 0.72119-0.13908 0.20274 0.01944 0.54604-0.97603
   6   4  -5   25.77    2.31  39 0.72207-0.15280 0.21285 0.10044 0.53867-0.97867
   6   7  -4    6.62    3.25  40 0.72113-0.19320 0.20211 0.37391 0.54649-0.93756
   7   4  -5    2.71    3.13  40 0.72074-0.05128 0.19799 0.10061 0.54946-0.99461
   7   5  -5   12.08    2.36  39 0.72217-0.06494 0.21409 0.17516 0.53776-0.99132
   8   2  -5   33.54    3.52  40 0.72086 0.07458 0.19925-0.09417 0.54856-0.98138
   8   4  -5    2.90    3.43  40 0.72062 0.04886 0.19675 0.08818 0.55036-0.99993
  -2   1   7    6.14    1.95  40 0.71958-0.95995 0.18687-0.11924 0.55749-0.03283
  -2   1   8    7.01    1.97  40 0.71958-0.96330 0.18687-0.12709 0.55749 0.04058
  -2   1   9    9.15    2.83  41 0.71811-0.96533 0.17395-0.12062 0.56656 0.10580
  -2   4   8   -0.17    4.44  41 0.71726-0.99853 0.16708 0.16272 0.57131 0.00015
  -1  -2  10   -0.67    2.89  41 0.71868-0.83336 0.17877-0.41949 0.56319 0.20583
  -1  -1   3  188.51    3.35  40 0.71945-0.81844 0.18562-0.28330 0.55837-0.32138
  -1  -1  12   29.65    3.59  41 0.71801-0.85112 0.17315-0.33673 0.56711 0.34181
  -1   6   4  197.54    3.98  41 0.71759-0.90955 0.16976 0.35781 0.56946-0.32034
   0  -4   5    1.96    2.69  41 0.71816-0.68640 0.17440-0.57222 0.56624-0.15870
   0  -4   6    2.66    1.95  40 0.71971-0.69301 0.18811-0.59176 0.55661-0.07415
   0  -4   7    9.38    1.94  40 0.72011-0.69671 0.19185-0.60342 0.55395 0.00268
   0  -4   8   11.08    1.96  40 0.71971-0.69921 0.18811-0.60811 0.55661 0.07605
   0  -4   9   -1.09    2.91  41 0.71853-0.70233 0.17752-0.60493 0.56407 0.14268
   0  -3  12    1.09    3.55  40 0.71846-0.72276 0.17689-0.53516 0.56450 0.35613
   0   4   0  322.45    4.10  40 0.71871-0.76914 0.17904 0.18197 0.56300-0.59844
   0   6   1  109.05    2.54  40 0.72023-0.80060 0.19309 0.34181 0.55307-0.53227
   0   7   2   18.34    1.95  40 0.71971-0.81659 0.18811 0.42954 0.55661-0.47043
   0   9   6   23.78    3.46  41 0.71805-0.85523 0.17344 0.59592 0.56691-0.20118
   1  -5   5  889.11    5.02  40 0.71931-0.57459 0.18438-0.68663 0.55925-0.14707
   1  -5   6   11.56    1.89  40 0.72036-0.58012 0.19433-0.70428 0.55218-0.06492
   1  -5   7    8.38    1.99  40 0.72060-0.58352 0.19682-0.71473 0.55040 0.01117
   1  -5   8    9.02    2.06  40 0.72023-0.58745 0.19309-0.71751 0.55307 0.08304
   1  -5   9   17.46    2.35  40 0.71917-0.58981 0.18313-0.71554 0.56013 0.14910
   1  -4   2    3.90    2.52  40 0.71865-0.57599 0.17850-0.56750 0.56338-0.38524
   1   7   0    6.24    1.98  40 0.72048-0.70976 0.19557 0.42233 0.55129-0.61849
   1   8   1    3.38    2.00  40 0.72023-0.72501 0.19309 0.50749 0.55307-0.55636
   2  -6   6   37.67    3.10  41 0.71836-0.46495 0.17604-0.79002 0.56510-0.07393
   2  -6   7   13.32    3.21  40 0.71863-0.46904 0.17840-0.80028 0.56345 0.00073
   2  -6   8    0.43    3.24  41 0.71839-0.47196 0.17627-0.80507 0.56494 0.07469
   2  10   2   14.79    2.39  40 0.71998-0.65522 0.19060 0.66967 0.55484-0.50551
   3  -6   3  208.88    3.85  41 0.71810-0.35300 0.17384-0.77999 0.56663-0.30479
   3  -5   1    3.42    1.90  40 0.72011-0.35899 0.19185-0.69316 0.55395-0.45083
   3   7  -2  331.97    3.83  41 0.71807-0.49865 0.17365 0.43055 0.56676-0.79434
   4  -6   2    5.25    2.90  40 0.71870-0.25099 0.17897-0.79246 0.56305-0.38160
   4  -5   0   30.85    2.96  41 0.71853-0.25491 0.17750-0.68564 0.56408-0.53971
   4   4  -4    3.61    1.98  40 0.71903-0.35443 0.18188 0.15133 0.56101-0.91551
   4   7  -3   27.26    2.08  40 0.72036-0.39763 0.19433 0.40247 0.55218-0.85910
   5  -7   5    0.49    2.53  40 0.71917-0.14922 0.18313-0.92268 0.56013-0.15105
   5   6  -4   42.39    2.27  40 0.72048-0.28045 0.19557 0.30510 0.55129-0.92931
   5   9  -2    1.34    2.41  40 0.71917-0.32575 0.18313 0.57354 0.56013-0.81561
   6  -6   1    4.28    3.24  40 0.71856-0.04549 0.17775-0.81158 0.56391-0.46669
   6  -4  -2   40.03    4.22  41 0.71628-0.05657 0.15959-0.59210 0.57644-0.71994
   7  -6   1   12.61    3.76  41 0.71838 0.05533 0.17621-0.82472 0.56498-0.47275
   7  -4  -2    4.05    3.84  41 0.71698 0.04225 0.16488-0.61103 0.57283-0.72155
   7   2  -5   10.19    2.25  40 0.72023-0.02510 0.19309-0.07483 0.55307-0.97972
   7   3  -5    7.47    2.22  40 0.71985-0.03761 0.18936 0.01900 0.55573-0.99165
   7   7  -4    6.05    2.51  40 0.71971-0.09220 0.18811 0.37569 0.55661-0.95377
   8  -1  -4    6.76    4.06  41 0.71689 0.11297 0.16419-0.33789 0.57329-0.90327
   8   3  -5    6.31    2.43  40 0.72011 0.06148 0.19185 0.00319 0.55395-0.99543
  -2   0   7   22.32    2.81  42 0.71483-0.94197 0.14944-0.17221 0.58347-0.05072
  -2   0   8    4.77    2.69  41 0.71511-0.94606 0.15139-0.18173 0.58216 0.02299
  -2   1   6  118.63    3.12  41 0.71705-0.95341 0.16574-0.09024 0.57240-0.12390
  -2   1  10   34.92    3.17  42 0.71489-0.96581 0.14985-0.10485 0.58320 0.16418
  -2   2  10    2.66    2.10  41 0.71673-0.98108 0.16324-0.02807 0.57412 0.16391
  -2   3  10    2.63    3.00  41 0.71576-0.99306 0.15601 0.06827 0.57904 0.15082
  -2   4   9   12.13    3.81  42 0.71312-0.99898 0.13800 0.18480 0.59109 0.05536
  -1  -3   7    4.46    2.62  41 0.71519-0.80337 0.15195-0.46134 0.58179-0.02847
  -1  -3   8   62.32    2.94  42 0.71508-0.80779 0.15118-0.46677 0.58230 0.04626
  -1  -2   4    5.39    1.82  41 0.71673-0.80686 0.16324-0.35794 0.57412-0.25407
  -1  -2  11    2.12    2.24  41 0.71606-0.83289 0.15822-0.40501 0.57754 0.26494
  -1   5   3   13.27    2.66  41 0.71632-0.89137 0.16018 0.28347 0.57620-0.39250
  -1   7   6    4.76    2.97  41 0.71638-0.92788 0.16059 0.44173 0.57593-0.18553
   0  -4   4  789.94    5.01  42 0.71493-0.67864 0.15017-0.54043 0.58298-0.24939
   0  -4  10    9.17    2.21  41 0.71656-0.70498 0.16199-0.59639 0.57497 0.20600
   0   9   7   27.92    3.64  42 0.71452-0.85586 0.14734 0.61493 0.58488-0.14372
   1  -5   4   22.06    2.00  41 0.71673-0.56792 0.16324-0.65819 0.57412-0.23670
   1  -5  10    2.74    2.34  41 0.71752-0.59237 0.16950-0.70803 0.56981 0.21451
   1   5  -1   47.74    2.08  41 0.71783-0.67780 0.17200 0.27237 0.56808-0.69240
   1   9   3   62.03    2.52  41 0.71606-0.74115 0.15822 0.61893 0.57754-0.43961
   1  10   5   22.25    2.61  41 0.71689-0.76241 0.16449 0.68786 0.57326-0.29568
   2  -6   5    5.39    2.12  41 0.71689-0.45949 0.16449-0.77130 0.57326-0.15883
   2  -6   9    2.54    2.41  41 0.71721-0.47511 0.16699-0.80380 0.57154 0.14280
   2  -5   2  268.44    3.33  41 0.71768-0.46219 0.17075-0.66540 0.56895-0.38533
   2   5  -2  138.39    2.59  41 0.71606-0.57152 0.15822 0.28021 0.57754-0.78196
   2   7  -1   97.32    2.38  41 0.71783-0.60249 0.17200 0.43868 0.56808-0.71589
   2   8   0    5.07    2.00  41 0.71656-0.61861 0.16199 0.53230 0.57497-0.65613
   2   9   1   99.90    2.56  41 0.71737-0.63462 0.16825 0.60867 0.57068-0.58717
   3   5  -3   22.83    1.98  41 0.71783-0.46932 0.17200 0.25800 0.56808-0.85199
   3   8  -1   12.20    1.98  41 0.71589-0.51298 0.15697 0.53030 0.57839-0.74113
   3   9   0   50.07    3.11  42 0.71532-0.52854 0.15290 0.61673 0.58115-0.67550
   3  10   1    7.18    2.33  41 0.71737-0.54883 0.16825 0.68475 0.57068-0.60128
   4  -7   5    4.60    2.31  41 0.71640-0.24563 0.16073-0.88554 0.57583-0.16098
   4  -7   6    3.11    2.46  41 0.71768-0.24969 0.17075-0.90331 0.56895-0.08148
   4   1  -4   19.47    2.09  41 0.71737-0.31449 0.16825-0.10508 0.57068-0.89816
   4   2  -4  716.50    5.36  41 0.71555-0.32438 0.15452-0.00113 0.58005-0.91625
   4   3  -4   21.83    1.98  41 0.71673-0.33903 0.16324 0.08079 0.57412-0.91962
   4   6  -3    0.48    2.68  42 0.71510-0.37913 0.15132 0.35649 0.58221-0.88034
   4   8  -2   15.11    2.06  41 0.71752-0.41042 0.16950 0.51097 0.56981-0.81105
   4   9  -1   41.46    2.37  41 0.71640-0.42558 0.16073 0.60254 0.57583-0.75183
   4  10   0   80.00    2.86  41 0.71705-0.44331 0.16574 0.68026 0.57240-0.68301
   5  -7   4   -0.44    2.50  41 0.71705-0.14226 0.16574-0.89772 0.57240-0.23775
   5  -6   1    2.63    2.12  41 0.71623-0.14386 0.15948-0.77913 0.57668-0.47405
   5   5  -4   35.59    2.14  41 0.71673-0.26382 0.16324 0.24705 0.57412-0.94345
   5   7  -3    5.86    2.84  41 0.71532-0.29265 0.15288 0.43053 0.58116-0.89253
   6  -7   3   12.83    3.78  42 0.71491-0.03569 0.15002-0.88837 0.58309-0.32776
   6  -1  -4   14.16    3.08  42 0.71548-0.08616 0.15404-0.29904 0.58037-0.90055
   6   6  -4    3.41    2.21  41 0.71721-0.17702 0.16699 0.31995 0.57154-0.95418
   6   8  -3   32.37    2.65  41 0.71783-0.20767 0.17200 0.48676 0.56808-0.89489
   6   9  -2    8.70    3.55  42 0.71536-0.22092 0.15320 0.58818 0.58094-0.83991
   7  -1  -4    3.85    3.57  42 0.71269 0.01688 0.13528-0.29437 0.59289-0.91785
   7   6  -4   68.19    3.58  42 0.71519-0.07538 0.15195 0.32054 0.58179-0.96970
  -2   0   6  240.50    3.96  43 0.71153-0.93524 0.12749-0.14310 0.59820-0.14063
  -2   0   9   38.00    2.20  42 0.71383-0.94871 0.14199-0.17926 0.58868 0.09348
  -2   0  10    4.18    2.83  43 0.71094-0.94894 0.12399-0.17003 0.60047 0.15485
  -2   2  11    4.83    3.21  43 0.71125-0.97919 0.12584 0.00221 0.59928 0.21359
  -1  -3   5    0.21    2.53  43 0.71079-0.79292 0.12308-0.41502 0.60107-0.19756
  -1  -3   6   10.92    2.00  42 0.71402-0.79960 0.14324-0.44367 0.58784-0.10958
  -1  -3   9   25.53    2.09  42 0.71402-0.81039 0.14324-0.46587 0.58784 0.11522
  -1  -3  10   15.06    3.06  42 0.71156-0.81190 0.12767-0.45869 0.59809 0.17959
  -1  -2  12    1.48    3.47  43 0.71142-0.83429 0.12686-0.38124 0.59861 0.31922
  -1   0   2    4.04    2.37  42 0.71285-0.81966 0.13569-0.13528 0.59284-0.44113
  -1   3   2  282.43    5.18  42 0.71208-0.85770 0.13084 0.13925 0.59602-0.46818
  -1   7   7    1.22    2.91  43 0.71079-0.92668 0.12308 0.47196 0.60107-0.13748
   0  -4  11    2.82    2.41  42 0.71402-0.70421 0.14324-0.58574 0.58784 0.26882
   0  -3   2  653.72    4.81  42 0.71265-0.68225 0.13443-0.41954 0.59367-0.41890
   0   3   0 1631.77    8.18  42 0.71285-0.75129 0.13569 0.13516 0.59284-0.61927
   0   5   1  194.55    3.48  43 0.71125-0.77857 0.12579 0.31837 0.59931-0.56949
   0   9   8   20.67    3.90  43 0.71148-0.85622 0.12721 0.62695 0.59839-0.08261
   1  -5   3  139.38    3.22  43 0.71152-0.55950 0.12746-0.61522 0.59823-0.33555
   1   4  -1    2.28    2.72  42 0.71114-0.65931 0.12517 0.22897 0.59971-0.71483
   1   6   0   14.48    2.01  42 0.71265-0.68862 0.13443 0.39377 0.59367-0.65228
   1   7   1    1.11    2.72  43 0.71079-0.70385 0.12308 0.48643 0.60107-0.59441
   1   8   2   33.13    2.18  42 0.71245-0.72156 0.13317 0.56154 0.59450-0.52233
   1  10   6   12.18    2.67  42 0.71265-0.76247 0.13443 0.71126 0.59367-0.24026
   2  -6   4   13.09    2.00  42 0.71420-0.45292 0.14450-0.74448 0.58700-0.24535
   2  -4   0  838.08    6.26  42 0.71170-0.46074 0.12851-0.51799 0.59754-0.57294
   2  10   3    3.44    2.32  42 0.71439-0.65306 0.14576 0.70834 0.58617-0.46109
   3  -7   5    6.10    3.04  43 0.71100-0.34156 0.12434-0.83538 0.60025-0.18010
   3  -7   6    1.17    2.30  42 0.71305-0.34654 0.13695-0.85529 0.59201-0.09770
   3  -7   7    9.20    2.45  42 0.71363-0.35160 0.14073-0.86714 0.58951-0.02056
   3  -6   2   79.00    3.27  42 0.71193-0.34297 0.12993-0.72940 0.59661-0.40997
   3   4  -3  269.22    3.13  42 0.71325-0.45254 0.13821 0.20341 0.59118-0.86616
   3   6  -2  300.62    3.68  43 0.71089-0.47936 0.12366 0.39062 0.60069-0.81920
   4  -7   4    6.45    2.23  42 0.71363-0.23863 0.14073-0.85897 0.58951-0.24984
   4  -6   1  144.07    3.86  43 0.71089-0.23747 0.12369-0.72929 0.60067-0.49302
   5  -7   3    4.83    2.30  42 0.71305-0.13459 0.13695-0.86132 0.59201-0.33245
   5   0  -4   37.29    3.09  43 0.71129-0.19479 0.12607-0.16720 0.59913-0.92317
   5   4  -4    0.73    1.98  42 0.71245-0.24741 0.13317 0.18650 0.59450-0.95365
   5   8  -2  119.39    3.39  43 0.71159-0.30436 0.12786 0.53832 0.59796-0.84264
   5  10   0    8.86    3.66  43 0.71124-0.33839 0.12578 0.70749 0.59932-0.71346
   6  -5  -1    0.03    2.98  42 0.71305-0.04331 0.13695-0.66636 0.59201-0.65269
   6   5  -4   11.40    2.01  42 0.71245-0.15980 0.13317 0.26423 0.59450-0.96762
   6   7  -3    2.65    3.08  42 0.71142-0.18827 0.12686 0.44334 0.59861-0.91637
   7  -5  -1    0.31    3.27  42 0.71265 0.05653 0.13443-0.67776 0.59367-0.65967
   9   0  -4    1.27    3.70  42 0.71245 0.20496 0.13317-0.23000 0.59450-0.93951
  -2  -1   7  152.20    3.54  43 0.70754-0.92285 0.10471-0.21783 0.61274-0.07189
  -2  -1   8  176.09    2.96  43 0.70884-0.92691 0.11174-0.23247 0.60829 0.00745
  -2  -1   9  157.31    3.63  43 0.70738-0.93031 0.10380-0.23195 0.61330 0.07715
  -2   0  11    6.64    3.13  44 0.70635-0.94828 0.09839-0.15020 0.61669 0.21475
  -2   1   5  170.04    4.17  44 0.70696-0.93918 0.10161-0.01942 0.61468-0.24060
  -2   1  11    1.90    2.19  43 0.70996-0.96488 0.11806-0.08049 0.60425 0.21751
  -2   3  11   -0.81    3.23  44 0.70791-0.98977 0.10667 0.11145 0.61150 0.19267
  -2   4  10   21.70    4.23  44 0.70460-0.99451 0.08953 0.22657 0.62217 0.09887
  -1  -3  11    8.40    2.38  43 0.70814-0.81190 0.10794-0.44683 0.61070 0.24087
  -1  -2   3  656.88    5.39  44 0.70681-0.79267 0.10081-0.28878 0.61518-0.36909
  -1   6   5   64.61    3.23  44 0.70540-0.90100 0.09353 0.42646 0.61971-0.29474
  -1   7   8    4.68    3.10  44 0.70558-0.92603 0.09445 0.49367 0.61913-0.07964
  -1   7  10    1.68    4.16  45 0.70236-0.92850 0.07867 0.49509 0.62879 0.05781
   0  -5   6  129.46    2.52  43 0.70884-0.66831 0.11174-0.60693 0.60829-0.11636
   0  -5   7    2.24    1.89  43 0.71017-0.67286 0.11932-0.62249 0.60344-0.03669
   0  -5   8    1.08    2.03  43 0.71017-0.67780 0.11932-0.62847 0.60344 0.03660
   0  -5   9    8.84    2.21  43 0.70906-0.68008 0.11300-0.63002 0.60749 0.10789
   0  -5  10    4.23    3.34  44 0.70682-0.68128 0.10087-0.62609 0.61514 0.17525
   0  -4   3 1212.68    5.76  43 0.70791-0.66861 0.10667-0.48911 0.61150-0.35331
   0   6   2    6.98    1.94  43 0.70838-0.79242 0.10921 0.41860 0.60990-0.51401
   0   7   3   30.70    2.11  43 0.71017-0.81011 0.11932 0.49077 0.60344-0.44195
   1  -6   5   32.21    2.85  44 0.70662-0.54889 0.09979-0.69183 0.61582-0.19520
   1  -6   6   52.94    2.33  43 0.70929-0.55567 0.11427-0.71377 0.60668-0.11076
   1  -6   7  269.20    3.50  43 0.71018-0.56110 0.11932-0.72691 0.60344-0.03318
   1  -6   8   -0.48    2.05  43 0.71017-0.56438 0.11932-0.73430 0.60344 0.04103
   1  -6   9    5.03    2.44  43 0.70906-0.56703 0.11300-0.73560 0.60749 0.11217
   1  -4   1  274.55    3.80  44 0.70679-0.55956 0.10070-0.48279 0.61525-0.51072
   1   9   4    7.05    2.20  43 0.70884-0.73878 0.11174 0.65724 0.60829-0.39590
   2  -7   7    5.28    3.20  44 0.70660-0.44467 0.09969-0.80984 0.61588-0.04213
   2  -7   8    2.94    3.60  43 0.70672-0.44720 0.10034-0.81848 0.61547 0.03319
   2  -6   3   25.60    2.11  43 0.70906-0.44437 0.11300-0.70461 0.60749-0.34078
   2  -5   1    5.84    2.68  43 0.70753-0.44769 0.10464-0.59207 0.61278-0.50356
   2  -3  -1  413.75    5.37  43 0.70906-0.46747 0.11300-0.40437 0.60749-0.66564
   2   4  -2   31.14    1.96  43 0.70929-0.55190 0.11427 0.23290 0.60668-0.80168
   2   6  -1  194.81    2.71  43 0.70929-0.58103 0.11427 0.40665 0.60668-0.74478
   2   9   2   44.10    2.33  43 0.70906-0.63048 0.11300 0.65688 0.60749-0.54795
   2  10   4    4.85    3.29  43 0.70709-0.64895 0.10227 0.74314 0.61426-0.41574
   3  -7   4   10.21    3.08  43 0.70713-0.33300 0.10252-0.80706 0.61411-0.26907
   3  -5   0   27.95    3.03  44 0.70708-0.34312 0.10222-0.59607 0.61430-0.58535
   3  -4  -1    9.38    1.97  43 0.70906-0.35422 0.11300-0.50884 0.60749-0.66200
   3   0  -3  144.61    3.84  44 0.70616-0.39440 0.09745-0.11723 0.61728-0.85699
   3   3  -3  101.90    2.40  43 0.70791-0.43359 0.10667 0.14429 0.61150-0.87758
   3  10   2    7.36    2.36  43 0.70996-0.54427 0.11806 0.72774 0.60425-0.55945
   4  -7   3    6.00    2.15  43 0.70861-0.23065 0.11047-0.82100 0.60909-0.34419
   4   5  -3  232.63    2.98  43 0.70838-0.35984 0.10921 0.30824 0.60990-0.89900
   4   7  -2   88.69    2.32  43 0.70973-0.39041 0.11680 0.47351 0.60506-0.83717
   4   8  -1   73.87    3.04  44 0.70696-0.40462 0.10161 0.57248 0.61468-0.78130
   4   9   0   41.31    3.22  44 0.70674-0.42109 0.10047 0.65569 0.61539-0.71602
   4  10   1    6.03    2.33  43 0.70906-0.43935 0.11300 0.72638 0.60749-0.64195
   5  -5  -1   62.44    3.58  43 0.70760-0.13908 0.10499-0.62051 0.61256-0.66866
   5  -4  -2   85.93    4.00  44 0.70684-0.14727 0.10097-0.51863 0.61508-0.75401
   5   1  -4  255.82    4.06  44 0.70647-0.20299 0.09903-0.04933 0.61629-0.95032
   5   2  -4  182.68    3.69  44 0.70623-0.21536 0.09780 0.04229 0.61706-0.95982
   5   3  -4   15.31    2.03  43 0.70861-0.23014 0.11047 0.11887 0.60909-0.95992
   5   6  -3  129.08    2.58  43 0.70814-0.27169 0.10794 0.38561 0.61070-0.91335
   5   9  -1   61.63    2.60  43 0.71039-0.32074 0.12059 0.62872 0.60263-0.78266
   6  -7   2    1.60    3.54  44 0.70730-0.02512 0.10341-0.83587 0.61355-0.43410
   6  -6   0    2.69    3.23  44 0.70549-0.02705 0.09400-0.72037 0.61941-0.59707
   6   4  -4   15.30    2.89  44 0.70704-0.14144 0.10201 0.20385 0.61443-0.97808
   6   8  -2   16.80    3.19  44 0.70696-0.20073 0.10161 0.55072 0.61468-0.86558
   7   5  -4   13.32    2.31  43 0.71017-0.05730 0.11932 0.26301 0.60344-0.98233
   7   7  -3    6.09    2.34  43 0.70861-0.08461 0.11047 0.44586 0.60909-0.93098
   8  -4  -2    1.44    5.06  45 0.70158 0.15844 0.07501-0.53512 0.63100-0.78752
   8   5  -4    8.28    2.44  43 0.70996 0.04295 0.11806 0.24935 0.60425-0.98814
   9   1  -4    9.91    3.74  44 0.70608 0.19833 0.09702-0.10422 0.61754-0.97218
  -2  -1   6   25.84    2.07  44 0.70389-0.91470 0.08632-0.19204 0.62403-0.15796
  -2  -1  10    4.54    2.06  44 0.70492-0.93054 0.09140-0.22670 0.62091 0.14537
  -2   0   5   -0.61    2.51  45 0.70218-0.92219 0.07806-0.08603 0.62904-0.24627
  -2   1  12    0.32    3.39  44 0.70258-0.96175 0.07997-0.05021 0.62789 0.26793
  -2   2   5  169.91    5.70  45 0.70006-0.94568 0.06829 0.10438 0.63490-0.26953
  -2   2  12    2.49    3.38  44 0.70238-0.97497 0.07903 0.04200 0.62846 0.25963
  -1  -4   6    5.25    2.65  45 0.70188-0.77438 0.07670-0.46825 0.62987-0.14176
  -1  -4   7   42.72    2.16  44 0.70415-0.78086 0.08759-0.48619 0.62325-0.06066
  -1  -4   8    0.04    1.94  44 0.70467-0.78463 0.09013-0.49639 0.62169 0.01377
  -1  -4   9   18.64    2.18  44 0.70363-0.78789 0.08505-0.49841 0.62480 0.08699
  -1  -4  10   13.48    3.18  45 0.70162-0.78869 0.07544-0.49558 0.63063 0.15545
  -1  -3   4   31.64    1.97  44 0.70415-0.78120 0.08759-0.37351 0.62325-0.29375
  -1  -3  12   11.21    2.71  44 0.70311-0.81221 0.08251-0.42808 0.62635 0.29915
  -1   7   9    2.67    3.18  45 0.70177-0.92547 0.07616 0.50465 0.63019-0.01604
   0  -5   5  761.98    4.56  44 0.70542-0.66172 0.09393-0.58223 0.61934-0.20196
   0   2   0  178.96    3.98  44 0.70467-0.73030 0.09013 0.09037 0.62169-0.63911
   1  -6   4   54.60    2.96  45 0.70136-0.53994 0.07427-0.65964 0.63133-0.28555
   1  -5   2   30.32    2.67  45 0.70158-0.54537 0.07528-0.55561 0.63072-0.44271
   1  -3   0 2162.44    9.92  44 0.70517-0.56683 0.09266-0.37720 0.62013-0.59913
   1   3  -1  131.79    3.35  45 0.70133-0.63603 0.07411 0.19007 0.63142-0.73750
   1   8   3    5.17    2.81  45 0.70123-0.71504 0.07365 0.61259 0.63170-0.48527
   2  -7   5   25.70    3.09  45 0.70189-0.43183 0.07674-0.77423 0.62984-0.20521
   2  -7   6   20.30    2.36  44 0.70492-0.43881 0.09140-0.79609 0.62091-0.12127
   2   3  -2  536.42    4.67  45 0.70116-0.53195 0.07331 0.18443 0.63191-0.81789
   2   7   0   15.65    1.99  44 0.70592-0.59498 0.09647 0.50736 0.61777-0.69040
   2   8   1   49.51    2.11  44 0.70592-0.61125 0.09647 0.59023 0.61777-0.62420
   3   1  -3  207.58    3.85  45 0.70140-0.40253 0.07444-0.00377 0.63123-0.87965
   3   2  -3  433.27    4.05  44 0.70311-0.41602 0.08251 0.07849 0.62635-0.88338
   3   7  -1   12.39    1.85  44 0.70592-0.49182 0.09647 0.50170 0.61777-0.76898
   3   8   0    3.07    2.01  44 0.70441-0.50463 0.08886 0.59196 0.62247-0.70959
   3   9   1    0.07    2.07  44 0.70592-0.52348 0.09647 0.66669 0.61777-0.63843
   5  -7   2    3.40    2.33  44 0.70542-0.12337 0.09393-0.81214 0.61934-0.43247
   5  -6   0   16.68    3.11  44 0.70164-0.12465 0.07555-0.68857 0.63056-0.60256
   5   7  -2   27.80    2.98  45 0.70157-0.28255 0.07522 0.50128 0.63075-0.86749
   5  10   1    1.95    3.57  44 0.70177-0.33204 0.07616 0.75215 0.63019-0.67246
   6   0  -4    1.40    2.68  45 0.70177-0.08516 0.07616-0.13176 0.63019-0.95895
   6   3  -4   15.88    2.85  45 0.70202-0.12270 0.07733 0.13814 0.62949-0.98464
   6   6  -3    1.77    2.92  44 0.70258-0.16666 0.07997 0.39946 0.62789-0.93535
   6   9  -1   22.47    2.61  44 0.70517-0.21475 0.09266 0.64223 0.62013-0.80553
   7  -6   0    2.05    2.59  44 0.70415 0.07303 0.08759-0.72846 0.62325-0.60621
   7   0  -4    7.35    2.89  45 0.70058 0.01593 0.07066-0.13991 0.63349-0.96923
   7   4  -4   15.83    2.17  44 0.70467-0.03872 0.09013 0.20187 0.62169-0.99159
   7   8  -2   -0.20    2.45  44 0.70389-0.09716 0.08632 0.55187 0.62403-0.88067
   8   0  -4   34.96    3.49  44 0.70303 0.11467 0.08211-0.16562 0.62659-0.96483
   8   3  -4    3.97    3.13  45 0.70122 0.07784 0.07358 0.11379 0.63174-0.99946
   8   4  -4    2.84    2.28  44 0.70492 0.06142 0.09140 0.18643 0.62091-0.99574
   9   2  -4   35.02    2.94  44 0.70363 0.18836 0.08505-0.00270 0.62480-0.98721
  -2  -2   7  528.95    4.22  45 0.69868-0.90030 0.06220-0.26613 0.63856-0.08881
  -2  -2   8   14.35    1.97  45 0.70011-0.90623 0.06856-0.27877 0.63479-0.01011
  -2  -2   9   17.15    2.12  45 0.69926-0.90925 0.06475-0.28299 0.63706 0.06124
  -2  -2  10   10.65    3.01  46 0.69647-0.91105 0.05261-0.27809 0.64417 0.12943
  -2  -1   5  503.85    4.79  46 0.69523-0.90143 0.04742-0.14635 0.64717-0.25523
  -2  -1  11    1.70    2.17  45 0.70011-0.93041 0.06856-0.21110 0.63479 0.20614
  -2   0  12    6.85    2.49  45 0.69926-0.94614 0.06475-0.12410 0.63706 0.26822
  -2   3  12    1.70    3.55  45 0.69688-0.98195 0.05437 0.15669 0.64315 0.23571
  -2   4  11    6.59    4.80  46 0.69071-0.98453 0.02926 0.27915 0.65748 0.13781
  -1  -4   5   20.41    2.69  45 0.69700-0.76542 0.05487-0.43845 0.64285-0.23072
  -1  -4  11    5.00    2.33  45 0.69752-0.78998 0.05711-0.48494 0.64155 0.21944
  -1  -1   2  202.58    4.48  45 0.69654-0.79160 0.05294-0.14340 0.64398-0.48200
  -1   4   3   17.04    2.58  46 0.69643-0.85914 0.05248 0.30060 0.64425-0.45001
  -1   5   4  234.27    4.28  46 0.69615-0.87527 0.05130 0.38511 0.64493-0.38493
   0  -6   7   49.45    2.96  46 0.69558-0.64624 0.04887-0.64218 0.64634-0.07088
   0  -6   8    0.40    2.96  45 0.69633-0.65105 0.05202-0.65189 0.64451 0.00445
   0  -6   9   17.73    3.33  46 0.69561-0.65342 0.04901-0.65658 0.64625 0.07797
   0  -5   4   56.10    2.22  45 0.69954-0.65153 0.06602-0.54694 0.63630-0.29414
   0   4   1  833.29    5.94  46 0.69519-0.75017 0.04727 0.30658 0.64726-0.60770
   0   8   6   11.56    2.21  45 0.69810-0.82305 0.05966 0.61897 0.64006-0.26340
   1  -7   8    4.67    3.37  46 0.69571-0.53652 0.04941-0.75270 0.64602 0.00667
   1   5   0  263.90    3.12  45 0.69983-0.66358 0.06729 0.36989 0.63555-0.68455
   1   7   2    0.82    2.64  46 0.69586-0.69371 0.05006 0.55219 0.64565-0.56402
   1   9   5   44.70    2.47  45 0.70011-0.73420 0.06856 0.69395 0.63479-0.34740
   2  -7   4    2.47    2.72  46 0.69602-0.42416 0.05074-0.74098 0.64525-0.29669
   2  -6   2   89.33    2.50  45 0.69926-0.43020 0.06475-0.64939 0.63706-0.44605
   2  -1  -2  771.63   13.68  46 0.69272-0.47215 0.03720-0.14037 0.65301-0.80378
   2   5  -1   10.84    2.59  46 0.69643-0.55499 0.05245 0.37759 0.64426-0.77294
   2   9   3  183.26    2.92  45 0.69840-0.62424 0.06093 0.70185 0.63931-0.50545
   2  10   5    5.06    2.47  45 0.69897-0.64530 0.06348 0.77490 0.63781-0.36369
   3  -8   6    4.66    3.52  46 0.69581-0.31706 0.04984-0.85868 0.64577-0.14361
   3  -7   3   24.30    2.22  45 0.70067-0.32189 0.07111-0.76799 0.63328-0.36342
   3  -6   1  396.38    4.25  45 0.70011-0.32673 0.06856-0.66016 0.63479-0.52303
   3   5  -2  116.76    2.45  45 0.70067-0.45649 0.07111 0.35294 0.63327-0.84209
   3  10   3   61.71    2.70  45 0.70067-0.53949 0.07111 0.76723 0.63328-0.51358
   4  -8   5    6.83    2.67  45 0.69926-0.21686 0.06475-0.88050 0.63706-0.21458
   4  -7   2   15.87    2.34  45 0.69954-0.21763 0.06602-0.76975 0.63630-0.44586
   4  -5  -1   28.48    3.00  46 0.69540-0.22709 0.04814-0.54846 0.64675-0.69813
   4   4  -3   -0.25    1.91  45 0.69983-0.33861 0.06729 0.25903 0.63555-0.91515
   4   6  -2  143.41    2.50  45 0.69868-0.36660 0.06220 0.43825 0.63856-0.86108
   4  10   2   -0.83    2.36  45 0.69897-0.43363 0.06348 0.76857 0.63781-0.59856
   5   5  -3   10.38    1.95  45 0.69897-0.24985 0.06347 0.33972 0.63781-0.93147
   5   8  -1   63.28    2.35  45 0.69840-0.29577 0.06093 0.59879 0.63931-0.81100
   5   9   0   10.23    2.32  45 0.69810-0.31141 0.05966 0.68228 0.64006-0.74552
   6   1  -4   59.92    3.16  45 0.69706-0.09280 0.05516-0.02010 0.64269-0.97979
   6   2  -4  337.97    3.76  45 0.69868-0.10719 0.06220 0.06363 0.63856-0.98574
   6   7  -2   45.70    3.13  46 0.69553-0.17615 0.04866 0.51407 0.64645-0.88877
   7   1  -4    1.21    2.87  46 0.69542 0.00692 0.04820-0.02854 0.64672-0.98998
   7   2  -4    8.43    2.92  46 0.69602-0.00567 0.05074 0.06145 0.64525-0.99733
   7   3  -4    2.80    2.14  45 0.69954-0.02078 0.06602 0.13628 0.63630-0.99697
   7   6  -3   43.37    2.41  45 0.69983-0.06363 0.06729 0.39846 0.63555-0.94925
   8   1  -4    2.31    2.22  45 0.69840 0.10861 0.06093-0.05430 0.63931-0.98777
   8   2  -4    1.44    2.27  45 0.69810 0.09359 0.05966 0.03692 0.64006-0.99757
   8   6  -3    2.51    2.52  45 0.69926 0.03678 0.06475 0.38706 0.63706-0.95501
  -2  -3   8   79.93    3.05  47 0.68957-0.88248 0.02460-0.32577 0.65996-0.02650
  -2  -3   9    4.87    2.88  47 0.68954-0.88585 0.02449-0.33231 0.66002 0.04766
  -2  -2   6    0.28    1.87  46 0.69397-0.89244 0.04192-0.23936 0.65021-0.17307
  -2  -2  11    3.18    2.22  46 0.69271-0.90951 0.03682-0.26986 0.65311 0.19541
  -2  -1  12    2.53    2.50  46 0.69366-0.92833 0.04064-0.19080 0.65094 0.26242
  -1  -5   7  100.56    3.32  47 0.68993-0.75403 0.02598-0.51487 0.65919-0.08828
  -1  -5   8   18.70    2.18  46 0.69142-0.75907 0.03172-0.52693 0.65598-0.01081
  -1  -5   9   11.97    3.20  46 0.69061-0.76182 0.02858-0.53249 0.65774 0.06151
  -1  -3   3   98.11    3.15  46 0.69038-0.76448 0.02771-0.30598 0.65823-0.40374
  -1   2   2  207.58    6.23  47 0.68672-0.81976 0.01392 0.16626 0.66583-0.52928
  -1   6   6   28.73    2.89  47 0.68869-0.88838 0.02126 0.49167 0.66181-0.26242
   0  -6   6   35.47    2.13  46 0.69303-0.64034 0.03809-0.62395 0.65239-0.15290
   0  -6  10   13.31    2.68  46 0.69334-0.65641 0.03937-0.65384 0.65166 0.14640
   0  -5   3  406.28    3.95  47 0.68954-0.63736 0.02449-0.49771 0.66002-0.39249
   0  -4   2  210.59    2.93  46 0.69397-0.65097 0.04192-0.41742 0.65021-0.46646
   0  -3   1 1008.71    6.46  46 0.69014-0.65621 0.02677-0.30449 0.65876-0.55844
   0   6   3  254.81    3.84  47 0.68914-0.77691 0.02297 0.49755 0.66086-0.49026
   0   8   7   47.30    3.39  47 0.68853-0.81698 0.02065 0.65138 0.66214-0.21087
   1  -7   6  117.46    2.88  46 0.69239-0.52649 0.03555-0.72580 0.65383-0.15016
   1  -7   7   54.78    2.68  46 0.69491-0.53215 0.04574-0.74306 0.64803-0.06894
   1  -6   3  642.42    4.48  46 0.69271-0.52783 0.03682-0.61498 0.65311-0.38218
   1   6   1  346.77    3.44  46 0.69491-0.67492 0.04574 0.47477 0.64803-0.63144
   1   9   6  240.12    4.38  47 0.68998-0.72660 0.02615 0.72856 0.65910-0.29528
   2   2  -2    6.82    1.91  46 0.69142-0.50837 0.03172 0.13487 0.65598-0.83314
   2   6   0  288.35    3.58  47 0.68977-0.56572 0.02535 0.48869 0.65954-0.72293
   2   8   2  106.72    2.46  46 0.69142-0.59986 0.03172 0.64830 0.65598-0.58707
   2  10   6    0.12    3.55  47 0.69010-0.63896 0.02662 0.80356 0.65884-0.30972
   3  -8   5    1.03    2.35  46 0.69206-0.30979 0.03427-0.83558 0.65455-0.22752
   3  -7   2   24.80    2.98  47 0.68977-0.30808 0.02535-0.71455 0.65954-0.46403
   3  -3  -2  359.24    6.96  47 0.68709-0.34080 0.01529-0.31391 0.66508-0.80382
   3   6  -1  107.49    2.36  46 0.69174-0.46370 0.03300 0.47436 0.65527-0.79787
   3   8   1   12.53    2.87  47 0.68898-0.49386 0.02233 0.65119 0.66122-0.67300
   3   9   2   17.35    2.19  46 0.69366-0.51582 0.04064 0.71504 0.65094-0.59722
   3  10   4    0.70    3.36  47 0.68977-0.53129 0.02535 0.80494 0.65954-0.46433
   4  -8   4    0.31    2.46  46 0.69397-0.20688 0.04192-0.85045 0.65021-0.30232
   4  -6   0    4.01    2.03  46 0.69271-0.21543 0.03682-0.63456 0.65311-0.62184
   4   3  -3  212.42    3.56  47 0.69026-0.31574 0.02723 0.20911 0.65850-0.92883
   4   7  -1   84.84    2.31  46 0.69303-0.37727 0.03809 0.54531 0.65239-0.80886
   4   8   0   55.09    2.30  46 0.69174-0.39268 0.03300 0.63370 0.65527-0.74665
   4   9   1   15.63    2.24  46 0.69397-0.41161 0.04192 0.70701 0.65021-0.67655
   5  -8   3   15.54    3.78  46 0.69020-0.09965 0.02702-0.84272 0.65862-0.39111
   5  -7   1   60.10    3.81  46 0.69120-0.10517 0.03087-0.74124 0.65646-0.54642
   5   4  -3   10.47    2.68  47 0.68854-0.22678 0.02068 0.29200 0.66213-0.94731
   5  10   2    4.32    3.53  46 0.68959-0.32442 0.02468 0.79552 0.65991-0.62590
   6  -7   1   -0.18    2.47  46 0.69397-0.00734 0.04192-0.76675 0.65021-0.54456
   6   5  -3  134.86    2.63  46 0.69271-0.14371 0.03682 0.35257 0.65311-0.95249
   6   8  -1   19.94    2.33  46 0.69174-0.18819 0.03300 0.61212 0.65527-0.83131
   6   9   0    5.03    2.41  46 0.69174-0.20528 0.03300 0.69502 0.65527-0.76625
   7   5  -3   29.33    3.15  47 0.68952-0.04074 0.02440 0.35120 0.66007-0.96451
   7   7  -2  112.39    2.79  46 0.69206-0.07202 0.03427 0.51401 0.65455-0.90187
   8   5  -3   22.17    3.28  47 0.68954 0.05978 0.02447 0.33620 0.66003-0.96895
  -2  -3   6   17.86    2.70  48 0.68268-0.86765-0.00109-0.28472 0.67379-0.18923
  -2  -3   7    9.60    1.87  47 0.68753-0.87726 0.01637-0.30917 0.66437-0.10526
  -2  -3  10    8.85    2.20  47 0.68684-0.88792 0.01382-0.32983 0.66576 0.11633
  -2  -3  11    5.30    3.35  48 0.68274-0.88725-0.00089-0.32290 0.67368 0.18338
  -2  -2   5  106.71    2.44  47 0.68473-0.87885 0.00616-0.19518 0.66991-0.26977
  -2  -2  12    3.57    2.49  47 0.68649-0.90700 0.01254-0.25402 0.66646 0.25591
  -1  -5   6   45.27    2.08  47 0.68684-0.74652 0.01382-0.49521 0.66576-0.16897
  -1  -5  10   25.95    2.53  47 0.68855-0.76399 0.02020-0.53069 0.66227 0.13287
  -1  -4   4  238.04    2.95  47 0.68821-0.75353 0.01892-0.39505 0.66297-0.32383
   0  -6   5  174.83    2.76  47 0.68855-0.63168 0.02020-0.59861 0.66227-0.23570
   0   5   2   34.78    2.01  47 0.68787-0.75919 0.01764 0.41979 0.66367-0.55921
   1  -7   5    1.29    2.04  47 0.68821-0.51838 0.01892-0.70088 0.66297-0.23466
   1  -5   1   81.43    2.92  48 0.68268-0.52296-0.00109-0.47166 0.67379-0.56047
   1   2  -1   85.51    2.85  47 0.68855-0.61034 0.02020 0.15317 0.66227-0.75930
   1   8   4   13.60    2.12  47 0.68718-0.70415 0.01509 0.66454 0.66507-0.44311
   2  -8   6    3.09    2.39  47 0.68579-0.40621 0.00999-0.80485 0.66784-0.16185
   2  -8   7   -1.25    2.50  47 0.68855-0.41321 0.02020-0.82193 0.66227-0.08035
   2  -7   3    3.60    1.97  47 0.68821-0.41012 0.01892-0.70136 0.66297-0.38787
   2  -6   1    3.30    2.73  48 0.68220-0.41104-0.00277-0.57350 0.67468-0.55797
   2  -5   0   76.37    3.08  47 0.68409-0.42028 0.00387-0.48394 0.67114-0.63782
   2   1  -2  233.94    4.10  48 0.68220-0.48729-0.00277 0.07968 0.67468-0.84302
   2   7   1   88.71    2.33  47 0.68821-0.58049 0.01892 0.57784 0.66297-0.66040
   2   9   4    6.70    2.16  47 0.68614-0.61575 0.01127 0.74472 0.66715-0.45885
   3  -8   4    4.74    2.32  47 0.68614-0.29939 0.01127-0.80425 0.66715-0.31452
   3   4  -2  288.55    3.09  47 0.68787-0.43047 0.01764 0.31585 0.66367-0.86400
   3   7   0   37.35    2.02  47 0.68821-0.47662 0.01892 0.57120 0.66297-0.74094
   4  -8   3    7.48    2.49  47 0.68544-0.19445 0.00872-0.80881 0.66853-0.39574
   4  -7   1   32.16    3.19  47 0.68371-0.19801 0.00255-0.69905 0.67185-0.55674
   4  -4  -2  178.82    5.12  48 0.67976-0.22039-0.01114-0.39231 0.67909-0.81383
   4   5  -2    2.59    1.81  47 0.68508-0.34127 0.00744 0.40065 0.66922-0.88388
   4  10   3    6.91    2.53  47 0.68753-0.42649 0.01637 0.80916 0.66437-0.55024
   5   6  -2  356.87    3.38  47 0.68855-0.25624 0.02020 0.46580 0.66227-0.89039
   5   7  -1  188.39    3.46  48 0.68236-0.26655-0.00223 0.57116 0.67439-0.83677
   5   9   1    5.20    3.14  47 0.68314-0.30122 0.00053 0.73403 0.67293-0.70295
   7   8  -1   16.80    2.48  47 0.68821-0.08561 0.01892 0.61278 0.66297-0.84461
   9   4  -3    1.82    3.58  48 0.68364 0.17746 0.00230 0.25223 0.67198-0.97573
  -2  -4   7    4.57    2.64  48 0.67460-0.84987-0.02756-0.35574 0.68756-0.12060
  -2  -4   8   71.15    3.05  48 0.67593-0.85787-0.02328-0.36820 0.68538-0.04397
  -2  -4   9   37.08    2.32  48 0.67674-0.86059-0.02061-0.37875 0.68401 0.03222
  -2  -4  10   12.98    3.24  48 0.67498-0.86336-0.02633-0.37798 0.68694 0.10424
  -2  -1   4  106.02    3.13  49 0.67518-0.87822-0.02571-0.06499 0.68662-0.36972
  -2   0   4  310.07    4.79  48 0.67666-0.89316-0.02088 0.02071 0.68415-0.37623
  -2   4  12   -0.68    4.94  50 0.66680-0.96472-0.05183 0.35414 0.69961 0.16986
  -1  -6   8   10.16    3.03  49 0.67496-0.73043-0.02643-0.55855 0.68698-0.03247
  -1  -6   9    5.98    3.31  49 0.67497-0.73399-0.02639-0.56562 0.68696 0.04150
  -1  -5   5   15.20    1.90  48 0.68017-0.73730-0.00913-0.46349 0.67805-0.25640
  -1  -2   2 4721.56   13.30  48 0.68128-0.76418-0.00530-0.17484 0.67604-0.50450
   0  -7   7  112.44    2.87  48 0.67751-0.61518-0.01806-0.66492 0.68270-0.09921
   0  -7   8   -0.04    2.33  48 0.67866-0.62129-0.01423-0.67627 0.68072-0.02265
   0  -7   9   10.78    2.60  48 0.67828-0.62478-0.01551-0.68243 0.68138 0.05083
   0  -6   4  234.21    2.93  48 0.68017-0.62005-0.00913-0.56148 0.67805-0.32687
   0   7   5   61.02    2.39  48 0.67979-0.78766-0.01040 0.60681 0.67872-0.36808
   0   8   8    9.45    2.33  48 0.67942-0.81192-0.01168 0.67630 0.67939-0.15296
   0   8   9    1.90    3.44  49 0.67285-0.80976-0.03318 0.69065 0.69040-0.08990
   1  -8   7    6.79    3.45  49 0.67461-0.49984-0.02753-0.75983 0.68755-0.10059
   1  -7   4    9.40    1.95  48 0.68054-0.50819-0.00785-0.66652 0.67738-0.32302
   1  -6   2  428.81    3.87  48 0.67828-0.51012-0.01551-0.55494 0.68138-0.48473
   1  -4   0   80.07    2.92  48 0.67639-0.52601-0.02176-0.35307 0.68460-0.65484
   1   4   0  640.52    4.69  48 0.68054-0.63118-0.00785 0.35459 0.67738-0.71811
   1   7   3  154.97    3.37  49 0.67542-0.67512-0.02491 0.62094 0.68621-0.52927
   2  -8   5   11.49    2.37  48 0.68091-0.39857-0.00658-0.78058 0.67671-0.24374
   2  -7   2   85.38    3.25  49 0.67409-0.39222-0.02921-0.64571 0.68839-0.48799
   2   0  -2  122.96    3.80  49 0.67518-0.46761-0.02571 0.01239 0.68662-0.84606
   2   4  -1   20.64    1.87  48 0.67942-0.52606-0.01168 0.35175 0.67939-0.79948
   2   8   3  156.73    3.34  49 0.67404-0.58673-0.02938 0.70195 0.68848-0.54612
   3  -8   3   12.11    3.23  49 0.67536-0.28469-0.02511-0.76207 0.68631-0.40835
   3  -6   0    4.81    2.71  48 0.67583-0.30112-0.02359-0.56086 0.68554-0.64836
   3   9   3   13.57    2.12  48 0.67866-0.50382-0.01423 0.76290 0.68072-0.55165
   3  10   5    6.69    2.54  48 0.67904-0.52505-0.01296 0.83742 0.68005-0.41159
   4  -1  -3   29.07    3.45  49 0.67052-0.24548-0.04048-0.08481 0.69404-0.92965
   4   2  -3    0.25    1.87  48 0.68091-0.29441-0.00658 0.15235 0.67671-0.93897
   4   6  -1  109.63    3.05  49 0.67518-0.34686-0.02571 0.51843 0.68662-0.83553
   4   9   2    8.60    2.17  48 0.67828-0.39935-0.01551 0.75743 0.68138-0.63209
   4  10   4    1.16    3.43  49 0.67399-0.41543-0.02953 0.84677 0.68856-0.49923
   5  -8   2    2.70    3.56  48 0.67602-0.08177-0.02298-0.78677 0.68522-0.49230
   5   3  -3   38.53    2.89  49 0.67575-0.20054-0.02385 0.24535 0.68567-0.96089
   5   8   0   20.73    2.11  48 0.68054-0.28141-0.00785 0.65925 0.67738-0.77378
   5  10   3   18.29    3.59  49 0.67525-0.31384-0.02547 0.83570 0.68650-0.57672
   6   4  -3   12.91    2.01  48 0.68091-0.11935-0.00658 0.30523 0.67671-0.96709
   6   6  -2    6.12    2.05  48 0.68091-0.14774-0.00658 0.47842 0.67671-0.90941
   6   7  -1   22.93    2.99  49 0.67454-0.15862-0.02778 0.58281 0.68767-0.85482
   6   9   1   14.16    3.43  49 0.67518-0.19266-0.02571 0.74614 0.68662-0.72197
   7   4  -3   -0.58    2.06  48 0.67790-0.01670-0.01678 0.30136 0.68204-0.97755
   7   6  -2   19.92    2.29  48 0.67751-0.04450-0.01806 0.47543 0.68270-0.92108
   8   4  -3    8.55    2.25  48 0.67942 0.08300-0.01168 0.28151 0.67939-0.98051
   8   6  -2   22.27    2.43  48 0.67790 0.05451-0.01678 0.46071 0.68204-0.92602
   9  -1  -3    1.40    3.62  48 0.67468 0.25161-0.02731-0.16814 0.68744-0.95078
   9   3  -3   15.40    3.62  49 0.67555 0.19969-0.02450 0.18998 0.68600-0.98181
  -2  -4   6   13.30    2.54  49 0.66794-0.84050-0.04854-0.32827 0.69799-0.20651
  -2  -4  11    3.20    2.46  49 0.67082-0.86330-0.03968-0.37240 0.69363 0.17298
  -2  -3   5  118.85    2.50  49 0.67245-0.85434-0.03458-0.24373 0.69109-0.28136
  -2  -2   4  169.12    3.24  50 0.66684-0.85734-0.05185-0.12917 0.69960-0.37415
  -2   1   4 1310.97   11.42  50 0.66300-0.89148-0.06323 0.15289 0.70506-0.40559
  -1  -6   6    0.76    2.67  50 0.66792-0.71521-0.04860-0.52414 0.69802-0.19412
  -1  -6   7   21.82    2.23  49 0.67285-0.72424-0.03330-0.54538 0.69045-0.11048
  -1  -6  10    2.36    2.58  49 0.67285-0.73575-0.03330-0.56688 0.69045 0.11236
  -1  -5   4   16.72    1.94  49 0.66959-0.72159-0.04350-0.42278 0.69552-0.34912
  -1  -4   3   80.33    2.29  49 0.67285-0.73413-0.03330-0.33475 0.69045-0.42636
  -1   5   5    1.20    2.64  49 0.66643-0.85175-0.05309 0.48265 0.70020-0.36639
  -1   6   7   96.89    3.66  50 0.66740-0.87037-0.05016 0.55607 0.69878-0.22470
   0  -7   5    7.82    2.75  49 0.66732-0.59724-0.05040-0.61855 0.69889-0.26485
   0  -7   6   31.29    2.31  49 0.67365-0.60880-0.03075-0.64482 0.68916-0.17951
   0  -6   3   68.92    2.97  50 0.66708-0.60313-0.05114-0.51214 0.69926-0.42321
   0  -5   2  596.36    4.17  49 0.67164-0.61635-0.03713-0.42863 0.69236-0.49955
   0  -4   1   10.75    2.58  50 0.66708-0.62050-0.05114-0.31544 0.69926-0.59038
   0  -1   0  284.40    5.85  49 0.66917-0.65626-0.04477-0.04440 0.69614-0.68783
   0   3   1  439.72    5.05  50 0.66629-0.70838-0.05351 0.31676 0.70040-0.65257
   1  -8   6   -2.38    2.26  49 0.67123-0.49259-0.03840-0.74150 0.69299-0.17984
   1  -7   3    3.43    1.89  49 0.66917-0.49117-0.04477-0.62204 0.69614-0.41783
   1   1  -1 3057.00   14.07  49 0.67041-0.57958-0.04095 0.12447 0.69426-0.78251
   1   5   1  116.99    2.47  49 0.67000-0.63702-0.04223 0.47233 0.69489-0.67004
   1   6   2   15.54    1.94  49 0.66917-0.65235-0.04477 0.55843 0.69614-0.60535
   1   8   5    6.49    1.99  49 0.67123-0.69355-0.03840 0.70982 0.69299-0.39644
   1   9   8    3.99    2.58  49 0.67245-0.71734-0.03458 0.77546 0.69109-0.17983
   2  -8   4    1.01    2.13  49 0.67325-0.38622-0.03203-0.74847 0.68981-0.33061
   2  -4  -1  310.82    4.11  49 0.67164-0.41691-0.03713-0.34460 0.69236-0.74210
   2   5   0  698.92    4.71  50 0.66640-0.52968-0.05318 0.47638 0.70024-0.75497
   2   7   2   99.25    3.06  50 0.66582-0.56213-0.05491 0.64456 0.70108-0.62520
   2   9   5    8.94    2.25  49 0.67245-0.60663-0.03458 0.78292 0.69109-0.40871
   3  -7   1    7.40    2.04  49 0.67123-0.28613-0.03840-0.64294 0.69299-0.57221
   3  -5  -1  101.69    2.87  49 0.67164-0.30379-0.03713-0.44951 0.69236-0.73861
   3   3  -2  332.43    3.39  49 0.67123-0.40112-0.03840 0.28148 0.69299-0.88436
   3   5  -1   26.34    1.89  49 0.67285-0.43287-0.03330 0.44889 0.69045-0.82510
   3   8   2   26.53    2.03  49 0.67000-0.47862-0.04223 0.70843 0.69489-0.63248
   3  10   6    4.02    3.62  50 0.66722-0.51620-0.05072 0.86708 0.69905-0.35547
   4  -8   2    2.61    2.34  49 0.67082-0.17661-0.03968-0.75352 0.69363-0.49569
   4   0  -3   89.81    3.37  50 0.66626-0.25414-0.05360 0.01909 0.70045-0.94527
   4   1  -3   37.81    2.09  49 0.67164-0.27202-0.03713 0.09268 0.69236-0.94568
   4   4  -2   16.93    2.54  50 0.66708-0.31008-0.05114 0.37050 0.69926-0.90412
   4   7   0    9.62    1.89  49 0.67123-0.35968-0.03840 0.61482 0.69299-0.77526
   4   8   1  159.78    2.65  49 0.67285-0.37768-0.03330 0.69214 0.69045-0.70793
   5  -7   0    6.51    3.20  50 0.66525-0.07483-0.05660-0.64570 0.70189-0.66582
   5  -6  -1   58.44    3.57  50 0.66601-0.08497-0.05433-0.55154 0.70080-0.74748
   5   5  -2   34.67    2.13  49 0.67204-0.22683-0.03585 0.43161 0.69172-0.91104
   5   9   2    9.88    3.11  50 0.66636-0.28794-0.05328 0.78130 0.70030-0.65771
   6  -7   0   -1.37    3.42  50 0.66665 0.02358-0.05242-0.66455 0.69987-0.66930
   6  -6  -1    4.90    3.20  49 0.66829 0.01335-0.04746-0.57188 0.69746-0.75163
   6   3  -3  112.21    3.17  50 0.66765-0.09262-0.04941 0.25691 0.69841-0.97926
   6   8   0    2.40    2.19  49 0.67285-0.17355-0.03330 0.67160 0.69045-0.79158
   7   3  -3   66.00    3.14  50 0.66607 0.00876-0.05416 0.24828 0.70072-0.98805
   7   7  -1   20.17    2.32  49 0.67082-0.05468-0.03968 0.58047 0.69363-0.86649
   7   8   0    1.66    2.36  49 0.66876-0.06932-0.04605 0.66984 0.69677-0.80381
   8  -2  -3    3.40    3.25  50 0.66766 0.17156-0.04938-0.22177 0.69840-0.94584
   8   3  -3   45.50    3.28  49 0.66799 0.10794-0.04837 0.22721 0.69791-0.98833
   8   7  -1    4.05    2.42  49 0.67082 0.04571-0.03968 0.56751 0.69363-0.87155
   9   0  -3    2.98    3.48  50 0.66542 0.24838-0.05611-0.04842 0.70166-0.97331
   9   1  -3   14.56    3.57  50 0.66508 0.23538-0.05712 0.04222 0.70214-0.98247
   9   2  -3    3.35    3.55  49 0.66917 0.21844-0.04477 0.12066 0.69614-0.98462
  -3  -1   9   62.53    3.22  51 0.65820-0.98060-0.07719-0.03645 0.71176-0.01642
  -3  -1  10    9.00    3.09  51 0.65740-0.98344-0.07941-0.04085 0.71279 0.05722
  -3   0   9  180.50    4.07  51 0.65791-0.99259-0.07800 0.05464 0.71214-0.02517
  -3   0  10   41.27    3.43  51 0.65724-0.99575-0.07986 0.04956 0.71300 0.04842
  -2  -5   7    1.65    2.83  51 0.65844-0.82262-0.07651-0.39715 0.71145-0.13570
  -2  -5   8   17.07    2.12  50 0.66157-0.82966-0.06761-0.41379 0.70730-0.05648
  -2  -5   9    4.73    2.24  50 0.66245-0.83312-0.06507-0.42456 0.70610 0.01997
  -2  -5  10    1.76    2.34  50 0.66068-0.83552-0.07016-0.42656 0.70849 0.09224
  -2  -4   5   64.11    2.81  51 0.65816-0.82699-0.07731-0.29212 0.71182-0.29298
  -1  -6   5   32.04    1.99  50 0.66113-0.70442-0.06888-0.49433 0.70790-0.27778
  -1  -3   2  165.45    2.86  50 0.66506-0.73496-0.05743-0.21314 0.70246-0.52203
   0  -7   4    0.56    2.73  50 0.65844-0.58359-0.07651-0.58291 0.71145-0.35196
   0   7   6   30.05    3.00  50 0.65974-0.77090-0.07285 0.66119 0.70975-0.32362
   1  -8   5    4.53    2.28  50 0.66506-0.48281-0.05743-0.71537 0.70246-0.26421
   1  -2  -1  343.99    6.24  50 0.66062-0.53153-0.07033-0.11608 0.70858-0.77116
   2  -8   3   16.47    2.22  50 0.66157-0.37108-0.06761-0.70503 0.70730-0.42277
   2   6   1  397.77    3.43  50 0.66245-0.54205-0.06507 0.57151 0.70610-0.69550
   2   9   6    6.27    3.17  51 0.65844-0.59544-0.07651 0.81773 0.71145-0.35510
   3  -9   4    1.87    3.61  50 0.65828-0.25884-0.07696-0.80666 0.71166-0.34920
   3  -8   2   38.49    3.26  50 0.65954-0.26643-0.07341-0.70664 0.71002-0.50582
   3   6   0   56.52    2.10  50 0.66549-0.44125-0.05616 0.55546 0.70185-0.77108
   3   7   1    2.14    1.76  50 0.66506-0.45756-0.05743 0.64042 0.70246-0.70570
   3   9   4    2.51    2.17  50 0.66289-0.49249-0.06380 0.80564 0.70550-0.50214
   4   9   3   15.83    2.22  50 0.66157-0.38614-0.06761 0.80301 0.70730-0.58473
   4  10   5    2.09    2.49  50 0.66113-0.40749-0.06888 0.87954 0.70790-0.44406
   5   2  -3   14.04    1.93  50 0.66376-0.17674-0.06125 0.19294 0.70429-0.97160
   5   6  -1   14.59    1.95  50 0.66201-0.23203-0.06634 0.54530 0.70670-0.86058
   5   7   0  171.03    3.22  51 0.65844-0.24632-0.07651 0.63843 0.71145-0.79994
   5   8   1    7.77    2.02  50 0.66024-0.26337-0.07143 0.71611 0.70909-0.73274
   6   5  -2   59.26    2.29  50 0.66419-0.11870-0.05998 0.44157 0.70368-0.92853
   6   9   2    5.29    3.35  51 0.65781-0.17928-0.07827 0.79266 0.71226-0.67451
   7  -6  -1   -0.16    3.60  51 0.65979 0.12195-0.07270-0.56074 0.70968-0.76914
   7   5  -2   -0.41    2.02  50 0.66068-0.01524-0.07016 0.43711 0.70849-0.93773
   8   2  -3    2.88    3.08  51 0.65866 0.12754-0.07589 0.16631 0.71117-0.99375
   8   5  -2    0.20    2.29  50 0.66245 0.08308-0.06507 0.41899 0.70610-0.94077
  -3  -2   8   34.29    2.93  51 0.65031-0.95729-0.09836-0.09844 0.72131-0.09211
  -3  -2   9    5.93    2.14  51 0.65373-0.96322-0.08916-0.11505 0.71720-0.01311
  -3  -2  10    4.33    2.14  51 0.65279-0.96607-0.09170-0.11930 0.71834 0.05977
  -3  -2  11   33.68    3.55  52 0.64839-0.96580-0.10343-0.11546 0.72354 0.12991
  -3  -1   8   39.79    2.21  51 0.65466-0.97397-0.08662-0.01897 0.71605-0.09470
  -3  -1  11    3.10    2.26  51 0.65232-0.98271-0.09297-0.03679 0.71891 0.12458
  -3   0   8  191.60    3.31  51 0.65279-0.98420-0.09170 0.07523 0.71834-0.10614
  -3   0  11    6.03    3.29  51 0.65111-0.99503-0.09622 0.05800 0.72036 0.11550
  -3   1   9    5.15    2.81  52 0.64764-0.99484-0.10539 0.17225 0.72439-0.04713
  -3   1  10    0.84    2.92  52 0.64755-0.99944-0.10564 0.16487 0.72450 0.02686
  -2  -5   6   25.51    1.94  51 0.65185-0.81202-0.09424-0.37247 0.71948-0.21829
  -2  -3   4  148.88    2.55  51 0.65558-0.83358-0.08408-0.18747 0.71490-0.37967
  -1  -7   6    0.91    2.74  52 0.64755-0.68186-0.10564-0.55720 0.72450-0.20869
  -1  -7   7    7.65    2.17  51 0.65279-0.69158-0.09170-0.57748 0.71834-0.12963
  -1  -7   8    2.54    2.31  51 0.65558-0.69757-0.08408-0.59274 0.71490-0.05169
  -1  -7   9    4.20    2.53  51 0.65604-0.70228-0.08281-0.60064 0.71432 0.02349
  -1  -6   4   30.23    2.77  52 0.64900-0.68865-0.10184-0.45448 0.72284-0.36645
  -1  -5   3  291.63    3.13  51 0.65279-0.70098-0.09170-0.36751 0.71834-0.44576
  -1   6   8   66.61    3.65  52 0.64689-0.85472-0.10736 0.60584 0.72525-0.17612
   0  -8   6   43.86    2.55  51 0.65091-0.57226-0.09677-0.66904 0.72060-0.20324
   0  -8   7   15.41    2.51  51 0.65558-0.58067-0.08408-0.68962 0.71490-0.12231
   0  -2   0  184.52    3.97  51 0.65326-0.62765-0.09043-0.08933 0.71777-0.70067
   1  -8   4    4.77    2.13  51 0.65512-0.47047-0.08535-0.67940 0.71548-0.35260
   1  -7   2   28.81    2.04  51 0.65138-0.46980-0.09550-0.56507 0.72004-0.51449
   1  -6   1   81.27    2.34  51 0.65512-0.48177-0.08535-0.47780 0.71548-0.59324
   1   3   0  465.07    4.70  52 0.64920-0.58706-0.10131 0.35778 0.72261-0.75398
   1   7   4   92.02    2.36  51 0.65185-0.65539-0.09424 0.68368 0.71948-0.48810
   1   8   6    9.81    2.11  51 0.65373-0.67793-0.08916 0.75397 0.71720-0.34588
   2  -9   5    4.30    2.55  51 0.65466-0.35913-0.08662-0.79081 0.71605-0.27458
   2  -7   1   29.62    2.13  51 0.65138-0.36583-0.09550-0.57220 0.72004-0.59462
   2  -6   0    5.41    1.93  51 0.65138-0.37532-0.09550-0.47299 0.72004-0.67864
   2   3  -1  376.49    3.72  51 0.65512-0.48934-0.08535 0.33557 0.71548-0.82677
   2   8   4   87.13    2.45  51 0.65419-0.57081-0.08789 0.75339 0.71663-0.49953
   3   2  -2    8.16    2.42  52 0.64968-0.36782-0.10003 0.25252 0.72204-0.90356
   3   8   3   49.30    2.94  52 0.64811-0.46061-0.10416 0.76256 0.72386-0.58652
   4  -8   1    4.55    3.26  52 0.64803-0.14814-0.10438-0.68200 0.72395-0.60085
   4  -7   0    0.57    2.10  51 0.65604-0.16608-0.08281-0.60528 0.71432-0.67333
   4  -6  -1   23.19    2.95  51 0.65244-0.17145-0.09265-0.49870 0.71877-0.76106
   4   5  -1    3.95    1.88  51 0.65138-0.30977-0.09550 0.49936 0.72004-0.85881
   4   8   2   30.83    2.14  51 0.65091-0.35921-0.09677 0.74860 0.72060-0.66318
   5  -8   1    5.12    2.52  51 0.65512-0.05702-0.08535-0.71476 0.71548-0.59596
   5  -2  -3   33.48    3.88  52 0.64567-0.10718-0.11051-0.11861 0.72661-0.95828
   5   1  -3  419.68    4.63  51 0.64973-0.14921-0.09990 0.14114 0.72199-0.97959
   5   4  -2    0.31    1.92  51 0.65232-0.19606-0.09297 0.39791 0.71891-0.92956
   5   9   3    0.74    3.21  52 0.64755-0.27301-0.10564 0.82623 0.72450-0.60695
   6  -5  -2    2.21    3.62  52 0.64293 0.02939-0.11754-0.40476 0.72961-0.86627
   6   2  -3   44.09    2.24  51 0.65466-0.06657-0.08662 0.20450 0.71605-0.98872
   6   6  -1   85.68    2.37  51 0.65373-0.12489-0.08916 0.55400 0.71720-0.87628
   6   7   0   35.62    3.01  52 0.64910-0.13589-0.10155 0.64945 0.72271-0.81417
   6   8   1   17.64    2.22  51 0.65138-0.15555-0.09550 0.72648 0.72004-0.74761
   7  -2  -3    5.16    3.54  52 0.64365 0.09484-0.11569-0.14173 0.72883-0.97130
   7   2  -3   19.08    2.13  51 0.65373 0.03404-0.08916 0.19311 0.71720-0.99533
   7   6  -1   -1.75    2.93  52 0.64900-0.01970-0.10184 0.55064 0.72284-0.88450
   8  -1  -3   16.97    3.35  52 0.64900 0.17707-0.10184-0.07888 0.72284-0.97924
   8   0  -3    1.44    2.99  52 0.64711 0.16626-0.10679 0.01629 0.72500-0.99126
   8   1  -3   -0.19    3.03  52 0.64900 0.14979-0.10184 0.10234 0.72284-0.99496
   8   6  -1   14.39    2.36  51 0.65138 0.07815-0.09550 0.53188 0.72004-0.88895
   9   4  -2    3.00    2.48  51 0.65326 0.20514-0.09043 0.33986 0.71777-0.94890
  -3  -3   8   32.88    2.13  52 0.64293-0.93638-0.11684-0.17011 0.72942-0.09171
  -3  -3   9   13.10    2.13  52 0.64540-0.94273-0.11052-0.18334 0.72671-0.01365
  -3  -3  10    4.67    2.25  52 0.64442-0.94550-0.11305-0.18851 0.72780 0.05920
  -3  -3  11   79.34    4.06  52 0.63981-0.94602-0.12471-0.18469 0.73273 0.12852
  -3  -2   7   25.61    1.98  52 0.64392-0.94620-0.11431-0.07431 0.72834-0.17342
  -3  -1   7  147.06    2.86  52 0.64589-0.96151-0.10925 0.01151 0.72617-0.17967
  -3  -1  12   -0.89    2.58  52 0.64442-0.97916-0.11305-0.02188 0.72780 0.19082
  -3   0   7    0.98    2.66  53 0.63891-0.96793-0.12695 0.11844 0.73366-0.19650
  -3   0  12   -0.67    2.57  52 0.64293-0.99007-0.11684 0.07204 0.72942 0.18105
  -3   1   8   49.22    3.07  53 0.63805-0.98216-0.12907 0.20296 0.73454-0.13074
  -3   1  11    0.29    3.14  52 0.64243-0.99839-0.11811 0.16928 0.72995 0.09726
  -2  -6   7   -0.35    2.88  53 0.63891-0.79240-0.12695-0.43921 0.73366-0.14863
  -2  -6   8   18.39    2.29  52 0.64392-0.79930-0.11431-0.45729 0.72834-0.06954
  -2  -6   9    4.24    2.30  52 0.64491-0.80464-0.11178-0.46668 0.72726 0.00676
  -2  -5   5    4.97    1.76  52 0.64093-0.79759-0.12190-0.33658 0.73155-0.30569
  -2  -4   4   10.07    1.87  52 0.64143-0.80552-0.12064-0.24306 0.73102-0.38736
  -1  -7   5    2.18    2.70  53 0.63840-0.66969-0.12821-0.52609 0.73418-0.29476
  -1  -4   2    7.13    1.77  52 0.64638-0.70350-0.10799-0.25210 0.72562-0.53743
  -1   3   3   65.04    3.43  53 0.63912-0.78872-0.12642 0.38975 0.73344-0.53132
  -1   4   4    6.30    2.54  52 0.64190-0.80833-0.11947 0.46559 0.73053-0.46152
   0  -8   5   35.34    2.47  52 0.64293-0.56078-0.11684-0.64154 0.72942-0.28606
   0  -7   3    3.64    1.89  52 0.64193-0.56454-0.11937-0.53565 0.73049-0.44451
   0  -6   2   61.84    2.20  52 0.64687-0.57928-0.10672-0.44955 0.72507-0.52255
   0  -5   1   51.67    2.02  52 0.64243-0.58302-0.11811-0.33975 0.72995-0.61151
   0   7   7   25.01    2.97  53 0.63929-0.75485-0.12599 0.70672 0.73326-0.27258
   1  -9   5    7.13    3.37  53 0.63805-0.44290-0.12908-0.73288 0.73454-0.28760
   1  -8   3   16.37    2.14  52 0.64093-0.45083-0.12190-0.63605 0.73155-0.44347
   1  -5   0  134.99    2.64  52 0.64638-0.48317-0.10799-0.35737 0.72562-0.68689
   2  -9   4    8.51    2.44  52 0.64442-0.34562-0.11305-0.75690 0.72780-0.36016
   2  -8   2    7.62    2.12  52 0.64343-0.34891-0.11558-0.64972 0.72888-0.51931
   2   7   3    7.28    2.55  53 0.63840-0.53872-0.12821 0.71048 0.73418-0.58257
   2   9   7  114.16    3.14  52 0.64442-0.58547-0.11305 0.84691 0.72780-0.29617
   3  -9   3    2.50    2.45  52 0.64442-0.24173-0.11305-0.76277 0.72780-0.44057
   3  -7   0   24.72    2.88  52 0.63917-0.24970-0.12631-0.54815 0.73339-0.68774
   3   4  -1   63.85    2.08  52 0.64687-0.39363-0.10672 0.43257 0.72507-0.85057
   3   7   2  334.48    3.77  53 0.63700-0.43313-0.13167 0.70732 0.73561-0.66359
   3   9   5   18.87    2.21  52 0.64540-0.47841-0.11052 0.84459 0.72671-0.44877
   4   3  -2  387.60    3.57  52 0.64540-0.27517-0.11052 0.33949 0.72671-0.92357
   4   6   0  173.07    2.58  52 0.64442-0.31973-0.11305 0.59854 0.72780-0.80213
   4   7   1   31.94    2.00  52 0.64442-0.33630-0.11305 0.68109 0.72780-0.73614
   4   9   4   11.86    2.21  52 0.64243-0.37154-0.11811 0.84532 0.72995-0.53152
   5  -5  -2    9.45    2.98  52 0.63919-0.06697-0.12625-0.38200 0.73337-0.86433
   5  -1  -3  229.42    5.11  53 0.63322-0.10734-0.14082 0.00194 0.73933-0.98018
   5   0  -3    1.83    2.50  52 0.63891-0.12611-0.12695 0.07843 0.73366-0.98312
   6  -2  -3   37.80    3.81  53 0.63229 0.00660-0.14306-0.10035 0.74022-0.97768
   6   1  -3   10.37    2.75  53 0.64015-0.03993-0.12386 0.15120 0.73237-0.99490
   6   4  -2   14.00    1.94  52 0.64343-0.08508-0.11558 0.40695 0.72888-0.94444
   6   9   3    6.57    3.40  52 0.63883-0.16258-0.12713 0.83580 0.73373-0.62178
   7   1  -3    7.17    1.97  52 0.64243 0.05895-0.11811 0.13026 0.72995-0.99939
   7   4  -2   36.08    2.18  52 0.64143 0.01726-0.12064 0.39753 0.73102-0.95189
   7   7   0    6.87    2.28  52 0.64589-0.03283-0.10925 0.64359 0.72617-0.82444
   7   8   1   15.01    2.42  52 0.64687-0.05135-0.10672 0.72355 0.72507-0.75751
   8   4  -2    7.48    2.21  52 0.64540 0.11261-0.11052 0.37455 0.72671-0.95330
   8   7   0    3.18    2.40  52 0.64638 0.06481-0.10799 0.62883 0.72562-0.82826
   9   3  -2   13.11    3.45  53 0.63828 0.23275-0.12849 0.28766 0.73430-0.95711
   9   5  -1   17.76    3.70  53 0.63768 0.20471-0.12998 0.46272 0.73491-0.90093
  -3  -4   8    8.00    1.98  53 0.63216-0.91245-0.14328-0.23475 0.74026-0.09395
  -3  -4   9   31.05    2.43  53 0.63426-0.91914-0.13825-0.24649 0.73824-0.01693
  -3  -4  10    6.07    2.30  53 0.63321-0.92273-0.14077-0.25059 0.73925 0.05695
  -3  -3   7   58.01    2.24  53 0.63633-0.92676-0.13321-0.14599 0.73619-0.17182
  -3  -2   6  102.24    3.12  53 0.62981-0.92911-0.14887-0.03338 0.74248-0.26226
  -3  -1   6  391.01    4.46  53 0.62902-0.94079-0.15071 0.05909 0.74320-0.27155
  -3   1  12    1.32    3.58  54 0.62844-0.99173-0.15208 0.19722 0.74374 0.15912
  -2  -6   6   10.42    2.00  53 0.63321-0.78073-0.14077-0.41643 0.73925-0.22935
  -2  -3   3  182.03    3.21  54 0.62774-0.80149-0.15371-0.11064 0.74438-0.48423
  -2  -2   3   89.92    2.43  53 0.63426-0.82120-0.13825-0.03535 0.73824-0.48708
  -2  -1   3   80.70    2.60  53 0.63373-0.83285-0.13951 0.05609 0.73875-0.49618
  -1  -8   7    2.15    3.31  53 0.63004-0.65659-0.14831-0.61066 0.74226-0.14335
  -1  -6   3  394.92    3.41  53 0.63057-0.66615-0.14706-0.40229 0.74176-0.46093
  -1   6   9    1.96    2.96  54 0.62786-0.84029-0.15344 0.64397 0.74427-0.12015
   0  -8   4    0.60    2.04  53 0.63110-0.54537-0.14580-0.60504 0.74127-0.37334
   0  -3   0 1687.38    8.39  53 0.63530-0.59731-0.13573-0.13455 0.73722-0.71110
   0   6   5  490.26    4.96  53 0.62927-0.72437-0.15012 0.65524 0.74297-0.42197
   1  -3  -1  542.28    5.74  53 0.63216-0.49033-0.14328-0.13393 0.74026-0.79390
   1   0  -1   41.24    3.04  53 0.63269-0.52864-0.14202 0.13584 0.73976-0.81960
   1   4   1  790.32    5.42  53 0.62936-0.58363-0.14992 0.48957 0.74290-0.70810
   1   5   2  218.91    3.36  54 0.62795-0.59935-0.15321 0.57640 0.74418-0.64430
   1   6   3    5.11    1.80  53 0.63633-0.62450-0.13321 0.63917 0.73619-0.57001
   2  -9   3   17.08    3.50  53 0.62920-0.32662-0.15029-0.71278 0.74304-0.45129
   2  -5  -1  390.84    4.30  53 0.63321-0.36556-0.14077-0.33182 0.73925-0.78055
   2   4   0  510.61    4.06  53 0.63269-0.48318-0.14202 0.47533 0.73976-0.78566
   2   6   2   10.27    2.58  54 0.62800-0.51190-0.15310 0.65270 0.74414-0.65851
   2   8   5  114.08    2.60  53 0.63321-0.55406-0.14077 0.79939 0.73925-0.44773
   2   9   8   16.51    2.63  53 0.63269-0.57825-0.14202 0.86904 0.73976-0.23310
   3  -8   1    2.54    2.07  53 0.63581-0.23869-0.13447-0.63683 0.73670-0.60715
   3  -6  -1   11.10    2.67  53 0.62912-0.24933-0.15048-0.42611 0.74311-0.78082
   3  -4  -2  156.51    4.20  54 0.62687-0.26774-0.15573-0.23351 0.74516-0.87434
   3   5   0   87.46    2.18  53 0.63426-0.39709-0.13825 0.54766 0.73824-0.79811
   3   6   1    2.12    1.79  53 0.63163-0.41208-0.14454 0.63829 0.74077-0.73314
   3   9   6   43.13    3.38  54 0.62853-0.46534-0.15186 0.87824 0.74366-0.39102
   4   8   3   25.10    2.85  54 0.62711-0.33949-0.15518 0.80020 0.74495-0.61294
   5   3  -2  148.25    3.28  54 0.62806-0.15714-0.15295 0.36855 0.74408-0.94585
   5   5  -1   -0.81    1.78  53 0.63633-0.19599-0.13321 0.52136 0.73619-0.88090
   5   6   0  189.01    3.21  54 0.62885-0.20362-0.15110 0.62234 0.74336-0.82128
   5   7   1   60.41    2.84  54 0.62914-0.22049-0.15044 0.70439 0.74310-0.75466
   5   8   2   35.69    2.23  53 0.63633-0.24486-0.13321 0.77080 0.73619-0.68350
   5   9   4    6.05    3.17  53 0.62827-0.25782-0.15248 0.86662 0.74390-0.55156
   6  -1  -3    0.87    2.57  53 0.62742-0.00203-0.15445 0.00067 0.74467-0.99295
   6   0  -3  293.28    4.32  54 0.62921-0.01552-0.15028 0.08762 0.74304-0.99751
   6   5  -1    2.80    2.75  53 0.62842-0.08738-0.15212 0.52543 0.74376-0.89504
   6   8   2    5.17    2.99  54 0.62760-0.13543-0.15403 0.77813 0.74450-0.69718
   7  -5  -2    4.93    6.41  56 0.60206 0.17077-0.20996-0.32627 0.76477-0.90691
   7  -1  -3    2.28    2.74  53 0.63044 0.09595-0.14737-0.02044 0.74189-0.99268
   7   0  -3   16.06    2.13  53 0.63373 0.08026-0.13951 0.06307 0.73875-0.99914
   8   3  -2   -0.70    3.05  54 0.62682 0.14269-0.15585 0.32832 0.74521-0.96332
   8   5  -1   32.63    3.20  53 0.62901 0.11343-0.15073 0.49652 0.74321-0.90282
  -3  -5   8   48.88    3.13  54 0.61837-0.88713-0.17557-0.29219 0.75294-0.09719
  -3  -5   9   20.99    2.34  54 0.62162-0.89251-0.16828-0.30689 0.75023-0.01965
  -3  -5  10    3.30    2.51  54 0.62051-0.89685-0.17078-0.31007 0.75116 0.05368
  -3  -4   6    8.29    2.58  55 0.61649-0.88910-0.17972-0.18198 0.75446-0.25565
  -3  -4   7   75.78    2.36  54 0.62601-0.90371-0.15826-0.21114 0.74641-0.17352
  -3  -3   6    9.17    1.87  54 0.62492-0.91129-0.16077-0.11163 0.74737-0.25808
  -3   0   6  276.39    4.26  55 0.61706-0.94046-0.17846 0.17717 0.75400-0.29083
  -3   1   7   37.24    2.88  55 0.61605-0.95609-0.18068 0.26233 0.75481-0.22562
  -3   2  10    1.69    2.94  54 0.61634-0.98009-0.18004 0.32985 0.75458-0.01210
  -3   2  11   19.52    4.31  55 0.61139-0.97986-0.19081 0.33319 0.75845 0.05992
  -2  -7   7    4.43    2.17  54 0.62051-0.75870-0.17078-0.48367 0.75116-0.15829
  -2  -7   8    7.85    2.45  54 0.62438-0.76679-0.16202-0.50076 0.74785-0.07902
  -2  -6   5   15.61    1.93  54 0.62218-0.76600-0.16703-0.38321 0.74975-0.31429
  -2  -5   4   27.01    1.96  54 0.62492-0.77738-0.16077-0.29191 0.74737-0.39477
  -2  -4   3   52.47    2.53  55 0.61646-0.77753-0.17979-0.17488 0.75449-0.48513
  -2   4   8    0.69    4.25  56 0.60172-0.88505-0.21115 0.54262 0.76544-0.19342
  -1  -8   6    9.74    2.21  54 0.62383-0.64595-0.16327-0.58890 0.74833-0.22545
  -1  -7   4   11.76    1.95  54 0.62547-0.65290-0.15951-0.48750 0.74689-0.38204
  -1  -5   2   96.07    2.22  54 0.62656-0.67120-0.15701-0.29529 0.74593-0.54752
  -1  -3   1  132.73    3.25  55 0.61688-0.68244-0.17886-0.08466 0.75415-0.64839
  -1  -2   1   92.82    2.80  54 0.62273-0.70096-0.16578-0.00745 0.74928-0.65274
  -1   5   6 1938.78   11.00  55 0.61852-0.80483-0.17524 0.59760 0.75282-0.34388
  -1   6  10   -0.32    3.95  55 0.61258-0.82706-0.18825 0.67116 0.75754-0.05991
  -1   6  11    0.49    4.15  56 0.60671-0.82358-0.20076 0.67674 0.76192 0.00932
   0  -9   6   -0.63    2.47  54 0.62438-0.53338-0.16202-0.69454 0.74785-0.22161
   0  -7   2   36.20    2.08  54 0.62051-0.53901-0.17078-0.47579 0.75116-0.54058
   0  -6   1  158.73    3.28  55 0.61682-0.54436-0.17899-0.37000 0.75419-0.62656
   0  -4   0  324.36    4.01  55 0.61625-0.56534-0.18024-0.18035 0.75465-0.71962
   0   7   8   38.70    3.30  54 0.62045-0.73905-0.17092 0.74474 0.75121-0.21588
   1  -9   4    2.00    2.30  54 0.62601-0.42716-0.15826-0.69813 0.74641-0.37428
   1  -8   2   32.52    2.18  54 0.62051-0.42685-0.17078-0.58054 0.75116-0.53693
   1  -7   1  313.65    3.47  54 0.62383-0.43909-0.16327-0.49050 0.74833-0.61775
   1  -6   0   15.33    2.60  55 0.61633-0.43967-0.18007-0.37652 0.75459-0.70648
   1   7   5   20.00    1.98  54 0.62547-0.63287-0.15951 0.74148 0.74689-0.44068
   1   8   8    4.09    2.30  54 0.62273-0.65444-0.16578 0.81758 0.74928-0.22872
   2  -8   1   -2.29    2.81  55 0.61743-0.31925-0.17766-0.58015 0.75371-0.61857
   2  -7   0   -1.62    2.61  55 0.61686-0.32723-0.17890-0.48151 0.75416-0.70170
   2   2  -1    6.09    2.49  55 0.61820-0.43854-0.17595 0.33649 0.75308-0.85559
   2   5   1   53.73    1.99  54 0.62492-0.49221-0.16077 0.57699 0.74737-0.72736
   3  -9   2    6.77    2.46  54 0.62438-0.21744-0.16202-0.70727 0.74785-0.53585
   3   1  -2  150.24    2.97  54 0.62218-0.32637-0.16703 0.23010 0.74975-0.92317
   3   8   4  120.50    2.54  54 0.62492-0.44122-0.16077 0.81216 0.74737-0.53504
   4  -5  -2   10.31    2.84  55 0.61740-0.14560-0.17771-0.31602 0.75373-0.87919
   4   2  -2  124.55    3.08  55 0.61793-0.23449-0.17654 0.31562 0.75330-0.94092
   4   4  -1   -1.78    1.72  54 0.62162-0.26829-0.16828 0.48080 0.75023-0.88068
   4   9   5    0.96    2.27  54 0.62438-0.35599-0.16202 0.88248 0.74785-0.47568
   5  -8   0    5.24    3.47  55 0.61771-0.01573-0.17703-0.61555 0.75348-0.70901
   6   3  -2  115.78    2.53  54 0.62051-0.04888-0.17078 0.37202 0.75116-0.95828
   6   6   0   50.33    2.26  54 0.62107-0.09537-0.16953 0.62661 0.75069-0.83452
   6   7   1   52.72    2.20  54 0.62162-0.11288-0.16828 0.70863 0.75023-0.76879
   6   9   4    7.84    3.47  55 0.61804-0.14649-0.17629 0.87452 0.75320-0.56477
   7   3  -2    6.96    1.97  54 0.62051 0.05092-0.17078 0.35809 0.75116-0.96329
   7   5  -1   11.97    1.97  54 0.62601 0.01705-0.15826 0.51828 0.74641-0.90100
   7   6   0   43.99    3.07  55 0.61816 0.00793-0.17603 0.61813 0.75311-0.84140
   7   7   1    9.64    3.04  55 0.61813-0.00934-0.17609 0.70186 0.75313-0.77607
   7   8   2    2.27    2.40  54 0.62383-0.03069-0.16327 0.77322 0.74833-0.70546
   8   6   0    1.63    2.23  54 0.62162 0.10356-0.16828 0.59712 0.75023-0.84478
   8   7   1    4.35    2.44  54 0.62051 0.08867-0.17078 0.68356 0.75116-0.77971
   9   2  -2   -0.55    2.32  54 0.62328 0.26056-0.16453 0.23278 0.74881-0.96211
   9   4  -1    5.74    3.31  55 0.61742 0.23782-0.17767 0.42012 0.75371-0.91128
  -3  -6   9    7.43    3.50  55 0.60600-0.86377-0.20233-0.36302 0.76239-0.02354
  -3  -5   7    8.92    2.08  55 0.61324-0.87708-0.18689-0.27325 0.75699-0.17584
  -3  -3   5  114.31    3.08  55 0.60656-0.88893-0.20114-0.06378 0.76199-0.34762
  -3  -2   5   60.12    2.79  55 0.60824-0.90348-0.19759 0.02322 0.76076-0.35505
  -3   2   9    8.12    2.90  55 0.60570-0.96659-0.20296 0.35977 0.76261-0.09371
  -2  -7   6   29.80    2.25  55 0.61324-0.74817-0.18689-0.46005 0.75699-0.23690
  -2  -6   4    6.18    2.53  55 0.60625-0.74703-0.20180-0.33926 0.76221-0.40115
  -2   0   3    0.27    2.45  56 0.60625-0.81928-0.20180 0.20818 0.76221-0.52938
  -1  -8   5   -0.77    2.07  55 0.61438-0.63291-0.18439-0.55957 0.75610-0.30802
  -1  -7   3   47.49    2.75  55 0.60694-0.63017-0.20035-0.43930 0.76172-0.47168
  -1  -6   2  578.67    4.38  56 0.60540-0.63658-0.20357-0.33853 0.76282-0.55568
  -1  -1   1 3217.20   14.45  55 0.61381-0.70491-0.18564 0.10253 0.75654-0.66836
   0  -9   5    1.92    2.33  55 0.61553-0.52081-0.18190-0.66713 0.75520-0.30309
   0  -8   3    2.18    2.03  55 0.61496-0.52319-0.18315-0.56320 0.75565-0.46031
   0   7   9    2.15    3.08  56 0.60570-0.72821-0.20294 0.77013 0.76260-0.15427
   1  -9   3   49.36    2.58  55 0.61035-0.40753-0.19311-0.65539 0.75920-0.46092
   1  -4  -1  656.12    5.78  55 0.60697-0.45230-0.20028-0.16746 0.76169-0.80680
   1   8   9   -0.37    3.41  56 0.60772-0.64247-0.19870 0.83976 0.76115-0.16514
   2  -9   2   15.44    2.36  55 0.60918-0.30272-0.19560-0.65953 0.76007-0.54177
   2   7   4   86.39    2.32  55 0.60918-0.51235-0.19560 0.77104 0.76007-0.53369
   2   8   6  125.61    2.70  55 0.61209-0.53558-0.18938 0.84053 0.75788-0.39190
   3   3  -1  167.30    2.66  55 0.61209-0.34548-0.18938 0.42539 0.75788-0.87424
   3   7   3   23.91    2.66  56 0.60643-0.40596-0.20142 0.76875 0.76208-0.61549
   3   9   7   42.28    2.71  55 0.61381-0.45364-0.18564 0.90577 0.75654-0.33099
   4  -9   1   40.92    3.94  55 0.60625-0.09540-0.20180-0.67461 0.76221-0.62936
   4  -8   0    2.89    2.22  55 0.61266-0.10968-0.18813-0.59011 0.75743-0.70773
   4  -7  -1   65.02    3.44  56 0.60471-0.11083-0.20502-0.47653 0.76331-0.79634
   4   5   0    4.87    1.84  55 0.60977-0.27192-0.19435 0.58954 0.75963-0.82426
   4   6   1   51.52    2.04  55 0.60860-0.28639-0.19684 0.67536 0.76050-0.75981
   4   7   2    2.53    1.83  55 0.61496-0.31104-0.18315 0.74440 0.75565-0.68875
   4   9   6    6.73    3.34  56 0.60639-0.34262-0.20151 0.91440 0.76211-0.41466
   5  -7  -1   27.19    2.78  55 0.61209-0.01809-0.18938-0.50673 0.75788-0.79606
   5   4  -1   19.96    2.61  56 0.60542-0.15135-0.20353 0.50160 0.76280-0.89876
   5   8   3   23.49    2.16  55 0.61209-0.22356-0.18938 0.81980 0.75788-0.63088
   5   9   5   27.54    2.51  55 0.60918-0.24058-0.19560 0.90201 0.76007-0.49357
   6  -7  -1    0.90    3.43  55 0.60663 0.08771-0.20100-0.50820 0.76194-0.80663
   8   2  -2   28.35    3.06  56 0.60675 0.17767-0.20074 0.28330 0.76185-0.96916
   8   4  -1    1.07    2.99  55 0.60625 0.14961-0.20180 0.45758 0.76221-0.91539
   9   1  -2    2.37    3.28  56 0.60737 0.28952-0.19943 0.17714 0.76140-0.96329
   9   5   0   36.72    3.57  56 0.60496 0.23318-0.20449 0.53053 0.76313-0.85538
  -3  -6   7   52.71    2.45  56 0.59714-0.84789-0.22031-0.33108 0.76830-0.17899
  -3  -6   8    5.48    2.25  56 0.60318-0.85911-0.20795-0.34840 0.76422-0.09799
  -3  -5   6    2.92    1.96  56 0.60318-0.86359-0.20795-0.24370 0.76422-0.25798
  -3  -4   5   19.52    1.93  56 0.59957-0.86876-0.21537-0.13962 0.76669-0.34304
  -3  -1   5  115.83    2.67  56 0.60078-0.90823-0.21290 0.12893 0.76587-0.36861
  -3   2  12    5.24    3.70  57 0.59589-0.96955-0.22282 0.35846 0.76911 0.12338
  -2  -8   7   -0.69    2.35  56 0.59775-0.72378-0.21908-0.52642 0.76790-0.16534
  -2  -7   5   10.13    1.99  56 0.60138-0.73262-0.21166-0.42892 0.76546-0.32051
  -2  -5   3  430.15    3.51  56 0.60138-0.74998-0.21166-0.23333 0.76546-0.48724
  -1  -9   6    6.71    2.57  56 0.59775-0.60714-0.21908-0.62327 0.76790-0.23601
  -1  -8   4    0.61    2.02  56 0.60018-0.61488-0.21414-0.52247 0.76628-0.39356
  -1  -4   1   -2.65    1.81  56 0.60378-0.65723-0.20671-0.14787 0.76380-0.64893
   0  -9   4    9.65    2.28  56 0.60258-0.50372-0.20919-0.63290 0.76463-0.38657
   0  -5   0  124.77    3.03  57 0.59438-0.53071-0.22586-0.22542 0.77009-0.72654
   0   6   6    3.12    2.64  56 0.59530-0.69426-0.22401 0.72153 0.76949-0.37555
   0   7  10    1.10    3.40  56 0.59446-0.72240-0.22569 0.78420 0.77003-0.08503
   1  -8   1    4.10    2.81  57 0.59242-0.39398-0.22976-0.51354 0.77132-0.63129
   1   2   0 1106.73    7.71  57 0.59433-0.51992-0.22596 0.39231 0.77012-0.79260
   1   6   4   98.78    2.48  56 0.59897-0.59004-0.21661 0.71564 0.76709-0.52679
   1   7   6    3.79    1.96  56 0.59897-0.61075-0.21661 0.79116 0.76709-0.38664
   2  -6  -1    3.66    2.57  56 0.59561-0.31664-0.22339-0.34046 0.76930-0.80169
   2   8   7    2.94    2.96  57 0.59265-0.52222-0.22930 0.87296 0.77118-0.33013
   3  -9   1    4.26    3.35  56 0.59572-0.18531-0.22317-0.63911 0.76923-0.63161
   3  -8   0   -0.07    2.08  56 0.59897-0.19733-0.21661-0.54765 0.76709-0.71240
   3   4   0  400.37    3.94  57 0.59312-0.34378-0.22837 0.54781 0.77088-0.82197
   3   6   2   10.24    2.53  57 0.59359-0.37723-0.22744 0.71160 0.77059-0.69059
   3   8   5   94.93    2.48  56 0.60078-0.42082-0.21290 0.85631 0.76587-0.47812
   3   9   8   30.88    2.68  56 0.59957-0.44399-0.21537 0.92761 0.76669-0.26561
   4   8   4   -0.64    2.03  56 0.60199-0.31795-0.21043 0.84672 0.76505-0.55828
   5   2  -2   56.25    2.16  56 0.59897-0.11511-0.21661 0.34122 0.76709-0.95974
   5   5   0   96.85    2.91  57 0.59407-0.15664-0.22647 0.60766 0.77028-0.83982
   5   6   1  177.92    3.17  57 0.59359-0.17293-0.22743 0.69218 0.77058-0.77500
   5   7   2  116.77    2.40  56 0.59957-0.19484-0.21537 0.76259 0.76669-0.70471
   6   2  -2   86.73    3.01  57 0.59321-0.00920-0.22819 0.33933 0.77083-0.96894
   6   4  -1   15.49    1.90  56 0.59775-0.04207-0.21908 0.50289 0.76790-0.90874
   6   8   3   53.37    2.50  56 0.60318-0.11592-0.20795 0.82446 0.76422-0.64227
   6   9   5   -0.28    2.47  56 0.59957-0.13163-0.21537 0.90787 0.76669-0.50444
   7   2  -2   69.03    3.07  56 0.59541 0.08885-0.22380 0.31994 0.76943-0.97134
   7   4  -1   11.09    2.01  56 0.59836 0.05669-0.21784 0.48773 0.76750-0.91366
   7   8   3   24.21    2.47  56 0.60018-0.01190-0.21414 0.81710 0.76628-0.64959
   8  -4  -2    1.98    5.00  58 0.57947 0.28097-0.25476-0.20442 0.77887-0.93552
   8   5   0   35.34    3.24  57 0.59362 0.14440-0.22738 0.56714 0.77057-0.85665
   8   7   2   86.64    3.80  57 0.59311 0.11169-0.22838 0.73383 0.77089-0.72515
   9  -2  -2    0.63    3.58  56 0.59407 0.34033-0.22647-0.06698 0.77028-0.94916
   9  -1  -2    0.74    3.42  56 0.59407 0.32929-0.22647 0.02429 0.77028-0.95960
   9   0  -2   19.20    3.44  56 0.59635 0.31362-0.22190 0.10947 0.76882-0.96295
   9   3  -1    8.35    3.29  56 0.59407 0.27448-0.22647 0.37894 0.77028-0.91703
  -4  -3   9   28.87    3.13  58 0.58079-0.97753-0.25235-0.02778 0.77843-0.06017
  -4  -3  10    6.93    3.32  58 0.58152-0.98297-0.25098-0.03554 0.77803 0.01447
  -4  -2   9   88.86    3.49  58 0.57981-0.98878-0.25421 0.06394 0.77897-0.06903
  -4  -2  10   28.72    3.33  58 0.58114-0.99478-0.25170 0.05455 0.77824 0.00581
  -3  -7   8   -0.61    2.40  57 0.58472-0.82691-0.24487-0.40341 0.77621-0.10263
  -3  -6   6   33.46    2.14  57 0.58725-0.83512-0.23997-0.30316 0.77474-0.25925
  -3  -5   5  119.86    2.45  57 0.58788-0.84419-0.23875-0.20688 0.77436-0.34225
  -3   2   8  101.89    4.70  58 0.57467-0.93168-0.26381 0.42805 0.78170-0.18706
  -2  -8   6    3.80    2.29  57 0.58977-0.71244-0.23507-0.50245 0.77323-0.24589
  -2  -7   4    3.25    1.86  57 0.58535-0.71204-0.24365-0.38949 0.77585-0.40610
  -2  -6   3  106.84    2.94  57 0.58280-0.71927-0.24854-0.28683 0.77731-0.49126
  -2  -3   2  553.96    4.66  57 0.58270-0.75305-0.24873-0.00795 0.77736-0.59244
  -1  -9   5    2.79    2.37  57 0.58725-0.59192-0.23997-0.59614 0.77474-0.31693
  -1  -8   3   47.12    2.98  58 0.58112-0.59104-0.25174-0.47876 0.77825-0.47884
  -1  -7   2   22.24    2.78  58 0.58110-0.59983-0.25177-0.38088 0.77826-0.56256
  -1  -5   1   48.89    1.95  57 0.58725-0.62787-0.23997-0.20432 0.77474-0.65146
   0  -9   3    6.59    2.28  57 0.58472-0.48213-0.24487-0.58932 0.77622-0.47289
   0  -8   2   36.49    2.14  57 0.59102-0.49762-0.23261-0.50459 0.77247-0.55319
   0  -7   1   -1.52    1.76  57 0.58851-0.50393-0.23752-0.40254 0.77399-0.63780
   1  -9   2    3.23    2.15  57 0.58725-0.38066-0.23997-0.60172 0.77474-0.55171
   1  -7   0   10.69    1.92  57 0.58472-0.39534-0.24487-0.40108 0.77621-0.71963
   1  -5  -1   23.61    2.42  57 0.58152-0.41440-0.25098-0.20723 0.77803-0.81394
   2  -9   1    3.25    3.11  58 0.58040-0.26938-0.25309-0.59415 0.77864-0.63459
   2  -8   0    1.47    2.85  58 0.57893-0.27730-0.25586-0.49305 0.77944-0.71974
   2   3   0  213.91    3.59  58 0.58209-0.41988-0.24990 0.49259 0.77771-0.81419
   2   6   3  143.83    2.58  57 0.58851-0.47586-0.23752 0.72931 0.77399-0.61328
   2   7   5   94.49    3.05  58 0.57903-0.48653-0.25567 0.82371 0.77939-0.47854
   3  -7  -1    3.98    1.98  57 0.58662-0.19302-0.24120-0.42605 0.77511-0.80343
   3  -5  -2    4.69    2.62  57 0.58073-0.20944-0.25248-0.22694 0.77846-0.89814
   3   0  -2  456.06    5.66  58 0.58115-0.27282-0.25167 0.22437 0.77823-0.94284
   3   5   1  227.07    2.84  57 0.58788-0.35490-0.23875 0.64088 0.77436-0.75950
   4   1  -2  225.58    3.61  58 0.58180-0.18574-0.25044 0.29912 0.77787-0.95621
   4   3  -1  453.36    4.14  58 0.58181-0.21485-0.25043 0.47209 0.77786-0.89889
   4   7   3    0.65    2.68  57 0.58344-0.28418-0.24732 0.80086 0.77694-0.63603
   4   9   7   18.30    2.56  57 0.58977-0.33023-0.23507 0.94043 0.77323-0.35161
   5   8   4    8.43    2.08  57 0.58725-0.20293-0.23997 0.86350 0.77474-0.57303
   5   9   6    1.62    2.51  57 0.59102-0.22682-0.23261 0.93214 0.77247-0.43116
   6   5   0  423.72    3.46  57 0.58725-0.04914-0.23997 0.60723 0.77474-0.84989
   6   6   1   36.80    2.00  57 0.58599-0.06428-0.24242 0.69284 0.77548-0.78519
   6   7   2   25.51    2.04  57 0.59164-0.08733-0.23138 0.76421 0.77208-0.71615
   7   5   0   19.08    2.06  57 0.58725 0.05152-0.23997 0.59243 0.77474-0.85536
   7   6   1    7.02    2.03  57 0.58472 0.03722-0.24487 0.68059 0.77621-0.79059
   7   7   2   -0.09    2.16  57 0.58977 0.01561-0.23507 0.75419 0.77323-0.72236
   8   1  -2    8.21    2.12  57 0.58788 0.20875-0.23875 0.23071 0.77436-0.97406
   8   6   1    4.68    2.20  57 0.58977 0.13221-0.23507 0.65754 0.77323-0.79264
  -4  -5   9    3.40    3.34  59 0.56734-0.93836-0.27752-0.18400 0.78542-0.05000
  -4  -4   8   11.39    2.94  58 0.56987-0.95177-0.27296-0.09069 0.78419-0.13237
  -4  -4   9   40.76    2.50  58 0.57583-0.96032-0.26199-0.10883 0.78117-0.05457
  -4  -4  10    3.64    2.33  58 0.57649-0.96528-0.26078-0.11688 0.78082 0.02074
  -4  -3   8   11.37    1.98  58 0.57452-0.96775-0.26442-0.00873 0.78185-0.13854
  -4  -2   8  238.96    4.01  58 0.57023-0.97733-0.27229 0.08953 0.78402-0.14940
  -4  -2  11   11.81    2.66  58 0.57844-0.99595-0.25713 0.05289 0.77978 0.07899
  -4  -1   9    0.24    2.89  59 0.56822-0.99037-0.27593 0.17712 0.78499-0.08538
  -4  -1  10  101.89    3.87  58 0.57063-0.99803-0.27157 0.16424 0.78382-0.00889
  -4  -1  11   -1.02    3.43  59 0.56889-0.99967-0.27472 0.16050 0.78467 0.06474
  -3  -7   6   14.91    3.01  58 0.56895-0.80371-0.27462-0.35955 0.78464-0.26095
  -3  -7   7    6.84    2.23  58 0.57909-0.81668-0.25591-0.38556 0.77943-0.18110
  -3  -6   5   44.61    2.25  58 0.57321-0.81668-0.26685-0.26915 0.78252-0.34130
  -3  -4   4   81.17    2.17  58 0.57583-0.84096-0.26199-0.08588 0.78117-0.43176
  -3  -3   4  113.93    2.43  58 0.57974-0.85777-0.25469-0.00264 0.77908-0.43803
  -3  -2   4  228.86    3.06  58 0.57452-0.86511-0.26442 0.09735 0.78185-0.45050
  -3   0   5   88.21    3.16  58 0.56967-0.89007-0.27331 0.27942 0.78429-0.39624
  -3   1   6   -0.36    2.48  59 0.56722-0.90297-0.27774 0.36693 0.78548-0.33172
  -2  -8   5   79.71    2.53  58 0.57844-0.69651-0.25713-0.47388 0.77978-0.32580
  -2  -5   2  203.07    3.18  59 0.56763-0.71213-0.27700-0.16059 0.78528-0.58175
  -2  -4   2   26.08    1.88  58 0.57844-0.73618-0.25713-0.08967 0.77978-0.58503
  -2  -2   2    8.97    1.81  58 0.57844-0.76159-0.25713 0.09026 0.77978-0.60244
  -1  -9   4    3.14    2.21  58 0.57255-0.57391-0.26806-0.55929 0.78286-0.40120
  -1  -6   1   95.41    2.85  59 0.56812-0.59596-0.27612-0.25859 0.78504-0.65237
  -1   4   5  821.61    7.58  59 0.56345-0.73445-0.28449 0.62385 0.78724-0.44421
  -1   5   7   16.17    2.70  58 0.56956-0.75975-0.27351 0.68805 0.78434-0.30089
   0  -6   0  150.74    3.18  58 0.57020-0.49456-0.27235-0.26944 0.78403-0.73155
   1 -10   3    2.78    2.45  58 0.57583-0.36141-0.26199-0.67648 0.78117-0.47368
   1   5   3   13.61    1.76  58 0.57649-0.55148-0.26078 0.67616 0.78082-0.60662
   2  -3  -2  242.99    5.80  59 0.56070-0.31471-0.28935 0.00534 0.78848-0.92143
   2   4   1  167.61    3.21  58 0.56969-0.42377-0.27328 0.59861 0.78428-0.75491
   2   5   2  177.68    2.65  58 0.57452-0.44507-0.26442 0.67342 0.78185-0.68721
   2   8   8   32.77    2.43  58 0.57452-0.50653-0.26442 0.90052 0.78185-0.26600
   3   7   4   94.74    2.32  58 0.57583-0.37959-0.26199 0.82335 0.78117-0.56071
   3   8   6    5.96    2.04  58 0.57844-0.40265-0.25713 0.89286 0.77978-0.41937
   4   6   2  149.34    3.04  59 0.56882-0.25132-0.27486 0.74537 0.78471-0.70876
   4   8   5   15.20    2.09  58 0.57844-0.29876-0.25713 0.88718 0.77978-0.49900
   5  -6  -2   26.36    3.36  59 0.56788 0.01713-0.27655-0.32186 0.78516-0.90635
   5   3  -1   -2.95    2.53  59 0.56755-0.10060-0.27714 0.48593 0.78532-0.91275
   5   7   3    9.18    2.68  59 0.56856-0.16866-0.27533 0.81507 0.78483-0.64901
   6   8   4    3.77    2.20  58 0.57844-0.09396-0.25713 0.86570 0.77978-0.58294
   7   1  -2   45.55    2.94  59 0.56989 0.12756-0.27291 0.27837 0.78418-0.97734
   7   3  -1   11.77    2.73  59 0.56722 0.09979-0.27774 0.45766 0.78547-0.92317
   7   8   4    6.32    2.43  58 0.57649 0.00815-0.26078 0.85597 0.78082-0.58938
   8   0  -2   50.77    3.16  59 0.56856 0.24156-0.27533 0.17731 0.78483-0.97509
   8   3  -1   10.51    2.05  58 0.57844 0.18861-0.25713 0.42369 0.77978-0.92234
   9   2  -1    8.34    3.20  59 0.56983 0.31086-0.27302 0.33327 0.78421-0.92118
   9   4   0   11.60    2.35  58 0.57714 0.27335-0.25956 0.49454 0.78048-0.86284
   9   5   1    3.27    3.37  58 0.56923 0.26413-0.27412 0.59180 0.78451-0.80172
  -4  -6   9   12.51    3.58  60 0.55459-0.91347-0.30007-0.25133 0.79098-0.04747
  -4  -5   7    3.68    2.81  60 0.55455-0.91803-0.30014-0.14583 0.79099-0.20454
  -4  -5   8    3.40    2.20  59 0.56252-0.93019-0.28622-0.16785 0.78754-0.12805
  -4  -4   7   50.48    2.30  59 0.56116-0.93813-0.28862-0.06713 0.78815-0.21049
  -4  -3   7   64.01    2.35  59 0.56320-0.95283-0.28501 0.01990 0.78723-0.21765
  -4  -2   7   -0.22    2.67  59 0.55635-0.95962-0.29702 0.12133 0.79024-0.22819
  -4  -1   8   31.68    2.97  59 0.55622-0.97549-0.29726 0.20491 0.79029-0.16475
  -3  -8   7   23.62    2.69  59 0.55773-0.78383-0.29462-0.43630 0.78965-0.18383
  -3  -7   5    0.02    2.72  60 0.55497-0.78636-0.29941-0.32717 0.79082-0.34125
  -3  -6   4  322.15    3.64  60 0.55349-0.79239-0.30196-0.22684 0.79143-0.42496
  -3  -5   4   29.36    1.90  59 0.56590-0.81896-0.28019-0.15822 0.78598-0.42823
  -3  -1   4   34.12    2.53  60 0.55352-0.85659-0.30191 0.22466 0.79141-0.46871
  -2  -9   5    4.27    3.31  59 0.55429-0.65812-0.30058-0.51897 0.79110-0.32840
  -2  -9   6    6.05    2.57  59 0.56455-0.67475-0.28260-0.54542 0.78661-0.25006
  -2  -8   4    0.51    1.97  59 0.56184-0.67744-0.28742-0.43578 0.78784-0.40829
  -2  -7   3    6.23    1.85  59 0.56320-0.68645-0.28501-0.34083 0.78723-0.49157
  -1  -9   3  110.86    3.55  60 0.55322-0.54983-0.30243-0.51814 0.79154-0.48367
  -1  -8   2   26.03    2.80  60 0.55497-0.56130-0.29941-0.42370 0.79082-0.56647
   0  -9   2   27.03    2.23  59 0.56047-0.45375-0.28982-0.53762 0.78845-0.55983
   0  -8   1   42.62    2.21  59 0.55979-0.46203-0.29102-0.43844 0.78875-0.64399
   0   6   7   39.24    2.28  59 0.56184-0.66459-0.28742 0.77863 0.78784-0.31880
   1  -9   1   32.10    3.19  59 0.55659-0.34617-0.29661-0.53766 0.79013-0.64207
   1  -6  -1  118.15    3.11  60 0.55497-0.37449-0.29941-0.24901 0.79082-0.81812
   1   3   1 1424.47    7.35  59 0.56387-0.50589-0.28381 0.53290 0.78692-0.74395
   1   4   2 1506.66    6.97  59 0.56252-0.52101-0.28622 0.61857 0.78754-0.67904
   1   6   5   12.07    1.83  59 0.55910-0.55419-0.29222 0.78321 0.78905-0.47450
   2  -7  -1    4.26    1.90  59 0.56047-0.26687-0.28982-0.36338 0.78845-0.81185
   2  -4  -2    0.57    2.37  60 0.55146-0.29345-0.30543-0.06864 0.79225-0.91606
   2   1  -1  425.54    5.20  59 0.55603-0.36500-0.29758 0.36709 0.79037-0.88359
   2   8   9    2.33    2.35  59 0.56047-0.49623-0.28982 0.91903 0.78845-0.19831
   3  -9   0    8.23    3.33  59 0.55497-0.14056-0.29941-0.55583 0.79082-0.72704
   3   2  -1  329.36    3.61  59 0.56320-0.28457-0.28501 0.43078 0.78723-0.89472
   3   6   3   10.76    2.48  60 0.55342-0.34107-0.30209 0.78037 0.79146-0.63678
   3   8   7   18.96    3.11  59 0.55675-0.38388-0.29633 0.92435 0.79007-0.35386
   4  -9   0    2.73    2.59  59 0.56387-0.04911-0.28381-0.58520 0.78692-0.72853
   4  -8  -1   42.08    3.60  60 0.55412-0.04735-0.30087-0.47059 0.79117-0.81530
   4  -6  -2    7.03    2.86  59 0.55957-0.07392-0.29141-0.29260 0.78885-0.90633
   4   4   0  286.21    3.06  59 0.56590-0.21623-0.28019 0.58532 0.78598-0.84212
   4   5   1  273.54    2.98  59 0.56252-0.22906-0.28622 0.67424 0.78754-0.77780
   4   8   6   54.80    3.32  60 0.55497-0.27894-0.29941 0.92197 0.79082-0.43427
   5  -8  -1    4.76    3.40  59 0.55403 0.05245-0.30104-0.48511 0.79121-0.81981
   5   1  -2   51.31    2.11  59 0.56387-0.06745-0.28381 0.31833 0.78692-0.97068
   5   6   2    2.97    2.50  60 0.55497-0.13816-0.29941 0.75626 0.79082-0.72065
   5   8   5   29.18    2.26  59 0.56252-0.18173-0.28622 0.90134 0.78754-0.51088
   6  -6  -2    0.47    4.39  59 0.55174 0.13280-0.30496-0.30447 0.79214-0.91783
   6   1  -2  131.64    2.65  59 0.56184 0.03492-0.28742 0.30761 0.78784-0.97687
   6   3  -1   31.69    1.94  59 0.56252 0.00489-0.28622 0.48013 0.78754-0.91976
   6   7   3    4.60    1.99  59 0.56116-0.06043-0.28862 0.81379 0.78815-0.65762
   6   8   5    0.98    3.22  59 0.55497-0.07316-0.29941 0.90033 0.79082-0.52032
   7   7   3    7.90    2.14  59 0.56047 0.04100-0.28982 0.80096 0.78845-0.66267
   7   8   5    2.07    3.53  60 0.55358 0.02666-0.30181 0.88893 0.79139-0.52557
   8  -1  -2    3.74    2.97  60 0.55293 0.26992-0.30292 0.11480 0.79165-0.97405
   8   4   0    0.56    2.01  59 0.56116 0.18979-0.28862 0.53703 0.78815-0.86439
   8   5   1   12.19    3.02  60 0.55497 0.17946-0.29941 0.63154 0.79082-0.80091
   8   6   2   38.25    3.34  59 0.55604 0.16198-0.29756 0.71119 0.79037-0.73364
   8   7   3   -0.55    2.50  59 0.56590 0.13497-0.28019 0.77813 0.78598-0.66580
  -4  -6   7   52.04    3.27  60 0.54218-0.89409-0.32095-0.21545 0.79582-0.20105
  -4  -6   8    7.52    2.34  60 0.55004-0.90584-0.30776-0.23646 0.79286-0.12291
  -4  -5   6    9.86    2.69  60 0.54056-0.90033-0.32363-0.11538 0.79640-0.28507
  -4  -4   6   97.79    2.41  60 0.54581-0.91864-0.31490-0.03363 0.79448-0.29185
  -4  -3   6   -3.05    1.84  60 0.54440-0.93043-0.31727 0.05945 0.79501-0.30119
  -4  -1   7  177.82    3.69  61 0.53798-0.95231-0.32787 0.24269 0.79729-0.24548
  -4   0   9   13.68    3.06  61 0.53850-0.97368-0.32702 0.31772 0.79711-0.10525
  -4   0  10    2.50    3.03  60 0.54361-0.98423-0.31857 0.30246 0.79530-0.02967
  -4   0  11   -0.22    3.41  61 0.54261-0.98710-0.32023 0.29744 0.79566 0.04483
  -3  -8   6    8.34    2.27  60 0.54864-0.76987-0.31014-0.41403 0.79341-0.26064
  -3  -4   3  326.13    3.59  61 0.54117-0.80268-0.32262-0.01742 0.79618-0.52234
  -3  -3   3  168.36    3.14  61 0.53933-0.81287-0.32564 0.07583 0.79682-0.53112
  -2  -8   3   20.19    2.92  61 0.54037-0.65066-0.32394-0.39127 0.79646-0.49273
  -2  -6   2  111.95    2.30  60 0.55214-0.68431-0.30419-0.22372 0.79202-0.57955
  -2  -1   2  180.95    3.32  60 0.55004-0.74524-0.30776 0.23177 0.79286-0.62507
  -1 -10   4    4.05    3.52  61 0.54145-0.53040-0.32216-0.59661 0.79608-0.40605
  -1  -7   1  632.20    4.17  60 0.54581-0.56047-0.31490-0.31018 0.79448-0.65342
   0 -10   3    8.59    2.51  60 0.55144-0.43584-0.30538-0.61924 0.79230-0.48155
   0  -7   0   12.54    1.91  60 0.54440-0.45532-0.31727-0.31406 0.79501-0.73474
   0   5   5   28.00    1.98  60 0.54723-0.62993-0.31252 0.72773 0.79395-0.46503
   1 -10   2   18.84    2.69  60 0.55144-0.33194-0.30538-0.62593 0.79230-0.56074
   1  -8   0   24.22    2.06  60 0.55144-0.34852-0.30538-0.43097 0.79230-0.72729
   2 -10   1   16.93    3.71  61 0.53909-0.21470-0.32604-0.61211 0.79691-0.64524
   2  -9   0   25.36    3.17  61 0.53930-0.22427-0.32570-0.51476 0.79684-0.72771
   2   6   4  271.58    3.12  60 0.54723-0.43839-0.31252 0.79709 0.79395-0.55870
   2   7   6    4.29    1.93  60 0.55004-0.46217-0.30776 0.86819 0.79286-0.41804
   3  -8  -1   12.73    2.97  60 0.54207-0.13518-0.32113-0.43627 0.79586-0.81593
   3  -6  -2    9.16    2.61  61 0.53846-0.15365-0.32707-0.24299 0.79713-0.90851
   3   7   5    6.94    1.90  60 0.54440-0.35257-0.31727 0.87028 0.79501-0.50094
   3   8   8    7.07    3.24  61 0.53987-0.37194-0.32477 0.94735 0.79664-0.28618
   4   7   4   49.06    2.11  60 0.55144-0.25492-0.30538 0.85196 0.79230-0.57614
   5   4   0    2.19    1.71  60 0.55074-0.10046-0.30657 0.59745 0.79258-0.85330
   5   5   1   95.65    2.22  60 0.54793-0.11413-0.31133 0.68497 0.79368-0.78886
   5   8   6   -1.05    3.15  61 0.54047-0.16414-0.32378 0.93262 0.79643-0.44554
   6   4   0   25.41    1.90  60 0.54652 0.00484-0.31371 0.58980 0.79422-0.86037
   6   5   1   53.06    2.72  61 0.54189-0.00715-0.32144 0.68025 0.79592-0.79459
   6   6   2   78.12    2.18  60 0.54864-0.03153-0.31014 0.75272 0.79341-0.72776
   7   0  -2    3.13    2.71  60 0.54230 0.16540-0.32075 0.23747 0.79577-0.98016
   7   4   0   31.29    2.04  60 0.55074 0.09959-0.30657 0.56926 0.79258-0.86367
   7   5   1   11.16    1.92  60 0.54581 0.08819-0.31490 0.65982 0.79448-0.80004
   7   6   2    4.02    2.01  60 0.55004 0.06800-0.30776 0.73611 0.79286-0.73281
   8  -3  -2   10.83    3.39  61 0.54039 0.30837-0.32390-0.04498 0.79645-0.96037
   8  -2  -2   12.54    3.22  61 0.54042 0.29499-0.32386 0.04546 0.79644-0.96932
   8   2  -1   34.55    2.26  60 0.54864 0.23211-0.31014 0.38533 0.79341-0.92674
   8   7   4    4.70    3.52  61 0.53980 0.15746-0.32488 0.81585 0.79666-0.60255
   9   1  -1    6.80    2.34  60 0.54723 0.34601-0.31252 0.28307 0.79395-0.92345
   9   3   0    2.92    2.29  60 0.54723 0.31693-0.31252 0.45620 0.79395-0.86643
  -4  -7   7    5.46    3.21  62 0.52656-0.86715-0.34615-0.28088 0.80084-0.19711
  -4  -7   8   -0.06    2.47  61 0.53504-0.87812-0.33260-0.30112 0.79819-0.11940
  -4  -6   6    7.78    2.05  61 0.52992-0.87813-0.34081-0.18778 0.79982-0.27932
  -4  -4   5    5.91    2.46  62 0.52400-0.89337-0.35016 0.01059 0.80159-0.37259
  -4  -2   6   65.91    2.21  61 0.53358-0.93243-0.33495 0.16750 0.79866-0.31279
  -3  -8   5    8.18    2.23  61 0.53504-0.75299-0.33260-0.38378 0.79819-0.33962
  -3  -7   4    8.70    1.90  61 0.53649-0.76324-0.33024-0.28793 0.79771-0.42272
  -3  -6   3  153.27    3.05  62 0.52577-0.76207-0.34738-0.17341 0.80107-0.50876
  -3  -5   3   20.04    1.82  61 0.53649-0.78499-0.33024-0.10009 0.79771-0.51479
  -2  -9   4    2.63    2.23  61 0.53649-0.63756-0.33024-0.48437 0.79771-0.40936
  -2  -7   2   -0.19    1.77  61 0.53358-0.65311-0.33495-0.28324 0.79866-0.57728
  -2  -4   1   22.10    2.42  62 0.52460-0.67794-0.34922 0.00924 0.80141-0.68070
  -2   3   6   44.17    4.68  63 0.51117-0.77296-0.36988 0.62585 0.80496-0.37326
  -2   4   9   16.31    4.22  63 0.51108-0.79712-0.37002 0.69430 0.80499-0.15811
  -1  -9   2   36.48    3.13  61 0.52666-0.52053-0.34598-0.46696 0.80081-0.56757
  -1  -5   0  256.72    3.00  61 0.52992-0.56665-0.34081-0.09578 0.79982-0.75108
  -1  -4   0  640.44    4.68  61 0.53721-0.58664-0.32906-0.01731 0.79746-0.75703
  -1  -3   0  447.27    4.30  61 0.53212-0.59416-0.33730 0.08160 0.79913-0.76790
  -1   5   8    0.71    2.62  62 0.52583-0.72027-0.34730 0.75524 0.80106-0.24374
   0 -10   2    6.89    3.36  62 0.52647-0.40720-0.34629-0.57159 0.80087-0.56348
   0  -9   1   45.11    3.06  61 0.52778-0.41776-0.34422-0.47587 0.80048-0.64688
   0  -4  -1  821.86    5.84  62 0.52623-0.47175-0.34666-0.00666 0.80094-0.84040
   0   6   8    0.04    2.70  62 0.52845-0.63428-0.34315 0.82543 0.80028-0.25644
   1  -7  -1    7.81    2.61  62 0.52623-0.33280-0.34666-0.29258 0.80094-0.81895
   1   7   9   13.95    2.32  61 0.53212-0.55527-0.33730 0.89038 0.79913-0.19412
   2  -5  -2    2.60    2.40  61 0.52904-0.25789-0.34222-0.12092 0.80010-0.91633
   2   7   7    3.93    2.79  62 0.52360-0.43952-0.35079 0.90433 0.80170-0.35307
   3   3   0    3.00    1.78  61 0.53431-0.27174-0.33377 0.56207 0.79843-0.84023
   3   4   1  511.67    4.22  62 0.52696-0.28041-0.34551 0.65654 0.80072-0.77637
   3   5   2  220.29    2.79  61 0.53576-0.30624-0.33142 0.72598 0.79795-0.70869
   3   8   9    1.78    3.45  61 0.52578-0.36179-0.34736 0.96372 0.80107-0.21621
   4   0  -2   95.89    2.59  61 0.53285-0.12421-0.33612 0.29390 0.79890-0.96867
   4   2  -1   19.07    1.76  61 0.53139-0.15167-0.33847 0.46962 0.79937-0.91257
   4   6   3  409.61    3.81  61 0.52751-0.21337-0.34464 0.80727 0.80056-0.64948
   4   8   7    2.46    2.24  61 0.53431-0.26200-0.33377 0.94910 0.79843-0.36900
   5   7   4    3.40    1.94  61 0.53721-0.14124-0.32906 0.86201 0.79746-0.58560
   6   0  -2  158.36    3.50  62 0.52577 0.08378-0.34739 0.27684 0.80108-0.98140
   6   7   4   -0.51    1.97  61 0.53139-0.03411-0.33847 0.85676 0.79937-0.59389
   6   8   6   34.08    2.57  61 0.53285-0.05636-0.33612 0.92999 0.79890-0.45278
   7   2  -1    5.99    1.94  61 0.53065 0.14942-0.33964 0.42864 0.79960-0.92788
   7   7   4    5.46    2.18  61 0.53212 0.06511-0.33730 0.84128 0.79913-0.59840
   8   3   0    0.83    2.88  62 0.52549 0.23880-0.34783 0.50514 0.80116-0.86848
   8   6   3   -1.78    3.23  62 0.52475 0.18850-0.34899 0.75603 0.80137-0.67197
   9   0  -1    1.90    3.24  62 0.52400 0.38273-0.35016 0.22948 0.80159-0.92228
   9   4   1   -1.42    2.37  61 0.53576 0.31185-0.33142 0.55850 0.79795-0.80502
   9   5   2   14.39    2.53  61 0.53358 0.29736-0.33495 0.64483 0.79866-0.74015
  -4  -7   6    4.27    2.21  62 0.51669-0.85131-0.36170-0.25836 0.80349-0.27280
  -4  -6   5    1.97    2.75  63 0.51165-0.85664-0.36935-0.15131 0.80475-0.36050
  -4  -5   5   26.78    1.95  62 0.52120-0.87837-0.35474-0.07598 0.80228-0.36373
  -4  -3   5    8.25    1.88  62 0.51819-0.90026-0.35938 0.10945 0.80309-0.38374
  -4   0   8   62.33    2.54  62 0.51970-0.95124-0.35706 0.35613 0.80269-0.18493
  -3  -9   5    3.73    3.41  63 0.51169-0.71769-0.36929-0.43681 0.80474-0.33818
  -3  -8   4    2.80    1.98  62 0.51669-0.73056-0.36170-0.34732 0.80349-0.42019
  -3  -7   3   89.03    2.92  63 0.51137-0.73421-0.36978-0.24176 0.80481-0.50388
  -3  -2   3  514.21    4.29  62 0.52194-0.80897-0.35358 0.19425 0.80208-0.54506
  -2  -9   3   11.87    2.17  62 0.51517-0.61335-0.36401-0.44152 0.80388-0.49071
  -2  -8   2   24.63    2.70  63 0.51171-0.61830-0.36926-0.33982 0.80473-0.57517
  -2  -6   1  212.06    3.23  63 0.51033-0.63815-0.37134-0.14931 0.80506-0.66758
  -2  -5   1    9.08    1.70  62 0.52045-0.66080-0.35590-0.07309 0.80249-0.67473
  -2  -3   1  349.11    3.57  62 0.51593-0.68195-0.36286 0.11361 0.80368-0.69285
  -1 -10   3   -2.50    2.45  62 0.52269-0.50643-0.35241-0.55823 0.80187-0.48513
  -1  -8   1   27.62    2.08  62 0.52120-0.52402-0.35474-0.36053 0.80228-0.65169
  -1  -6   0   12.86    1.83  62 0.51669-0.54072-0.36170-0.16519 0.80349-0.74595
  -1   0   1   63.95    3.95  62 0.51412-0.61811-0.36562 0.37272 0.80414-0.72475
   0  -8   0    2.51    1.85  62 0.51669-0.41483-0.36170-0.36015 0.80349-0.73416
   0  -5  -1  194.08    2.89  62 0.51970-0.45241-0.35706-0.08701 0.80269-0.83327
   0  -3  -1  441.45    4.76  62 0.51819-0.47616-0.35938 0.09640 0.80309-0.85137
   0   6   9    1.91    2.88  63 0.50769-0.61888-0.37530 0.85269 0.80567-0.18726
   1 -10   1   56.49    3.01  62 0.51970-0.29693-0.35706-0.56696 0.80269-0.64535
   1  -9   0   -1.53    2.11  62 0.51593-0.30095-0.36285-0.46321 0.80368-0.73044
   1   5   4  265.37    3.27  62 0.51970-0.49783-0.35706 0.76564 0.80269-0.55349
   1   6   6  351.82    3.71  62 0.52045-0.51858-0.35590 0.84062 0.80249-0.41313
   1   7  10   11.91    2.49  62 0.51819-0.54470-0.35938 0.90465 0.80309-0.12331
   2  -8  -1    6.37    2.01  62 0.52269-0.21588-0.35241-0.39215 0.80187-0.81600
   2   5   3  259.88    2.97  62 0.51970-0.39401-0.35706 0.75891 0.80269-0.63365
   3   6   4  128.99    3.04  63 0.51077-0.30142-0.37069 0.84112 0.80496-0.57431
   3   7   6   46.91    2.13  62 0.51517-0.32491-0.36401 0.91108 0.80388-0.43418
   4  -7  -2   -0.30    2.93  63 0.50677-0.00879-0.37668-0.29745 0.80588-0.91453
   4   5   2   35.23    2.55  63 0.51137-0.18116-0.36978 0.75025 0.80481-0.72003
   4   7   5    8.44    1.98  62 0.52120-0.22900-0.35474 0.89445 0.80228-0.51190
   4   8   8   24.26    2.58  62 0.51669-0.24750-0.36170 0.97049 0.80349-0.29902
   5   0  -2  224.86    3.41  62 0.51970-0.01033-0.35706 0.30069 0.80269-0.97791
   5   2  -1    1.81    1.71  62 0.51819-0.03851-0.35938 0.47704 0.80309-0.92055
   5   6   3   10.09    1.78  62 0.51593-0.10226-0.36286 0.81221 0.80368-0.65886
   5   8   7    6.11    2.26  62 0.51970-0.14700-0.35706 0.95789 0.80269-0.37709
   6   2  -1    3.34    1.75  62 0.51970 0.06114-0.35706 0.45887 0.80269-0.92621
   6   6   3   23.58    2.66  63 0.51163 0.00219-0.36939 0.80449 0.80475-0.66414
   6   8   7   14.51    3.53  63 0.51240-0.03993-0.36822 0.95340 0.80456-0.38307
   7  -1  -2    7.44    2.68  62 0.51364 0.20859-0.36634 0.19139 0.80426-0.97991
   7   3   0   10.57    2.62  63 0.50979 0.15366-0.37215 0.54451 0.80519-0.86844
   7   6   3    3.81    2.02  62 0.51593 0.09957-0.36285 0.78412 0.80368-0.66926
   8   1  -1    8.75    2.10  62 0.51744 0.27639-0.36054 0.34398 0.80329-0.92870
   8   4   1   16.28    2.06  62 0.51669 0.23163-0.36170 0.60196 0.80349-0.80618
   8   5   2    4.09    2.17  62 0.51669 0.21417-0.36170 0.68523 0.80349-0.73986
   9   2   0    5.42    2.22  62 0.51669 0.35936-0.36170 0.41432 0.80349-0.86884
  -5  -5   9   -3.33    3.66  64 0.49715-0.97124-0.39082-0.05464 0.80779-0.06736
  -5  -4   9    8.02    3.37  64 0.49741-0.98468-0.39044 0.03498 0.80774-0.07655
  -5  -3   9    0.58    3.23  64 0.49440-0.99038-0.39479 0.12922 0.80830-0.08486
  -5  -3  10    3.33    3.57  64 0.49597-0.99779-0.39252 0.12006 0.80801-0.00910
  -4  -8   6   25.85    2.59  63 0.49910-0.82048-0.38798-0.32206 0.80741-0.27115
  -4  -7   5    6.39    2.06  63 0.50066-0.83142-0.38570-0.22604 0.80710-0.35194
  -4  -5   4    7.47    2.51  64 0.49549-0.84774-0.39321-0.02975 0.80810-0.44551
  -4  -4   4    7.92    2.51  63 0.49493-0.85842-0.39403 0.06149 0.80821-0.45537
  -4  -2   5    4.37    1.86  63 0.50066-0.89495-0.38570 0.22559 0.80710-0.39616
  -4  -1   6  124.85    2.77  63 0.50454-0.91607-0.37999 0.30254 0.80629-0.32949
  -3  -9   4    5.75    3.23  63 0.49525-0.69545-0.39357-0.40531 0.80815-0.41506
  -3  -5   2  132.86    2.95  64 0.49635-0.74119-0.39197-0.03170 0.80794-0.59989
  -3  -4   2  313.61    3.51  64 0.49550-0.75270-0.39320 0.05991 0.80810-0.60851
  -3   2   7    5.65    4.05  65 0.47279-0.82648-0.42500 0.59707 0.81153-0.29163
  -2  -7   1  110.98    2.98  64 0.49543-0.60999-0.39331-0.21798 0.80812-0.66182
  -1 -10   2   49.76    3.54  63 0.49597-0.47666-0.39252-0.51056 0.80801-0.56708
  -1  -9   1   25.02    2.98  64 0.49392-0.48309-0.39547-0.41060 0.80839-0.64927
  -1  -7   0    1.46    2.52  63 0.49832-0.50977-0.38911-0.22802 0.80756-0.74162
  -1  -2   0 1077.77    7.32  63 0.50222-0.57663-0.38342 0.21772 0.80678-0.78453
  -1   3   4   28.83    2.65  64 0.49245-0.64639-0.39759 0.65406 0.80865-0.53170
  -1   5   9    2.18    2.80  64 0.48965-0.68847-0.40158 0.80217 0.80913-0.17543
   0 -10   1   30.95    3.43  64 0.49405-0.37020-0.39529-0.51510 0.80837-0.64691
   0  -6  -1  110.03    2.38  63 0.50454-0.42408-0.37999-0.15448 0.80629-0.82878
   0   5   6  251.93    4.05  64 0.49324-0.57975-0.39645 0.80516 0.80851-0.40487
   1  -8  -1   39.08    2.93  64 0.49484-0.28859-0.39415-0.33576 0.80822-0.81789
   2 -10   0    4.46    3.53  63 0.49597-0.16807-0.39252-0.53930 0.80801-0.73132
   2  -6  -2   32.99    2.18  63 0.50377-0.21907-0.38113-0.17415 0.80645-0.91391
   2   2   0 1119.84    6.59  63 0.50222-0.32735-0.38342 0.53586 0.80678-0.83462
   2   4   2 1198.90    6.06  63 0.49720-0.35516-0.39074 0.70902 0.80778-0.70345
   2   6   5  301.10    3.29  63 0.50608-0.40103-0.37770 0.85501 0.80595-0.49541
   2   7   8   25.06    2.25  63 0.49988-0.41906-0.38684 0.93316 0.80726-0.28155
   3  -9  -1    5.44    3.28  64 0.49554-0.07597-0.39314-0.45534 0.80809-0.81963
   3  -7  -2   14.79    2.90  63 0.49639-0.09815-0.39191-0.26859 0.80793-0.91186
   3  -1  -2  104.02    3.79  63 0.49926-0.17801-0.38774 0.26983 0.80738-0.96272
   4  -9  -1    5.51    3.61  64 0.49718 0.02291-0.39077-0.47159 0.80778-0.82620
   4   3   0   40.57    1.86  63 0.50762-0.14474-0.37540 0.59002 0.80561-0.85241
   4   4   1  287.48    3.03  63 0.50299-0.15651-0.38227 0.67984 0.80662-0.78746
   4   8   9   19.04    2.62  63 0.50144-0.23758-0.38456 0.98521 0.80694-0.22709
   5  -7  -2   18.00    3.39  63 0.49597 0.10237-0.39252-0.29595 0.80801-0.92213
   5   3   0  281.49    3.55  64 0.49633-0.03267-0.39201 0.59199 0.80795-0.85939
   5   5   2  110.58    2.35  63 0.49988-0.06884-0.38684 0.75324 0.80726-0.72744
   5   7   5    9.96    2.05  63 0.50762-0.11448-0.37540 0.90057 0.80561-0.51941
   5   8   8   28.84    2.65  63 0.50222-0.13368-0.38342 0.97711 0.80678-0.30594
   6   3   0   35.87    2.68  63 0.49726 0.06596-0.39066 0.57594 0.80777-0.86379
   6   5   2   72.58    2.80  63 0.49722 0.03326-0.39071 0.74226 0.80778-0.73188
   6   7   5   -0.31    2.15  63 0.50377-0.01032-0.38113 0.89265 0.80645-0.52634
   7   4   1  156.83    2.73  63 0.50144 0.14651-0.38456 0.63945 0.80694-0.80324
   7   5   2   58.51    2.22  63 0.50454 0.12619-0.37999 0.71849 0.80629-0.73654
   7   7   5   17.76    2.47  63 0.50608 0.08643-0.37770 0.87523 0.80595-0.53034
   8   6   4    8.21    3.23  64 0.49472 0.21621-0.39433 0.79456 0.80825-0.60379
   9  -1  -1   20.69    2.60  63 0.50377 0.41554-0.38113 0.17200 0.80645-0.91907
   9   3   1   27.54    2.41  63 0.49988 0.36132-0.38684 0.52266 0.80726-0.80499
   9   4   2   17.64    3.27  64 0.49542 0.34836-0.39331 0.61354 0.80812-0.73991
   9   5   3   17.73    2.53  63 0.49988 0.32752-0.38684 0.68973 0.80726-0.67413
  -5  -6   7   52.64    3.52  65 0.47830-0.92862-0.41740-0.10476 0.81110-0.20983
  -5  -6   8   13.39    2.60  64 0.48726-0.94211-0.40490-0.12432 0.80978-0.13473
  -5  -5   7   34.32    3.06  64 0.48054-0.94584-0.41430-0.01731 0.81079-0.22019
  -5  -5   8  102.56    2.99  64 0.49203-0.96087-0.39814-0.04063 0.80898-0.14276
  -5  -4   7   66.51    3.17  65 0.47958-0.95639-0.41564 0.07415 0.81092-0.22813
  -5  -4   8   10.79    2.27  64 0.49203-0.97304-0.39814 0.04922 0.80898-0.15209
  -5  -3   8    7.83    3.09  64 0.48278-0.97681-0.41119 0.15286 0.81047-0.16365
  -5  -2  10    2.31    3.35  64 0.47975-0.99351-0.41539 0.23376 0.81090-0.02199
  -4  -8   5    4.34    2.25  64 0.48406-0.80203-0.40940-0.29246 0.81028-0.34736
  -4  -7   4   14.02    2.84  65 0.47904-0.80633-0.41638-0.18798 0.81100-0.42999
  -4  -6   4   56.46    2.24  64 0.48965-0.82942-0.40152-0.11277 0.80939-0.43768
  -4  -3   4   24.74    2.53  64 0.48097-0.85959-0.41370 0.17073 0.81073-0.46626
  -4   0   7   51.01    3.08  64 0.48466-0.91360-0.40856 0.41486 0.81019-0.26788
  -4   1  10    3.53    3.85  65 0.47576-0.92769-0.42089 0.49528 0.81143-0.05373
  -4   1  11    4.39    3.41  64 0.47891-0.93507-0.41655 0.48278 0.81101 0.02116
  -3  -8   3    3.14    1.94  64 0.49282-0.70282-0.39701-0.30434 0.80884-0.50010
  -3  -7   2  348.46    3.69  65 0.47892-0.69774-0.41655-0.18759 0.81101-0.58483
  -3  -6   2  284.74    2.93  64 0.49044-0.72253-0.40040-0.11367 0.80925-0.59168
  -3  -3   2  385.71    3.91  64 0.48093-0.75156-0.41377 0.17149 0.81074-0.62029
  -3  -1   3  208.45    3.71  65 0.47793-0.77677-0.41791 0.34870 0.81115-0.56326
  -3   0   4  163.11    3.38  64 0.48886-0.80505-0.40265 0.41650 0.80952-0.49570
  -2 -10   3   20.02    2.60  64 0.48726-0.57204-0.40490-0.49113 0.80978-0.48822
  -2  -9   2   53.89    2.38  64 0.48726-0.58080-0.40490-0.39418 0.80978-0.57189
  -2  -2   1    4.06    1.74  64 0.48647-0.66552-0.40603 0.24668 0.80991-0.70738
  -2   4  10   24.15    4.87  66 0.46209-0.75159-0.43926 0.75628 0.81289-0.09171
  -1   4   6    1.61    2.44  65 0.47274-0.64703-0.42501 0.75719 0.81179-0.39428
   0  -9   0    6.21    2.03  64 0.48567-0.37250-0.40715-0.40557 0.81003-0.73111
   0  -7  -1    8.14    1.81  64 0.48406-0.39143-0.40940-0.21532 0.81028-0.82384
   0   6  10    2.72    2.23  64 0.48965-0.60408-0.40152 0.87165 0.80939-0.11656
   0   6  11   12.09    3.60  65 0.47960-0.59770-0.41561 0.87801 0.81092-0.04374
   1 -10   0   38.28    3.59  65 0.47818-0.24986-0.41757-0.49934 0.81111-0.72858
   1   4   3  160.00    3.19  64 0.48159-0.44343-0.41284 0.73770 0.81064-0.62669
   2  -9  -1   94.03    3.62  64 0.48169-0.16254-0.41271-0.42134 0.81063-0.81717
   2   3   1  120.43    2.48  64 0.48886-0.33032-0.40265 0.63804 0.80952-0.77167
   2   7   9   13.47    3.10  65 0.48081-0.40357-0.41392 0.95246 0.81075-0.21113
   3   1  -1  156.08    2.95  64 0.48806-0.19608-0.40378 0.45899 0.80965-0.90824
   3   5   3  131.20    2.90  65 0.48077-0.25477-0.41398 0.80081 0.81076-0.64578
   3   7   7    1.85    1.98  64 0.48886-0.30493-0.40265 0.94224 0.80952-0.36437
   4   6   4  138.21    2.41  64 0.48886-0.17908-0.40265 0.85916 0.80952-0.58430
   4   7   6   75.34    2.41  64 0.49203-0.20283-0.39814 0.93008 0.80898-0.44310
   5   4   1   24.85    1.84  64 0.49282-0.04642-0.39701 0.68040 0.80884-0.79532
   5   6   4    0.62    2.53  64 0.48004-0.07127-0.41499 0.85863 0.81086-0.59311
   5   7   6    8.60    2.88  64 0.48045-0.09031-0.41442 0.93232 0.81080-0.44984
   6  -1  -2   52.71    2.91  64 0.48208 0.14026-0.41216 0.25092 0.81057-0.98102
   6   4   1    6.21    1.80  64 0.49282 0.05582-0.39701 0.66549 0.80884-0.80030
   6   7   6   43.15    3.15  65 0.47801 0.01117-0.41780 0.92188 0.81114-0.45643
   7  -2  -2    1.69    1.89  64 0.48726 0.24774-0.40490 0.13933 0.80978-0.97736
   7   1  -1  101.90    2.45  64 0.48965 0.20406-0.40152 0.39998 0.80939-0.92792
   7   6   4   25.53    3.01  65 0.48119 0.12932-0.41341 0.82584 0.81070-0.59908
   7   7   6    3.70    3.31  65 0.48078 0.10948-0.41397 0.90188 0.81076-0.46032
   8   0  -1   49.16    3.13  64 0.48228 0.32438-0.41189 0.30543 0.81054-0.92479
   8   2   0    5.17    2.04  64 0.48726 0.28954-0.40490 0.47191 0.80978-0.86869
   8   5   3   -0.16    2.97  65 0.48004 0.24760-0.41499 0.73226 0.81086-0.67167
   9  -2  -1    6.55    3.51  64 0.48345 0.44800-0.41026 0.10969 0.81037-0.91210
   9   1   0    1.81    2.26  64 0.48406 0.40606-0.40940 0.37217 0.81028-0.86521
  -5  -7   7    3.78    2.44  65 0.46797-0.90687-0.43155-0.18061 0.81216-0.20195
  -5  -6   6    8.65    3.08  66 0.46326-0.91029-0.43783-0.07697 0.81262-0.28690
  -5  -5   6   87.40    3.24  65 0.46432-0.92559-0.43643 0.01211 0.81252-0.29628
  -5  -3   7   75.74    3.26  65 0.46608-0.95727-0.43408 0.18307 0.81235-0.23893
  -5  -2   8    3.58    2.88  65 0.46290-0.96834-0.43831 0.27092 0.81265-0.17257
  -5  -2   9    6.08    2.28  65 0.47451-0.98449-0.42270 0.24776 0.81142-0.09671
  -4  -9   5   20.47    3.59  66 0.46420-0.76969-0.43658-0.35605 0.81253-0.34059
  -4  -8   4   -0.43    2.93  66 0.46384-0.77830-0.43706-0.25737 0.81256-0.42392
  -4   1   9    2.33    3.48  66 0.45561-0.90388-0.44787 0.52956 0.81324-0.13010
  -3  -9   3   10.28    2.19  65 0.47125-0.66817-0.42713-0.36475 0.81180-0.49453
  -3  -8   2   30.41    2.79  66 0.46269-0.66866-0.43858-0.25573 0.81267-0.57787
  -3   1   5    0.89    2.80  66 0.45466-0.78821-0.44911 0.54630 0.81330-0.43357
  -2  -8   1  131.48    2.62  65 0.47533-0.57811-0.42159-0.27963 0.81132-0.65658
  -2   4  11    4.96    4.66  67 0.44415-0.73788-0.46256 0.77222 0.81387-0.01822
  -1 -10   1   49.26    3.44  66 0.46332-0.44004-0.43775-0.45821 0.81261-0.64505
  -1  -8   0    2.55    1.82  65 0.47614-0.47473-0.42047-0.28836 0.81121-0.73580
  -1   5  10   37.41    3.60  66 0.46461-0.66693-0.43604 0.82932 0.81249-0.10506
   0  -8  -1   18.65    2.68  66 0.46062-0.35495-0.44132-0.27331 0.81285-0.81723
   0  -2  -1  171.34    4.36  65 0.46491-0.43570-0.43564 0.26344 0.81246-0.86966
   1  -9  -1    9.30    2.96  66 0.46118-0.24235-0.44058-0.37858 0.81280-0.81360
   1  -6  -2  224.29    3.81  66 0.46207-0.27744-0.43940-0.10207 0.81272-0.91423
   1  -5  -2    4.26    1.68  65 0.47125-0.29978-0.42713-0.02377 0.81180-0.92264
   1  -4  -2 1309.06    8.31  65 0.46586-0.30710-0.43437 0.07401 0.81237-0.93205
   1   1   0  823.12    7.84  65 0.46797-0.38085-0.43155 0.50762 0.81216-0.82609
   1   5   5  501.73    4.54  66 0.46384-0.44633-0.43706 0.83874 0.81256-0.48874
   2  -7  -2   43.23    2.25  65 0.47451-0.17694-0.42270-0.22313 0.81142-0.90972
   2   5   4  500.21    4.28  66 0.46320-0.34138-0.43790 0.83239 0.81262-0.56828
   2   6   6  580.08    4.26  65 0.46797-0.36604-0.43155 0.90186 0.81216-0.42756
   2   7  10    1.28    3.27  65 0.46797-0.39429-0.43155 0.96336 0.81216-0.13828
   3   6   5   83.54    2.19  65 0.47125-0.26571-0.42713 0.89019 0.81180-0.50707
   3   7   8   16.47    3.05  66 0.46496-0.28359-0.43557 0.96642 0.81246-0.29207
   4  -1  -2  305.73    4.89  66 0.46024-0.03883-0.44181 0.30959 0.81288-0.97463
   4   1  -1  235.53    3.59  66 0.46159-0.06946-0.44004 0.48139 0.81277-0.91702
   4   7   7    5.92    2.09  65 0.46715-0.18179-0.43265 0.95790 0.81224-0.37103
   5  -1  -2  213.68    3.97  66 0.46236 0.05971-0.43902 0.29250 0.81270-0.97932
   6   1  -1   37.27    2.05  65 0.46961 0.12354-0.42934 0.44139 0.81198-0.92655
   6   6   4    1.24    1.89  65 0.47695 0.03200-0.41936 0.84817 0.81111-0.59586
   7  -4  -2    3.96    3.79  66 0.45365 0.30717-0.45042 0.00444 0.81337-0.96479
   7  -3  -2   12.02    3.10  66 0.46384 0.28464-0.43706 0.08127 0.81256-0.97178
   7   2   0  207.87    3.44  66 0.46217 0.21473-0.43928 0.52082 0.81272-0.86659
   7   5   3    5.01    2.69  66 0.46413 0.16214-0.43668 0.76757 0.81254-0.66817
   8   3   1   10.12    2.05  65 0.47370 0.28660-0.42381 0.57397 0.81151-0.80487
   8   4   2    3.36    2.07  65 0.47207 0.27170-0.42602 0.65947 0.81171-0.73887
   8   6   5   32.22    3.46  65 0.46522 0.24173-0.43522 0.82632 0.81243-0.53234
   9   2   1    2.08    3.12  66 0.46302 0.41029-0.43815 0.48459 0.81264-0.80271
   9   5   4    1.18    2.42  65 0.46797 0.35558-0.43155 0.72713 0.81216-0.60440
  -5  -7   6    2.00    2.23  66 0.45456-0.88997-0.44903-0.15524 0.81352-0.27901
  -5  -4   6    0.24    2.01  66 0.45957-0.93350-0.44248 0.10879 0.81315-0.30506
  -5  -3   6  190.62    3.61  67 0.44473-0.93067-0.46162 0.21742 0.81406-0.31441
  -5  -1  10    6.57    3.41  66 0.44443-0.97048-0.46200 0.36853 0.81407-0.03383
  -4  -9   4   26.62    3.50  67 0.44570-0.74676-0.46040-0.32489 0.81402-0.41587
  -4  -7   3   22.57    1.98  66 0.45120-0.77452-0.45337-0.14329 0.81374-0.50823
  -4  -6   3    4.27    1.75  66 0.45874-0.79518-0.44358-0.06485 0.81322-0.51579
  -4  -5   3  262.59    2.90  66 0.46041-0.80985-0.44139 0.02447 0.81308-0.52451
  -4  -4   3    2.70    1.66  66 0.45288-0.81522-0.45120 0.12391 0.81363-0.53426
  -4  -2   4  558.84    4.37  66 0.45288-0.84387-0.45120 0.29815 0.81363-0.47749
  -4  -1   5    9.26    1.85  66 0.45707-0.86490-0.44576 0.37579 0.81335-0.41132
  -3 -10   3    8.48    3.42  67 0.44646-0.63110-0.45943-0.42272 0.81399-0.48752
  -3  -6   1  143.29    3.04  67 0.44505-0.67301-0.46122-0.04511 0.81405-0.67158
  -3  -5   1   27.14    2.41  67 0.44504-0.68596-0.46123 0.04524 0.81405-0.68014
  -3  -2   2    8.86    2.28  67 0.44643-0.72952-0.45946 0.30738 0.81399-0.63193
  -2 -10   2   16.92    2.41  66 0.46041-0.54169-0.44139-0.44727 0.81308-0.56524
  -2  -9   1   76.25    2.43  66 0.45288-0.54235-0.45120-0.34058 0.81363-0.64968
  -2  -7   0   22.01    2.44  67 0.44558-0.55669-0.46054-0.14339 0.81403-0.74225
  -2  -6   0  289.94    3.00  66 0.45540-0.57929-0.44794-0.06568 0.81347-0.75051
  -2  -5   0  670.82    4.23  66 0.45707-0.59394-0.44576 0.02275 0.81335-0.75968
  -2  -4   0  560.52    4.58  66 0.44790-0.59739-0.45759 0.12520 0.81392-0.76911
  -2   0   2  121.96    3.73  67 0.44377-0.65117-0.46284 0.47660 0.81410-0.65498
  -2   1   3  367.42    8.46  67 0.43632-0.66085-0.47216 0.56893 0.81433-0.58935
  -1  -9   0   21.65    2.07  66 0.45120-0.43657-0.45337-0.34487 0.81374-0.72939
  -1  -6  -1  373.23    3.90  66 0.44740-0.46728-0.45823-0.06210 0.81394-0.83101
  -1  -5  -1  135.55    2.90  66 0.44891-0.48188-0.45631 0.02672 0.81386-0.84014
  -1   5  11   13.09    3.54  66 0.45042-0.65528-0.45437 0.84026 0.81378-0.03250
   0 -10   0   67.13    2.78  66 0.45288-0.32557-0.45120-0.45172 0.81363-0.72568
   0   5   7   50.73    2.89  67 0.44314-0.53352-0.46363 0.86494 0.81413-0.33614
   1  -7  -2    9.64    2.59  67 0.44210-0.24490-0.46494-0.16676 0.81416-0.90751
   1   3   2  501.14    4.56  66 0.45288-0.39870-0.45120 0.69368 0.81363-0.69593
   3  -8  -2   -0.10    2.08  66 0.45456-0.04381-0.44903-0.30141 0.81352-0.90803
   3   2   0 1009.51    5.80  66 0.45120-0.17558-0.45337 0.59161 0.81374-0.84660
   3   3   1  258.43    3.49  67 0.44637-0.18785-0.45954 0.68098 0.81399-0.78137
   3   4   2   19.30    1.66  66 0.45874-0.21704-0.44358 0.74802 0.81322-0.71471
   3   7   9    8.37    3.14  67 0.44729-0.26984-0.45837 0.98203 0.81395-0.22000
   4  -8  -2   12.17    3.37  66 0.45213 0.05885-0.45217-0.31318 0.81368-0.91366
   4   5   3   47.90    1.99  66 0.46041-0.13442-0.44139 0.81464 0.81308-0.65334
   4   6   5  205.51    2.73  66 0.45120-0.14463-0.45337 0.90250 0.81374-0.51373
   4   7   8    1.17    3.05  67 0.44618-0.16577-0.45979 0.97761 0.81400-0.30004
   5   1  -1   69.20    2.13  66 0.45791 0.03484-0.44467 0.47212 0.81328-0.92202
   5   5   3  294.80    2.97  66 0.45288-0.02601-0.45120 0.81041 0.81363-0.65945
   5   7   7   11.95    2.19  66 0.45624-0.07023-0.44685 0.95684 0.81341-0.37821
   6  -7  -2    1.74    4.93  67 0.42764 0.27152-0.48280-0.21855 0.81442-0.93333
   6   5   3   70.19    2.15  66 0.45456 0.07233-0.44903 0.79367 0.81352-0.66429
   6   7   7    4.05    2.31  66 0.45540 0.03090-0.44794 0.94485 0.81347-0.38284
   7   0  -1   25.13    2.68  67 0.44593 0.26018-0.46010 0.36891 0.81401-0.92474
   7   3   1    5.98    1.89  66 0.45120 0.20896-0.45337 0.61790 0.81374-0.80161
   7   4   2   32.17    2.08  66 0.45288 0.19103-0.45120 0.69839 0.81363-0.73557
   7   6   5    3.77    2.20  66 0.45204 0.15376-0.45228 0.85854 0.81369-0.52945
   7   7   7    4.20    2.44  66 0.46041 0.12523-0.44139 0.92355 0.81308-0.38798
   8  -1  -1    6.18    2.83  67 0.44844 0.37102-0.45691 0.26078 0.81389-0.91938
   8   1   0   66.38    3.17  67 0.44583 0.34416-0.46023 0.43772 0.81401-0.86397
   8   5   4   87.91    3.44  67 0.44568 0.27718-0.46042 0.77072 0.81402-0.60072
   9   0   0    7.79    2.31  66 0.45120 0.45150-0.45337 0.32436 0.81374-0.86040
   9   3   2    7.69    2.28  66 0.45456 0.40264-0.44903 0.57789 0.81352-0.73688
   9   4   3    1.71    2.43  66 0.45707 0.38304-0.44576 0.65793 0.81335-0.67094
  -5  -7   5   -1.03    2.08  67 0.43673-0.86813-0.47165-0.12568 0.81440-0.35468
  -5  -6   5    4.36    2.02  67 0.44272-0.88701-0.46416-0.04316 0.81422-0.36314
  -5  -5   5   17.51    2.08  67 0.44272-0.89961-0.46416 0.04727 0.81422-0.37185
  -5  -4   5   37.25    2.12  67 0.43415-0.90333-0.47485 0.14814 0.81445-0.38157
  -5  -2   7   25.79    2.22  67 0.44102-0.94387-0.46631 0.30558 0.81428-0.24893
  -5  -1   9    2.38    3.06  67 0.43329-0.95700-0.47591 0.39101 0.81446-0.10911
  -4  -8   3    2.52    2.11  67 0.43845-0.74949-0.46952-0.21863 0.81436-0.49851
  -4  -3   3  213.58    3.34  67 0.43149-0.80678-0.47812 0.24281 0.81448-0.54488
  -4   0   6   98.43    3.28  67 0.43246-0.85764-0.47693 0.49060 0.81447-0.34679
  -3  -9   2    7.45    2.05  67 0.44187-0.63617-0.46524-0.31939 0.81426-0.57104
  -3  -7   1    9.62    1.81  67 0.43759-0.65275-0.47059-0.12489 0.81438-0.66378
  -3  -4   1   60.87    1.99  67 0.43415-0.68758-0.47485 0.14973 0.81445-0.68968
  -2  -8   0    6.02    2.76  68 0.42983-0.52899-0.48015-0.21288 0.81450-0.73431
  -1  -7  -1    1.56    1.76  67 0.43587-0.44345-0.47272-0.13671 0.81442-0.82356
  -1  -4  -1  768.17    5.06  67 0.43845-0.48379-0.46952 0.13043 0.81436-0.84884
   0  -9  -1   44.78    3.05  67 0.43184-0.31336-0.47769-0.32784 0.81448-0.81054
   1   2   1  103.77    2.98  67 0.43845-0.36788-0.46952 0.62826 0.81436-0.76261
   2 -10  -1   88.27    3.39  67 0.43930-0.10754-0.46845-0.45528 0.81434-0.81176
   2  -8  -2   65.89    2.54  67 0.44102-0.13036-0.46631-0.27020 0.81428-0.90379
   2   6   7    3.49    1.90  67 0.43415-0.33803-0.47485 0.93701 0.81445-0.35612
   3   5   4   26.76    2.59  68 0.42910-0.20702-0.48103 0.86113 0.81450-0.57545
   3   6   6    7.73    1.85  67 0.43587-0.23532-0.47272 0.92887 0.81442-0.43591
   3   7  10    4.81    2.45  67 0.43587-0.26233-0.47272 0.99062 0.81442-0.14565
   4   2   0  461.65    4.17  68 0.43024-0.05438-0.47964 0.60320 0.81449-0.85206
   4   3   1  104.28    2.68  68 0.42784-0.06866-0.48257 0.68992 0.81450-0.78715
   4   4   2  371.18    3.25  67 0.43845-0.09578-0.46952 0.75941 0.81436-0.72046
   4   7   9   10.84    3.28  68 0.42916-0.15153-0.48095 0.99136 0.81450-0.22514
   5  -8  -2    1.73    3.46  68 0.42757 0.18299-0.48290-0.29625 0.81450-0.91851
   5   2   0  113.60    2.95  68 0.43018 0.04595-0.47972 0.58944 0.81449-0.85744
   5   4   2  342.92    3.13  67 0.43415 0.00952-0.47485 0.75060 0.81445-0.72635
   5   6   5   17.70    2.13  67 0.44357-0.03794-0.46309 0.89872 0.81419-0.51933
   5   7   8    5.04    2.29  67 0.43673-0.05485-0.47165 0.97491 0.81440-0.30491
   6  -2  -2   72.35    3.25  67 0.43254 0.20298-0.47682 0.22558 0.81447-0.97581
   6   2   0  211.60    2.87  67 0.44272 0.13332-0.46416 0.56070 0.81422-0.86266
   6   3   1   13.98    1.82  67 0.43415 0.12551-0.47485 0.65337 0.81445-0.79717
   6   4   2  130.50    2.34  67 0.44016 0.10305-0.46738 0.72973 0.81431-0.73121
   6   6   5  130.41    2.61  67 0.44443 0.06101-0.46201 0.88344 0.81416-0.52436
   6   7   8    6.42    2.43  67 0.43673 0.04576-0.47165 0.96113 0.81440-0.31029
   7   5   4   51.64    2.93  68 0.42756 0.19625-0.48290 0.80670 0.81450-0.59641
   8   2   1    8.52    2.80  68 0.42798 0.34509-0.48240 0.54249 0.81450-0.79958
   8   4   3   -0.95    2.88  67 0.43069 0.30891-0.47909 0.70519 0.81449-0.66804
   8   6   6   19.96    2.63  67 0.44102 0.26095-0.46631 0.85176 0.81428-0.46069
  -6  -5   8   15.82    3.67  69 0.41025-0.97813-0.50351 0.07980 0.81413-0.14218
  -5  -8   5    5.84    2.45  68 0.42553-0.84490-0.48539-0.20182 0.81448-0.34543
  -5  -7   4   28.45    3.01  68 0.41281-0.84153-0.50052-0.08927 0.81422-0.42935
  -5  -6   4   39.90    2.09  68 0.41676-0.85760-0.49587-0.00405 0.81434-0.43823
  -5  -5   4   49.20    2.77  68 0.41281-0.86683-0.50052 0.09168 0.81422-0.44686
  -5  -3   5  409.62    4.26  69 0.41235-0.89511-0.50106 0.26499 0.81421-0.38952
  -5  -2   6   18.37    2.76  69 0.41129-0.91024-0.50230 0.34911 0.81417-0.32366
  -5  -1   8   78.87    3.38  68 0.41451-0.93485-0.49853 0.42134 0.81428-0.18322
  -4  -9   3   79.50    2.75  68 0.42116-0.71962-0.49065-0.28682 0.81443-0.49116
  -4  -7   2   77.42    2.24  68 0.41676-0.73645-0.49587-0.09377 0.81434-0.58346
  -4  -6   2  157.68    2.47  68 0.42116-0.75389-0.49064-0.00865 0.81443-0.59164
  -4  -5   2    0.39    1.68  68 0.41764-0.76318-0.49483 0.08552 0.81436-0.60017
  -4   1   8  150.17    4.57  68 0.41281-0.85758-0.50052 0.58965 0.81422-0.20586
  -3 -10   2   33.09    2.61  68 0.41852-0.60026-0.49378-0.38057 0.81438-0.56279
  -3  -8   1   18.57    2.03  68 0.42465-0.62739-0.48645-0.20092 0.81447-0.65413
  -2 -10   1    2.62    2.35  68 0.42640-0.50320-0.48434-0.39781 0.81448-0.64255
  -2  -9   0    2.77    2.78  68 0.41146-0.49670-0.50210-0.28098 0.81418-0.72421
  -2  -3   0  199.89    3.05  68 0.41940-0.58170-0.49274 0.25090 0.81440-0.77819
  -1 -10   0    5.64    2.29  68 0.42203-0.39475-0.48960-0.39932 0.81445-0.72173
  -1  -8  -1    3.50    1.87  68 0.42028-0.41537-0.49169-0.20910 0.81442-0.81303
   0  -6  -2   11.94    2.44  68 0.41235-0.32869-0.50106-0.02623 0.81421-0.91071
   0  -5  -2   39.52    2.46  69 0.40905-0.33790-0.50491 0.06799 0.81408-0.91947
   0   4   5   -0.04    2.24  69 0.41102-0.48130-0.50262 0.82803 0.81416-0.47616
   1 -10  -1   75.40    3.01  68 0.42378-0.19314-0.48750-0.42272 0.81447-0.80601
   1  -8  -2  180.51    3.05  68 0.41764-0.20882-0.49483-0.22743 0.81436-0.89855
   1  -3  -2  224.18    4.28  68 0.42203-0.27610-0.48960 0.21950 0.81445-0.94232
   1   5   6  308.43    3.99  69 0.41096-0.39680-0.50268 0.89658 0.81416-0.41534
   1   6  10   28.70    3.35  68 0.41380-0.42793-0.49936 0.95365 0.81426-0.12504
   2   4   3  312.65    3.26  68 0.42203-0.28356-0.48960 0.80072 0.81445-0.63610
   2   5   5  154.24    3.13  69 0.40990-0.29161-0.50391 0.89066 0.81411-0.49507
   3  -9  -2    0.22    3.21  69 0.41057 0.01274-0.50314-0.33717 0.81414-0.89941
   4   5   4  106.46    2.83  69 0.41235-0.08969-0.50106 0.86670 0.81421-0.58042
   4   6   6   56.63    2.12  68 0.41764-0.11437-0.49483 0.93640 0.81436-0.43994
   4   7  10   21.57    2.74  68 0.41676-0.14209-0.49587 0.99854 0.81434-0.15018
   5   3   1  113.09    2.25  68 0.42553 0.03405-0.48539 0.67858 0.81448-0.79205
   5   6   6   46.77    2.89  69 0.41235-0.00970-0.50106 0.92869 0.81421-0.44554
   5   7   9    9.18    2.47  68 0.42116-0.04261-0.49065 0.98686 0.81443-0.22984
   6   0  -1  455.68    4.59  69 0.41122 0.19463-0.50238 0.42456 0.81417-0.92007
   6   5   4   66.21    2.76  68 0.41325 0.11064-0.50001 0.83644 0.81424-0.58967
   6   6   6    4.77    2.11  68 0.41588 0.08649-0.49691 0.91108 0.81432-0.45035
   7   1   0   20.00    2.65  69 0.40971 0.28003-0.50414 0.49558 0.81411-0.85900
   7   6   6   53.32    2.61  68 0.42553 0.17760-0.48539 0.88459 0.81448-0.45557
   8  -2  -1   10.84    3.05  68 0.41458 0.41726-0.49845 0.21111 0.81428-0.91087
   8   3   2    5.93    2.08  68 0.42378 0.33208-0.48750 0.63181 0.81447-0.73240
   8   5   5    3.03    3.25  69 0.41235 0.30604-0.50106 0.80158 0.81421-0.52451
   9  -1   0    1.59    2.37  68 0.42028 0.49637-0.49169 0.27332 0.81442-0.85209
   9   1   1   -1.43    2.15  68 0.42378 0.46282-0.48750 0.44366 0.81447-0.79479
   9   2   2    5.07    3.17  69 0.41178 0.45805-0.50172 0.54025 0.81419-0.72876
   9   3   3   -1.54    3.22  69 0.41235 0.44061-0.50106 0.62314 0.81421-0.66281
   9   4   4    3.94    2.35  68 0.42203 0.41440-0.48960 0.69464 0.81445-0.59718
  -6  -6   7   39.28    2.78  69 0.40066-0.95322-0.51436 0.00703 0.81365-0.20952
  -6  -5   7   31.18    3.48  69 0.39610-0.96159-0.51953 0.10244 0.81335-0.21796
  -6  -4   8    0.72    3.30  69 0.39797-0.97922-0.51742 0.18343 0.81347-0.15101
  -5  -8   4   20.00    2.34  69 0.40424-0.81947-0.51026-0.17006 0.81385-0.41971
  -5  -4   4    0.69    1.77  69 0.40066-0.86518-0.51436 0.19467 0.81365-0.45619
  -4  -9   2   -2.68    3.05  70 0.39300-0.68606-0.52301-0.24682 0.81312-0.56361
  -4  -8   2   20.54    2.00  69 0.40603-0.71387-0.50821-0.17217 0.81394-0.57398
  -4  -4   2   14.19    1.68  69 0.40245-0.76078-0.51231 0.19414 0.81375-0.60902
  -4  -1   4   26.54    2.56  70 0.39277-0.79580-0.52327 0.46058 0.81310-0.48576
  -3  -9   1   45.57    2.28  69 0.40692-0.59701-0.50718-0.27081 0.81399-0.64459
  -3  -3   1  169.09    2.62  69 0.40514-0.67173-0.50924 0.27436 0.81390-0.69807
  -2  -1   1  356.79    4.50  69 0.40335-0.59441-0.51129 0.44249 0.81380-0.72071
  -1  -9  -1   81.93    3.20  69 0.39663-0.37956-0.51893-0.27196 0.81338-0.80494
  -1  -3  -1 1412.54    7.32  69 0.40066-0.45871-0.51436 0.26578 0.81365-0.85705
  -1  -1   0 1136.45    9.36  70 0.39324-0.47998-0.52275 0.44698 0.81314-0.79953
  -1   4   7    2.64    2.47  70 0.39336-0.57078-0.52261 0.84786 0.81314-0.32127
   0 -10  -1    1.59    2.23  69 0.40066-0.26933-0.51436-0.38203 0.81365-0.80033
   0  -7  -2   21.59    1.93  69 0.40335-0.30709-0.51129-0.10613 0.81380-0.90166
   0   5   8   16.69    2.04  69 0.40156-0.49547-0.51334 0.90705 0.81370-0.26060
   1   4   4  360.22    3.69  69 0.40156-0.36718-0.51334 0.83134 0.81370-0.55569
   1   6  11   12.28    2.58  69 0.40603-0.42385-0.50821 0.95615 0.81394-0.05115
   2  -9  -2   15.93    2.30  69 0.40424-0.08209-0.51026-0.31628 0.81385-0.89457
   2   6   8   40.49    2.27  69 0.40692-0.31258-0.50718 0.96335 0.81399-0.28038
   3   6   7  230.51    3.05  69 0.40424-0.20593-0.51026 0.95917 0.81385-0.36000
   4  -9  -2    1.66    3.53  70 0.39554 0.12868-0.52016-0.33498 0.81331-0.90513
   5   5   4   11.40    1.82  69 0.40870 0.01463-0.50512 0.85702 0.81407-0.58533
   7  -1  -1    9.53    2.65  70 0.39519 0.32391-0.52056 0.33859 0.81328-0.91423
   7   2   1    4.69    2.54  70 0.39461 0.27759-0.52120 0.59632 0.81324-0.79156
   7   3   2   16.89    2.66  70 0.39472 0.26163-0.52108 0.67795 0.81325-0.72535
   7   4   3    5.78    1.86  69 0.40781 0.23307-0.50615 0.74727 0.81403-0.66069
   7   5   5   47.93    3.08  70 0.39368 0.22559-0.52225 0.83892 0.81317-0.52013
   7   6   7   42.93    2.68  69 0.40245 0.19686-0.51231 0.90437 0.81375-0.38063
   8  -3  -1    6.49    3.25  70 0.38867 0.45630-0.52783 0.15100 0.81276-0.90308
   8   0   0  122.53    2.82  69 0.40156 0.40137-0.51334 0.39927 0.81370-0.85524
   8   4   4    7.81    2.98  70 0.39255 0.34362-0.52351 0.74334 0.81308-0.59050
   9  -2   0    2.67    3.48  70 0.39149 0.53765-0.52470 0.21689 0.81300-0.84276
  -6  -7   6    1.04    2.52  70 0.38440-0.92034-0.53258-0.05772 0.81243-0.27320
  -6  -6   6   14.25    2.39  70 0.38532-0.93401-0.53157 0.03104 0.81252-0.28201
  -6  -5   6    5.46    3.05  71 0.37751-0.93983-0.54008 0.13044 0.81172-0.29132
  -6  -4   7   12.98    2.29  70 0.38258-0.96062-0.53458 0.20788 0.81225-0.22512
  -6  -3   8   16.48    3.42  71 0.37426-0.96771-0.54358 0.29976 0.81136-0.15748
  -6  -3   9   -1.41    2.52  70 0.38349-0.98206-0.53358 0.28262 0.81234-0.08448
  -5  -8   3   46.28    3.27  70 0.37727-0.78877-0.54034-0.13327 0.81170-0.49305
  -5  -7   3    3.19    1.89  70 0.38440-0.80861-0.53258-0.05040 0.81243-0.50204
  -5  -6   3  187.03    2.80  70 0.38532-0.82191-0.53157 0.03852 0.81252-0.51041
  -5  -5   3    7.07    2.50  70 0.37676-0.82611-0.54089 0.13863 0.81164-0.51960
  -5  -1   7   80.15    2.71  70 0.38714-0.90300-0.52957 0.45930 0.81269-0.25613
  -4  -7   1   95.84    2.93  71 0.37491-0.69078-0.54288-0.04008 0.81143-0.65508
  -4  -6   1  119.66    2.93  71 0.37487-0.70299-0.54293 0.05021 0.81143-0.66374
  -4  -2   3    1.15    1.58  70 0.38986-0.77785-0.52655 0.38166 0.81292-0.55069
  -3 -10   1   -1.62    2.28  70 0.38532-0.56296-0.53157-0.33520 0.81252-0.63511
  -3  -8   0    0.63    2.67  70 0.37800-0.57743-0.53956-0.14065 0.81178-0.72678
  -3  -7   0   43.60    1.94  70 0.38714-0.59916-0.52957-0.05996 0.81269-0.73610
  -3  -6   0   59.31    1.96  70 0.38896-0.61333-0.52755 0.02765 0.81285-0.74481
  -3  -5   0   71.29    2.01  70 0.37983-0.61705-0.53757 0.12886 0.81197-0.75351
  -2 -10   0    3.62    2.30  70 0.38623-0.45876-0.53057-0.34370 0.81260-0.71502
  -2  -8  -1   54.85    2.81  71 0.37412-0.46889-0.54373-0.14283 0.81134-0.80584
  -2  -7  -1   99.10    2.23  70 0.38349-0.49127-0.53358-0.06273 0.81234-0.81591
  -2  -6  -1  416.22    3.42  70 0.38623-0.50633-0.53057 0.02416 0.81260-0.82441
  -2  -5  -1   58.88    2.49  70 0.37662-0.50954-0.54104 0.12530 0.81162-0.83267
  -1   2   3    0.09    2.25  70 0.37800-0.51476-0.53956 0.71170 0.81178-0.60192
   0  -8  -2    4.78    1.84  70 0.38714-0.27715-0.52957-0.17729 0.81269-0.89224
   0  -4  -2  642.33    5.17  70 0.38440-0.32561-0.53258 0.18627 0.81243-0.92678
   0   5   9   18.36    2.92  71 0.37292-0.47033-0.54502 0.93230 0.81120-0.18408
   1  -9  -2   40.17    2.36  70 0.38896-0.16578-0.52755-0.28550 0.81285-0.88796
   2   3   2  563.84    4.39  70 0.38623-0.23165-0.53057 0.75885 0.81260-0.69984
   2   6   9   16.81    2.18  70 0.38532-0.29494-0.53157 0.98002 0.81252-0.20413
   3   4   3    2.46    1.57  70 0.38986-0.15176-0.52655 0.82403 0.81292-0.63893
   3   5   5  207.22    2.76  70 0.38075-0.16173-0.53657 0.90940 0.81207-0.49749
   3   6   8   38.19    2.94  70 0.37767-0.18319-0.53991 0.98035 0.81174-0.28256
   4   4   3  140.38    2.96  71 0.37693-0.03795-0.54071 0.82353 0.81166-0.64272
   4   6   7    0.83    1.95  70 0.38896-0.09002-0.52755 0.96188 0.81285-0.36375
   5  -2  -2   33.43    2.84  70 0.37968 0.15535-0.53773 0.30116 0.81196-0.96818
   5   0  -1   52.71    2.67  70 0.37893 0.12689-0.53854 0.47470 0.81188-0.91090
   5   4   3   22.10    2.56  71 0.37752 0.06104-0.54007 0.80801 0.81172-0.64786
   5   6   7  145.42    2.79  70 0.38532 0.01365-0.53157 0.95169 0.81252-0.36821
   6  -3  -2    6.01    2.71  71 0.37699 0.27135-0.54064 0.19978 0.81167-0.96462
   6   1   0   20.19    2.48  71 0.37616 0.21346-0.54154 0.54720 0.81157-0.85052
   6   4   3    7.03    1.76  70 0.38986 0.14946-0.52655 0.78123 0.81292-0.65525
   6   5   5   -0.08    2.58  71 0.37708 0.14186-0.54055 0.87000 0.81167-0.51307
   6   6   7    3.76    2.18  70 0.39077 0.10767-0.52554 0.93187 0.81300-0.37471
   7   6   8    2.41    2.47  70 0.38349 0.21156-0.53358 0.91838 0.81234-0.30454
   8   1   1  168.65    3.53  71 0.37701 0.40934-0.54063 0.51006 0.81167-0.78572
   8   3   3   14.19    2.93  71 0.37643 0.37555-0.54124 0.67677 0.81160-0.65441
   8   5   6   18.97    2.43  70 0.38714 0.32881-0.52957 0.82448 0.81269-0.45033
   9   0   1   11.43    2.30  70 0.38349 0.51603-0.53358 0.39841 0.81234-0.78347
   9   3   4    3.63    3.35  70 0.37540 0.47460-0.54235 0.65759 0.81149-0.58661
   9   4   5   17.02    2.61  70 0.39077 0.44130-0.52554 0.72350 0.81300-0.52156
  -6  -7   5   28.50    2.55  71 0.36624-0.89774-0.55241-0.03143 0.81041-0.34567
  -6  -6   5   11.45    2.24  71 0.36438-0.90934-0.55436 0.06151 0.81016-0.35474
  -6  -5   5   35.95    3.00  72 0.35595-0.91278-0.56311 0.15986 0.80895-0.36164
  -6  -4   6   69.55    2.52  71 0.36252-0.93596-0.55631 0.23589 0.80991-0.29753
  -6  -3   7   -0.31    2.92  72 0.35691-0.94620-0.56213 0.32489 0.80910-0.23015
  -5  -9   3   32.60    2.62  71 0.36624-0.76453-0.55241-0.21083 0.81041-0.48220
  -5  -4   3   15.07    2.48  72 0.35784-0.82028-0.56116 0.24841 0.80924-0.52487
  -5  -3   4   16.77    1.88  71 0.37180-0.85080-0.54652 0.31711 0.81112-0.46091
  -5  -2   5    2.87    1.81  71 0.37087-0.86631-0.54751 0.40188 0.81100-0.39503
  -5   0  10   -0.28    3.33  72 0.35878-0.89860-0.56019 0.55939 0.80937-0.03824
  -4 -10   2   60.33    2.85  71 0.37272-0.65433-0.54554-0.31505 0.81123-0.55383
  -4  -9   1   50.95    3.25  72 0.35653-0.64667-0.56252-0.20123 0.80904-0.63472
  -4  -8   1   72.62    2.32  71 0.36809-0.67147-0.55045-0.12246 0.81065-0.64600
  -4  -5   1    7.03    1.70  71 0.36438-0.70613-0.55436 0.15270 0.81016-0.67119
  -4  -3   2  355.43    3.37  71 0.37180-0.74230-0.54652 0.31766 0.81112-0.61538
  -4   0   5  244.81    4.31  71 0.35832-0.77902-0.56067 0.58088 0.80931-0.41621
  -3  -9   0   56.46    2.29  71 0.36438-0.55048-0.55436-0.21569 0.81016-0.71620
  -3  -4   0  410.59    3.92  72 0.35784-0.60731-0.56116 0.24253 0.80924-0.75916
  -3  -1   2  156.69    3.00  71 0.36717-0.66228-0.55143 0.48919 0.81053-0.63793
  -3   0   3  156.90    3.73  72 0.35679-0.66883-0.56224 0.58275 0.80908-0.57040
  -2  -9  -1  105.73    3.22  71 0.35832-0.44051-0.56067-0.21676 0.80931-0.79469
  -1 -10  -1   48.92    2.52  71 0.37180-0.34102-0.54652-0.33476 0.81112-0.79305
  -1  -7  -2   -0.46    2.44  72 0.35831-0.36205-0.56068-0.04277 0.80930-0.89273
  -1  -6  -2   20.69    2.47  71 0.35847-0.37471-0.56051 0.04796 0.80933-0.90134
   0  -9  -2   95.91    2.61  71 0.36438-0.24233-0.55436-0.24379 0.81016-0.88054
   0   5  10    5.29    3.03  72 0.35221-0.45310-0.56694 0.94573 0.80837-0.10579
   1 -10  -2   27.78    3.44  72 0.35581-0.12011-0.56325-0.33957 0.80893-0.87486
   1   5   7   54.61    2.24  71 0.36717-0.35694-0.55143 0.93776 0.81053-0.33728
   2 -10  -2    1.84    2.53  71 0.36438-0.02875-0.55436-0.36240 0.81016-0.88176
   2   1   0 1396.35    8.61  71 0.35879-0.17154-0.56018 0.62235 0.80937-0.82775
   2   2   1   36.49    1.92  71 0.36158-0.19049-0.55728 0.70235 0.80978-0.76317
   2   5   6  394.66    3.65  71 0.36438-0.25008-0.55436 0.93425 0.81016-0.41662
   2   6  10   23.89    2.47  71 0.37087-0.28424-0.54751 0.98834 0.81100-0.12788
   2   6  11    1.53    2.33  71 0.36345-0.28170-0.55534 0.98903 0.81004-0.05299
   3  -6  -3   37.12    3.04  72 0.35569 0.03294-0.56338 0.00067 0.80891-0.99484
   3   0  -1  365.87    4.59  71 0.36438-0.06009-0.55436 0.51959 0.81016-0.89977
   3   3   2  107.65    2.80  72 0.35645-0.10172-0.56260 0.77678 0.80903-0.70134
   3   6   9    6.14    2.88  71 0.35940-0.16976-0.55955 0.99313 0.80946-0.20675
   4   0  -1  847.85    6.23  71 0.36040 0.04457-0.55851 0.50941 0.80961-0.90371
   4   5   5   41.07    2.02  71 0.36902-0.05062-0.54947 0.90801 0.81077-0.50201
   4   6   8   11.93    2.03  71 0.36624-0.07202-0.55241 0.97992 0.81041-0.28606
   5   3   2   55.56    2.53  72 0.35649 0.09960-0.56255 0.74888 0.80903-0.71132
   5   5   5  570.80    3.84  71 0.36902 0.04981-0.54947 0.89401 0.81077-0.50685
   5   6   8    6.62    2.10  71 0.36438 0.03098-0.55436 0.96744 0.81016-0.29202
   6   2   1  117.55    2.37  71 0.36624 0.20651-0.55241 0.64090 0.81041-0.78349
   6   3   2  175.72    2.62  71 0.37272 0.18279-0.54554 0.71771 0.81123-0.71848
   6   6   8   25.81    2.42  71 0.37087 0.12410-0.54751 0.94665 0.81100-0.29777
   6   6   9    8.57    3.45  72 0.35611 0.13610-0.56295 0.95536 0.80898-0.22161
   7   4   4    9.05    2.00  71 0.36624 0.27027-0.55241 0.78537 0.81041-0.58279
   7   5   6  128.45    2.76  71 0.36531 0.25093-0.55339 0.86300 0.81029-0.44299
   8  -4  -1   43.03    3.99  71 0.36075 0.49683-0.55815 0.09130 0.80966-0.88884
   8  -1   0   -0.12    2.85  72 0.35691 0.45919-0.56213 0.35885 0.80910-0.84144
   8   2   2    0.58    2.00  71 0.37180 0.39721-0.54652 0.60113 0.81112-0.71939
   8   4   5   25.45    3.20  72 0.35865 0.37419-0.56033 0.77174 0.80935-0.51177
   8   5   7    9.11    2.53  71 0.36438 0.34823-0.55436 0.84171 0.81016-0.37351
   9   1   2    4.64    2.33  71 0.36809 0.51461-0.55045 0.49882 0.81065-0.71655
   9   2   3   14.05    2.32  71 0.36624 0.49945-0.55241 0.58382 0.81041-0.65122
  -6  -8   4   25.82    3.53  73 0.33911-0.85442-0.58035-0.08595 0.80609-0.40724
  -6  -7   4   10.73    3.17  72 0.34065-0.86972-0.57883 0.00249 0.80637-0.41814
  -6  -6   4    6.17    2.93  72 0.33875-0.87874-0.58071 0.09458 0.80602-0.42540
  -6  -4   5   34.00    3.00  73 0.33550-0.90520-0.58391 0.27109 0.80542-0.36618
  -6  -2   9    8.88    3.51  73 0.34094-0.95212-0.57854 0.41815 0.80642-0.08745
  -5  -9   2   -0.98    3.21  73 0.33768-0.73110-0.58176-0.17482 0.80583-0.55081
  -5  -8   2  127.68    2.71  72 0.34575-0.75324-0.57373-0.09225 0.80726-0.56275
  -5  -7   2   31.52    2.18  72 0.34953-0.76990-0.56992-0.00582 0.80789-0.57203
  -5  -6   2  388.64    3.40  72 0.34670-0.77924-0.57278 0.08724 0.80742-0.58005
  -5  -1   6   18.85    2.03  72 0.34670-0.85877-0.57278 0.50929 0.80742-0.32546
  -5   0   9   40.14    3.63  72 0.34383-0.88068-0.57566 0.58116 0.80693-0.11014
  -4 -10   1    0.50    3.26  73 0.33911-0.61692-0.58035-0.27301 0.80609-0.62346
  -4  -4   1   -1.49    2.27  73 0.34006-0.69382-0.57941 0.26798 0.80626-0.67749
  -4   1   7   19.16    2.92  73 0.34006-0.78101-0.57941 0.67529 0.80626-0.27233
  -3 -10   0    5.61    2.31  72 0.34481-0.51868-0.57468-0.28585 0.80710-0.70431
  -3  -2   1  324.17    3.54  72 0.34764-0.62630-0.57183 0.42655 0.80758-0.70024
  -2 -10  -1  182.92    3.86  73 0.33776-0.40721-0.58168-0.28578 0.80584-0.78190
  -2  -4  -1  152.19    2.58  72 0.35142-0.49672-0.56801 0.24255 0.80820-0.83760
  -2  -2   0 1090.54    6.56  72 0.35330-0.52796-0.56609 0.41412 0.80850-0.78100
  -1  -8  -2   44.13    2.11  72 0.34953-0.34080-0.56992-0.12384 0.80789-0.88197
  -1  -5  -2  213.44    2.88  72 0.34481-0.37346-0.57468 0.15223 0.80710-0.90751
  -1   3   5  168.54    4.07  73 0.33232-0.49080-0.58702 0.83622 0.80481-0.45282
  -1   4   8    5.27    2.59  73 0.33427-0.51478-0.58511 0.90295 0.80518-0.23889
   0 -10  -2   10.26    3.24  73 0.33774-0.20234-0.58171-0.30649 0.80584-0.86666
   0   4   6   24.52    2.53  73 0.33668-0.41010-0.58275 0.90073 0.80564-0.39391
   0   5  11    5.09    3.26  72 0.34390-0.44916-0.57558 0.94692 0.80694-0.02994
   0   5  12    4.23    3.55  72 0.34348-0.45166-0.57601 0.93957 0.80687 0.04416
   1   3   3    4.94    2.33  73 0.33625-0.28683-0.58317 0.81803 0.80556-0.61311
   2  -7  -3   19.42    2.85  72 0.34431-0.04300-0.57518-0.06342 0.80701-0.98015
   2  -6  -3   23.09    1.97  72 0.34953-0.06067-0.56992 0.02148 0.80789-0.98950
   2   4   4  180.46    2.66  72 0.35142-0.21713-0.56801 0.87213 0.80820-0.55539
   3  -7  -3   30.07    3.04  72 0.34220 0.05902-0.57729-0.07590 0.80664-0.98485
   3  -5  -3    1.14    3.17  73 0.32869 0.04735-0.59054 0.11851 0.80409-0.99977
   3   5   6 1116.90    5.67  73 0.33951-0.12463-0.57996 0.94506 0.80616-0.41713
   3   6  10    1.94    2.21  72 0.34764-0.16066-0.57183 0.99920 0.80758-0.13040
   3   6  11   18.02    3.55  73 0.33938-0.15588-0.58009 0.99896 0.80614-0.05360
   4  -2  -2   92.69    3.94  73 0.32840 0.10630-0.59083 0.36815 0.80403-0.95587
   4   3   2   12.32    1.64  72 0.34953 0.00602-0.56992 0.76982 0.80789-0.70584
   4   6   9    2.84    2.18  72 0.34953-0.05800-0.56992 0.99068 0.80789-0.20938
   4   6  10   -1.65    3.17  73 0.33768-0.05082-0.58176 0.99542 0.80583-0.13325
   5   1   0  126.69    2.49  72 0.34953 0.13939-0.56992 0.58991 0.80789-0.84226
   5   2   1   15.87    1.71  72 0.34386 0.12932-0.57563 0.67759 0.80694-0.77542
   5   6   9   18.19    2.41  72 0.34764 0.04344-0.57183 0.97711 0.80758-0.21456
   5   6  10    2.65    3.45  73 0.33625 0.05166-0.58317 0.98092 0.80556-0.13854
   6  -1  -1  258.11    3.96  73 0.34002 0.27885-0.57945 0.41119 0.80625-0.90203
   6   4   4  161.76    2.51  72 0.34481 0.19186-0.57468 0.82170 0.80710-0.57460
   6   5   6   32.85    2.17  72 0.34670 0.16908-0.57278 0.89568 0.80742-0.43405
   7  -2  -1   18.13    2.77  72 0.34114 0.39087-0.57834 0.30472 0.80645-0.89800
   7   0   0    3.16    1.80  72 0.35048 0.35203-0.56896 0.46790 0.80805-0.84408
   7   3   3    7.44    1.85  72 0.34575 0.30821-0.57373 0.72303 0.80726-0.64632
   7   5   7   12.57    3.16  73 0.33983 0.27248-0.57964 0.88031 0.80622-0.36400
   8   3   4    4.15    2.94  73 0.33743 0.41147-0.58201 0.71073 0.80578-0.57670
   9  -1   1    3.08    2.32  72 0.34481 0.56791-0.57468 0.34863 0.80710-0.76965
   9   3   5    5.05    3.40  73 0.34003 0.50480-0.57945 0.68562 0.80626-0.50446
  -6  -5   4   16.77    2.05  73 0.32589-0.87934-0.59348 0.19777 0.80344-0.43052
  -6  -3   6   47.63    2.38  73 0.32973-0.91689-0.58978 0.36056 0.80422-0.29988
  -6  -2   8   35.37    2.51  73 0.32877-0.93535-0.59070 0.43645 0.80403-0.15901
  -5  -5   2   34.79    1.99  73 0.33356-0.77939-0.58605 0.19031 0.80498-0.58615
  -5  -3   3   42.50    2.68  73 0.32062-0.79604-0.59851 0.37684 0.80233-0.52735
  -5  -2   4  211.81    3.57  73 0.32011-0.81185-0.59900 0.45986 0.80222-0.46087
  -5   0   8    3.56    2.82  73 0.31874-0.85051-0.60029 0.61261 0.80192-0.17923
  -4  -8   0   64.93    2.22  73 0.32397-0.62264-0.59532-0.07042 0.80304-0.71234
  -4  -7   0   11.53    1.86  73 0.32589-0.63737-0.59348 0.01855 0.80344-0.72204
  -4  -6   0  204.72    3.15  74 0.31954-0.64418-0.59954 0.11421 0.80209-0.72916
  -3  -8  -1    7.21    1.93  73 0.32493-0.52057-0.59440-0.07821 0.80324-0.79167
  -3  -7  -1    3.14    1.83  73 0.32781-0.53629-0.59163 0.00773 0.80384-0.80108
  -3  -6  -1    3.90    2.32  73 0.32188-0.54242-0.59732 0.10666 0.80260-0.80956
  -2   3   7    2.95    2.57  74 0.32056-0.58547-0.59857 0.84724 0.80231-0.29687
  -1  -9  -2   26.40    2.13  73 0.33452-0.31267-0.58512-0.19911 0.80516-0.86946
   0  -3  -2  466.31    5.33  74 0.31601-0.26982-0.60286 0.34711 0.80131-0.92397
   1  -8  -3  249.53    4.03  74 0.31826-0.10423-0.60075-0.11427 0.80181-0.96018
   1  -7  -3  278.62    3.56  73 0.32877-0.12786-0.59070-0.03393 0.80403-0.97158
   1  -6  -3  119.84    2.66  73 0.32685-0.13871-0.59256 0.05847 0.80364-0.97988
   1   4   5  245.88    3.14  73 0.32973-0.29941-0.58978 0.90087 0.80422-0.47143
   2  -8  -3  164.00    3.32  73 0.32781-0.01438-0.59163-0.13788 0.80384-0.96741
   2  -5  -3    5.91    1.75  73 0.32973-0.05377-0.58978 0.13169 0.80422-0.99436
   2   5   7    0.96    1.80  73 0.32685-0.21724-0.59256 0.96509 0.80364-0.33579
   3  -8  -3    0.12    2.95  73 0.32011 0.09365-0.59900-0.14315 0.80222-0.97102
   3   1   0 1341.46    7.12  73 0.32877-0.04058-0.59070 0.63884 0.80403-0.82788
   3   2   1    3.76    1.68  73 0.33356-0.06225-0.58605 0.71700 0.80498-0.76354
   3   4   4  357.71    3.26  73 0.32781-0.09285-0.59163 0.88149 0.80384-0.55577
   4  -6  -3  347.94    7.91  74 0.30275 0.18684-0.61514 0.03820 0.79819-0.98982
   4   1   0    9.24    1.59  73 0.33069 0.05763-0.58885 0.62310 0.80441-0.83311
   4   2   1    1.40    1.57  73 0.33069 0.04155-0.58885 0.70354 0.80441-0.76920
   4   4   4  242.32    3.26  73 0.32115 0.01420-0.59800 0.87286 0.80244-0.55856
   4   5   6    1.23    1.80  73 0.33260-0.01815-0.58699 0.93863 0.80479-0.42162
   4   6  11   10.53    2.63  73 0.33069-0.04810-0.58885 0.99458 0.80441-0.05742
   5   4   4   14.60    1.86  73 0.32973 0.10659-0.58978 0.85122 0.80422-0.56664
   5   5   6  176.02    2.71  73 0.33547 0.07973-0.58418 0.92141 0.80534-0.42687
   6  -4  -2   47.03    3.97  74 0.31132 0.35006-0.60725 0.17544 0.80024-0.94420
   6   3   3   18.09    2.57  74 0.31800 0.23366-0.60100 0.76573 0.80175-0.63584
   6   5   7    0.24    2.89  73 0.32108 0.18878-0.59808 0.91447 0.80242-0.35430
   7   1   1    0.73    1.77  73 0.33356 0.35308-0.58605 0.56950 0.80498-0.77473
   7   2   2    2.42    1.88  73 0.33356 0.33508-0.58605 0.65359 0.80498-0.70901
   7   4   5   28.55    2.15  73 0.33069 0.30257-0.58885 0.81459 0.80441-0.50202
   7   5   8   -2.85    3.34  74 0.32059 0.28736-0.59854 0.89224 0.80232-0.28456
   8   0   1    3.21    2.03  73 0.32685 0.47145-0.59256 0.47115 0.80364-0.77113
   8   1   2   29.19    2.94  74 0.31795 0.46472-0.60104 0.56429 0.80174-0.70214
   8   2   3   15.95    2.85  74 0.32105 0.44355-0.59810 0.64351 0.80242-0.63658
   8   4   6   13.88    2.35  73 0.33069 0.39840-0.58885 0.79306 0.80441-0.43277
   9   0   2    1.43    3.18  73 0.32373 0.57181-0.59555 0.45318 0.80299-0.69973
   9   1   3   25.50    3.34  74 0.31940 0.55912-0.59967 0.54167 0.80206-0.63321
   9   2   4    4.50    2.28  73 0.32589 0.53690-0.59348 0.61794 0.80344-0.56754
  -6  -8   3   38.83    2.56  74 0.31334-0.82376-0.60526-0.05466 0.80081-0.47646
  -6  -7   3    2.49    2.10  74 0.31334-0.83846-0.60526 0.03741 0.80081-0.48412
  -6  -6   3    1.01    1.97  74 0.30653-0.84338-0.61158 0.13320 0.79922-0.49238
  -6  -4   4   18.44    2.74  75 0.30066-0.86644-0.61693 0.31137 0.79778-0.43460
  -6  -3   5   24.86    2.86  75 0.29947-0.88118-0.61801 0.39548 0.79748-0.36722
  -6  -2   7   28.45    3.14  74 0.30366-0.90797-0.61420 0.46801 0.79852-0.22917
  -5  -9   1   82.11    3.45  74 0.30121-0.69147-0.61644-0.13283 0.79792-0.61967
  -5  -8   1   83.50    2.41  74 0.30848-0.71132-0.60978-0.04959 0.79968-0.62970
  -5  -7   1  181.45    2.72  74 0.30848-0.72458-0.60978 0.04097 0.79968-0.63857
  -5  -6   1   14.06    2.58  75 0.30066-0.72969-0.61693 0.13820 0.79778-0.64508
  -5  -4   2    0.80    1.78  74 0.30750-0.76526-0.61068 0.30605 0.79945-0.59015
  -4 -10   0   92.82    3.73  75 0.30005-0.57337-0.61748-0.22883 0.79763-0.68998
  -4  -9   0   45.00    2.36  74 0.31431-0.60032-0.60436-0.15176 0.80103-0.70246
  -4  -5   0    9.47    2.35  74 0.30142-0.63836-0.61624 0.22240 0.79797-0.73473
  -4  -3   1  459.26    4.07  75 0.29863-0.66489-0.61877 0.39697 0.79727-0.67541
  -4  -2   2  101.40    2.34  74 0.31334-0.69670-0.60526 0.46653 0.80081-0.61334
  -4  -1   3   36.74    1.96  74 0.30653-0.70621-0.61158 0.55608 0.79922-0.54672
  -3 -10  -1    9.87    3.25  75 0.29851-0.46744-0.61888-0.23493 0.79724-0.76871
  -3  -9  -1   -2.74    1.99  74 0.31431-0.49713-0.60436-0.15855 0.80103-0.78110
  -3  -5  -1  239.59    3.26  74 0.30269-0.53630-0.61509 0.21373 0.79828-0.81437
  -3  -3   0    3.74    1.70  74 0.31237-0.57525-0.60617 0.37847 0.80059-0.75833
  -2  -9  -2   54.49    3.08  75 0.29814-0.37556-0.61922-0.15110 0.79714-0.85663
  -2  -8  -2  140.40    2.47  74 0.30750-0.39845-0.61068-0.06884 0.79945-0.86874
  -2  -7  -2  111.21    2.33  74 0.31140-0.41452-0.60707 0.01729 0.80036-0.87751
  -2  -6  -2   13.81    2.51  74 0.30280-0.41920-0.61499 0.11598 0.79831-0.88475
  -1 -10  -2   -2.81    2.22  74 0.31140-0.27671-0.60707-0.26757 0.80036-0.85674
  -1  -4  -2 1483.89    6.92  74 0.30750-0.34901-0.61068 0.27865 0.79945-0.90864
  -1  -2  -1  102.26    2.86  74 0.30750-0.37799-0.61068 0.45230 0.79945-0.85126
  -1   4   9   12.85    2.81  75 0.29669-0.48186-0.62052 0.93113 0.79677-0.15514
   0  -8  -3    8.34    2.75  75 0.29674-0.18200-0.62048-0.08040 0.79679-0.95022
   0  -7  -3   29.74    2.66  74 0.30066-0.20048-0.61693 0.00712 0.79778-0.96035
   1  -9  -3   55.23    3.27  75 0.29857-0.07156-0.61882-0.18642 0.79726-0.94619
   1  -5  -3   14.58    2.46  74 0.30172-0.12571-0.61597 0.17218 0.79804-0.98312
   2  -9  -3   27.61    3.33  74 0.30066 0.02603-0.61693-0.20236 0.79778-0.95270
   2   5   8    5.79    2.69  75 0.29760-0.19088-0.61970 0.98524 0.79701-0.25445
   3   5   7  110.24    2.48  74 0.30750-0.09629-0.61068 0.96954 0.79945-0.33690
   4  -7  -3   14.59    3.20  74 0.30066 0.20134-0.61693-0.05046 0.79778-0.98035
   4   5   7    4.12    2.55  75 0.30108 0.01024-0.61655 0.95971 0.79788-0.34072
   5   5   7   -0.28    1.96  74 0.30750 0.10402-0.61068 0.94054 0.79945-0.34663
   6   0   0  668.29    5.05  75 0.30066 0.30186-0.61693 0.53163 0.79778-0.82786
   6   2   2   67.03    2.78  75 0.29847 0.27067-0.61891 0.70065 0.79723-0.69632
   6   4   5    1.83    1.78  74 0.30555 0.22646-0.61247 0.85228 0.79898-0.49150
   6   5   8   12.17    3.10  75 0.30066 0.20654-0.61693 0.92570 0.79778-0.27548
   7   3   4   36.12    2.84  75 0.30099 0.34801-0.61663 0.75933 0.79786-0.56101
   7   4   6    6.50    2.78  75 0.30066 0.32734-0.61693 0.83675 0.79778-0.42051
   8  -2   0    1.69    2.07  74 0.31042 0.51784-0.60798 0.31416 0.80014-0.82300
   8   3   5    8.80    2.97  75 0.30109 0.44420-0.61654 0.73743 0.79789-0.49164
   8   4   7   -2.77    2.40  74 0.30750 0.41735-0.61068 0.80843 0.79945-0.35309
   9  -2   1    0.48    2.42  74 0.30750 0.61771-0.61068 0.29406 0.79945-0.75276
  -7  -6   5   16.92    3.42  75 0.28056-0.92511-0.63481 0.15525 0.79229-0.33211
  -7  -5   6   12.71    3.32  75 0.28448-0.94637-0.63140 0.23520 0.79339-0.26721
  -7  -4   7    4.26    3.42  76 0.27881-0.95487-0.63632 0.32273 0.79180-0.19867
  -6  -8   2   24.36    3.22  75 0.28096-0.78891-0.63446-0.01756 0.79241-0.54276
  -6  -7   2   51.21    3.05  76 0.27966-0.79964-0.63559 0.07340 0.79204-0.55037
  -6  -5   3  165.35    2.71  75 0.28987-0.83936-0.62666 0.23810 0.79485-0.49663
  -5  -5   1   -0.32    2.34  76 0.28146-0.72341-0.63403 0.24644 0.79255-0.64901
  -5  -1   5  137.86    2.86  75 0.29381-0.80189-0.62315 0.56723 0.79589-0.38820
  -5   0   7    8.93    2.75  76 0.27532-0.80322-0.63932 0.65862 0.79079-0.24308
  -2 -10  -2   16.62    3.19  75 0.28056-0.34650-0.63482-0.22517 0.79229-0.84337
  -2  -5  -2  188.99    3.10  76 0.28032-0.40938-0.63502 0.22648 0.79223-0.88742
  -2  -3  -1  109.31    2.45  75 0.29676-0.45519-0.62051 0.38548 0.79665-0.83468
  -1   4  10   14.08    2.99  76 0.27619-0.46539-0.63858 0.94197 0.79105-0.07453
  -1   4  12    5.27    3.57  76 0.27558-0.47204-0.63911 0.92783 0.79087 0.07442
   0  -9  -3   30.57    3.06  75 0.28096-0.15482-0.63446-0.15676 0.79241-0.93780
   0  -6  -3  267.76    3.33  75 0.29282-0.20479-0.62403 0.10393 0.79563-0.96680
   0   4   7  485.51    5.10  76 0.27862-0.35622-0.63649 0.94726 0.79174-0.30450
   1   5  12    9.94    2.61  75 0.28987-0.29867-0.62666 0.97730 0.79485 0.05084
   2   3   3    5.09    1.80  75 0.28987-0.13873-0.62666 0.84759 0.79485-0.60784
   2   4   5   65.73    2.10  75 0.28987-0.15894-0.62666 0.92371 0.79485-0.46736
   3  -9  -3   11.09    3.42  75 0.28346 0.14329-0.63229-0.20108 0.79310-0.95399
   3  -2  -2  782.86   10.68  76 0.27142 0.06287-0.64265 0.43423 0.78965-0.93628
   3   5   8  142.98    3.37  76 0.28021-0.07296-0.63512 0.98566 0.79219-0.25404
   4  -8  -3    3.03    3.93  76 0.27370 0.24110-0.64071-0.11636 0.79032-0.96373
   4   3   3   54.74    2.53  76 0.27929 0.07241-0.63591 0.82897 0.79193-0.61495
   4   5   8   26.63    2.83  76 0.27823 0.02896-0.63683 0.97356 0.79163-0.25913
   5  -3  -2   93.21    4.06  76 0.27142 0.27656-0.64265 0.31519 0.78965-0.93749
   5  -1  -1   30.96    2.60  76 0.28244 0.23648-0.63318 0.47881 0.79282-0.88329
   5   3   3  358.02    3.18  75 0.29381 0.15837-0.62315 0.80150 0.79589-0.62346
   5   4   5   36.65    1.94  75 0.28690 0.14599-0.62927 0.88324 0.79405-0.48193
   5   5   8   13.06    2.06  75 0.28591 0.12203-0.63014 0.95278 0.79378-0.26653
   6   1   1  186.59    2.76  75 0.28987 0.29606-0.62666 0.62405 0.79485-0.75943
   6   5   9    8.70    2.31  75 0.28591 0.21859-0.63014 0.93162 0.79378-0.19630
   7  -3  -1   26.14    2.29  75 0.28888 0.45570-0.62753 0.26336 0.79459-0.87857
   7  -1   0   50.35    2.19  75 0.28888 0.42658-0.62753 0.43710 0.79459-0.82147
   7   2   3   95.09    2.95  76 0.27951 0.38641-0.63572 0.69560 0.79200-0.62162
   8   2   4   35.03    3.05  76 0.27956 0.48313-0.63568 0.67436 0.79201-0.55196
   9  -1   2   17.49    3.44  76 0.28096 0.62737-0.63446 0.40220 0.79241-0.68038
   9   2   5    1.92    2.40  75 0.29184 0.56676-0.62491 0.64207 0.79537-0.48593
  -7  -7   4    4.06    2.48  76 0.26600-0.89441-0.64729 0.08561 0.78796-0.39283
  -7  -5   5   17.26    3.23  76 0.26153-0.91975-0.65102 0.26246 0.78657-0.33422
  -7  -4   6    0.90    3.21  77 0.25898-0.93111-0.65313 0.34691 0.78577-0.26688
  -6  -9   2    7.04    2.48  76 0.27698-0.77138-0.63797-0.10410 0.79122-0.53312
  -6  -6   2    4.75    1.99  76 0.26800-0.80117-0.64561 0.17440 0.78857-0.55728
  -6  -4   3   17.08    2.68  77 0.26036-0.82182-0.65199 0.35402 0.78621-0.49699
  -6  -3   4   17.60    2.71  77 0.25911-0.83739-0.65302 0.43789 0.78581-0.42997
  -6  -2   6   61.08    2.39  76 0.27499-0.87452-0.63968 0.50051 0.79064-0.29456
  -6  -1   9    4.17    3.39  76 0.26099-0.88493-0.65147 0.58061 0.78641-0.07619
  -5  -9   0   10.98    3.14  76 0.26099-0.64746-0.65147-0.09022 0.78641-0.68258
  -5  -8   0   16.04    2.06  76 0.26500-0.66419-0.64813-0.00264 0.78765-0.69233
  -5  -7   0  194.59    3.20  77 0.26099-0.67320-0.65147 0.08999 0.78641-0.69988
  -5  -3   2  156.46    3.16  77 0.26149-0.73279-0.65106 0.43661 0.78656-0.58597
  -5  -2   3   18.54    2.49  77 0.25971-0.74668-0.65253 0.52122 0.78600-0.51903
  -4  -9  -1   17.72    2.19  76 0.26600-0.54937-0.64729-0.10154 0.78796-0.76337
  -4  -8  -1  188.81    2.76  76 0.27100-0.56667-0.64308-0.01551 0.78946-0.77391
  -4  -7  -1   36.38    1.96  76 0.26900-0.57687-0.64477 0.07599 0.78887-0.78154
  -4  -4   0  293.84    3.04  76 0.26800-0.61834-0.64561 0.34129 0.78857-0.73365
  -4   0   4  182.63    3.84  77 0.25804-0.67444-0.65391 0.68134 0.78548-0.46672
  -3  -8  -2   37.42    2.72  76 0.26154-0.45346-0.65102-0.01413 0.78658-0.85050
  -3  -7  -2  357.89    3.76  77 0.25949-0.46296-0.65271 0.07723 0.78593-0.85814
  -3  -4  -1  455.55    3.66  76 0.26700-0.51298-0.64645 0.33523 0.78826-0.81286
  -1  -9  -3   93.11    3.26  77 0.25846-0.23164-0.65356-0.12375 0.78561-0.92498
  -1  -8  -3    3.46    1.90  76 0.26700-0.25372-0.64645-0.04032 0.78826-0.93672
  -1  -7  -3  135.26    2.54  76 0.26600-0.26556-0.64729 0.05124 0.78796-0.94547
  -1   4  11    2.88    3.19  76 0.26674-0.45934-0.64667 0.94137 0.78818 0.00236
   0 -10  -3   58.16    3.47  77 0.25994-0.12114-0.65234-0.22851 0.78608-0.92231
   0  -5  -3   53.94    2.56  76 0.26229-0.18701-0.65039 0.22081 0.78681-0.96720
   1 -10  -3    6.94    2.41  76 0.27000-0.03130-0.64392-0.25132 0.78917-0.93017
   1   2   2 1402.62    8.23  76 0.26263-0.19576-0.65011 0.80175 0.78692-0.66025
   1   4   6  237.48    3.17  76 0.26900-0.24229-0.64477 0.94832 0.78887-0.38091
   2 -10  -3    9.89    3.69  76 0.26572 0.07335-0.64753-0.26191 0.78787-0.93475
   2   5   9   23.18    2.11  76 0.27698-0.17357-0.63797 0.99624 0.79122-0.17413
   2   5  10   38.14    3.24  77 0.26233-0.16307-0.65035 0.99976 0.78683-0.09405
   2   5  11    4.61    3.12  76 0.26015-0.16469-0.65216 0.99680 0.78614-0.01942
   2   5  12    6.04    3.43  77 0.26099-0.16934-0.65147 0.98821 0.78641 0.05514
   3   3   3   58.21    1.96  76 0.27499-0.02418-0.63968 0.84661 0.79064-0.60824
   3   4   5  486.80    3.81  76 0.27400-0.04295-0.64053 0.92297 0.79035-0.46732
   3   5   9    9.58    2.74  77 0.26125-0.05793-0.65126 0.99388 0.78649-0.17368
   4   4   5  184.41    2.56  76 0.27499 0.05655-0.63968 0.90797 0.79064-0.47271
   4   5   9    4.24    2.84  77 0.26149 0.04230-0.65106 0.98046 0.78656-0.17892
   5   2   2   23.36    1.70  76 0.26600 0.20375-0.64729 0.74153 0.78796-0.68218
   5   5   9    9.56    2.20  76 0.27000 0.13365-0.64392 0.95919 0.78917-0.18690
   5   5  10    2.79    3.25  77 0.26047 0.14036-0.65190 0.96026 0.78624-0.10931
   6  -5  -2    2.95    3.56  77 0.24797 0.42629-0.66211 0.13982 0.78220-0.91845
   6  -2  -1  226.16    3.95  77 0.26192 0.36997-0.65070 0.39201 0.78670-0.87375
   6   3   4  197.67    2.61  76 0.26900 0.28034-0.64477 0.80128 0.78887-0.54743
   6   4   6    0.89    1.79  76 0.27300 0.25465-0.64138 0.87366 0.79006-0.40865
   6   5  10    9.96    2.55  76 0.27599 0.22373-0.63883 0.93315 0.79093-0.11957
   7   0   1    3.32    1.83  76 0.26800 0.43090-0.64561 0.53893 0.78857-0.74958
   7   1   2   -0.03    1.80  76 0.26600 0.41577-0.64729 0.62359 0.78796-0.68268
   7   3   5    1.47    2.75  76 0.26400 0.38251-0.64897 0.78371 0.78734-0.47644
   7   4   7    1.37    2.12  76 0.27499 0.35004-0.63968 0.85011 0.79064-0.33877
   8  -3   0   17.66    3.36  76 0.26429 0.57656-0.64872 0.26379 0.78743-0.79956
   8  -1   1   -1.25    2.06  76 0.27499 0.53712-0.63968 0.42874 0.79064-0.74811
   8   0   2   -3.00    2.82  77 0.26149 0.53363-0.65106 0.52300 0.78656-0.67785
   8   1   3   11.90    2.85  76 0.26278 0.51544-0.64999 0.60333 0.78696-0.61167
   8   3   6   31.30    2.41  76 0.27300 0.46905-0.64138 0.75550 0.79006-0.41011
   9   0   3    1.08    2.28  76 0.27200 0.61923-0.64223 0.49326 0.78976-0.61116
   9   1   4   -0.13    2.39  76 0.27698 0.59808-0.63797 0.57162 0.79122-0.54720
   9   2   6    6.87    3.44  76 0.26269 0.59137-0.65006 0.65930 0.78693-0.40166
  -7  -7   3   11.97    3.36  77 0.23940-0.86261-0.66903 0.11399 0.77929-0.45798
  -7  -6   4   51.31    2.59  77 0.25506-0.89586-0.65646 0.18422 0.78452-0.39846
  -7  -3   8    1.58    2.56  77 0.24799-0.94305-0.66219 0.43209 0.78221-0.12357
  -6  -9   1   26.88    3.57  77 0.24227-0.73313-0.66676-0.06810 0.78028-0.59777
  -6  -8   1   26.20    2.30  77 0.24495-0.74789-0.66463 0.02038 0.78119-0.60686
  -6  -7   1   27.35    2.93  78 0.23955-0.75561-0.66891 0.11458 0.77935-0.61319
  -6  -5   2   60.70    2.21  77 0.24698-0.79294-0.66301 0.28186 0.78187-0.55878
  -6  -2   5    4.99    2.68  78 0.23763-0.83160-0.67042 0.53814 0.77868-0.35827
  -6  -1   8   76.40    3.86  77 0.24266-0.86352-0.66645 0.60224 0.78041-0.14526
  -5 -10   0    7.97    2.53  77 0.25102-0.62448-0.65975-0.17302 0.78321-0.67067
  -5  -6   0  180.69    2.56  77 0.24799-0.67304-0.66219 0.19126 0.78221-0.70448
  -5  -4   1   19.05    1.87  77 0.24799-0.70263-0.66219 0.36468 0.78221-0.64749
  -4 -10  -1    6.10    2.34  77 0.25506-0.52545-0.65646-0.18226 0.78452-0.75098
  -4  -6  -1   75.56    2.09  77 0.25607-0.57718-0.65564 0.17750 0.78485-0.78640
  -3 -10  -2   10.95    3.23  77 0.24351-0.40955-0.66577-0.17972 0.78071-0.82812
  -3  -9  -2   19.29    2.18  77 0.25607-0.43468-0.65564-0.10027 0.78485-0.84041
  -3  -6  -2    7.09    1.75  77 0.24495-0.46127-0.66463 0.18110 0.78119-0.86256
  -3   1   4  364.07    6.74  77 0.24140-0.57049-0.66745 0.77125 0.77999-0.47541
  -2   3   8  286.52    6.16  78 0.22702-0.49711-0.67865 0.91973 0.77491-0.19383
  -1 -10  -3    2.36    3.15  77 0.24089-0.20206-0.66785-0.20095 0.77981-0.91037
  -1  -6  -3    2.46    1.67  77 0.25203-0.26431-0.65893 0.15353 0.78354-0.94976
   0   4   8  323.95    4.58  78 0.23832-0.31968-0.66988 0.97359 0.77892-0.21735
   2  -4  -3    0.91    2.27  77 0.24039 0.02304-0.66825 0.30023 0.77964-0.97853
   2   4   6  106.86    2.86  78 0.24000-0.11320-0.66856 0.95832 0.77950-0.37747
   3   5  10   26.67    2.41  77 0.25203-0.05263-0.65893 0.99599 0.78354-0.09659
   3   5  11    0.03    2.29  77 0.24698-0.05110-0.66301 0.99247 0.78187-0.02024
   4  -9  -3    7.11    4.56  78 0.22973 0.29747-0.67657-0.17103 0.77588-0.94060
   4   2   2   14.05    2.25  78 0.24089 0.12680-0.66785 0.77828 0.77981-0.66770
   4   5  10    0.48    2.19  77 0.25203 0.04805-0.65893 0.98196 0.78354-0.10155
   4   5  11    7.53    2.51  77 0.24597 0.04982-0.66382 0.97830 0.78153-0.02590
   5   0   0   22.34    1.72  77 0.25102 0.25065-0.65975 0.58869 0.78321-0.80866
   5   1   1   12.96    1.64  77 0.25001 0.23588-0.66056 0.67298 0.78288-0.74229
   5   3   4  462.41    3.95  78 0.24089 0.20770-0.66785 0.83884 0.77981-0.53308
   5   4   6    1.06    1.75  77 0.25102 0.17749-0.65975 0.90602 0.78321-0.39548
   6   2   3   69.62    2.65  78 0.23859 0.32666-0.66967 0.74413 0.77902-0.60297
   6   4   7    1.39    1.83  77 0.24698 0.27739-0.66301 0.88793 0.78187-0.32520
   7  -4  -1    2.45    2.92  78 0.23854 0.52008-0.66971 0.21661 0.77900-0.85385
   7   4   8    2.27    2.29  77 0.25707 0.36283-0.65481 0.85997 0.78517-0.25869
   7   4   9    2.99    3.39  77 0.24267 0.37465-0.66645 0.86264 0.78042-0.17942
   8   2   5   19.20    3.02  78 0.24173 0.51628-0.66719 0.69698 0.78010-0.46380
   8   3   7   -1.17    2.38  77 0.24900 0.48884-0.66138 0.76780 0.78255-0.32709
   9  -2   2   -0.02    3.39  78 0.24089 0.68051-0.66785 0.34480 0.77981-0.65896
   9   1   5    9.29    3.44  78 0.24129 0.62960-0.66754 0.59297 0.77995-0.46085
  -7  -6   3   48.17    3.27  78 0.22264-0.86060-0.68182 0.21745 0.77335-0.46310
  -7  -5   4   11.73    2.17  78 0.23366-0.88731-0.67336 0.29198 0.77733-0.39918
  -7  -4   5   -0.19    2.16  78 0.22958-0.90039-0.67652 0.37832 0.77587-0.33224
  -7  -3   7    2.31    2.42  78 0.23162-0.92272-0.67494 0.45257 0.77661-0.19291
  -6  -6   1   82.80    2.31  78 0.22447-0.75336-0.68044 0.21703 0.77402-0.61715
  -6  -1   7   21.92    3.02  79 0.21696-0.83272-0.68610 0.62949 0.77123-0.20948
  -5  -5   0  104.30    2.80  78 0.22162-0.66017-0.68259 0.30239 0.77297-0.70464
  -5  -1   4  200.57    3.18  78 0.22753-0.73172-0.67809 0.62954 0.77514-0.44287
  -5   0   6    1.98    2.54  79 0.21667-0.74033-0.68631 0.71342 0.77112-0.29720
  -4  -5  -1  290.06    2.96  78 0.23060-0.56413-0.67573 0.28827 0.77624-0.78647
  -4  -2   1   25.86    2.32  79 0.22082-0.60038-0.68320 0.55226 0.77267-0.66039
  -4   1   6  263.42    5.74  78 0.22142-0.65897-0.68275 0.78620 0.77290-0.31374
  -3  -2   0 1207.87    6.32  78 0.22753-0.50239-0.67809 0.54066 0.77514-0.74246
  -3  -1   1  161.45    3.00  78 0.22856-0.52004-0.67731 0.62263 0.77551-0.67720
  -2  -9  -3  204.48    2.94  78 0.22753-0.30115-0.67809-0.08477 0.77514-0.90950
  -2  -8  -3  161.83    2.69  78 0.23162-0.31816-0.67494 0.00258 0.77661-0.91989
  -2  -7  -3    9.38    1.76  78 0.22549-0.32610-0.67966 0.09812 0.77439-0.92637
  -2  -4  -2 1134.80    5.67  78 0.23570-0.37736-0.67177 0.35371 0.77805-0.88179
  -1  -5  -3   14.80    2.33  79 0.21875-0.24390-0.68476 0.26928 0.77190-0.94652
  -1  -3  -2  526.06    4.68  78 0.22958-0.28371-0.67652 0.43506 0.77587-0.89366
  -1   3   6   31.69    2.65  79 0.21324-0.37460-0.68886 0.93096 0.76981-0.34307
   1  -4  -3   16.15    1.84  78 0.22958-0.06669-0.67652 0.32311 0.77587-0.96965
   1   3   4   33.54    1.85  78 0.23366-0.18681-0.67336 0.90080 0.77733-0.51077
   1   4   7   17.18    2.54  78 0.22254-0.19998-0.68190 0.97756 0.77331-0.29080
   2   2   2   59.99    2.14  78 0.22651-0.05907-0.67887 0.81649 0.77477-0.65366
   3   2   2  142.94    2.55  78 0.22447 0.04393-0.68044 0.80359 0.77402-0.65802
   3   4   6   25.81    1.90  78 0.23060-0.00329-0.67573 0.95077 0.77624-0.37920
   4  -1  -1  815.11    6.57  78 0.22192 0.19601-0.68237 0.54240 0.77308-0.85887
   4   3   4    3.82    2.27  79 0.21921 0.12968-0.68441 0.87016 0.77207-0.51973
   4   4   6   80.93    2.22  78 0.23672 0.09063-0.67098 0.93231 0.77840-0.38659
   5   4   7    1.27    2.67  78 0.22344 0.20150-0.68121 0.92023 0.77364-0.31207
   6  -1   0  121.61    3.12  79 0.21899 0.39632-0.68458 0.50927 0.77199-0.79426
   6   3   5    7.02    1.77  78 0.22856 0.31643-0.67731 0.82686 0.77551-0.45943
   6   4   8   42.72    2.29  78 0.22753 0.29339-0.67809 0.89606 0.77514-0.24382
   7  -2   0    6.24    2.73  78 0.22383 0.50455-0.68092 0.40052 0.77379-0.79076
   7   2   4   67.71    2.28  78 0.23264 0.42904-0.67415 0.72643 0.77697-0.53121
   7   3   6    2.99    2.00  78 0.23264 0.40981-0.67415 0.80146 0.77697-0.39023
   8  -4   0   -0.30    2.34  78 0.22958 0.62454-0.67652 0.20133 0.77587-0.78167
   8  -2   1    3.84    2.95  79 0.22036 0.60209-0.68354 0.38149 0.77250-0.72022
   8   1   4    1.02    2.83  79 0.22036 0.55445-0.68354 0.63117 0.77250-0.52355
   8   3   8    5.59    2.48  78 0.23162 0.50234-0.67494 0.77470 0.77661-0.24759
   9  -1   3    6.09    2.50  78 0.22754 0.67732-0.67809 0.43796 0.77514-0.58826
   9   0   4   16.66    2.54  78 0.22958 0.65838-0.67652 0.52037 0.77588-0.52293
  -7  -8   2   -1.38    2.40  79 0.21317-0.82118-0.68892 0.05222 0.76990-0.51480
  -7  -7   2  143.54    2.87  79 0.20492-0.82531-0.69497 0.14796 0.76669-0.52163
  -7  -5   3   33.05    3.04  80 0.19916-0.84919-0.69913 0.32583 0.76439-0.46138
  -7  -4   4   16.35    2.95  80 0.19846-0.86453-0.69963 0.40937 0.76410-0.39489
  -7  -3   6    4.74    2.26  79 0.20802-0.89561-0.69271 0.47788 0.76791-0.25932
  -6  -9   0    1.84    2.35  79 0.20389-0.69022-0.69572-0.03108 0.76628-0.65833
  -6  -8   0    4.73    2.99  79 0.20226-0.70275-0.69690 0.06067 0.76563-0.66587
  -6  -5   1   -1.28    2.58  80 0.19924-0.74107-0.69908 0.32537 0.76442-0.61525
  -6  -4   2   13.15    1.91  79 0.21111-0.76955-0.69044 0.40055 0.76911-0.55507
  -6  -3   3  100.74    2.41  79 0.21008-0.78548-0.69120 0.48407 0.76871-0.48799
  -5 -10  -1    1.47    2.53  79 0.20802-0.57785-0.69271-0.13207 0.76791-0.72963
  -5  -9  -1    2.49    2.19  79 0.21523-0.59795-0.68739-0.04670 0.77069-0.74085
  -5  -8  -1   12.55    2.01  79 0.21523-0.61052-0.68739 0.04236 0.77069-0.74981
  -5  -7  -1   63.39    2.12  79 0.20699-0.61584-0.69347 0.13959 0.76750-0.75522
  -4 -10  -2    0.88    2.28  79 0.20389-0.46978-0.69572-0.13608 0.76628-0.80752
  -4  -9  -2   12.25    2.14  79 0.21214-0.49054-0.68968-0.05141 0.76950-0.81926
  -4  -8  -2   62.49    2.22  79 0.21214-0.50397-0.68968 0.03861 0.76950-0.82825
  -4  -7  -2    2.25    1.78  79 0.20389-0.50822-0.69572 0.13664 0.76628-0.83412
  -4  -3   0   47.09    1.87  79 0.21111-0.57464-0.69044 0.47710 0.76911-0.72249
  -4  -1   2  222.50    3.56  79 0.20240-0.59905-0.69680 0.64980 0.76569-0.58789
  -3  -5  -2  198.53    2.64  79 0.21523-0.44519-0.68739 0.29321 0.77069-0.86088
  -3  -3  -1  181.69    2.74  79 0.20389-0.46262-0.69572 0.47541 0.76628-0.79894
  -2 -10  -3   -0.18    2.23  79 0.21523-0.27666-0.68739-0.16541 0.77069-0.89627
  -2  -6  -3  135.75    2.44  79 0.20699-0.31994-0.69347 0.20207 0.76750-0.92828
  -2  -1   0 1032.68    7.30  79 0.20492-0.39218-0.69497 0.63367 0.76669-0.74772
  -2   3  12    0.84    4.26  81 0.18285-0.46650-0.71059 0.92141 0.75762 0.12088
   0  -4  -3   60.46    2.73  80 0.19726-0.13501-0.70049 0.36130 0.76362-0.95187
   0   4   9    9.94    2.03  79 0.21111-0.29599-0.69044 0.98638 0.76911-0.13260
   0   4  10   10.52    2.84  80 0.19902-0.28741-0.69923 0.98834 0.76433-0.05329
   0   4  11    1.34    3.07  79 0.19976-0.29297-0.69870 0.98203 0.76463 0.02140
   0   4  12    3.14    3.40  79 0.20389-0.30181-0.69572 0.96981 0.76628 0.09407
   1  -2  -2  204.51    6.09  80 0.18822-0.05487-0.70686 0.52708 0.75989-0.89629
   2   3   4 1393.16    6.34  79 0.20699-0.05922-0.69347 0.90680 0.76750-0.50551
   2   4   7   13.01    2.52  80 0.20011-0.07710-0.69845 0.97987 0.76477-0.28757
   3   3   4  121.93    2.26  79 0.20596 0.04257-0.69422 0.89334 0.76710-0.51059
   3   4   7  190.77    3.33  80 0.19789 0.02658-0.70004 0.96792 0.76388-0.29241
   4   0   0 2585.08    9.79  80 0.20024 0.20118-0.69836 0.64103 0.76482-0.78508
   4   1   1 1926.11    7.49  79 0.21214 0.17291-0.68968 0.71587 0.76950-0.72397
   4   4   7   22.95    1.92  79 0.20596 0.11865-0.69422 0.94736 0.76710-0.29999
   5   2   3  158.64    2.93  80 0.19975 0.26563-0.69870 0.78625 0.76463-0.58420
   5   3   5  104.76    2.86  80 0.19726 0.24823-0.70049 0.86375 0.76362-0.44296
   5   4   8    2.32    2.75  80 0.19975 0.22032-0.69870 0.92755 0.76463-0.22731
   6  -6  -2   -0.35    3.78  81 0.17897 0.50634-0.71325 0.10290 0.75596-0.88242
   6   0   1  149.72    2.65  79 0.20699 0.39211-0.69347 0.59985 0.76750-0.72373
   6   1   2  126.60    2.43  79 0.21523 0.36660-0.68739 0.67780 0.77069-0.65974
   6   4   9   11.88    2.23  79 0.21420 0.30288-0.68816 0.89912 0.77029-0.16450
   6   4  10   11.83    2.53  79 0.20596 0.30712-0.69422 0.89797 0.76710-0.08630
   7  -5  -1    2.60    3.12  80 0.19422 0.57620-0.70265 0.15975 0.76238-0.82947
   7  -1   1   42.84    2.86  80 0.19975 0.51219-0.69870 0.50073 0.76463-0.71664
   7   0   2  116.54    3.12  80 0.19829 0.49710-0.69975 0.58546 0.76404-0.65116
   7   1   3   13.53    1.92  79 0.21008 0.46840-0.69120 0.66023 0.76871-0.58918
   7   3   7   14.46    2.14  79 0.20905 0.42899-0.69196 0.81226 0.76831-0.30786
   8  -1   2    8.20    2.05  79 0.20699 0.60135-0.69347 0.47313 0.76750-0.65165
   8   0   3   -0.11    2.05  79 0.20699 0.58451-0.69347 0.55753 0.76750-0.58388
   8   2   6    4.58    2.20  79 0.21420 0.54054-0.68816 0.71186 0.77029-0.37982
  -7  -8   1   17.59    3.42  81 0.17829-0.78253-0.71377 0.08381 0.75578-0.57543
  -7  -6   2   33.35    2.28  80 0.18837-0.82234-0.70682 0.25056 0.76006-0.52173
  -7  -3   5   12.09    3.02  80 0.17900-0.86240-0.71329 0.50533 0.75608-0.32147
  -7  -2   8   19.99    3.74  80 0.17820-0.88524-0.71383 0.57407 0.75574-0.10695
  -6  -7   0   25.48    2.11  80 0.19357-0.70711-0.70317 0.15665 0.76222-0.67036
  -6  -6   0   78.59    2.95  81 0.17670-0.70150-0.71485 0.25747 0.75509-0.67131
  -6  -2   4  373.67    3.85  80 0.18733-0.77945-0.70754 0.58384 0.75963-0.41313
  -6  -1   6    0.89    2.72  80 0.17900-0.79075-0.71329 0.66417 0.75608-0.26954
  -5  -6  -1  178.76    2.49  80 0.18941-0.61129-0.70609 0.24291 0.76050-0.75606
  -5  -4   0    5.12    2.28  80 0.18082-0.63174-0.71204 0.42140 0.75687-0.69772
  -5  -3   1    1.58    1.69  80 0.19357-0.66179-0.70317 0.49454 0.76222-0.63608
  -5  -2   2   61.17    2.11  80 0.18733-0.67106-0.70754 0.58421 0.75963-0.56735
  -4  -6  -2  142.99    2.40  80 0.18525-0.50323-0.70899 0.23907 0.75875-0.83410
  -4  -4  -1  283.30    2.96  80 0.18733-0.53412-0.70754 0.41106 0.75963-0.77812
  -3 -10  -3   67.71    2.67  80 0.18421-0.34685-0.70971-0.12848 0.75831-0.87783
  -3  -9  -3   13.47    2.08  80 0.19045-0.36557-0.70536-0.04366 0.76093-0.89081
  -3  -8  -3   42.73    2.09  80 0.19045-0.37924-0.70536 0.04786 0.76093-0.89919
  -3  -7  -3   26.10    2.59  80 0.18036-0.38151-0.71236 0.14470 0.75667-0.90395
  -3   0   2  480.25    5.77  81 0.17900-0.48748-0.71329 0.74157 0.75608-0.59195
  -2  -2  -1   50.69    2.09  80 0.19149-0.36258-0.70463 0.56066 0.76136-0.80784
  -2   3   9   43.89    3.38  81 0.18050-0.45347-0.71226 0.94602 0.75673-0.10093
  -2   3  11    1.13    3.76  81 0.16567-0.44571-0.72223 0.94048 0.75022 0.05376
   0  -9  -4    3.85    3.00  81 0.18047-0.05070-0.71229-0.07190 0.75671-0.97767
   0  -8  -4   29.49    2.10  80 0.18733-0.07137-0.70754 0.01408 0.75963-0.98741
   0  -7  -4  409.64    4.38  81 0.17839-0.07384-0.71370 0.11037 0.75582-0.99227
   1  -9  -4   16.68    3.16  80 0.18341 0.04593-0.71027-0.08789 0.75797-0.98233
   1  -8  -4    9.29    2.02  80 0.19045 0.02662-0.70536-0.00276 0.76093-0.99422
   1  -7  -4  182.72    3.79  80 0.18177 0.02248-0.71139 0.09402 0.75727-0.99958
   1   1   1 2022.26   11.64  81 0.17760-0.09410-0.71424 0.78306 0.75548-0.69489
   1   4   8  143.20    2.81  80 0.19149-0.17113-0.70463 0.99338 0.76136-0.20480
   2  -8  -4   11.70    2.97  81 0.17487 0.14344-0.71609-0.00590 0.75429-0.99151
   3   1   1  219.94    3.56  81 0.18002 0.10420-0.71260 0.75285 0.75652-0.70572
   4   4   8   35.85    2.07  80 0.18421 0.13787-0.70971 0.95521 0.75831-0.21725
   5   4   9    8.65    2.17  80 0.18941 0.22944-0.70609 0.93036 0.76050-0.15009
   5   4  10    9.26    3.15  80 0.18018 0.23325-0.71249 0.92860 0.75659-0.07087
   5   4  11    5.07    3.43  81 0.17900 0.23152-0.71329 0.92309 0.75608 0.00378
   6  -7  -2    1.51    4.94  82 0.15062 0.54857-0.73198 0.02885 0.74330-0.86245
   6  -3  -1    3.02    2.56  81 0.17828 0.46695-0.71378 0.36538 0.75577-0.83369
   6   2   4  150.96    2.50  80 0.18837 0.37404-0.70682 0.77240 0.76006-0.51028
   6   3   6   40.40    2.01  80 0.19668 0.34509-0.70096 0.84325 0.76349-0.37303
   7   2   5    3.19    1.88  80 0.19564 0.46204-0.70170 0.74670 0.76307-0.44452
   7   3   8   11.54    2.24  80 0.19149 0.44307-0.70463 0.81790 0.76136-0.22635
   7   3   9   17.79    3.55  81 0.17900 0.45053-0.71329 0.81948 0.75608-0.14599
   8  -3   1    1.81    3.25  81 0.17691 0.66163-0.71471 0.32381 0.75518-0.69362
   8   1   5   14.89    2.18  80 0.18525 0.58745-0.70899 0.64806 0.75875-0.43589
   8   2   7   19.39    2.49  80 0.19149 0.55966-0.70463 0.72034 0.76136-0.29758
   8   2   8    3.79    3.47  80 0.17736 0.57140-0.71441 0.72498 0.75537-0.21768
   9  -2   3   -0.61    2.49  80 0.18733 0.73157-0.70754 0.37678 0.75963-0.56372
   9  -1   4   -2.18    2.45  80 0.18525 0.71659-0.70899 0.46159 0.75875-0.49713
   9   0   5    1.74    2.48  80 0.19461 0.68952-0.70244 0.53757 0.76264-0.43611
  -7  -7   1   25.38    2.40  81 0.16758-0.78434-0.72094 0.18070 0.75112-0.58002
  -7  -5   2   -0.11    2.77  81 0.15918-0.80614-0.72644 0.36033 0.74732-0.51897
  -7  -4   3   -1.49    2.84  82 0.15866-0.82249-0.72678 0.44386 0.74708-0.45318
  -7  -2   7    3.50    3.27  82 0.15849-0.86265-0.72689 0.59520 0.74700-0.17209
  -6  -9  -1   23.01    3.34  81 0.15966-0.64391-0.72613 0.00647 0.74754-0.71357
  -6  -8  -1   23.67    3.11  82 0.15672-0.65312-0.72804 0.09764 0.74619-0.71967
  -6  -4   1   20.43    2.69  82 0.15752-0.71283-0.72752 0.44372 0.74656-0.60645
  -6  -3   2  213.17    3.45  82 0.15683-0.72814-0.72797 0.52773 0.74624-0.53970
  -5 -10  -2    6.42    3.49  82 0.15913-0.52580-0.72648-0.09019 0.74729-0.78435
  -5  -9  -2    4.06    2.17  81 0.16338-0.54324-0.72370-0.00236 0.74923-0.79415
  -5  -8  -2   38.42    3.01  81 0.15946-0.55188-0.72626 0.08959 0.74744-0.80152
  -5  -5  -1  110.81    2.79  82 0.15813-0.59231-0.72712 0.35396 0.74684-0.75193
  -3  -6  -3    8.67    2.47  81 0.15870-0.37152-0.72675 0.24973 0.74710-0.90293
  -3  -4  -2   14.86    1.68  81 0.16653-0.40886-0.72163 0.41763 0.75065-0.84921
  -2  -5  -3  257.67    2.94  81 0.16967-0.29490-0.71954 0.31858 0.75205-0.92213
  -2  -3  -2  575.24    4.74  82 0.15665-0.31103-0.72808 0.50056 0.74615-0.85841
  -2   0   1 4984.33   19.45  81 0.15867-0.36271-0.72678 0.74806 0.74708-0.66281
  -2   3  10    2.02    2.88  81 0.16618-0.44404-0.72186 0.94847 0.75049-0.02142
  -1 -10  -4   -0.30    3.23  82 0.15918-0.11662-0.72644-0.13367 0.74732-0.95285
  -1  -9  -4    4.42    2.07  81 0.17072-0.14073-0.71884-0.05061 0.75251-0.96606
  -1  -8  -4   16.27    1.97  81 0.17072-0.15302-0.71884 0.03909 0.75251-0.97542
  -1  -7  -4  109.20    3.00  81 0.15871-0.15461-0.72674 0.13783 0.74710-0.97885
  -1  -4  -3  163.59    3.12  82 0.15538-0.19320-0.72889 0.40392 0.74557-0.92869
   0 -10  -4   31.61    2.65  81 0.16862-0.02573-0.72024-0.15386 0.75158-0.96202
   1 -10  -4   29.42    2.67  81 0.16548 0.07716-0.72232-0.16550 0.75018-0.96532
   1  -6  -4  220.54    3.86  82 0.15220 0.03961-0.73093 0.20367 0.74409-0.99422
   1   3   5  140.79    3.05  82 0.15513-0.11152-0.72906 0.94961 0.74545-0.40451
   1   4   9   25.70    2.14  81 0.17281-0.15767-0.71744 0.99953 0.75343-0.12234
   1   4  10    5.61    2.82  81 0.16112-0.14900-0.72518 0.99849 0.74821-0.04276
   1   4  11   37.63    3.43  81 0.16050-0.15287-0.72558 0.99146 0.74792 0.03305
   1   4  12    1.89    2.35  81 0.16862-0.16526-0.72024 0.97989 0.75158 0.10256
   2  -9  -4    2.42    3.21  81 0.16211 0.16870-0.72453-0.08759 0.74865-0.97850
   2  -7  -4   13.19    2.69  81 0.16076 0.14472-0.72541 0.09387 0.74804-0.99545
   2   1   1 2535.55   10.51  81 0.16233 0.02183-0.72439 0.77893 0.74876-0.69311
   2   4   8   51.54    2.17  81 0.17386-0.05493-0.71674 0.99120 0.75389-0.20182
   2   4   9   69.29    3.04  82 0.15730-0.04082-0.72766 0.99471 0.74646-0.12065
   2   4  12    2.55    3.30  82 0.15602-0.05125-0.72848 0.97462 0.74586 0.10379
   3  -1  -1  227.57    4.47  82 0.15484 0.16262-0.72925 0.60378 0.74532-0.82661
   3   4   8   73.68    2.28  81 0.17386 0.04587-0.71674 0.97733 0.75389-0.20727
   3   4   9    5.27    2.67  81 0.15870 0.05691-0.72675 0.98005 0.74710-0.12695
   3   4  12   26.26    3.58  82 0.15511 0.05001-0.72907 0.96032 0.74544 0.09870
   4   2   3  116.67    2.22  81 0.16443 0.20053-0.72301 0.82484 0.74970-0.56362
   4   3   5    9.59    1.73  81 0.17072 0.17374-0.71884 0.89666 0.75251-0.42681
   4   4   9  102.47    2.69  81 0.16967 0.14647-0.71954 0.95817 0.75205-0.13556
   4   4  10    6.20    2.19  81 0.16338 0.15016-0.72370 0.95597 0.74923-0.05923
   4   4  11    4.49    3.23  81 0.15982 0.14877-0.72602 0.94941 0.74761 0.01706
   5  -2  -1   14.94    1.83  81 0.16862 0.36321-0.72024 0.47566 0.75158-0.83384
   5   1   2    4.27    1.60  81 0.16548 0.31737-0.72232 0.72660 0.75018-0.63476
   5   3   6  180.75    2.61  81 0.16233 0.27974-0.72439 0.88000 0.74876-0.35276
   6   1   3  282.54    3.54  82 0.15581 0.42293-0.72862 0.71203 0.74577-0.56201
   6   3   7    3.80    1.87  81 0.17176 0.36503-0.71814 0.85353 0.75297-0.28820
   7  -6  -1   -0.24    3.44  82 0.15813 0.62570-0.72712 0.09300 0.74684-0.80386
   7  -3   0    2.90    2.77  82 0.16050 0.57970-0.72558 0.35562 0.74792-0.75560
   7   1   4   25.25    2.10  81 0.16338 0.51191-0.72370 0.68440 0.74923-0.49530
   7   2   6   22.11    2.04  81 0.16548 0.48966-0.72232 0.75925 0.75018-0.35531
   8  -2   2    5.23    2.97  82 0.15646 0.66570-0.72820 0.41966 0.74607-0.62063
   8   0   4    2.23    2.04  81 0.16338 0.62455-0.72370 0.58066 0.74923-0.49126
   8   1   6    3.89    3.07  82 0.15742 0.60979-0.72758 0.66145 0.74651-0.34833
  -8  -6   3    2.16    3.44  82 0.13793-0.87669-0.73933 0.29014 0.73755-0.42103
  -8  -5   4   12.07    3.39  82 0.13738-0.89203-0.73967 0.37348 0.73729-0.35534
  -7  -8   0    5.42    3.37  83 0.13754-0.73850-0.73958 0.11638 0.73736-0.63327
  -7  -6   1    3.38    2.10  82 0.14730-0.77679-0.73349 0.28386 0.74205-0.57974
  -7  -3   4    3.98    2.01  82 0.14308-0.82175-0.73614 0.53641 0.74004-0.38100
  -7  -2   6    1.60    3.05  83 0.13380-0.83367-0.74186 0.61742 0.73553-0.23457
  -6  -7  -1   63.25    2.16  82 0.14414-0.65321-0.73548 0.19652 0.74055-0.72263
  -6  -5   0  464.36    3.52  82 0.14414-0.68293-0.73548 0.37003 0.74055-0.66614
  -6  -2   3   66.42    2.92  83 0.13390-0.72210-0.74180 0.62457 0.73558-0.46351
  -6  -1   5   17.85    2.81  83 0.13238-0.74054-0.74272 0.70088 0.73483-0.32269
  -5  -7  -2  123.26    2.35  82 0.14730-0.55255-0.73349 0.18743 0.74205-0.80406
  -5  -1   3  330.70    3.75  82 0.15151-0.65227-0.73082 0.69006 0.74404-0.48584
  -5   0   5   83.72    3.21  82 0.13791-0.65962-0.73935 0.77463 0.73754-0.33957
  -4 -10  -3    7.58    2.37  82 0.14625-0.40892-0.73416-0.08948 0.74155-0.85767
  -4  -9  -3   19.75    2.19  82 0.15046-0.42600-0.73149-0.00255 0.74355-0.86795
  -4  -8  -3   22.52    2.10  82 0.14730-0.43565-0.73349 0.08899 0.74205-0.87430
  -4  -7  -3    3.97    2.59  83 0.13463-0.43642-0.74135 0.18689 0.73594-0.87588
  -4  -5  -2   27.56    1.87  82 0.15151-0.48135-0.73082 0.35081 0.74404-0.82873
  -4   0   3   97.21    3.22  83 0.13617-0.54894-0.74041 0.77560 0.73670-0.49264
  -2 -10  -4    2.31    3.24  83 0.13776-0.19593-0.73944-0.10671 0.73747-0.94021
  -2  -9  -4    6.23    2.08  82 0.14835-0.21862-0.73283-0.02206 0.74255-0.95089
  -2  -8  -4   93.16    2.41  82 0.14414-0.22838-0.73548 0.07081 0.74055-0.95861
  -1   3   7  295.93    4.76  83 0.13722-0.30248-0.73977 0.97418 0.73721-0.23590
   0  -6  -4   25.39    2.00  82 0.14835-0.05686-0.73283 0.22042 0.74255-0.98810
   0  -2  -2 2143.81   12.23  83 0.13243-0.09878-0.74270 0.57705 0.73485-0.86588
   2   3   5  115.45    2.34  82 0.14308 0.00086-0.73614 0.94240 0.74004-0.40396
   2   4  10   22.54    2.20  82 0.14941-0.03741-0.73216 0.99261 0.74305-0.04193
   2   4  11   42.24    2.60  82 0.14941-0.04089-0.73216 0.98576 0.74305 0.03198
   3   0   0  964.76    6.59  82 0.15046 0.15012-0.73149 0.68925 0.74355-0.75849
   3   2   3  101.94    2.84  83 0.13596 0.12805-0.74054 0.85711 0.73659-0.54580
   3   3   5    6.97    1.65  82 0.15046 0.09337-0.73149 0.92340 0.74355-0.41213
   3   4  10   -1.03    2.01  82 0.15046 0.06154-0.73149 0.97747 0.74355-0.04831
   3   4  11   -0.13    2.19  82 0.15046 0.05686-0.73149 0.97122 0.74355 0.02629
   5  -4  -2   83.29    3.63  83 0.13770 0.42335-0.73947 0.32142 0.73744-0.87640
   5  -1   0  290.91    3.89  83 0.13776 0.37696-0.73943 0.57766 0.73747-0.75359
   5   0   1   62.38    2.08  82 0.14203 0.35612-0.73679 0.65732 0.73954-0.69087
   5   2   4   33.05    1.85  82 0.14519 0.31661-0.73482 0.81504 0.74105-0.48588
   5   3   7   61.06    2.93  83 0.13675 0.29977-0.74006 0.88964 0.73698-0.26624
   6  -2   0  234.91    3.86  83 0.13295 0.49556-0.74238 0.47686 0.73511-0.74881
   6   2   5  363.28    3.34  82 0.14835 0.40964-0.73283 0.79169 0.74255-0.41768
   6   3   8   53.02    2.32  82 0.15361 0.37995-0.72947 0.85747 0.74502-0.20503
   6   3   9   -4.28    2.20  82 0.14203 0.38758-0.73679 0.85748 0.73954-0.12508
   6   3  10    5.19    3.24  83 0.13569 0.39001-0.74071 0.85356 0.73646-0.04754
   7  -2   1   53.06    3.03  83 0.13450 0.59056-0.74144 0.45476 0.73587-0.67926
   7   0   3    2.72    2.55  83 0.13807 0.55189-0.73925 0.61735 0.73762-0.54795
   7   2   7    6.28    2.12  82 0.14308 0.50767-0.73614 0.76666 0.74004-0.27029
   8  -4   1    1.09    3.34  83 0.13593 0.71483-0.74056 0.25842 0.73658-0.66789
   8  -1   3    3.64    2.09  82 0.15256 0.65265-0.73015 0.50433 0.74453-0.55224
   8   1   7    5.25    3.21  82 0.13638 0.62758-0.74029 0.66672 0.73680-0.26373
  -8  -4   5    3.29    2.40  83 0.12195-0.89328-0.74914 0.46465 0.72961-0.28141
  -7  -7   0    9.18    2.21  83 0.12619-0.73896-0.74663 0.21378 0.73176-0.63456
  -7  -5   1   13.57    2.85  83 0.11558-0.75802-0.75287 0.39411 0.72635-0.57285
  -7  -4   2   61.96    3.06  83 0.11616-0.77561-0.75253 0.47630 0.72665-0.50787
  -6  -9  -2   -0.52    3.33  84 0.11399-0.59288-0.75379 0.04071 0.72553-0.76411
  -6  -6  -1   46.24    2.01  83 0.12195-0.64347-0.74914 0.29961 0.72961-0.72075
  -5  -6  -2   -1.93    1.76  83 0.12407-0.54185-0.74789 0.29161 0.73069-0.80205
  -5  -3   0  296.90    3.51  83 0.11763-0.58153-0.75168 0.55242 0.72741-0.67696
  -4  -3  -1  104.10    2.72  83 0.11769-0.47715-0.75164 0.54543 0.72744-0.75633
  -4  -2   0  353.46    3.44  83 0.12089-0.49664-0.74977 0.62654 0.72908-0.69141
  -3 -10  -4    4.76    3.24  84 0.11558-0.27401-0.75287-0.07877 0.72635-0.92146
  -3  -9  -4    7.18    2.95  83 0.11760-0.28816-0.75169 0.01102 0.72739-0.93285
  -3  -8  -4  135.39    3.17  84 0.11327-0.29665-0.75420 0.10333 0.72516-0.93804
  -3  -5  -3  108.57    2.23  83 0.11983-0.34568-0.75039 0.36349 0.72853-0.89303
  -2  -7  -4  116.64    2.38  83 0.13149-0.22707-0.74345 0.16826 0.73440-0.96060
  -1  -6  -4  103.05    2.45  83 0.13043-0.13869-0.74409 0.24496 0.73387-0.97427
   1   2   3    3.98    2.25  84 0.11655-0.05426-0.75231 0.89673 0.72685-0.52553
   2  -6  -4  264.87    4.71  83 0.11558 0.17689-0.75287 0.21146 0.72635-0.98237
   2   2   3  887.98    5.70  84 0.11605 0.04745-0.75259 0.88287 0.72660-0.53036
   3  -8  -4    1.75    3.70  84 0.10190 0.31621-0.76064 0.02512 0.71917-0.96293
   4  -3  -2  302.71    5.72  84 0.11871 0.32932-0.75104 0.43789 0.72796-0.87014
   4   1   2   71.36    2.55  84 0.11487 0.26625-0.75328 0.77231 0.72598-0.60571
   4   3   6  147.06    2.44  83 0.13254 0.20742-0.74281 0.91328 0.73492-0.33330
   5   3   8   -0.60    2.63  84 0.11717 0.31599-0.75194 0.89205 0.72717-0.18220
   6  -1   1    9.40    2.52  83 0.11779 0.49318-0.75158 0.56843 0.72749-0.67281
   6   0   2   38.76    1.98  83 0.13149 0.46327-0.74345 0.64497 0.73440-0.61518
   6   2   6   49.55    2.70  84 0.11658 0.43697-0.75229 0.80299 0.72687-0.32635
   7  -1   2  111.12    2.60  83 0.12937 0.57881-0.74473 0.54128 0.73335-0.61021
   7   1   5  152.29    2.76  83 0.12725 0.54384-0.74600 0.70081 0.73229-0.40278
   7   2   8   13.88    2.33  83 0.12725 0.51911-0.74600 0.76949 0.73229-0.18744
   7   2   9    4.48    3.30  84 0.11644 0.52609-0.75237 0.76722 0.72679-0.10838
   8   0   5    1.20    2.14  83 0.12937 0.65534-0.74473 0.59468 0.73335-0.40104
   8   1   8    1.13    2.49  83 0.12089 0.63945-0.74977 0.66742 0.72908-0.18070
  -8  -7   1    2.05    3.46  84 0.09435-0.81134-0.76489 0.23978 0.71507-0.53896
  -8  -6   2   35.32    2.54  84 0.10607-0.84038-0.75838 0.31574 0.72134-0.47910
  -8  -5   3   18.44    2.33  84 0.10820-0.85852-0.75718 0.39703 0.72246-0.41357
  -8  -4   4    3.99    3.17  85 0.09435-0.86142-0.76489 0.48835 0.71507-0.34088
  -7  -8  -1   23.15    3.37  84 0.09571-0.69301-0.76414 0.14829 0.71580-0.68430
  -7  -6   0   41.25    2.22  84 0.10288-0.72867-0.76018 0.31780 0.71965-0.63107
  -7  -3   3   63.40    2.30  84 0.10181-0.77733-0.76077 0.56746 0.71908-0.43342
  -7  -2   5   10.02    3.00  84 0.09920-0.79648-0.76222 0.64469 0.71769-0.29191
  -6  -8  -2    2.72    2.06  84 0.10501-0.59776-0.75898 0.13694 0.72078-0.76961
  -6  -4   0   26.51    1.84  84 0.09861-0.64983-0.76255 0.48717 0.71737-0.65158
  -6  -3   1   34.80    2.58  84 0.09624-0.66409-0.76385 0.57143 0.71609-0.58469
  -6   0   9    1.27    4.07  85 0.07516-0.71225-0.77506 0.79487 0.70441-0.00220
  -5 -10  -3   19.01    2.55  84 0.10714-0.46966-0.75778-0.05246 0.72190-0.83199
  -5  -9  -3    4.81    2.20  84 0.10714-0.48293-0.75778 0.03835 0.72190-0.84132
  -5  -8  -3   21.59    2.03  84 0.10075-0.48900-0.76137 0.13130 0.71851-0.84579
  -5  -4  -1   24.54    1.84  84 0.11033-0.55734-0.75597 0.47260 0.72358-0.73757
  -5  -2   1    2.58    1.70  84 0.11033-0.58966-0.75597 0.63802 0.72358-0.60713
  -4  -6  -3  400.87    3.33  84 0.10820-0.42136-0.75718 0.29386 0.72246-0.87305
  -4  -4  -2  334.34    3.12  84 0.09968-0.44209-0.76196 0.47261 0.71794-0.81148
  -4  -1   1  244.89    3.65  85 0.09435-0.48658-0.76489 0.72430 0.71507-0.61141
  -3  -7  -4   99.84    2.95  84 0.09655-0.29303-0.76368 0.20310 0.71626-0.93793
  -3  -2  -1    1.29    1.71  84 0.09861-0.36979-0.76255 0.63323 0.71737-0.75870
  -3   2   7    6.40    3.62  86 0.07015-0.42368-0.77763 0.95025 0.70156-0.18141
  -2  -6  -4  282.00    3.10  84 0.10181-0.21048-0.76077 0.27660 0.71908-0.95442
  -2  -4  -3  308.49    3.23  84 0.10820-0.24600-0.75718 0.44645 0.72246-0.90099
  -2   2   5  209.26    5.97  85 0.08303-0.32842-0.77096 0.94374 0.70884-0.34321
  -1   2   4  185.25    4.49  85 0.09060-0.23195-0.76692 0.93309 0.71302-0.42726
  -1   3   8  658.08    6.58  85 0.09594-0.26493-0.76402 0.99070 0.71593-0.13980
  -1   3  12    0.96    3.31  84 0.09859-0.28213-0.76256 0.95909 0.71736 0.15598
   0  -5  -4  421.75    4.55  85 0.09211-0.01298-0.76610 0.34363 0.71385-0.96779
   1   3   6   24.11    2.48  84 0.09633-0.05684-0.76381 0.97611 0.71614-0.30026
   2   3   6  212.93    3.36  84 0.09600 0.04364-0.76398 0.96268 0.71596-0.30475
   3  -9  -4    0.30    3.37  85 0.09542 0.33636-0.76430-0.06271 0.71564-0.95059
   3   3   6  262.51    3.02  84 0.11033 0.12944-0.75597 0.94095 0.72358-0.31774
   4   2   4   78.56    2.11  84 0.10501 0.25572-0.75898 0.85402 0.72078-0.46037
   4   3   7  207.20    2.91  84 0.10607 0.23052-0.75838 0.92157 0.72134-0.24555
   5   1   3   51.45    1.92  84 0.09861 0.38014-0.76255 0.75928 0.71737-0.52839
   5   2   5   10.97    1.76  84 0.10288 0.35470-0.76018 0.83304 0.71965-0.38973
   5   3   9   21.01    2.09  84 0.10820 0.32156-0.75718 0.89166 0.72246-0.10257
   5   3  10   22.25    2.40  84 0.10394 0.32182-0.75958 0.88738 0.72022-0.02651
   5   3  11    1.90    2.30  84 0.10394 0.31799-0.75958 0.87936 0.72022 0.04770
   6  -4  -1    6.99    2.78  84 0.09435 0.56253-0.76489 0.32486 0.71507-0.78555
   6   1   4    1.19    1.80  84 0.10607 0.46801-0.75838 0.73567 0.72134-0.46002
   6   2   7    5.67    2.60  85 0.09475 0.45567-0.76467 0.80759 0.71528-0.24236
   7  -4   0   -0.28    2.01  84 0.10501 0.64834-0.75898 0.29864 0.72078-0.72136
   7   0   4    0.58    2.57  85 0.09435 0.59254-0.76489 0.63554 0.71507-0.45186
   7   1   6    3.23    1.98  84 0.09968 0.56846-0.76196 0.70813 0.71794-0.31685
   8  -3   2    1.05    2.27  84 0.10714 0.72687-0.75778 0.35866 0.72190-0.58694
   8  -2   3   22.07    2.30  84 0.10075 0.71668-0.76137 0.44431 0.71851-0.51875
   8  -1   4    9.04    2.20  84 0.11033 0.69084-0.75597 0.52379 0.72358-0.45729
   8   0   6    2.25    2.18  84 0.10288 0.67799-0.76018 0.60247 0.71965-0.31349
  -8  -6   1   17.97    3.34  86 0.07057-0.80008-0.77706 0.34188 0.70205-0.53333
  -8  -5   2    4.15    3.15  86 0.07180-0.81928-0.77643 0.42453 0.70276-0.46906
  -8  -3   6    3.12    2.56  85 0.08357-0.87142-0.77032 0.57010 0.70939-0.19459
  -7  -7  -1    7.07    2.22  85 0.07929-0.68901-0.77256 0.24797 0.70700-0.68453
  -7  -4   1   16.16    2.72  86 0.07063-0.72558-0.77703 0.50779 0.70209-0.55564
  -6  -7  -2   27.07    2.03  85 0.08998-0.59495-0.76689 0.23419 0.71293-0.76945
  -6  -5  -1   45.45    1.97  85 0.08677-0.62148-0.76861 0.40881 0.71117-0.71080
  -6  -2   2  102.44    2.95  86 0.07287-0.65764-0.77588 0.66638 0.70337-0.50619
  -6  -1   4   59.30    3.02  85 0.07488-0.68025-0.77486 0.74165 0.70451-0.36715
  -6   0   8    1.67    3.79  86 0.06273-0.69605-0.78100 0.80885 0.69752-0.07045
  -5  -7  -3    9.40    1.87  85 0.08357-0.48483-0.77032 0.23096 0.70939-0.84566
  -5  -5  -2  139.63    2.35  85 0.08784-0.51841-0.76804 0.40198 0.71176-0.79120
  -5  -1   2   71.19    2.73  86 0.07007-0.56666-0.77731 0.74374 0.70177-0.51788
  -4 -10  -4    1.17    2.41  85 0.08464-0.34285-0.76975-0.04792 0.70999-0.89999
  -4  -9  -4   18.75    2.22  85 0.08464-0.35597-0.76975 0.04306 0.70999-0.90898
  -4  -8  -4    2.08    2.77  85 0.07715-0.36065-0.77368 0.13644 0.70580-0.91292
  -4   1   5  138.89    4.85  86 0.06403-0.49801-0.78035 0.89158 0.69828-0.31380
  -3  -3  -2   97.82    2.23  85 0.08784-0.34283-0.76804 0.55470 0.71176-0.81911
  -3  -1   0 1296.97    7.05  85 0.08036-0.36823-0.77200 0.72475 0.70760-0.68324
  -3   2  12    4.03    3.60  85 0.07398-0.44521-0.77531 0.91194 0.70400 0.18848
  -1 -10  -5   24.47    3.46  86 0.06939-0.02328-0.77766-0.07522 0.70138-0.98011
  -1  -9  -5   47.45    3.13  86 0.07175-0.03865-0.77646 0.01382 0.70273-0.99122
  -1  -5  -4  249.72    3.13  85 0.07929-0.10060-0.77256 0.36419 0.70700-0.95577
  -1  -2  -2 1203.36    7.52  85 0.07822-0.14504-0.77312 0.62171 0.70640-0.83247
  -1  -1  -1 2030.17   11.71  85 0.07554-0.15867-0.77451 0.70622 0.70488-0.76549
  -1   3   9  137.68    3.93  85 0.07608-0.24891-0.77423 0.99341 0.70519-0.05442
  -1   3  10   38.63    3.25  86 0.07386-0.25059-0.77538 0.98755 0.70393 0.02136
  -1   3  11   40.91    2.75  85 0.08357-0.26474-0.77032 0.97565 0.70939 0.09064
   0  -9  -5    6.74    3.13  86 0.07075 0.06368-0.77697 0.00019 0.70216-0.99527
   1  -5  -4  247.80    4.22  85 0.07652 0.10259-0.77400 0.33728 0.70544-0.96543
   3  -7  -4   16.17    3.59  86 0.06921 0.33620-0.77775 0.13123 0.70127-0.95420
   3   3   7   90.74    2.28  85 0.08143 0.15533-0.77144 0.94895 0.70820-0.22771
   4   0   1  759.17    5.25  86 0.07333 0.32425-0.77565 0.71149 0.70363-0.64972
   4   3   8   94.23    2.36  85 0.08784 0.24505-0.76804 0.92381 0.71176-0.16138
   4   3   9    0.21    1.89  85 0.07822 0.24995-0.77312 0.92245 0.70640-0.08265
   4   3  10    3.48    2.96  85 0.07405 0.25091-0.77528 0.91638 0.70404-0.00500
   4   3  11    8.60    2.24  85 0.07715 0.24488-0.77368 0.90781 0.70580 0.06825
   4   3  12    4.13    2.43  85 0.08464 0.23250-0.76975 0.89707 0.70999 0.13839
   5   2   6    7.83    2.42  86 0.07227 0.38162-0.77619 0.84229 0.70302-0.29897
   6   0   3   65.56    2.74  86 0.07127 0.52004-0.77670 0.66979 0.70246-0.50973
   6   2   8    7.25    1.95  85 0.08143 0.46457-0.77144 0.80963 0.70820-0.15980
   6   2   9    5.19    2.94  86 0.07287 0.46955-0.77588 0.80659 0.70337-0.08082
   6   2  10    5.74    3.25  86 0.06966 0.46934-0.77752 0.80025 0.70153-0.00394
   7  -3   1   56.76    3.17  86 0.07213 0.66561-0.77626 0.39907 0.70295-0.63825
   7  -1   3  132.08    3.24  86 0.07328 0.63108-0.77568 0.56377 0.70360-0.50684
   7   1   7   15.91    2.28  85 0.07929 0.58453-0.77256 0.71202 0.70700-0.22964
   8  -1   5    4.24    3.10  85 0.07478 0.72146-0.77490 0.53308 0.70445-0.36256
   8   0   7   12.73    2.51  85 0.08357 0.69268-0.77032 0.60600 0.70939-0.22808
  -8  -7   0   -1.30    2.39  86 0.05677-0.76958-0.78379 0.26459 0.69414-0.59195
  -8  -4   3    8.01    2.18  86 0.06106-0.82457-0.78168 0.51300 0.69667-0.39726
  -8  -3   5    6.44    2.33  86 0.05999-0.84416-0.78221 0.58860 0.69604-0.25598
  -7  -8  -2    2.64    3.35  86 0.05046-0.64193-0.78684 0.17799 0.69039-0.73298
  -7  -6  -1    8.78    2.91  86 0.05264-0.67495-0.78579 0.35112 0.69169-0.67927
  -7  -5   0   15.63    2.08  86 0.06749-0.70670-0.77847 0.42595 0.70040-0.62063
  -7  -3   2   15.92    2.73  86 0.05372-0.72606-0.78527 0.60045 0.69233-0.48194
  -7  -2   4    9.63    1.95  86 0.06106-0.75364-0.78168 0.67214 0.69667-0.34483
  -7  -1   8    3.41    3.54  87 0.05181-0.77273-0.78619 0.73738 0.69120-0.04960
  -6  -9  -3    3.21    2.36  86 0.06106-0.53643-0.78168 0.07568 0.69667-0.81073
  -6  -8  -3   64.34    3.30  87 0.05083-0.53952-0.78666 0.17160 0.69061-0.81332
  -6  -6  -2   75.23    2.18  86 0.06320-0.58172-0.78062 0.33880 0.69792-0.76338
  -5  -6  -3    6.28    1.81  86 0.05570-0.46972-0.78431 0.33533 0.69351-0.83891
  -5   0   4   41.39    2.82  86 0.05495-0.57298-0.78467 0.82721 0.69307-0.37008
  -4  -7  -4   46.98    2.10  86 0.05784-0.35497-0.78326 0.23730 0.69478-0.91110
  -4  -5  -3   44.91    1.92  86 0.06749-0.39370-0.77847 0.40573 0.70040-0.85991
  -3  -6  -4  128.62    2.39  86 0.06642-0.27597-0.77901 0.30875 0.69978-0.93007
  -3  -4  -3    1.02    1.57  86 0.05999-0.29846-0.78221 0.48580 0.69604-0.86896
  -2 -10  -5    5.08    2.39  86 0.05999-0.11379-0.78221-0.05722 0.69604-0.97029
  -2  -9  -5    5.94    2.12  86 0.06106-0.12789-0.78168 0.03297 0.69667-0.97990
  -2  -8  -5  126.89    3.23  86 0.05141-0.13116-0.78638 0.12838 0.69096-0.98336
  -2  -5  -4  501.66    4.25  86 0.05205-0.17366-0.78607 0.39234 0.69134-0.93611
  -1  -8  -5    6.98    1.99  86 0.06427-0.04445-0.78008 0.10764 0.69854-0.99544
   0 -10  -5   25.12    2.62  86 0.06320 0.08208-0.78062-0.08593 0.69792-0.98321
   0  -8  -5    1.31    1.93  86 0.06320 0.05810-0.78062 0.09412 0.69792-0.99997
   0  -3  -3   31.59    2.16  86 0.06106-0.01125-0.78168 0.53298 0.69667-0.89389
   0   3  12    6.67    2.41  86 0.06427-0.14880-0.78008 0.96432 0.69854 0.16965
   1  -9  -5   13.43    3.24  87 0.04897 0.18538-0.78755-0.00312 0.68949-0.98754
   1   0   0 2073.02   15.93  87 0.05141 0.04863-0.78638 0.77262 0.69096-0.69581
   1   3   7   27.01    1.99  86 0.06106-0.02521-0.78168 0.98785 0.69667-0.20650
   1   3  12   14.33    3.34  87 0.05141-0.03548-0.78638 0.95633 0.69096 0.17280
   2  -1  -1  186.83    4.96  87 0.05080 0.16639-0.78668 0.67570 0.69059-0.76629
   2   3   7   44.55    2.03  86 0.06535 0.07092-0.77955 0.97174 0.69916-0.21410
   2   3  12    0.51    3.11  87 0.05141 0.06494-0.78638 0.94091 0.69096 0.16665
   3   1   2  308.67    3.43  86 0.06427 0.21604-0.78008 0.81347 0.69854-0.57343
   3   2   4  510.33    3.88  86 0.06749 0.19253-0.77847 0.88763 0.70040-0.43490
   3   3   8   52.10    2.17  86 0.06320 0.16938-0.78062 0.95117 0.69792-0.14267
   3   3   9   21.38    2.67  86 0.05250 0.17587-0.78586 0.94820 0.69161-0.06054
   3   3  10  161.96    3.65  87 0.05141 0.17341-0.78638 0.94228 0.69096 0.01382
   3   3  11    8.63    3.15  86 0.05398 0.16731-0.78514 0.93233 0.69249 0.08650
   3   3  12    1.12    2.33  86 0.06534 0.15184-0.77955 0.92126 0.69916 0.15440
   4  -2  -1   55.88    2.77  87 0.04927 0.38199-0.78741 0.55762 0.68968-0.76716
   4  -1   0   20.13    2.36  87 0.04827 0.36635-0.78788 0.64143 0.68907-0.70098
   4   2   5  560.51    3.84  86 0.05999 0.29750-0.78221 0.86983 0.69604-0.36128
   5  -3  -1  265.24    4.34  87 0.04612 0.49863-0.78890 0.45414 0.68778-0.76248
   5   0   2   84.84    2.19  86 0.05892 0.43581-0.78274 0.69668 0.69541-0.57220
   5   2   7   26.80    2.59  87 0.05060 0.39910-0.78677 0.84617 0.69047-0.21185
   6  -3   0    1.63    2.58  87 0.04604 0.59532-0.78894 0.43283 0.68773-0.69178
   6   1   5   34.81    1.88  86 0.06856 0.50166-0.77793 0.74705 0.70102-0.36671
   7  -5   0    2.96    3.24  87 0.05282 0.71283-0.78570 0.23434 0.69180-0.68201
   7  -2   2    2.60    1.91  86 0.06427 0.65698-0.78008 0.48587 0.69854-0.56775
   7   0   5   92.83    2.49  86 0.06106 0.62304-0.78168 0.64507 0.69667-0.35941
   7   1   8    8.49    2.20  86 0.06642 0.59369-0.77901 0.71189 0.69978-0.14660
   7   1   9    0.76    2.36  86 0.05892 0.59699-0.78274 0.70821 0.69541-0.06742
   8  -4   2    4.77    2.45  86 0.06642 0.78036-0.77901 0.29032 0.69978-0.55580
   8  -3   3   -0.54    3.17  87 0.05355 0.77605-0.78535 0.37871 0.69224-0.48157
   8  -2   4    2.77    2.23  86 0.05999 0.75438-0.78221 0.45763 0.69604-0.42166
   8  -1   6   31.12    3.45  87 0.05170 0.74057-0.78624 0.53896 0.69113-0.27426
  -8  -6   0    3.75    3.10  87 0.02952-0.75633-0.79677 0.36879 0.67732-0.58358
  -8  -5   1   27.49    3.19  87 0.03249-0.77628-0.79544 0.45134 0.67917-0.52081
  -8  -3   4    4.42    3.09  87 0.03005-0.81051-0.79653 0.61098 0.67765-0.31237
  -7  -7  -2    4.65    3.05  87 0.03005-0.63651-0.79653 0.27858 0.67765-0.72987
  -7  -1   7   28.12    3.51  87 0.03452-0.75271-0.79452 0.75279 0.68042-0.11485
  -6  -7  -3    8.75    2.75  88 0.03077-0.53321-0.79621 0.27155 0.67810-0.81051
  -6  -4  -1    4.17    1.78  87 0.03650-0.58306-0.79362 0.52586 0.68165-0.69071
  -6  -3   0   36.08    2.61  87 0.03208-0.59627-0.79562 0.61082 0.67892-0.62296
  -6   0   7    6.30    2.93  87 0.03348-0.66332-0.79499 0.83012 0.67978-0.12694
  -5  -9  -4    2.11    2.21  87 0.04724-0.41926-0.78864 0.07583 0.68819-0.88182
  -5  -8  -4   16.94    2.08  87 0.03650-0.42118-0.79362 0.17099 0.68165-0.88416
  -5  -4  -2  392.08    3.30  87 0.03542-0.47857-0.79411 0.51841 0.68098-0.76928
  -5  -3  -1  113.17    2.30  87 0.04187-0.50170-0.79115 0.59824 0.68494-0.70757
  -5  -2   0  116.11    2.93  88 0.02937-0.50549-0.79683 0.68733 0.67723-0.63371
  -4  -6  -4  144.74    3.01  88 0.02845-0.33803-0.79724 0.34092 0.67665-0.90121
  -3 -10  -5    5.92    2.48  87 0.04187-0.19641-0.79115-0.03321 0.68494-0.95531
  -3  -9  -5   19.21    2.18  87 0.04187-0.20873-0.79115 0.05714 0.68494-0.96313
  -3  -8  -5  101.28    3.16  87 0.03063-0.21062-0.79627 0.15255 0.67801-0.96533
  -3   2  11   13.37    3.50  87 0.03221-0.40000-0.79556 0.93864 0.67900 0.13956
  -2  -7  -5  101.84    3.00  88 0.02948-0.12192-0.79678 0.22957 0.67729-0.97883
  -1  -7  -5   19.03    1.92  87 0.04080-0.03255-0.79165 0.20984 0.68428-0.99122
  -1  -3  -3    6.99    1.67  87 0.04402-0.09393-0.79015 0.55583 0.68625-0.87850
   0  -7  -5   56.37    2.30  87 0.03757 0.07057-0.79313 0.19741 0.68231-0.99425
   1 -10  -5    2.24    2.56  87 0.03865 0.20839-0.79264-0.08825 0.68297-0.97387
   1  -8  -5   29.59    2.22  87 0.03865 0.18253-0.79264 0.09209 0.68297-0.99111
   1  -3  -3   65.51    3.26  87 0.03541 0.11470-0.79412 0.53131 0.68097-0.88374
   1   3   8    7.18    1.78  87 0.03972-0.00785-0.79214 0.99093 0.68363-0.11860
   1   3   9  110.54    3.25  88 0.03005-0.00186-0.79653 0.98789 0.67765-0.03747
   1   3  10   27.22    2.91  88 0.03005-0.00565-0.79653 0.98070 0.67765 0.03668
   1   3  11    0.85    2.08  87 0.03757-0.01581-0.79313 0.97009 0.68231 0.10558
   2   2   4 1573.54    6.83  87 0.03757 0.12253-0.79313 0.91665 0.68231-0.41170
   2   3   8  686.30    4.76  87 0.04617 0.08588-0.78914 0.97398 0.68755-0.12683
   2   3   9   90.71    2.51  87 0.03650 0.09197-0.79362 0.97068 0.68165-0.04590
   2   3  10    8.76    2.02  87 0.03542 0.08972-0.79411 0.96368 0.68098 0.02875
   2   3  11   50.75    2.64  87 0.04187 0.07926-0.79115 0.95392 0.68494 0.09944
   4   1   3    1.22    1.53  87 0.04080 0.33681-0.79165 0.80323 0.68428-0.48969
   4   2   6   11.30    2.37  88 0.02831 0.32493-0.79730 0.87787 0.67656-0.26733
   5  -1   1   21.39    2.38  88 0.03049 0.48014-0.79634 0.62777 0.67792-0.62003
   5   1   4   64.34    2.00  87 0.04724 0.42643-0.78864 0.77944 0.68819-0.42304
   5   2   8  106.45    2.50  87 0.03650 0.41035-0.79362 0.84463 0.68165-0.12756
   5   2   9    0.58    2.75  88 0.03005 0.41178-0.79653 0.84137 0.67765-0.05000
   5   2  10   27.77    3.20  88 0.02919 0.40880-0.79691 0.83440 0.67711 0.02618
   5   2  11   -0.37    3.20  88 0.03166 0.40273-0.79581 0.82397 0.67865 0.09816
   6  -5  -1    2.26    2.76  87 0.02702 0.64543-0.79788 0.26789 0.67575-0.73872
   6  -2   1   -0.63    2.42  88 0.03220 0.59096-0.79557 0.52203 0.67899-0.61692
   6  -1   2   34.92    1.95  87 0.04617 0.56168-0.78914 0.60038 0.68755-0.55936
   6   1   6   55.95    2.30  87 0.04187 0.52502-0.79115 0.75278 0.68494-0.27616
   7  -1   4    8.46    2.73  87 0.03063 0.66971-0.79627 0.57612 0.67801-0.40728
   7   0   6    1.96    2.00  87 0.03757 0.64356-0.79313 0.64999 0.68231-0.27027
   8  -2   5    0.69    3.18  88 0.02951 0.78016-0.79677 0.46625 0.67731-0.32784
   8  -1   7    3.00    2.42  87 0.03650 0.75362-0.79362 0.53868 0.68165-0.19103
  -8  -7  -1    3.91    2.37  88 0.01522-0.72455-0.80285 0.29004 0.66819-0.64105
  -8  -4   2    8.58    2.15  88 0.02490-0.78553-0.79868 0.53578 0.67435-0.44803
  -7  -5  -1   15.01    2.01  88 0.01629-0.65138-0.80239 0.45756 0.66888-0.66396
  -7  -4   0   37.12    2.03  88 0.01844-0.67012-0.80147 0.54013 0.67026-0.59949
  -7  -3   1   10.11    2.70  89 0.00637-0.67444-0.80653 0.62700 0.66245-0.52538
  -7  -2   3   21.86    2.07  88 0.01737-0.70634-0.80193 0.69904 0.66957-0.39237
  -7  -1   6   19.10    3.21  88 0.01083-0.72471-0.80469 0.77026 0.66536-0.17413
  -6  -9  -4    5.37    3.48  89 0.00758-0.47914-0.80604 0.10645 0.66324-0.85046
  -6  -5  -2   61.13    2.07  88 0.02490-0.55581-0.79868 0.44697 0.67435-0.74907
  -6  -2   1    4.38    2.47  88 0.00968-0.58982-0.80517 0.70265 0.66461-0.54301
  -6  -1   3    9.12    1.90  88 0.01737-0.61779-0.80193 0.77545 0.66957-0.40695
  -6   0   6    1.15    3.29  89-0.00643-0.61964-0.81165 0.85439 0.65398-0.17648
  -5  -7  -4    2.34    1.99  88 0.01629-0.41282-0.80239 0.27127 0.66888-0.88053
  -5  -5  -3  325.03    3.06  88 0.01522-0.44200-0.80285 0.44453 0.66819-0.82227
  -4 -10  -5    0.27    2.47  88 0.01844-0.27292-0.80147-0.00848 0.67026-0.93529
  -4  -9  -5   -2.69    2.25  88 0.01522-0.28269-0.80285 0.08297 0.66819-0.94176
  -4  -4  -3  157.13    2.94  88 0.00936-0.34855-0.80530 0.52309 0.66440-0.83295
  -4  -3  -2   12.25    1.66  88 0.02382-0.37983-0.79915 0.59946 0.67367-0.77641
  -4  -2  -1   -0.75    1.56  88 0.01952-0.39091-0.80101 0.68444 0.67094-0.70819
  -4   0   2  150.55    3.40  88 0.00992-0.41901-0.80507 0.84773 0.66477-0.49549
  -3  -7  -5    6.29    2.67  88 0.00849-0.20198-0.80566 0.25330 0.66384-0.95975
  -3  -5  -4   24.36    1.82  88 0.02059-0.24288-0.80055 0.42072 0.67163-0.91067
  -3   2   8  118.61    5.11  89-0.00320-0.35451-0.81038 0.97563 0.65614-0.06112
  -3   2  10    1.33    2.89  89 0.00491-0.36948-0.80713 0.95836 0.66150 0.08188
  -2  -3  -3    3.61    1.75  88 0.01307-0.16381-0.80375 0.58308 0.66680-0.85389
  -2  -2  -2   62.32    2.18  88 0.02597-0.19321-0.79820 0.66079 0.67503-0.79618
   1  -7  -5  222.94    4.05  88 0.00876 0.19970-0.80555 0.19513 0.66401-0.98093
   1   2   4  153.39    2.82  88 0.01737 0.04249-0.80193 0.93932 0.66957-0.39443
   2  -5  -4  207.56    5.18  89-0.00221 0.28194-0.80999 0.35880 0.65679-0.92163
   2   1   2  994.84    6.27  88 0.01522 0.16503-0.80285 0.85019 0.66819-0.53886
   3   2   5  149.73    2.41  88 0.01952 0.23729-0.80101 0.90282 0.67094-0.33133
   4   2   7  112.67    2.91  89 0.00710 0.34278-0.80623 0.87935 0.66293-0.17840
   4   2  12    1.98    3.44  89 0.00902 0.32154-0.80544 0.84176 0.66418 0.19242
   5  -5  -2   10.22    2.82  89 0.00760 0.56607-0.80603 0.29720 0.66326-0.79498
   5  -2   0  220.01    3.23  88 0.02167 0.50604-0.80008 0.54875 0.67231-0.68038
   5   1   5   72.02    2.68  89 0.00968 0.46044-0.80517 0.78797 0.66461-0.32552
   6   0   4    7.74    1.81  88 0.02597 0.56103-0.79820 0.68445 0.67503-0.40755
   6   1   7    7.22    1.96  88 0.02382 0.53907-0.79915 0.75411 0.67367-0.19076
   6   1   8   11.44    2.76  88 0.01115 0.54790-0.80456 0.75052 0.66556-0.10884
   6   1   9    1.78    2.96  89 0.00769 0.54746-0.80599 0.74670 0.66331-0.03217
   6   1  10    6.33    3.28  89 0.00812 0.54314-0.80581 0.73925 0.66360 0.04335
   7  -6   0    1.40    2.52  88 0.02059 0.75968-0.80055 0.15841 0.67163-0.65526
   7  -4   1    3.03    2.12  88 0.01629 0.73415-0.80239 0.33477 0.66888-0.59507
   7  -3   2   15.04    2.88  89 0.00551 0.72936-0.80688 0.42221 0.66189-0.52181
   7  -2   3   28.98    2.87  89 0.01037 0.70661-0.80488 0.50247 0.66506-0.45865
   7   0   7   -0.74    2.07  88 0.02059 0.65632-0.80055 0.65040 0.67163-0.18577
   7   0   8   30.97    3.32  89 0.00915 0.66267-0.80539 0.64748 0.66426-0.10263
   7   0   9   10.47    3.45  89 0.00554 0.66303-0.80687 0.64221 0.66191-0.02624
   8  -4   3    0.35    2.37  88 0.01737 0.82627-0.80193 0.30578 0.66957-0.45197
   8  -3   4    6.88    2.39  88 0.01629 0.81007-0.80239 0.38859 0.66888-0.38501
   8  -2   6    0.62    3.39  89 0.00822 0.79769-0.80577 0.46823 0.66366-0.23957
  -8  -6  -1    4.91    3.13  89-0.01262-0.70966-0.81411 0.39302 0.64983-0.63017
  -8  -5   0   29.36    2.22  89-0.00832-0.73128-0.81246 0.47514 0.65274-0.56788
  -8  -4   1    1.07    2.96  89-0.01285-0.74157-0.81419 0.55827 0.64968-0.49741
  -8  -3   3   44.14    2.44  89-0.00294-0.77339-0.81035 0.63113 0.65634-0.36607
  -8  -2   6   13.81    3.57  89-0.00892-0.79261-0.81269 0.70277 0.65234-0.14737
  -7  -8  -3   23.57    2.48  89 0.00029-0.58965-0.80907 0.20771 0.65848-0.77557
  -7  -6  -2    5.65    2.01  89 0.00244-0.62149-0.80820 0.37910 0.65991-0.72048
  -7  -1   5    1.70    2.93  90-0.01939-0.68990-0.81665 0.78899 0.64522-0.22764
  -6  -8  -4    4.47    2.19  89-0.00617-0.47827-0.81162 0.20316 0.65419-0.85160
  -6  -6  -3   20.22    1.92  89 0.00244-0.51723-0.80820 0.37328 0.65991-0.80048
  -5  -9  -5   43.45    3.45  90-0.01504-0.35190-0.81502 0.10860 0.64819-0.91607
  -5  -6  -4    0.72    2.54  90-0.01477-0.39625-0.81492 0.37185 0.64837-0.86848
  -5  -1   1   91.71    2.84  90-0.01388-0.47902-0.81459 0.78790 0.64898-0.54022
  -4  -8  -5   17.47    2.05  89 0.00351-0.28386-0.80776 0.17796 0.66061-0.94241
  -4  -1   0   11.42    2.23  90-0.01448-0.37428-0.81481 0.78116 0.64857-0.61925
  -3   0   1  434.31    4.98  89-0.00079-0.30397-0.80950 0.84483 0.65777-0.56802
  -3   2   9   11.00    2.91  89-0.01154-0.34988-0.81369 0.97155 0.65057 0.01913
  -2  -6  -5  275.91    3.16  89-0.00724-0.09807-0.81204 0.33497 0.65346-0.96357
  -2  -1  -1 3137.03   11.74  89 0.00351-0.18716-0.80776 0.75300 0.66061-0.71632
  -2   2  12    2.56    3.38  89-0.01395-0.25823-0.81461 0.93773 0.64893 0.23830
  -1  -6  -5   16.97    1.86  89 0.00136-0.00604-0.80863 0.31679 0.65920-0.97451
  -1  -4  -4  360.71    3.69  89-0.00402-0.02983-0.81077 0.49278 0.65562-0.91376
   0  -6  -5  506.41    4.91  89-0.00866 0.10449-0.81259 0.30678 0.65251-0.97309
   0  -4  -4   46.05    2.57  89-0.01040 0.07709-0.81326 0.48114 0.65134-0.91468
   2  -9  -5   53.03    3.86  89-0.01363 0.34784-0.81449 0.00907 0.64915-0.95319
   3   0   1   11.35    1.70  89-0.00509 0.30278-0.81120 0.76168 0.65491-0.59553
   3   2   6  203.61    3.11  90-0.01336 0.26635-0.81439 0.90900 0.64933-0.23422
   4   1   4  116.75    2.81  90-0.01262 0.38625-0.81411 0.81865 0.64983-0.38026
   4   2   8   14.90    1.87  89-0.00509 0.35171-0.81120 0.87668 0.65490-0.09496
   4   2   9   26.70    2.79  89-0.01094 0.35243-0.81347 0.87128 0.65097-0.01687
   4   2  10    1.12    2.00  89-0.00832 0.34666-0.81246 0.86389 0.65274 0.05527
   4   2  11   19.17    2.41  89-0.00187 0.33647-0.80992 0.85365 0.65706 0.12594
   5   0   3  126.75    2.34  89-0.00294 0.49395-0.81035 0.71750 0.65634-0.45787
   5   1   6  424.97    3.90  90-0.01505 0.48202-0.81503 0.79106 0.64818-0.23464
   6  -1   3   44.75    2.67  89-0.01086 0.61449-0.81344 0.61571 0.65103-0.44815
   6   0   5   80.84    2.32  89-0.00724 0.59158-0.81204 0.68946 0.65346-0.31125
   7  -1   5    7.01    2.00  89 0.00136 0.69568-0.80863 0.58287 0.65920-0.31247
   8  -3   5    7.51    3.48  89-0.01200 0.83390-0.81387 0.39293 0.65025-0.29111
  -9  -4   3    0.14    3.61  91-0.03513-0.82877-0.82231 0.56710 0.63423-0.33086
  -8  -7  -2   73.46    2.75  90-0.02868-0.67652-0.82005 0.31605 0.63876-0.68669
  -8  -2   5   34.71    3.52  90-0.03013-0.76717-0.82056 0.71732 0.63775-0.20802
  -7  -7  -3   11.39    2.14  90-0.02115-0.58033-0.81733 0.30608 0.64399-0.77169
  -7  -5  -2   67.67    3.01  91-0.03641-0.59484-0.82275 0.48440 0.63332-0.70283
  -7  -4  -1  202.60    3.54  91-0.03405-0.61394-0.82194 0.56686 0.63499-0.63900
  -7  -2   2   75.69    3.03  90-0.03115-0.65406-0.82092 0.72569 0.63703-0.43596
  -6  -7  -4    2.19    2.01  90-0.02760-0.46963-0.81967 0.30220 0.63951-0.84585
  -6  -4  -2  132.11    2.35  90-0.02760-0.51600-0.81967 0.55838 0.63951-0.72344
  -6  -3  -1   20.73    2.53  90-0.03221-0.52858-0.82129 0.64318 0.63629-0.65507
  -5  -8  -5   26.22    2.29  90-0.02975-0.35046-0.82043 0.20534 0.63801-0.91593
  -5  -3  -2   55.53    2.57  91-0.03561-0.42047-0.82248 0.63666 0.63389-0.73087
  -5   0   3    1.91    2.37  90-0.02840-0.48639-0.81995 0.86882 0.63896-0.39095
  -4  -7  -5    8.71    1.97  90-0.02007-0.27285-0.81693 0.27791 0.64473-0.93661
  -4  -5  -4   90.36    2.18  90-0.01685-0.30552-0.81574 0.44929 0.64694-0.88136
  -3 -10  -6    3.28    3.58  91-0.03466-0.11593-0.82215 0.00509 0.63456-0.97935
  -3  -6  -5   92.17    2.21  90-0.02653-0.17856-0.81928 0.35608 0.64026-0.94540
  -3  -3  -3   58.95    1.93  90-0.02545-0.22583-0.81889 0.61234 0.64101-0.82320
  -3  -2  -2  191.93    2.85  90-0.02545-0.24219-0.81889 0.69542 0.64101-0.75728
  -2 -10  -6    2.78    2.48  90-0.02653-0.02395-0.81928-0.01246 0.64026-0.98984
  -2  -9  -6    3.00    3.15  91-0.03204-0.03181-0.82123 0.08008 0.63641-0.99620
  -2  -4  -4  180.36    2.67  90-0.01900-0.11523-0.81654 0.51270 0.64546-0.89874
  -1 -10  -6   26.87    3.69  90-0.03053 0.08064-0.82070-0.02398 0.63746-0.99255
  -1  -9  -6  294.89    4.45  90-0.03334 0.07101-0.82169 0.06663 0.63549-0.99939
   0   2  13    0.72    3.71  91-0.03244-0.04257-0.82137 0.90686 0.63613 0.31566
   1   1   2  164.47    3.99  91-0.03475 0.11457-0.82218 0.88373 0.63450-0.49936
   1   2  13    1.98    3.52  90-0.03100 0.05684-0.82087 0.89246 0.63713 0.30968
   2  -8  -5   31.73    3.24  90-0.03120 0.35309-0.82094 0.10561 0.63700-0.95030
   2   2   5  338.44    3.40  90-0.01685 0.17269-0.81574 0.93187 0.64694-0.30125
   3   1   3    5.19    1.68  90-0.01792 0.29426-0.81614 0.84218 0.64620-0.44749
   3   2   7  173.57    3.14  91-0.03364 0.28309-0.82179 0.90882 0.63528-0.14541
   3   2  11   31.34    3.20  91-0.03368 0.26682-0.82181 0.87910 0.63525 0.15317
   3   2  12   -0.03    2.34  90-0.01792 0.24844-0.81614 0.86730 0.64620 0.21626
   4   0   2  212.77    2.87  90-0.01792 0.41200-0.81614 0.74557 0.64620-0.51669
   5   1   7  195.05    3.26  91-0.03298 0.49560-0.82156 0.78903 0.63575-0.14640
   5   1  11    0.15    3.29  90-0.03190 0.47941-0.82119 0.76069 0.63650 0.14932
   6  -6  -1    5.60    3.11  91-0.03863 0.72250-0.82351 0.20363 0.63175-0.68311
   6  -4   0  247.26    4.36  91-0.03302 0.68680-0.82158 0.37437 0.63572-0.62990
   6  -2   2    0.17    2.50  91-0.03405 0.65402-0.82194 0.54228 0.63499-0.49882
   6   0   6    4.11    1.91  90-0.02975 0.61045-0.82043 0.68995 0.63801-0.22263
   7  -5   1    0.53    3.23  90-0.02868 0.79214-0.82005 0.26120 0.63876-0.55611
   7  -2   4   20.66    2.12  90-0.02653 0.74011-0.81928 0.50976 0.64026-0.35921
   7  -1   6    2.96    2.03  90-0.02007 0.71243-0.81694 0.58420 0.64473-0.22369
   7  -1   7   82.68    3.49  91-0.03366 0.72273-0.82180 0.58107 0.63526-0.13916
   8  -4   4    2.91    2.49  90-0.01900 0.85865-0.81654 0.31266 0.64546-0.35260
  -9  -5   1   27.21    2.59  91-0.04556-0.79723-0.82601 0.49457 0.62661-0.46189
  -8  -3   2    3.01    2.10  91-0.04019-0.73242-0.82423 0.65229 0.63045-0.41455
  -7  -6  -3    7.87    2.02  91-0.05093-0.56458-0.82776 0.40729 0.62273-0.75751
  -7  -3   0    9.03    1.94  91-0.04557-0.61884-0.82601 0.65445 0.62661-0.56339
  -6  -9  -5   -0.50    2.44  91-0.05093-0.41778-0.82776 0.13673 0.62273-0.88613
  -6  -5  -3   52.58    2.05  91-0.03804-0.48921-0.82350 0.47872 0.63198-0.78161
  -6  -1   2  159.02    2.81  91-0.04449-0.55306-0.82566 0.80629 0.62738-0.43878
  -5  -4  -3   23.59    1.85  91-0.04019-0.39985-0.82423 0.55513 0.63045-0.79363
  -3  -9  -6   46.96    2.47  91-0.03912-0.12417-0.82386 0.09718 0.63122-0.98442
  -3  -4  -4  363.12    3.33  91-0.04449-0.19076-0.82566 0.53601 0.62738-0.87516
  -2  -8  -6  145.09    2.77  91-0.04449-0.03152-0.82566 0.17482 0.62738-0.99440
  -1  -8  -6   13.96    2.06  91-0.04771 0.07159-0.82672 0.16223 0.62506-0.99737
   1   2   5  783.99    5.23  91-0.04556 0.10188-0.82601 0.95608 0.62661-0.27605
   2   2   6    4.50    1.65  91-0.04986 0.20291-0.82741 0.93635 0.62351-0.20360
   2   2  12   -1.81    2.31  91-0.04019 0.17059-0.82423 0.88925 0.63045 0.23712
   3   2   8   85.91    2.29  91-0.04342 0.28953-0.82530 0.90506 0.62815-0.06390
   3   2   9  272.24    3.30  91-0.04556 0.28799-0.82601 0.89861 0.62661 0.01248
   3   2  10   84.49    2.66  91-0.04127 0.27965-0.82459 0.89019 0.62969 0.08400
   4   1   5  305.17    3.07  91-0.04879 0.41987-0.82706 0.82367 0.62428-0.28070
   5  -1   2   76.33    2.15  91-0.04556 0.55347-0.82601 0.64955 0.62661-0.49385
   5   0   4    3.73    1.73  91-0.04664 0.53374-0.82637 0.72647 0.62583-0.35280
   5   1   8   19.86    1.93  91-0.04019 0.49924-0.82423 0.78552 0.63045-0.06706
   5   1   9   39.86    2.28  91-0.04234 0.49797-0.82495 0.77889 0.62892 0.00833
   5   1  10    6.39    2.14  91-0.03912 0.49131-0.82386 0.77031 0.63122 0.08077
   6  -3   1  214.03    3.32  91-0.04449 0.68195-0.82566 0.46159 0.62738-0.55653
   6  -1   4   28.08    1.93  91-0.04879 0.64982-0.82706 0.62153 0.62428-0.34813
   6   0   7   51.76    2.34  91-0.04342 0.61984-0.82530 0.68864 0.62815-0.13587
   6   0   8  118.86    2.77  91-0.04986 0.62368-0.82741 0.68336 0.62351-0.05781
   6   0  10   13.17    2.47  91-0.04771 0.61284-0.82672 0.66890 0.62506 0.09081
   7  -4   2    2.75    2.15  91-0.04664 0.79282-0.82637 0.35111 0.62583-0.47693
   7  -3   3   27.28    2.31  91-0.04342 0.77361-0.82530 0.43268 0.62815-0.41312
   7  -1   8    1.28    2.25  91-0.04019 0.72578-0.82423 0.57635 0.63045-0.06021
   7  -1   9   14.65    2.59  91-0.04127 0.72273-0.82459 0.57059 0.62969 0.01496
  -2  -2 -11   -1.43    2.09   2 0.73414-0.86911 0.23913-0.30813-0.65188-0.14157
  -2  -2 -10    8.00    1.96   2 0.73726-0.87443 0.24754-0.32575-0.64364-0.07501
  -2  -2  -9   94.73    3.03   2 0.73831-0.87870 0.25045-0.33698-0.64075-0.00378
  -2  -2  -8    0.23    1.83   2 0.73692-0.88191 0.24661-0.34014-0.64456 0.07597
  -2  -1 -12    2.58    2.26   2 0.73793-0.88139 0.24940-0.21973-0.64179-0.23577
  -2  -1  -6 1167.34    6.14   3 0.73956-0.90550 0.25397-0.27272-0.63723 0.20848
  -2   2  -4  218.07    4.80   3 0.73879-0.95021 0.25180-0.01408-0.63940 0.33286
  -1  -4 -11   39.53    2.38   2 0.73623-0.74429 0.24474-0.51090-0.64640-0.13471
  -1  -4 -10    5.59    2.83   2 0.73868-0.75088 0.25149-0.52376-0.63971-0.06649
  -1  -4  -9   23.71    2.76   2 0.73893-0.75499 0.25219-0.53362-0.63901 0.00737
  -1  -4  -8  158.14    3.17   2 0.73821-0.75649 0.25019-0.53871-0.64100 0.08389
  -1  -4  -7   15.19    1.82   2 0.73414-0.75687 0.23913-0.53541-0.65188 0.17021
  -1  -3  -5  134.27    3.00   3 0.73893-0.78216 0.25219-0.47275-0.63901 0.29762
  -1   7  -4    2.95    2.70   2 0.73825-0.91370 0.25030 0.42535-0.64090 0.28782
   0  -5 -12    5.83    2.56   2 0.73793-0.62925 0.24940-0.61191-0.64179-0.21001
   0  -5  -6  242.07    2.92   2 0.73484-0.64819 0.24100-0.64880-0.65006 0.24619
   0  -4  -4   47.32    2.54   3 0.73911-0.67283 0.25269-0.58490-0.63851 0.37528
   0   7  -1    3.70    2.62   3 0.73912-0.82640 0.25273 0.38636-0.63846 0.50193
   0   9  -4    8.87    3.27   3 0.73996-0.83968 0.25511 0.58659-0.63608 0.25906
   1  -6  -7   99.06    3.23   3 0.73893-0.53571 0.25219-0.75765-0.63901 0.16487
   1  -4  -2 1246.40    6.61   2 0.73623-0.57716 0.24474-0.60561-0.64640 0.52714
   1   3   2  504.87    4.41   2 0.73692-0.68298 0.24661-0.00497-0.64456 0.76244
   1   4   2 1483.22    6.93   2 0.73907-0.69792 0.25258 0.07958-0.63861 0.74725
   1   8   0   -0.79    2.75   2 0.73893-0.74099 0.25219 0.45727-0.63901 0.56478
   1  10  -3    1.13    3.59   2 0.73893-0.75407 0.25219 0.65907-0.63901 0.32364
   2  -7  -9    1.40    2.28   2 0.73589-0.41162 0.24381-0.83858-0.64732 0.02540
   2  -7  -8    2.60    2.20   2 0.73449-0.41490 0.24007-0.84110-0.65097 0.10506
   2   2   3  851.67    5.73   2 0.73874-0.57573 0.25164-0.12168-0.63955 0.83576
   2   3   3    6.84    1.86   2 0.73414-0.58307 0.23913-0.01865-0.65188 0.83974
   2   4   3  313.88    3.26   2 0.73554-0.59778 0.24287 0.06770-0.64823 0.82709
   2   7   2  100.59    2.44   2 0.73484-0.63200 0.24100 0.34796-0.65006 0.72832
   2  10  -1    3.13    2.35   2 0.73414-0.65704 0.23913 0.64253-0.65188 0.48094
   3  -7  -6    3.52    3.04   2 0.73843-0.32554 0.25080-0.88113-0.64040 0.23853
   3  -6  -3   34.01    2.14   2 0.73726-0.34756 0.24754-0.81074-0.64364 0.45781
   3   4   4  357.14    3.82   3 0.73953-0.50517 0.25387 0.03575-0.63732 0.88493
   3   7   3   21.41    1.92   2 0.73414-0.53433 0.23913 0.32796-0.65188 0.79987
   4   7   4   48.58    2.84   2 0.73893-0.44351 0.25219 0.29325-0.63901 0.85686
   4  10   2   -0.15    3.32   3 0.73992-0.47656 0.25498 0.57627-0.63621 0.67776
   5  -7  -4   13.01    3.34   2 0.73833-0.13257 0.25051-0.92417-0.64069 0.37813
   5   3   5   90.19    2.36   2 0.73589-0.29206 0.24381-0.08116-0.64732 0.96924
   5   4   5   33.43    2.03   2 0.73484-0.30375 0.24100 0.01154-0.65006 0.96396
   5   5   5  523.45    3.80   2 0.73658-0.31846 0.24567 0.09805-0.64548 0.94994
   5   8   4    8.95    2.20   2 0.73589-0.35172 0.24381 0.37685-0.64732 0.85233
   6  -1   4   31.05    2.86   3 0.73910-0.13964 0.25266-0.45802-0.63854 0.91647
   6   7   5    1.74    2.93   2 0.73793-0.24315 0.24940 0.25986-0.64179 0.92434
   6   9   4    3.09    2.54   2 0.73759-0.26414 0.24847 0.44794-0.64271 0.83402
   7   1   5  118.34    2.80   2 0.73484-0.06442 0.24100-0.28841-0.65006 0.98002
   7   8   5    4.26    3.56   2 0.73922-0.15688 0.25302 0.33168-0.63818 0.90511
   8   1   5   12.64    2.19   2 0.73414 0.03714 0.23913-0.30145-0.65188 0.97681
   9  -1   4    0.94    3.58   3 0.74152 0.15779 0.25961-0.50884-0.63152 0.89501
   9   1   5    5.98    3.52   2 0.73876 0.13219 0.25172-0.32799-0.63948 0.96092
  -2  -1 -11   20.34    2.18   3 0.74210-0.88990 0.26234-0.24517-0.62880-0.17252
  -2  -1 -10   37.34    2.94   4 0.74547-0.89743 0.27250-0.26272-0.61826-0.10877
  -2  -1  -7   20.06    2.70   4 0.74546-0.90790 0.27248-0.28378-0.61829 0.11523
  -2   0 -12   14.04    2.39   3 0.74273-0.90008 0.26419-0.14743-0.62690-0.25882
  -2   0  -5  536.88    4.62   3 0.74179-0.92391 0.26142-0.19725-0.62974 0.26689
  -2   1 -12   -1.09    3.37   4 0.74545-0.91727 0.27245-0.06612-0.61831-0.27653
  -2   4 -11    2.49    3.60   4 0.74623-0.96027 0.27488 0.19497-0.61576-0.23047
  -2   5 -10    1.41    3.40   4 0.74418-0.97076 0.26855 0.28267-0.62239-0.15803
  -1  -3 -12   17.63    3.33   3 0.74429-0.76101 0.26888-0.43784-0.62204-0.24213
  -1   8  -7    0.78    4.73   4 0.74785-0.92537 0.28005 0.50741-0.61028 0.02362
   0  -5 -11    5.60    2.35   3 0.74084-0.63619 0.25865-0.62979-0.63257-0.14451
   0  -5 -10    3.44    2.05   3 0.74304-0.64226 0.26511-0.64359-0.62595-0.07598
   0  -5  -9   15.27    2.00   3 0.74365-0.64661 0.26695-0.65355-0.62405-0.00351
   0  -5  -8   19.95    1.93   3 0.74304-0.64900 0.26511-0.65886-0.62595 0.07277
   0  -5  -7   45.85    2.03   3 0.74019-0.64989 0.25680-0.65764-0.63444 0.15644
   0   6   0  153.35    3.33   3 0.74486-0.82263 0.27062 0.27109-0.62023 0.56720
   0   8  -2   25.56    2.27   3 0.74179-0.83811 0.26142 0.47597-0.62974 0.41048
   1  -6 -11    0.10    2.46   3 0.73987-0.52224 0.25587-0.73177-0.63538-0.13784
   1  -6 -10   -1.03    2.31   3 0.74179-0.52812 0.26142-0.74481-0.62974-0.06921
   1  -6  -9    4.88    2.08   3 0.74242-0.53278 0.26326-0.75378-0.62785 0.00342
   1  -6  -8   83.95    2.46   3 0.74147-0.53491 0.26050-0.75881-0.63068 0.08173
   1  -5  -4  227.60    3.01   3 0.74084-0.56111 0.25865-0.69547-0.63257 0.37349
   1  -3  -1  580.91    5.82   4 0.74521-0.60310 0.27172-0.54963-0.61908 0.56624
   1   2   2 1293.21    7.36   3 0.74084-0.67448 0.25865-0.10737-0.63257 0.75869
   1   5   2  214.70    3.37   3 0.74486-0.71707 0.27062 0.15192-0.62023 0.72025
   1   7   1    0.55    1.82   3 0.74210-0.73573 0.26234 0.34796-0.62880 0.63719
   1   9  -1   15.02    2.27   3 0.74116-0.75331 0.25957 0.54630-0.63163 0.47299
   2  -6  -5  459.09    4.47   3 0.74423-0.44795 0.26869-0.80264-0.62224 0.29197
   2  -4  -1  315.89    4.37   4 0.74542-0.49009 0.27235-0.65514-0.61842 0.56960
   2   5   3  220.18    2.81   3 0.74019-0.61588 0.25680 0.14446-0.63444 0.80452
   2   9   1   92.88    3.34   3 0.74493-0.66449 0.27086 0.50594-0.61998 0.60598
   3  -7  -9    1.35    3.52   4 0.74575-0.32183 0.27337-0.88311-0.61735-0.00615
   3  -7  -8    6.44    3.43   4 0.74515-0.32488 0.27154-0.88831-0.61927 0.07029
   3  -7  -7    7.06    2.20   3 0.74273-0.32659 0.26419-0.88787-0.62690 0.15155
   3  -4   0  342.73    5.32   3 0.74501-0.39291 0.27108-0.67517-0.61975 0.64035
   3   2   4  543.69    4.48   4 0.74502-0.48517 0.27111-0.16222-0.61972 0.88508
   3   3   4  105.95    2.26   3 0.74019-0.49349 0.25680-0.05787-0.63444 0.89190
   3   5   4   21.85    1.95   3 0.74242-0.52179 0.26326 0.11672-0.62785 0.86723
   3   8   3   45.13    2.96   3 0.74493-0.55875 0.27086 0.38665-0.61998 0.75873
   3   9   2   16.13    2.12   3 0.74052-0.56296 0.25772 0.49728-0.63351 0.68957
   3  10   1    5.13    2.32   3 0.74084-0.57190 0.25865 0.59456-0.63257 0.60519
   4  -7  -5    5.32    2.19   3 0.74052-0.23239 0.25772-0.91029-0.63351 0.30248
   4   9   3   13.53    2.18   3 0.74116-0.46806 0.25957 0.47318-0.63163 0.75698
   5  -6  -2   34.32    3.19   4 0.74522-0.15953 0.27173-0.87124-0.61907 0.49812
   5   2   5    4.80    2.00   3 0.74116-0.28453 0.25957-0.18685-0.63163 0.96246
   5   6   5   13.32    1.99   3 0.74052-0.33565 0.25772 0.17582-0.63351 0.92957
   5   9   4    6.81    3.24   4 0.74536-0.37507 0.27216 0.43962-0.61862 0.81256
   5  10   3   13.92    2.54   3 0.74210-0.38140 0.26234 0.54650-0.62880 0.74046
   6  -7  -4   -0.70    2.50   3 0.74147-0.03518 0.26050-0.94937-0.63068 0.36368
   6   1   5   27.36    2.07   3 0.74052-0.17069 0.25772-0.29023-0.63351 0.96811
   6   8   5    7.18    3.24   4 0.74486-0.26529 0.27062 0.32793-0.62023 0.89447
   7   4   6    7.89    2.97   4 0.74505-0.11788 0.27121-0.05399-0.61961 0.99704
   7   5   6  148.25    3.53   3 0.74500-0.13007 0.27105 0.03671-0.61978 0.98905
   8   4   6   12.92    2.42   3 0.74334-0.01630 0.26603-0.06310-0.62500 0.99870
   8   5   6   14.91    2.50   3 0.74273-0.02837 0.26419 0.02877-0.62690 0.99129
   8   6   6   24.60    3.69   3 0.74466-0.04263 0.27002 0.11296-0.62086 0.97724
  -2  -1  -9   88.10    2.35   4 0.74810-0.90208 0.28074-0.27755-0.60971-0.04366
  -2  -1  -8   12.95    1.90   4 0.74810-0.90615 0.28074-0.28504-0.60971 0.03158
  -2   0 -11   10.68    2.18   4 0.74866-0.90909 0.28256-0.17316-0.60776-0.20361
  -2   5  -9   -0.10    3.16   5 0.75056-0.98300 0.28891 0.25650-0.60090-0.10480
  -1  -3 -11   -0.44    2.05   4 0.74810-0.77009 0.28074-0.45729-0.60971-0.17966
  -1  -3 -10   24.91    2.93   5 0.75089-0.77623 0.29005-0.47489-0.59966-0.11478
  -1  -3  -7   22.99    2.66   5 0.75110-0.78738 0.29076-0.49738-0.59888 0.10860
  -1  -3  -6   22.67    1.88   4 0.74725-0.78674 0.27800-0.49112-0.61262 0.19633
  -1  -2 -13    2.33    2.55   4 0.74754-0.77492 0.27891-0.35186-0.61166-0.33529
  -1  -2  -4  151.28    2.70   4 0.74782-0.80782 0.27982-0.41705-0.61068 0.33478
  -1   8  -6    1.06    4.57   6 0.75654-0.93926 0.31076 0.46996-0.57653 0.06349
   0  -4 -12    3.67    3.32   5 0.75053-0.65479 0.28880-0.56289-0.60102-0.25778
   0  -4  -5    0.61    2.46   5 0.75056-0.67904 0.28891-0.61296-0.60090 0.26260
   0  -3  -3   32.82    2.70   5 0.75070-0.70117 0.28940-0.53832-0.60036 0.40327
   0   9  -3    8.47    3.17   5 0.75154-0.85545 0.29229 0.54147-0.59721 0.29355
   1  -5  -5    2.87    2.59   4 0.75065-0.56753 0.28923-0.71917-0.60055 0.26618
   1  -2   0    7.29    2.75   4 0.74906-0.62381 0.28388-0.47786-0.60634 0.61867
   1  10  -2   27.79    3.57   4 0.75034-0.77207 0.28816 0.61510-0.60172 0.36101
   2  -6  -6   88.27    3.03   4 0.75041-0.45009 0.28842-0.81560-0.60144 0.19719
   2  -5  -3    9.46    2.62   5 0.75134-0.47530 0.29159-0.75025-0.59797 0.40900
   2   1   3   41.70    2.84   5 0.75070-0.57478 0.28939-0.24947-0.60038 0.80483
   2   6   3  131.81    2.43   4 0.74696-0.63529 0.27709 0.21460-0.61359 0.77488
   2   8   2  122.61    2.59   4 0.74754-0.65834 0.27891 0.40067-0.61166 0.68109
   2  10   0    1.49    2.27   4 0.74754-0.67687 0.27891 0.59562-0.61166 0.51304
   3  -6  -4   -0.55    2.73   5 0.75056-0.35751 0.28891-0.84487-0.60090 0.34027
   3   6   4  129.29    2.41   4 0.74754-0.53942 0.27891 0.19124-0.61166 0.84274
   4  -7  -7   18.16    3.46   5 0.75075-0.23430 0.28955-0.92859-0.60020 0.12045
   4  -7  -6    2.35    2.24   4 0.74725-0.23517 0.27800-0.92364-0.61263 0.20796
   4  -6  -3  339.83    4.74   5 0.75155-0.26200 0.29233-0.87027-0.59717 0.40738
   4   0   4    9.59    1.85   4 0.74866-0.36224 0.28256-0.36894-0.60776 0.88630
   4   3   5   12.38    2.66   4 0.75035-0.40776 0.28821-0.11107-0.60167 0.92879
   4   4   5  176.81    2.63   4 0.74810-0.41744 0.28074-0.01272-0.60971 0.92775
   4   5   5   32.78    1.93   4 0.74893-0.43130 0.28346 0.07500-0.60679 0.91570
   4   8   4    0.42    2.04   4 0.74725-0.46418 0.27800 0.35844-0.61263 0.82118
   5  -7  -5    1.29    2.35   4 0.74754-0.13664 0.27891-0.94677-0.61166 0.27560
   5   1   5   65.05    2.98   5 0.75120-0.28148 0.29111-0.30783-0.59850 0.93751
   5   7   5    9.11    1.98   4 0.74610-0.35295 0.27435 0.24951-0.61649 0.90373
   6  -6  -2    1.36    3.16   5 0.75187-0.06669 0.29342-0.90630-0.59596 0.47123
   6  -5   0    0.73    2.91   4 0.74974-0.08406 0.28615-0.82367-0.60389 0.61844
   6   4   6    2.57    2.71   4 0.75034-0.22372 0.28817-0.05711-0.60171 0.98435
   6   5   6   33.48    2.96   4 0.75035-0.23670 0.28818 0.03468-0.60169 0.97651
   7  -6  -2   10.36    3.82   5 0.75211 0.03439 0.29426-0.92277-0.59504 0.46585
   7  -5   0    0.54    3.89   5 0.75363 0.01294 0.29972-0.85170-0.58899 0.59857
   7   0   5  104.91    3.55   4 0.75068-0.06788 0.28934-0.42504-0.60043 0.93926
   7   3   6    2.12    2.03   4 0.74838-0.10923 0.28165-0.15466-0.60874 0.99584
   7   6   6   49.61    2.47   4 0.74696-0.14469 0.27709 0.12094-0.61359 0.97406
   7   7   6   -1.39    3.39   5 0.75056-0.16123 0.28891 0.19930-0.60090 0.95332
   8   0   5    0.44    3.13   4 0.75002 0.03228 0.28709-0.43729-0.60287 0.93714
   8   3   6   21.96    2.45   4 0.74639-0.00499 0.27526-0.16357-0.61553 0.99716
  -2   0 -10   35.23    2.25   5 0.75291-0.91582 0.29692-0.19766-0.59190-0.14466
  -2   0  -9  186.89    3.50   6 0.75558-0.92251 0.30678-0.21385-0.58086-0.08101
  -2   0  -8  144.43    3.32   6 0.75622-0.92817 0.30928-0.22389-0.57802-0.00891
  -2   0  -7   16.18    2.61   6 0.75572-0.93067 0.30735-0.22855-0.58021 0.06782
  -2   0  -6  128.92    2.57   5 0.75190-0.93007 0.29332-0.22267-0.59588 0.15850
  -2   1 -11    3.07    2.20   5 0.75266-0.92568 0.29603-0.09834-0.59290-0.22622
  -2   1  -5   48.50    2.24   5 0.75341-0.94849 0.29872-0.14410-0.58991 0.21791
  -2   3 -11    0.77    2.34   5 0.75316-0.95269 0.29782 0.08253-0.59091-0.24483
  -2   4 -10    1.70    3.13   6 0.75558-0.97126 0.30678 0.15512-0.58086-0.19021
  -2   4  -5   44.27    4.13   6 0.75845-0.99251 0.31826 0.10746-0.56767 0.16839
  -2   5  -8    5.84    3.02   5 0.75580-0.99182 0.30764 0.23072-0.57988-0.05121
  -2   5  -7   22.67    3.83   6 0.75797-0.99700 0.31628 0.21371-0.56998 0.01234
  -1  -3  -9  103.98    2.43   5 0.75266-0.78084 0.29603-0.48854-0.59290-0.04693
  -1  -3  -8    6.69    1.77   5 0.75291-0.78508 0.29692-0.49594-0.59190 0.02658
  -1  -2 -12   -0.61    2.26   5 0.75341-0.78374 0.29872-0.37769-0.58991-0.28246
  -1  -1 -13    8.82    2.64   5 0.75439-0.79530 0.30231-0.28380-0.58590-0.36992
  -1  -1  -3  109.03    2.77   5 0.75316-0.82937 0.29782-0.35202-0.59091 0.38161
  -1   3  -1   35.52    3.11   5 0.75476-0.89044 0.30368-0.01163-0.58435 0.48816
  -1   6  -2  410.04    5.36   5 0.75577-0.92602 0.30753 0.26309-0.58001 0.38260
   0  -4 -11    3.05    2.08   5 0.75415-0.66224 0.30141-0.58197-0.58690-0.20021
   0  -4  -6   23.84    2.63   5 0.75543-0.68190 0.30622-0.62392-0.58149 0.16909
   0   3   1  416.95    4.60   5 0.75391-0.79655 0.30052-0.03781-0.58791 0.63583
   0   4   1  780.53    5.49   5 0.75439-0.81008 0.30231 0.05089-0.58590 0.62513
   1  -5 -11   14.34    2.40   5 0.75463-0.55030 0.30320-0.68978-0.58489-0.19642
   1  -5  -6 1911.69    7.38   6 0.75572-0.56895 0.30732-0.73044-0.58024 0.17183
   1  -4  -3   18.59    2.48   6 0.75591-0.59392 0.30808-0.66149-0.57938 0.38627
   1   1   2  168.54    4.41   5 0.75569-0.67643 0.30722-0.24607-0.58036 0.71496
   1   6   2   17.36    1.94   5 0.75241-0.73741 0.29512 0.21745-0.59390 0.68554
   1   8   1    7.41    2.71   5 0.75531-0.76218 0.30577 0.39516-0.58200 0.58217
   1   9   0   18.75    3.03   5 0.75516-0.77129 0.30518 0.49322-0.58266 0.49904
   2  -6 -10   31.35    2.61   5 0.75341-0.43890 0.29872-0.79778-0.58991-0.11215
   2  -6  -9    0.97    2.17   5 0.75463-0.44440 0.30320-0.80907-0.58489-0.04286
   2  -6  -8   21.04    3.01   5 0.75504-0.44756 0.30474-0.81685-0.58316 0.02939
   2  -6  -7    2.69    2.03   5 0.75366-0.44957 0.29962-0.81970-0.58891 0.10985
   2  -1   2    2.92    2.36   6 0.75657-0.55191 0.31064-0.44300-0.57646 0.72392
   2   7   3    8.41    1.80   5 0.75439-0.65534 0.30231 0.27791-0.58590 0.73958
   3  -5  -2    5.83    2.70   6 0.75611-0.38380 0.30884-0.78952-0.57852 0.45911
   3   1   4  262.57    3.76   6 0.75599-0.48339 0.30836-0.28943-0.57906 0.85318
   3   7   4   93.69    2.30   5 0.75341-0.55829 0.29872 0.26178-0.58991 0.81153
   3   9   3   10.52    3.08   5 0.75514-0.58285 0.30513 0.44293-0.58272 0.71225
   3  10   2    6.07    2.35   5 0.75391-0.59013 0.30052 0.54456-0.58791 0.63553
   4  -7  -8    4.53    2.57   5 0.75241-0.23187 0.29512-0.92662-0.59390 0.03783
   4  -5  -1   26.19    2.91   5 0.75482-0.28619 0.30391-0.80504-0.58411 0.53376
   4   2   5  571.48    4.68   5 0.75569-0.39965 0.30720-0.21941-0.58038 0.91600
   4   6   5  194.39    2.71   5 0.75215-0.44753 0.29422 0.15433-0.59489 0.89587
   4   7   5   12.86    2.68   6 0.75593-0.46343 0.30813 0.23053-0.57932 0.86979
   4   9   4   12.10    3.14   5 0.75558-0.48646 0.30678 0.41939-0.58086 0.78027
   4  10   3    7.86    2.39   5 0.75291-0.49310 0.29692 0.52679-0.59190 0.70849
   5  -7  -6    2.34    2.49   5 0.75291-0.13948 0.29692-0.95751-0.59190 0.18159
   5  -1   4    1.86    2.58   5 0.75490-0.25590 0.30421-0.49536-0.58377 0.86703
   5   8   5   25.60    2.34   5 0.75241-0.37316 0.29512 0.31964-0.59390 0.87189
   6   0   5  100.77    3.32   6 0.75598-0.17296 0.30835-0.42959-0.57908 0.92220
   6   3   6   36.94    2.18   5 0.75341-0.21376 0.29872-0.15618-0.58991 0.98229
   6   6   6    6.68    2.05   5 0.75190-0.25055 0.29332 0.11802-0.59588 0.96155
   6   7   6   40.03    3.25   5 0.75518-0.26769 0.30527 0.19835-0.58256 0.93952
   6   9   5    2.58    2.51   5 0.75215-0.28600 0.29422 0.39568-0.59489 0.85899
   7   2   6   16.66    2.18   5 0.75415-0.10127 0.30141-0.26347-0.58690 0.98241
   8   2   6    3.12    2.23   5 0.75266 0.00052 0.29603-0.27316-0.59290 0.98367
   9   0   5   -0.00    2.54   5 0.75366 0.13016 0.29962-0.46520-0.58891 0.91798
   9   2   6    2.98    2.55   5 0.75415 0.09918 0.30141-0.29258-0.58690 0.97277
  -2   1 -10    5.33    2.07   6 0.75744-0.93361 0.31402-0.12266-0.57274-0.17318
  -2   1  -9  102.34    3.33   7 0.76022-0.94122 0.32577-0.14288-0.55902-0.11162
  -2   2  -5    1.21    2.44   7 0.76070-0.96931 0.32791-0.08129-0.55648 0.17531
  -2   3 -10    2.12    3.07   7 0.75985-0.96151 0.32413 0.04711-0.56095-0.20074
  -2   4  -9    0.99    2.98   6 0.76024-0.98212 0.32588 0.12876-0.55889-0.13727
  -1  -2 -11    0.46    2.08   6 0.75766-0.79210 0.31490-0.40073-0.57172-0.22524
  -1  -2 -10    3.04    2.80   6 0.76006-0.80047 0.32504-0.41991-0.55989-0.16258
  -1  -2  -5  749.47    4.75   6 0.75788-0.81365 0.31579-0.44629-0.57070 0.22040
  -1  -1 -12    2.08    3.16   7 0.75996-0.80341 0.32461-0.31445-0.56040-0.32021
  -1   0 -13   -3.45    3.65   7 0.75966-0.81114 0.32329-0.21456-0.56195-0.40207
  -1   4  -1  156.69    3.59   6 0.75788-0.90656 0.31579 0.06702-0.57070 0.46553
  -1   7  -3   -0.14    2.67   6 0.75810-0.93743 0.31667 0.35104-0.56967 0.29150
  -1   8  -5    5.64    3.89   7 0.76136-0.94495 0.33094 0.44261-0.55286 0.11564
   0  -4 -10   10.35    1.96   6 0.75678-0.66836 0.31136-0.60035-0.57580-0.13443
   0  -4  -9   11.42    1.92   6 0.75831-0.67388 0.31756-0.61351-0.56865-0.06778
   0  -4  -8  280.83    3.08   6 0.75873-0.67766 0.31932-0.62337-0.56659 0.00479
   0  -4  -7  432.18    3.61   6 0.75810-0.68031 0.31667-0.62758-0.56967 0.08246
   0  -3 -12   14.41    3.34   6 0.75996-0.67774 0.32461-0.50823-0.56040-0.30828
   0  -2  -2 2079.08    9.74   6 0.75996-0.72724 0.32461-0.49028-0.56040 0.42899
   0   5   1  183.92    2.94   6 0.75852-0.82708 0.31844 0.12571-0.56762 0.59795
   0   7   0   11.85    1.99   6 0.75788-0.84842 0.31579 0.31613-0.57070 0.50892
   0   8  -1   27.50    2.25   6 0.75722-0.85705 0.31313 0.41717-0.57376 0.42841
   1  -5 -10   41.70    2.43   6 0.75722-0.55573 0.31313-0.70667-0.57376-0.13317
   1  -5  -9    5.98    1.96   6 0.75873-0.56112 0.31932-0.71954-0.56659-0.06573
   1  -5  -8    3.59    2.03   6 0.75915-0.56537 0.32109-0.72874-0.56453 0.00830
   1  -5  -7   12.90    1.92   6 0.75831-0.56789 0.31756-0.73294-0.56865 0.08550
   1   7   2    1.27    2.57   7 0.75996-0.75782 0.32461 0.27821-0.56040 0.64433
   1  10  -1   33.73    3.60   6 0.75958-0.78471 0.32298 0.57265-0.56232 0.39643
   2  -3   0  612.78    7.03   6 0.75974-0.52121 0.32365-0.62284-0.56152 0.57782
   2   9   2   40.94    2.27   6 0.75810-0.68070 0.31667 0.45283-0.56967 0.62975
   2  10   1  124.59    3.12   6 0.75852-0.69027 0.31844 0.54827-0.56762 0.54550
   3  -6  -5    3.04    1.98   6 0.75766-0.36170 0.31490-0.86257-0.57172 0.23954
   3  -3   1    1.34    2.95   7 0.76242-0.42771 0.33602-0.65734-0.54674 0.63213
   3   8   4  118.72    3.17   6 0.75979-0.57781 0.32386 0.32672-0.56128 0.77516
   4  -6  -4    0.22    2.87   6 0.75996-0.26794 0.32461-0.89757-0.56040 0.29573
   5  -6  -3   14.38    2.95   7 0.76007-0.17113 0.32508-0.91670-0.55983 0.36425
   5  -4   1   11.93    3.50   7 0.76169-0.21315 0.33251-0.77250-0.55098 0.63636
   5   3   6  242.95    3.56   7 0.76030-0.32011 0.32610-0.16962-0.55862 0.95437
   5   4   6    1.43    1.91   6 0.75788-0.33109 0.31579-0.07073-0.57070 0.95846
   5   5   6  153.65    2.69   6 0.75744-0.34334 0.31402 0.02274-0.57274 0.95212
   5   6   6   39.91    2.17   6 0.75873-0.35816 0.31932 0.10817-0.56659 0.93710
   5   9   5   31.41    2.48   6 0.75873-0.39247 0.31932 0.38533-0.56659 0.83601
   6   2   6   37.09    2.14   6 0.75894-0.20650 0.32021-0.26822-0.56556 0.96649
   6   8   6   35.98    2.66   6 0.75915-0.28407 0.32109 0.27191-0.56453 0.91298
   8   5   7   19.01    3.58   7 0.76007-0.04925 0.32509-0.03936-0.55982 0.99830
  -2   1  -8   21.12    1.97   7 0.76216-0.94658 0.33514-0.15829-0.54777-0.04809
  -2   3  -9   55.30    3.24   8 0.76375-0.97016 0.34314 0.02129-0.53801-0.15020
  -2   3  -5   12.84    2.71   8 0.76399-0.98502 0.34442-0.00874-0.53643 0.14629
  -1  -2  -9    0.45    1.88   7 0.76252-0.80406 0.33688-0.43808-0.54567-0.10371
  -1  -2  -8   68.90    2.88   8 0.76354-0.80884 0.34207-0.45062-0.53933-0.03515
  -1  -2  -7   -1.77    2.42   8 0.76354-0.81233 0.34207-0.45800-0.53933 0.04136
  -1  -2  -6   85.69    2.20   7 0.76198-0.81461 0.33427-0.45709-0.54882 0.12364
  -1  -1 -11   54.36    3.24   8 0.76378-0.81115 0.34331-0.34039-0.53780-0.26929
  -1   5  -1   75.85    3.14   7 0.76377-0.92435 0.34327 0.12968-0.53785 0.42434
   0  -3 -11    2.81    2.97   7 0.76326-0.68515 0.34060-0.53137-0.54113-0.25267
   0  -3  -4  404.39    3.74   7 0.76198-0.70885 0.33427-0.57581-0.54882 0.27666
   0  -2 -13    4.90    2.57   7 0.76234-0.68866 0.33601-0.42280-0.54672-0.40608
   0   2   1  138.02    3.61   7 0.76086-0.79047 0.32904-0.15664-0.55510 0.61203
   0   6   1  112.02    3.11   7 0.76360-0.84453 0.34239 0.19203-0.53893 0.56073
   0   9  -2   18.58    2.43   7 0.76180-0.86990 0.33340 0.49440-0.54987 0.32280
   1  -4 -12    4.59    2.50   7 0.76161-0.56669 0.33253-0.62149-0.55092-0.31336
   1   4   3  152.39    3.23   8 0.76389-0.72602 0.34388-0.01920-0.53709 0.72027
   2  -5 -11   25.02    3.66   7 0.76336-0.45817 0.34111-0.74056-0.54050-0.24575
   2  -5  -4  192.38    2.90   7 0.76086-0.48187 0.32904-0.78021-0.55510 0.29052
   2   3   4 1421.47    6.50   7 0.76317-0.61688 0.34013-0.12732-0.54171 0.80420
   2   4   4  148.95    2.54   7 0.76105-0.62738 0.32991-0.02676-0.55406 0.80756
   2   5   4  470.60    3.58   7 0.76143-0.64059 0.33166 0.06204-0.55197 0.79653
   2   6   4  274.24    3.50   7 0.76354-0.65553 0.34207 0.14197-0.53933 0.77540
   2   8   3  145.25    2.61   7 0.76124-0.67531 0.33079 0.34122-0.55301 0.69721
   3  -6 -10   27.14    2.73   7 0.76067-0.34686 0.32816-0.84099-0.55614-0.15134
   3  -6  -9   13.44    2.47   7 0.76216-0.35118 0.33514-0.85500-0.54777-0.08584
   3  -6  -8   26.90    2.39   7 0.76269-0.35570 0.33774-0.86518-0.54461-0.01428
   3  -6  -7   11.57    2.20   7 0.76234-0.35883 0.33601-0.87101-0.54672 0.06299
   3  -6  -6   16.08    2.13   7 0.76086-0.36104 0.32904-0.87085-0.55510 0.14529
   3  -1   3 1136.24    9.17   7 0.76318-0.46153 0.34018-0.49543-0.54164 0.75953
   3   4   5  449.01    3.54   7 0.76216-0.53189 0.33514-0.05311-0.54777 0.87072
   3   5   5  221.81    2.82   7 0.76198-0.54446 0.33427 0.03802-0.54882 0.86298
   3   6   5   79.83    2.88   7 0.76354-0.55992 0.34207 0.12018-0.53933 0.84506
   3  10   3   60.92    3.54   7 0.76340-0.60345 0.34133 0.49669-0.54023 0.66246
   4   1   5  339.07    4.05   8 0.76396-0.39402 0.34425-0.34726-0.53663 0.88017
   4   8   5   16.86    2.15   7 0.76105-0.48149 0.32991 0.29887-0.55406 0.83849
   4  10   4    2.03    2.48   7 0.76287-0.50529 0.33861 0.47848-0.54356 0.73556
   5   7   6    2.95    2.11   7 0.76105-0.37345 0.32991 0.18706-0.55406 0.91565
   6  -6  -3   18.71    3.53   8 0.76364-0.07507 0.34259-0.94876-0.53868 0.33734
   7  -6  -3    0.09    3.63   8 0.76387 0.02547 0.34379-0.96576-0.53720 0.33239
   7   1   6    6.46    2.96   7 0.76281-0.09682 0.33833-0.39183-0.54390 0.94864
   7   4   7   -0.82    3.09   8 0.76329-0.13953 0.34077-0.13088-0.54092 0.99465
   7   5   7   11.18    2.36   7 0.76198-0.15165 0.33427-0.03356-0.54882 0.99348
   7   6   7   51.45    2.62   7 0.76198-0.16397 0.33427 0.05638-0.54882 0.98378
   7   7   7    3.45    3.53   7 0.76338-0.17915 0.34120 0.14123-0.54039 0.96678
   8   1   6    1.34    2.27   7 0.76161 0.00579 0.33253-0.40097-0.55092 0.95062
   8   4   7   -0.29    2.47   7 0.76161-0.03777 0.33253-0.13632-0.55092 0.99920
  -2   2  -8   68.76    2.51   8 0.76566-0.96244 0.35324-0.08551-0.52547-0.07950
  -2   2  -7   -1.12    2.73   9 0.76663-0.96696 0.35919-0.09950-0.51791-0.01228
  -2   2  -6   44.96    2.86   8 0.76617-0.96943 0.35631-0.10418-0.52158 0.06582
  -2   3  -8  100.33    3.43   9 0.76671-0.97654 0.35970-0.00254-0.51726-0.09645
  -2   4  -8    1.03    2.78   8 0.76568-0.98738 0.35335 0.09418-0.52532-0.09671
  -2   4  -7   16.90    2.83   9 0.76706-0.99386 0.36201 0.07845-0.51430-0.03399
  -2   4  -6    3.77    2.69   9 0.76696-0.99729 0.36132 0.07111-0.51518 0.04203
  -1  -1 -10   18.82    2.87   9 0.76672-0.81814 0.35974-0.36378-0.51721-0.21463
  -1  -1  -4    3.20    1.83   8 0.76566-0.83804 0.35324-0.40074-0.52547 0.24053
  -1   0 -12    1.28    2.29   8 0.76446-0.82082 0.34639-0.24567-0.53404-0.35621
  -1   2  -1 1028.21   15.45   9 0.76811-0.89011 0.36943-0.16759-0.50465 0.41751
  -1   8  -4    3.85    3.68   9 0.76748-0.95507 0.36484 0.40017-0.51063 0.14786
   0  -3 -10    7.25    2.04   8 0.76581-0.69022 0.35409-0.55275-0.52439-0.19575
   0  -3  -5   25.40    2.52   8 0.76656-0.70980 0.35871-0.59289-0.51852 0.17139
   0  -2 -12    6.82    3.15   8 0.76639-0.69643 0.35769-0.45169-0.51982-0.35689
   0  -1 -13    8.11    3.64   9 0.76702-0.70721 0.36173-0.35908-0.51465-0.44557
   0  -1  -1 6047.28   22.56   8 0.76663-0.75052 0.35919-0.44154-0.51791 0.45209
   0   8   0    3.58    2.69   8 0.76675-0.86905 0.35994 0.36216-0.51695 0.44683
   1  -4 -11    4.85    2.18   8 0.76477-0.57355 0.34811-0.64368-0.53190-0.25781
   1  -4 -10   14.77    2.88   9 0.76680-0.57928 0.36026-0.66356-0.51654-0.19981
   1  -4  -4    7.21    1.76   8 0.76446-0.59771 0.34639-0.69288-0.53404 0.26681
   1   3   3    5.92    1.88   8 0.76595-0.71567 0.35494-0.12073-0.52331 0.71537
   1   5   3   12.32    1.80   8 0.76477-0.74020 0.34811 0.06732-0.53190 0.70710
   1   6   3    1.17    2.63   9 0.76671-0.75436 0.35972 0.14531-0.51724 0.68395
   1   8   2   43.78    2.17   8 0.76595-0.77589 0.35494 0.33844-0.52331 0.59743
   1   9   1   57.07    2.47   8 0.76492-0.78454 0.34896 0.44260-0.53083 0.52239
   1  10   0    7.37    3.31   8 0.76642-0.79531 0.35786 0.53092-0.51961 0.42740
   2  -5 -10   -0.08    2.25   8 0.76537-0.46365 0.35153-0.76018-0.52762-0.18388
   2  -5  -9   17.06    3.02   9 0.76673-0.46971 0.35986-0.77537-0.51705-0.12003
   2  -5  -5   39.31    2.06   8 0.76537-0.48180 0.35153-0.79536-0.52762 0.18832
   2  -4  -2    0.15    2.34   8 0.76609-0.50762 0.35579-0.73013-0.52223 0.39888
   2   7   4  104.99    2.99   8 0.76652-0.67148 0.35850 0.21592-0.51879 0.74631
   2   9   3  181.88    3.71   9 0.76684-0.69257 0.36052 0.40156-0.51620 0.65082
   2  10   2   13.27    3.26   8 0.76636-0.70253 0.35749 0.50171-0.52007 0.57278
   3  -5  -3    0.77    2.69   9 0.76663-0.39040 0.35919-0.83111-0.51791 0.32291
   3   3   5    4.37    1.74   8 0.76446-0.52113 0.34639-0.15542-0.53404 0.86566
   3   7   5    5.91    1.91   8 0.76595-0.57512 0.35494 0.19719-0.52331 0.82032
   3   9   4    2.23    2.13   8 0.76522-0.59532 0.35067 0.38980-0.52869 0.73403
   4  -6  -9    2.37    3.51   8 0.76650-0.25490 0.35834-0.89280-0.51899-0.11877
   4  -6  -6  115.27    3.58   9 0.76672-0.26699 0.35976-0.91556-0.51718 0.10191
   4  -6  -5   25.29    2.35   8 0.76492-0.26810 0.34896-0.91210-0.53083 0.19075
   4   4   6   69.87    2.18   8 0.76595-0.43980 0.35494-0.09442-0.52331 0.91621
   4   5   6    4.19    1.86   8 0.76522-0.45144 0.35067 0.00034-0.52869 0.91288
   4   6   6   54.16    2.14   8 0.76581-0.46499 0.35409 0.08672-0.52439 0.89976
   4   9   5   -1.90    2.25   8 0.76552-0.49922 0.35238 0.36656-0.52654 0.80120
   5  -6  -4   -0.05    2.99   9 0.76630-0.17383 0.35707-0.93989-0.52061 0.25008
   5  -5  -1   71.39    3.50   8 0.76649-0.19748 0.35831-0.87432-0.51903 0.46274
   5   0   5   59.41    2.35   8 0.76507-0.28261 0.34982-0.45786-0.52976 0.87771
   5   2   6    2.55    1.92   8 0.76537-0.31231 0.35153-0.28639-0.52762 0.93359
   5   8   6    3.69    2.20   8 0.76430-0.38930 0.34553 0.26208-0.53510 0.88833
   6   1   6   62.69    3.12   8 0.76647-0.20047 0.35818-0.39757-0.51920 0.92908
   6   4   7   -0.06    2.87   9 0.76643-0.24298 0.35792-0.13334-0.51953 0.97836
   6   5   7    0.28    2.09   8 0.76522-0.25445 0.35067-0.03616-0.52869 0.97798
   6   6   7    5.74    2.16   8 0.76537-0.26751 0.35153 0.05329-0.52762 0.96846
   6   7   7    6.53    3.32   8 0.76640-0.28069 0.35773 0.13838-0.51977 0.95156
   7  -2   4   21.84    3.82   9 0.76765-0.05550 0.36609-0.67654-0.50901 0.79064
   7   3   7   12.29    2.25   8 0.76595-0.12987 0.35494-0.23437-0.52331 0.98477
   8  -2   4    1.76    3.24   8 0.76688 0.04533 0.36078-0.68471-0.51587 0.79170
   8   3   7    4.28    2.39   8 0.76461-0.02854 0.34725-0.24194-0.53297 0.98917
  -2   3  -7    4.52    2.62   9 0.76845-0.98112 0.37206-0.02170-0.50122-0.03706
  -2   3  -6    1.38    2.58   9 0.76839-0.98474 0.37158-0.02908-0.50186 0.03757
  -1  -1  -9    7.83    2.64   9 0.76880-0.82228 0.37486-0.38590-0.49752-0.15980
  -1  -1  -5  491.86    4.48  10 0.76914-0.83867 0.37780-0.41797-0.49361 0.13437
  -1   0 -11    1.66    2.11   9 0.76800-0.82889 0.36863-0.27441-0.50573-0.30918
  -1   1 -12   25.15    2.46   9 0.76729-0.83640 0.36358-0.17274-0.51228-0.38660
  -1   2 -12   11.56    3.55  10 0.76893-0.85012 0.37594-0.09457-0.49608-0.41132
  -1   6  -1   82.71    3.21  10 0.76929-0.94257 0.37913 0.18423-0.49182 0.36909
  -1   7  -2   27.29    2.91   9 0.76865-0.95200 0.37365 0.28752-0.49913 0.29409
   0  -3  -9   48.33    2.13   9 0.76741-0.69588 0.36442-0.57034-0.51119-0.13364
   0  -3  -8   33.83    2.06   9 0.76833-0.70071 0.37114-0.58410-0.50243-0.06812
   0  -3  -7  348.63    3.81   9 0.76875-0.70371 0.37449-0.59457-0.49801 0.00179
   0  -3  -6  457.18    3.63   9 0.76822-0.70752 0.37030-0.59781-0.50353 0.08212
   0  -2 -11    2.75    2.96   9 0.76895-0.70269 0.37615-0.47839-0.49581-0.30670
   0   7   1    9.42    2.68   9 0.76858-0.86304 0.37312 0.25154-0.49983 0.51381
   0   9  -1   32.42    2.38   9 0.76833-0.88029 0.37114 0.44901-0.50243 0.35091
   0  10  -3    7.87    3.68   9 0.76908-0.88573 0.37728 0.54759-0.49431 0.18360
   1  -4  -9   10.77    1.97   9 0.76833-0.58313 0.37114-0.68159-0.50243-0.13894
   1  -4  -8    2.59    2.56   9 0.76900-0.58896 0.37658-0.69483-0.49524-0.07071
   1  -4  -6    2.52    2.55   9 0.76895-0.59554 0.37615-0.70914-0.49581 0.07711
   1  -4  -5 1025.77    5.30   9 0.76777-0.59783 0.36695-0.70627-0.50792 0.16495
   1  -3 -12   -0.62    2.37   9 0.76822-0.58544 0.37030-0.56935-0.50353-0.37003
   1  -3  -2  283.33    3.71   9 0.76777-0.62177 0.36695-0.63706-0.50792 0.38022
   1   7   3  144.91    3.18  10 0.76913-0.77000 0.37765 0.21831-0.49380 0.65075
   2  -5  -8    1.62    1.96   9 0.76765-0.47332 0.36611-0.78794-0.50901-0.05436
   2  -5  -7    2.78    1.87   9 0.76777-0.47710 0.36695-0.79655-0.50792 0.02076
   2  -5  -6    2.50    1.86   9 0.76717-0.48056 0.36274-0.79913-0.51337 0.09967
   2  -4 -12   -2.68    2.54   9 0.76800-0.47176 0.36863-0.67200-0.50573-0.36367
   2   0   3   45.96    3.01   9 0.76895-0.58031 0.37615-0.42631-0.49581 0.70945
   2   2   4 1433.61    6.59   9 0.76754-0.60810 0.36527-0.24227-0.51010 0.78072
   2   8   4   76.74    3.13  10 0.76915-0.68565 0.37788 0.28701-0.49350 0.71140
   3   2   5  124.37    2.48   9 0.76844-0.51260 0.37198-0.27032-0.50133 0.84161
   3   8   5   88.84    2.47   9 0.76855-0.59010 0.37281 0.27031-0.50023 0.78920
   4  -6  -8    5.37    2.43   9 0.76729-0.25970 0.36358-0.90450-0.51228-0.05201
   4  -6  -7    0.24    2.20   9 0.76729-0.26431 0.36358-0.91257-0.51228 0.02399
   4  -5  -2    9.67    2.05   9 0.76822-0.29595 0.37030-0.86434-0.50353 0.37939
   4  -2   3   -0.35    3.11   9 0.76895-0.35176 0.37615-0.63557-0.49581 0.71501
   4   3   6  139.85    2.60   9 0.76800-0.42851 0.36863-0.19848-0.50573 0.90733
   4   7   6   63.38    2.22   9 0.76729-0.47850 0.36358 0.16730-0.51228 0.87957
   4   8   6   47.01    3.17  10 0.76906-0.49264 0.37710 0.24411-0.49454 0.85245
   4  10   5    1.40    3.50   9 0.76895-0.51475 0.37615 0.43143-0.49581 0.75956
   5  -6  -5   -0.50    3.10  10 0.76875-0.17194 0.37448-0.94956-0.49802 0.15268
   5   5   7    3.76    2.71  10 0.76895-0.35912 0.37615-0.04808-0.49581 0.94981
   5   6   7  152.45    3.40   9 0.76895-0.37142 0.37615 0.04297-0.49581 0.94149
   5   9   6    3.61    2.44   9 0.76741-0.40577 0.36442 0.33328-0.51119 0.85557
   6  -6  -4   -0.63    2.36   9 0.76822-0.07595 0.37030-0.96869-0.50353 0.22788
   6   3   7    5.17    2.06   9 0.76844-0.23248 0.37198-0.23694-0.50133 0.96726
   6   8   7   15.77    2.52   9 0.76800-0.29654 0.36863 0.21701-0.50573 0.92836
   7  -1   5    5.93    2.92   9 0.76884-0.07345 0.37524-0.60257-0.49702 0.84487
   8  -1   5    3.05    3.25   9 0.76843 0.02728 0.37193-0.61342-0.50140 0.84529
   8   2   7   15.54    3.48   9 0.76882-0.01999 0.37503-0.35942-0.49730 0.96347
  -1  -1  -8   23.53    2.04  10 0.76985-0.82817 0.38372-0.40221-0.48579-0.09730
  -1  -1  -7   25.93    2.67  10 0.77054-0.83098 0.39121-0.41657-0.47556-0.03289
  -1  -1  -6   36.92    1.97  10 0.77032-0.83630 0.38865-0.42081-0.47908 0.04509
  -1   0 -10   20.04    2.13  10 0.77032-0.83486 0.38865-0.30114-0.47908-0.26255
  -1   1 -11    3.82    2.97  10 0.77043-0.84293 0.38988-0.20440-0.47740-0.34789
  -1   8  -3   19.20    3.64  11 0.77110-0.96224 0.39893 0.35969-0.46482 0.17611
   0  -2 -10  249.27    3.85  11 0.77070-0.70828 0.39324-0.50178-0.47276-0.25595
   0  -2  -3  429.11    4.25  10 0.77024-0.73364 0.38783-0.54656-0.48020 0.27395
   0  -1 -12    8.04    2.35  10 0.77009-0.71340 0.38619-0.38923-0.48244-0.40461
   0   0 -13   12.24    2.68  10 0.76985-0.72340 0.38372-0.29040-0.48579-0.48343
   0   4   2  636.14    5.03  10 0.77066-0.82983 0.39274-0.04622-0.47345 0.58722
   0   5   2   34.22    2.66  10 0.77066-0.84262 0.39274 0.04386-0.47345 0.57877
   1  -4  -7    0.96    1.85  10 0.76942-0.59294 0.37959-0.70463-0.49136 0.00088
   1  -3 -11   43.29    2.46  10 0.77032-0.59167 0.38865-0.59362-0.47908-0.32133
   1   2   3    4.73    1.87  10 0.77009-0.70722 0.38619-0.24170-0.48244 0.68334
   1   9   2   25.96    2.98  10 0.77041-0.79365 0.38967 0.39408-0.47768 0.54363
   1  10   1   41.19    3.40  10 0.77060-0.80245 0.39202 0.48870-0.47444 0.45817
   2  -4 -11    9.14    2.38  10 0.77001-0.47920 0.38537-0.69503-0.48356-0.31172
   2  10   3    6.26    3.24  10 0.77067-0.70860 0.39291 0.45787-0.47321 0.59939
   3  -5 -10    4.98    2.42  10 0.76968-0.36917 0.38208-0.80357-0.48802-0.22854
   3  -5  -9    6.42    3.11  11 0.77066-0.37324 0.39274-0.82149-0.47345-0.16933
   3  -5  -4    0.98    1.84  10 0.76993-0.39153 0.38455-0.84918-0.48468 0.21767
   3  -4  -1   10.08    2.66  10 0.77036-0.41493 0.38917-0.78513-0.47837 0.42426
   3   0   4   36.81    2.14  10 0.76959-0.48405 0.38125-0.45295-0.48914 0.77264
   3   9   5   22.72    3.20  10 0.77069-0.60394 0.39307 0.34016-0.47299 0.75217
   3  10   4    3.64    2.34  10 0.76951-0.61142 0.38042 0.45160-0.49025 0.68706
   4  -4   0   45.05    3.34  11 0.77077-0.31891 0.39417-0.81254-0.47146 0.48722
   4  -1   4   35.09    2.90  10 0.77050-0.37213 0.39077-0.56727-0.47617 0.76404
   4   2   6    7.64    2.74  11 0.77078-0.41754 0.39433-0.31407-0.47125 0.88106
   5  -6  -8    4.16    2.53  10 0.76951-0.16237 0.38042-0.93535-0.49025-0.07847
   5  -6  -7   15.40    2.54  10 0.76968-0.16740 0.38208-0.94484-0.48802-0.00700
   5  -6  -6    1.77    2.29  10 0.76951-0.16987 0.38042-0.95037-0.49025 0.07195
   5   1   6  385.07    4.30  10 0.77058-0.30506 0.39179-0.41618-0.47477 0.88951
   5   4   7    4.69    1.91  10 0.76985-0.34638 0.38372-0.14407-0.48579 0.94882
   5   7   7    9.38    2.18  10 0.76968-0.38382 0.38208 0.12723-0.48802 0.92543
   5   8   7    2.83    3.37  10 0.77066-0.39835 0.39274 0.20758-0.47345 0.90195
   6  -6  -6    9.42    3.63  11 0.77060-0.07068 0.39194-0.97554-0.47455 0.05006
   6  -6  -5    1.42    2.42  10 0.76993-0.07375 0.38455-0.97618-0.48468 0.13594
   6  -5  -1    1.49    2.95  10 0.77039-0.10151 0.38947-0.91928-0.47796 0.41761
   6  -2   4   20.85    3.56  11 0.77130-0.15926 0.40230-0.69757-0.46005 0.74682
   6  -1   5   26.00    3.00  11 0.77098-0.17537 0.39714-0.60822-0.46733 0.81899
   7  -5  -1    2.39    3.30  11 0.77097-0.00125 0.39696-0.94246-0.46757 0.40288
   7   0   6   -0.16    3.10  11 0.77079-0.09211 0.39436-0.53703-0.47120 0.88345
   7   2   7    5.49    2.15  10 0.76959-0.11889 0.38125-0.35215-0.48914 0.95899
   7   5   8    2.28    3.39  11 0.77066-0.16385 0.39274-0.09895-0.47345 0.99313
   7   6   8    3.42    2.48  10 0.77032-0.17685 0.38865-0.00497-0.47908 0.98902
   8   0   6   -0.14    3.30  11 0.77053 0.00804 0.39111-0.54883-0.47571 0.88499
  -1   0  -9  102.46    3.16  11 0.77148-0.83803 0.40759-0.32832-0.45246-0.21422
  -1   2 -11    1.78    2.20  11 0.77132-0.85793 0.40401-0.12887-0.45759-0.37498
  -1   4 -11    2.41    3.48  12 0.77161-0.88479 0.41111 0.04442-0.44738-0.40349
   0  -2  -9  354.83    4.04  11 0.77152-0.71192 0.40840-0.52389-0.45130-0.20299
   0  -1 -11   16.06    3.09  12 0.77152-0.71789 0.40842-0.41884-0.45126-0.36175
   0   0 -12    5.67    3.24  12 0.77161-0.72687 0.41096-0.32554-0.44760-0.44781
   0   3   2  452.00    4.77  11 0.77155-0.81747 0.40920-0.15318-0.45015 0.57258
   0   6   2    7.66    1.84  11 0.77128-0.85593 0.40320 0.12403-0.45873 0.55533
   0   8   1   12.22    2.81  11 0.77141-0.87886 0.40584 0.30853-0.45497 0.46044
   0   9   0    1.58    2.94  11 0.77143-0.88736 0.40641 0.40600-0.45416 0.37601
   0  10  -2    3.63    2.46  11 0.77123-0.89311 0.40240 0.51431-0.45987 0.22394
   1  -3 -10   31.86    2.24  11 0.77136-0.59604 0.40481-0.61788-0.45645-0.26837
   1  -3  -3   66.66    2.82  12 0.77161-0.62261 0.41097-0.67413-0.44759 0.24495
   1  -2 -12    3.73    2.38  11 0.77132-0.60120 0.40401-0.51316-0.45759-0.42542
   1   8   3    2.96    1.95  11 0.77119-0.78529 0.40160 0.28438-0.46101 0.61036
   2  -4 -10   24.82    2.37  11 0.77109-0.48295 0.39998-0.71776-0.46329-0.25794
   2  -4  -3    2.13    1.78  11 0.77099-0.50792 0.39837-0.76672-0.46556 0.26476
   2  -3 -12    7.07    3.45  12 0.77150-0.48751 0.40797-0.61928-0.45191-0.42676
   2   4   5   55.46    2.08  11 0.77123-0.64180 0.40240-0.10588-0.45987 0.78784
   2   5   5  117.35    2.40  11 0.77088-0.65413 0.39675-0.01006-0.46783 0.78709
   2   6   5  290.09    3.04  11 0.77104-0.66696 0.39918 0.07809-0.46442 0.77436
   2   7   5   94.81    3.03  11 0.77153-0.68014 0.40880 0.15846-0.45072 0.75235
   2   9   4    4.05    2.10  11 0.77128-0.70169 0.40320 0.35206-0.45873 0.66867
   3  -5  -8    1.74    2.06  11 0.77109-0.37742 0.39998-0.83653-0.46329-0.10531
   3  -5  -7   94.45    2.61  11 0.77136-0.38009 0.40481-0.84877-0.45645-0.03672
   3  -5  -6  186.35    3.15  11 0.77136-0.38386 0.40481-0.85588-0.45645 0.03784
   3  -5  -5  228.80    3.31  11 0.77099-0.38788 0.39837-0.85689-0.46556 0.12189
   3   4   6   26.21    1.99  11 0.77132-0.54540 0.40401-0.12903-0.45759 0.85488
   3   5   6  876.05    4.53  11 0.77094-0.55773 0.39756-0.03228-0.46669 0.85593
   3   6   6    8.82    1.91  11 0.77099-0.57038 0.39837 0.05753-0.46556 0.84597
   3   7   6   59.29    2.19  11 0.77140-0.58418 0.40561 0.14035-0.45530 0.82671
   4  -5 -10    2.36    2.46  11 0.77132-0.27028 0.40401-0.83972-0.45759-0.26465
   4  -5  -3  134.75    3.54  11 0.77144-0.29498 0.40650-0.89318-0.45403 0.25417
   4   0   5   46.42    2.87  12 0.77160-0.38920 0.41067-0.50382-0.44802 0.80086
   4   5   7    4.10    2.67  12 0.77157-0.46111 0.40980-0.06734-0.44928 0.90788
   4   6   7   -4.38    2.74  12 0.77153-0.47420 0.40880 0.02498-0.45072 0.90120
   4   9   6    3.75    2.38  11 0.77083-0.50853 0.39594 0.31599-0.46896 0.81873
   5  -5  -2   10.57    2.85  12 0.77158-0.20048 0.41013-0.91893-0.44880 0.31692
   5   3   7   51.08    2.23  11 0.77109-0.33503 0.39998-0.25091-0.46329 0.93463
   6  -4   1   94.32    4.88  12 0.77177-0.12276 0.41807-0.87234-0.43720 0.51774
   6   2   7    1.54    2.03  11 0.77109-0.22017 0.39998-0.35722-0.46329 0.93891
   6   5   8   11.59    3.08  11 0.77151-0.26465 0.40827-0.09977-0.45148 0.97540
   6   6   8   22.09    2.38  11 0.77136-0.27838 0.40481-0.00647-0.45645 0.97142
   6   7   8    5.72    3.48  11 0.77147-0.29130 0.40721 0.08202-0.45301 0.95931
   7   4   8    1.20    2.32  11 0.77128-0.15107 0.40320-0.20026-0.45873 0.98722
  -1   0  -8  492.91    4.53  12 0.77177-0.84166 0.42333-0.35077-0.42973-0.16252
  -1   1 -10    8.70    2.06  12 0.77163-0.84820 0.41290-0.23685-0.44512-0.30479
  -1   4   0   79.93    3.26  12 0.77177-0.92363 0.42357-0.04832-0.42937 0.39967
  -1   5   0  134.44    3.54  12 0.77177-0.93661 0.42296 0.04299-0.43028 0.39169
  -1   6 -10    0.96    3.60  12 0.77177-0.91295 0.42209 0.20631-0.43157-0.36111
  -1   7  -1  306.89    4.58  12 0.77177-0.95902 0.42169 0.23237-0.43217 0.30177
   0  -2  -8   44.85    2.10  12 0.77175-0.71724 0.41921-0.54191-0.43586-0.14360
   0  -2  -4  576.67    4.48  12 0.77172-0.73170 0.41685-0.56834-0.43934 0.15833
   0   7   2   19.76    2.63  12 0.77177-0.86985 0.42196 0.19520-0.43178 0.52014
   0  10  -1   26.33    3.58  12 0.77176-0.89569 0.42528 0.48433-0.42681 0.26539
   1  -3  -9  119.44    2.60  12 0.77174-0.60045 0.41842-0.63881-0.43702-0.21361
   1  -2 -11    3.35    3.01  13 0.77176-0.60503 0.42545-0.54214-0.42655-0.38083
   1   4   4  345.43    3.36  12 0.77174-0.73815 0.41842-0.10074-0.43702 0.69560
   1   5   4  222.67    2.79  12 0.77163-0.75088 0.41290-0.00463-0.44512 0.69519
   1   6   4   92.89    2.43  12 0.77170-0.76347 0.41606 0.08249-0.44050 0.68139
   1   7   4  107.27    2.96  13 0.77176-0.77596 0.42617 0.16262-0.42547 0.65714
   1   9   3   79.92    3.22  13 0.77176-0.79718 0.42623 0.35045-0.42537 0.56487
   1  10   2    4.66    3.20  12 0.77177-0.80802 0.42468 0.44858-0.42771 0.48475
   2  -4  -9   14.62    2.04  12 0.77163-0.48711 0.41290-0.73756-0.44512-0.20131
   2  -4  -8   -0.44    2.59  12 0.77177-0.49065 0.42312-0.75463-0.43004-0.14202
   2  -4  -4    5.07    1.82  12 0.77176-0.50532 0.41999-0.78082-0.43470 0.16059
   2  -3 -11    0.32    3.07  13 0.77176-0.49340 0.42546-0.64641-0.42654-0.37835
   2  -2   1   60.86    5.22  13 0.77143-0.54967 0.43854-0.65471-0.40655 0.48837
   2   1   4  123.40    2.73  12 0.77170-0.59929 0.41606-0.38357-0.44050 0.72002
   2   3   5  115.99    2.37  12 0.77174-0.62843 0.41842-0.21236-0.43702 0.77365
   2   8   5  108.49    3.30  12 0.77177-0.69288 0.42329 0.23437-0.42979 0.72299
   3  -4 -11   23.02    2.63  12 0.77165-0.37968 0.41369-0.73875-0.44396-0.35695
   3   1   5  470.43    4.10  12 0.77173-0.50267 0.41763-0.40645-0.43818 0.78745
   3   3   6  228.01    2.96  12 0.77176-0.53222 0.42077-0.23606-0.43354 0.83971
   3   8   6    4.38    2.08  12 0.77173-0.59695 0.41763 0.21713-0.43818 0.80127
   3  10   5    7.02    2.43  12 0.77173-0.61872 0.41763 0.40589-0.43818 0.70916
   4  -5  -9    4.71    2.35  12 0.77170-0.27455 0.41606-0.85939-0.44050-0.20618
   4  -5  -8    5.44    3.05  13 0.77176-0.27804 0.42529-0.87587-0.42680-0.14666
   4  -5  -4  183.78    3.70  13 0.77177-0.29180 0.42468-0.90431-0.42771 0.15253
   4   4   7   26.14    2.07  12 0.77175-0.44855 0.41921-0.16619-0.43586 0.90364
   4   7   7   -0.67    2.06  12 0.77165-0.48750 0.41369 0.11089-0.44396 0.88592
   4   8   7   -0.44    3.10  12 0.77177-0.50075 0.42312 0.19078-0.43004 0.86345
   6   0   6    1.85    2.03  12 0.77173-0.19133 0.41763-0.54800-0.43818 0.85591
   6   4   8   43.07    2.33  12 0.77175-0.25207 0.41921-0.20166-0.43586 0.96873
   7   1   7   30.30    3.20  12 0.77177-0.11005 0.42376-0.48438-0.42908 0.90852
   7   3   8   14.44    3.27  12 0.77177-0.14012 0.42251-0.30928-0.43096 0.96805
   8  -4   1   -0.34    4.16  13 0.77161 0.07725 0.43370-0.91715-0.41403 0.48426
   8   1   7    4.25    2.42  12 0.77170-0.00895 0.41606-0.49077-0.44050 0.91430
   8   3   8    6.32    2.60  12 0.77165-0.03828 0.41369-0.31602-0.44396 0.97456
  -1   0  -7   -0.10    1.86  13 0.77176-0.84621 0.43321-0.36926-0.41485-0.10193
  -1   0  -6   52.11    2.69  14 0.77146-0.84958 0.44056-0.38330-0.40348-0.03922
  -1   0  -5  465.96    4.59  14 0.77146-0.85360 0.44054-0.39026-0.40351 0.03556
  -1   0  -4  135.67    2.92  13 0.77183-0.85696 0.43013-0.38701-0.41955 0.12681
  -1   1  -9   25.24    2.06  13 0.77168-0.85168 0.43551-0.26468-0.41131-0.26433
  -1   2 -10   -0.12    2.00  13 0.77178-0.86026 0.43244-0.16549-0.41602-0.34246
  -1   5 -10    4.89    3.42  14 0.77134-0.89927 0.44267 0.09533-0.40016-0.38505
  -1   6   0   10.56    2.62  13 0.77160-0.94926 0.43743 0.11780-0.40834 0.36086
  -1   8  -2   20.02    2.22  13 0.77178-0.96750 0.43244 0.31932-0.41602 0.20191
   0  -2  -7   95.12    2.29  13 0.77187-0.72046 0.42781-0.55775-0.42307-0.08166
   0  -2  -6   32.27    2.00  13 0.77180-0.72418 0.43167-0.56865-0.41720-0.01319
   0  -2  -5  427.44    3.75  13 0.77185-0.72797 0.42936-0.57345-0.42072 0.06539
   0  -1 -10    3.39    1.95  13 0.77186-0.72197 0.42859-0.44699-0.42190-0.31542
   0   0 -11  149.57    3.17  13 0.77165-0.73136 0.43628-0.35521-0.41013-0.41117
   0   1 -12    2.20    2.33  13 0.77180-0.73983 0.43167-0.25512-0.41720-0.48682
   0   9   1   42.20    3.22  13 0.77148-0.89111 0.44009 0.36498-0.40421 0.40132
   1  -3  -8  591.59    4.24  13 0.77183-0.60378 0.43013-0.65734-0.41955-0.15634
   1  -3  -7  277.36    3.67  13 0.77153-0.60646 0.43914-0.67317-0.40569-0.09564
   1  -3  -5  210.22    3.36  14 0.77142-0.61448 0.44130-0.69075-0.40231 0.05055
   1  -3  -4   33.68    1.93  13 0.77176-0.61846 0.43321-0.68918-0.41485 0.13814
   1  -1 -12    1.51    2.26  13 0.77171-0.61373 0.43475-0.45275-0.41249-0.47881
   1   0   2 1513.81   10.94  13 0.77173-0.67966 0.43398-0.46294-0.41367 0.55695
   1   3   4   30.78    2.07  13 0.77165-0.72517 0.43628-0.20893-0.41013 0.67696
   1   8   4   13.83    2.82  14 0.77141-0.78827 0.44153 0.23760-0.40195 0.62398
   2  -4  -7  153.24    2.83  13 0.77185-0.49480 0.42936-0.76834-0.42072-0.07701
   2  -4  -6   57.59    2.24  13 0.77178-0.49784 0.43244-0.77881-0.41603-0.00676
   2  -4  -5   28.35    2.08  13 0.77183-0.50169 0.43013-0.78353-0.41955 0.07149
   2  -3  -1  443.97    5.29  13 0.77153-0.52927 0.43920-0.73099-0.40560 0.34678
   2  -2 -12    8.39    3.34  14 0.77145-0.50167 0.44063-0.56316-0.40336-0.48450
   2   9   5    4.24    3.02  13 0.77146-0.70469 0.44046 0.30698-0.40363 0.68666
   2  10   4    1.89    2.37  13 0.77183-0.71533 0.43013 0.41509-0.41955 0.62121
   3  -4 -10   27.13    2.43  13 0.77183-0.38314 0.43013-0.76232-0.41955-0.30621
   3  -4  -2  171.44    3.58  13 0.77152-0.41226 0.43922-0.82851-0.40557 0.27587
   3   9   6   44.98    2.53  13 0.77173-0.60972 0.43398 0.29127-0.41367 0.76869
   4  -5  -7    1.67    2.09  13 0.77180-0.28094 0.43167-0.88994-0.41720-0.08158
   4  -5  -6    3.39    2.06  13 0.77171-0.28473 0.43475-0.90000-0.41249-0.01111
   4  -5  -5    0.51    1.95  13 0.77176-0.28860 0.43321-0.90524-0.41485 0.06567
   4   1   6    4.83    2.82  13 0.77152-0.40624 0.43921-0.45060-0.40558 0.82461
   4   3   7  176.51    2.65  13 0.77162-0.43589 0.43704-0.27430-0.40895 0.88500
   4   9   7   17.67    2.62  13 0.77165-0.51320 0.43628 0.26795-0.41013 0.83459
   5  -5  -9    2.04    2.64  13 0.77180-0.17345 0.43167-0.88899-0.41720-0.23526
   5  -5  -8    6.49    3.42  14 0.77136-0.17661 0.44236-0.90666-0.40065-0.17764
   5  -5  -3   63.66    3.29  13 0.77156-0.19478 0.43852-0.93900-0.40666 0.20098
   5   2   7   16.30    2.02  13 0.77186-0.32340 0.42859-0.37066-0.42190 0.90192
   5   4   8    3.49    2.94  13 0.77144-0.35167 0.44095-0.20921-0.40286 0.93758
   5   5   8   16.94    2.20  13 0.77180-0.36565 0.43167-0.10998-0.41720 0.94537
   5   6   8   -1.26    2.18  13 0.77187-0.37834 0.42781-0.01545-0.42307 0.94290
   5   7   8    9.04    2.32  13 0.77185-0.39094 0.42936 0.07213-0.42072 0.93172
   5   8   8   32.55    2.64  13 0.77165-0.40409 0.43628 0.15601-0.41013 0.91278
   6  -5  -2    1.31    2.16  13 0.77178-0.09804 0.43244-0.95596-0.41602 0.27993
   6   1   7    8.51    2.92  14 0.77143-0.20923 0.44111-0.48799-0.40261 0.88584
   6   3   8   63.18    3.17  13 0.77156-0.23942 0.43849-0.31160-0.40669 0.94832
   7  -5  -2    7.32    3.35  14 0.77148 0.00133 0.44009-0.97705-0.40421 0.26346
   7  -4   1    3.88    3.76  14 0.77121-0.02214 0.44484-0.91387-0.39674 0.47143
  -1   1  -8   69.77    3.08  15 0.77041-0.85356 0.45498-0.29313-0.38043-0.22067
  -1   2  -9   32.51    2.95  15 0.77021-0.86323 0.45696-0.19761-0.37721-0.30738
  -1   3   0 2080.39   11.94  14 0.77050-0.90955 0.45404-0.16932-0.38196 0.36032
  -1   4 -10   22.35    2.53  14 0.77099-0.88559 0.44828-0.00022-0.39122-0.38600
  -1   8  -7    0.73    5.15  17 0.76564-0.94207 0.48633 0.29998-0.32712-0.25955
   0  -1  -9   41.86    2.10  14 0.77110-0.72467 0.44678-0.47259-0.39361-0.26926
   0   2 -12   31.09    2.82  14 0.77110-0.75266 0.44678-0.17988-0.39361-0.51901
   0   2   2 2037.04    9.71  14 0.77051-0.80400 0.45394-0.28829-0.38213 0.51318
   0   3 -12    2.43    3.58  15 0.77020-0.76423 0.45707-0.10033-0.37702-0.54487
   0   5   3   51.36    2.08  14 0.77075-0.84667 0.45127-0.02146-0.38643 0.56606
   0   6   3  252.35    3.59  14 0.77047-0.85980 0.45435 0.06559-0.38146 0.55272
   0   8   2    5.39    2.00  14 0.77126-0.88187 0.44453 0.26343-0.39718 0.47669
   0  10   0   71.85    3.94  14 0.77071-0.89949 0.45178 0.45116-0.38561 0.29924
   1  -3  -6   33.03    1.99  14 0.77135-0.61026 0.44302-0.68456-0.39956-0.02722
   1  -2 -10   65.30    2.42  14 0.77126-0.60824 0.44453-0.56747-0.39718-0.33663
   1  -2  -1  335.44    4.74  14 0.77105-0.64183 0.44753-0.63465-0.39241 0.33039
   1   1   3  113.97    2.89  14 0.77105-0.69543 0.44753-0.39330-0.39241 0.60177
   1  10   3   -3.29    3.23  15 0.77038-0.80944 0.45535 0.41085-0.37983 0.51115
   2  -3 -10   -1.12    2.00  14 0.77126-0.49496 0.44453-0.67173-0.39718-0.33220
   2   2   5  309.28    3.29  14 0.77088-0.61538 0.44978-0.33387-0.38883 0.73406
   2   5   6  383.37    3.34  14 0.77075-0.65750 0.45127-0.07159-0.38643 0.77996
   2   6   6  676.53    4.04  14 0.77094-0.67021 0.44903 0.02099-0.39002 0.77456
   2   7   6    5.92    2.83  14 0.77049-0.68300 0.45414 0.10452-0.38179 0.75863
   3  -4  -9   -0.47    2.11  14 0.77126-0.38646 0.44453-0.78357-0.39718-0.25326
   3  -4  -8   10.60    2.88  15 0.77027-0.38912 0.45640-0.80283-0.37812-0.19791
   3  -3 -11   11.35    3.40  15 0.77041-0.39064 0.45498-0.68897-0.38043-0.42816
   3   2   6  165.06    2.78  14 0.77075-0.51932 0.45127-0.35690-0.38643 0.80192
   3   5   7  113.84    2.33  14 0.77075-0.56126 0.45127-0.09323-0.38643 0.84973
   3   6   7  224.78    2.79  14 0.77099-0.57426 0.44828-0.00008-0.39122 0.84620
   3   7   7    1.42    1.98  14 0.77082-0.58691 0.45053 0.08677-0.38763 0.83300
   3  10   6    8.68    3.57  14 0.77056-0.62213 0.45339 0.36347-0.38301 0.72884
   4  -4 -10    8.71    2.52  14 0.77069-0.28216 0.45202-0.79704-0.38523-0.34638
   4   6   8   15.37    2.94  15 0.77026-0.47637 0.45648-0.03011-0.37799 0.90181
   5  -5  -7   35.03    2.58  14 0.77088-0.17970 0.44978-0.92201-0.38883-0.11461
   5  -5  -6   31.47    3.30  15 0.77044-0.18320 0.45466-0.93389-0.38096-0.04781
   5  -5  -5   32.97    3.18  15 0.77041-0.18667 0.45498-0.94194-0.38043 0.02622
   5  -5  -4    1.44    2.08  14 0.77082-0.19239 0.45053-0.94380-0.38763 0.10769
   5  -1   5   16.01    2.07  14 0.77099-0.27624 0.44828-0.64610-0.39122 0.74838
   5   0   6    4.46    2.75  14 0.77045-0.29343 0.45460-0.56918-0.38105 0.80446
   6  -5  -3   -2.28    2.98  15 0.77045-0.09432 0.45461-0.96996-0.38103 0.17109
   6   6   9   12.06    3.47  14 0.77054-0.28126 0.45370-0.06345-0.38251 0.97242
   7  -5  -3    0.41    3.34  15 0.77019 0.00607 0.45720-0.98895-0.37682 0.16221
   7   2   8   15.97    2.39  14 0.77082-0.12529 0.45053-0.42745-0.38763 0.93178
   8   2   8    4.58    2.56  14 0.77126-0.02564 0.44453-0.43623-0.39718 0.93738
  -1   6  -9    2.70    3.36  16 0.76861-0.91208 0.46935 0.14993-0.35642-0.36344
  -1   7   0    8.78    2.00  15 0.76982-0.96049 0.46007 0.18554-0.37194 0.31484
  -1   8  -1    4.19    1.99  15 0.76965-0.96895 0.46154 0.28383-0.36952 0.23034
  -1   9  -4   -0.03    3.96  16 0.76732-0.96902 0.47736 0.37736-0.34269-0.02912
   0  -1  -8  209.93    2.99  15 0.76947-0.72702 0.46299-0.49569-0.36709-0.22119
   0  -1  -2 3344.77   13.51  15 0.76982-0.74986 0.46007-0.53541-0.37194 0.23198
   0   0 -10   46.08    2.31  15 0.76991-0.73218 0.45934-0.38800-0.37314-0.37307
   0   1 -11    2.82    2.20  15 0.76999-0.74262 0.45861-0.28899-0.37435-0.45518
   0   4   3   54.77    2.10  15 0.76991-0.83290 0.45934-0.12015-0.37314 0.56135
   0   7   3   32.63    2.13  15 0.76938-0.87115 0.46372 0.14614-0.36588 0.52826
   0   9   2   96.14    3.44  15 0.76850-0.89149 0.47007 0.32814-0.35519 0.42542
   1  -2  -9  122.30    2.59  15 0.76956-0.61011 0.46227-0.59205-0.36831-0.29083
   1  -1 -11   13.31    2.29  15 0.77007-0.61583 0.45787-0.48324-0.37556-0.44139
   1   0 -12   20.48    2.49  15 0.76982-0.62480 0.46007-0.38751-0.37194-0.52858
   1   2   4  152.67    3.40  16 0.76846-0.70896 0.47040-0.33331-0.35465 0.62953
   1   5   5  452.19    3.57  15 0.76910-0.75281 0.46590-0.06517-0.36224 0.68618
   1   6   5    9.82    1.90  15 0.76929-0.76579 0.46445 0.02545-0.36467 0.68017
   1   7   5   19.52    2.70  15 0.76859-0.77792 0.46951 0.11156-0.35615 0.66279
   1   9   4    7.02    2.11  15 0.76947-0.80067 0.46299 0.30650-0.36709 0.58243
   2  -3  -9   44.91    2.20  15 0.76982-0.49766 0.46007-0.69467-0.37194-0.28332
   2  -2 -11    5.26    2.24  15 0.76947-0.50226 0.46299-0.59261-0.36709-0.44589
   2  -1 -12   -0.54    3.32  16 0.76848-0.51098 0.47023-0.50356-0.35493-0.54117
   2   4   6   97.66    2.33  15 0.76965-0.64387 0.46154-0.17239-0.36952 0.77224
   2   8   6  121.21    2.60  15 0.76947-0.69437 0.46299 0.18723-0.36709 0.73448
   2  10   5    3.49    2.38  15 0.76947-0.71673 0.46299 0.37528-0.36709 0.64291
   3  -4  -7   11.66    1.95  15 0.76910-0.39087 0.46590-0.81973-0.36224-0.14002
   3  -4  -3   67.51    2.33  15 0.76956-0.40654 0.46227-0.84488-0.36831 0.16438
   3  -2 -12   16.28    3.61  15 0.76871-0.39724 0.46864-0.60468-0.35762-0.53471
   3   4   7  170.24    2.59  15 0.76965-0.54698 0.46154-0.19377-0.36952 0.84150
   3   8   7   10.57    2.13  15 0.76999-0.59800 0.45861 0.17039-0.37435 0.81224
   3   9   7   50.46    3.63  15 0.76855-0.60973 0.46975 0.24868-0.35575 0.78357
   4  -4  -9    3.49    2.19  15 0.76900-0.28483 0.46662-0.82029-0.36102-0.29435
   4  -4  -1  416.58    4.79  15 0.76938-0.31340 0.46372-0.87500-0.36588 0.30720
   4   2   7   86.83    2.34  15 0.76910-0.42087 0.46590-0.39310-0.36224 0.84679
   4   5   8   25.89    2.11  15 0.76956-0.46405 0.46227-0.12657-0.36831 0.90182
   4   7   8    5.06    2.23  15 0.77007-0.48849 0.45787 0.06058-0.37556 0.89190
   4   8   8   30.71    2.53  15 0.76938-0.50203 0.46372 0.14306-0.36588 0.87342
   5  -4   0   82.61    3.50  15 0.76877-0.21610 0.46825-0.90053-0.35829 0.36803
   5   1   7  185.56    3.57  15 0.76848-0.30694 0.47023-0.50176-0.35493 0.84374
   5   3   8    1.38    1.94  15 0.76965-0.33716 0.46154-0.32007-0.36952 0.91481
   6  -5  -7    6.73    2.62  15 0.76991-0.07921 0.45934-0.94578-0.37314-0.13489
   6  -5  -6    0.84    2.40  15 0.76919-0.08135 0.46518-0.95878-0.36345-0.07079
   6  -5  -5   19.85    3.27  15 0.76890-0.08463 0.46732-0.96823-0.35986 0.00053
   6  -5  -4   24.40    2.47  15 0.76929-0.08898 0.46445-0.97267-0.36467 0.08004
   6   2   8   10.22    2.96  15 0.76878-0.22396 0.46821-0.43213-0.35835 0.90898
   6   5   9    6.40    2.36  15 0.76982-0.26738 0.46007-0.16075-0.37194 0.97043
   7  -5  -5   13.64    3.63  16 0.76859 0.01574 0.46951-0.98556-0.35615-0.00838
   7  -5  -4    2.00    3.45  16 0.76859 0.01185 0.46951-0.99063-0.35615 0.06614
   7   4   9    3.90    2.43  15 0.76999-0.15368 0.45861-0.26302-0.37435 0.97673
  -1   1  -7  222.50    3.15  16 0.76822-0.85425 0.47307-0.31933-0.35013-0.17610
  -1   2  -8   54.24    2.92  17 0.76645-0.86210 0.48297-0.22999-0.33291-0.27697
  -1   4  -9   -0.38    2.91  17 0.76638-0.88455 0.48331-0.04272-0.33232-0.36903
  -1   5  -9   14.62    3.27  17 0.76636-0.89645 0.48339 0.04718-0.33217-0.37927
  -1   5   1   15.97    1.91  16 0.76737-0.93581 0.47804-0.02004-0.34155 0.37740
  -1   6   1  119.15    3.30  16 0.76678-0.94814 0.48127 0.06742-0.33590 0.36279
  -1   7  -8    0.85    3.46  17 0.76559-0.92539 0.48714 0.21716-0.32552-0.32947
  -1   9  -3   32.65    3.76  16 0.76695-0.97251 0.48034 0.36873-0.33754 0.03934
  -1   9  -2    0.21    3.11  17 0.76514-0.97386 0.48921 0.35177-0.32180 0.09877
   0  -1  -7   15.61    1.86  16 0.76750-0.72852 0.47733-0.51695-0.34278-0.17094
   0   0  -9  288.24    3.84  16 0.76656-0.73176 0.48239-0.41675-0.33394-0.33787
   0   1 -10   30.16    3.03  17 0.76601-0.74183 0.48511-0.32265-0.32913-0.42603
   0   2 -11   63.37    2.83  16 0.76750-0.75171 0.47733-0.21769-0.34278-0.49600
   0   3   3   30.95    2.79  16 0.76654-0.81659 0.48252-0.23376-0.33372 0.53091
   0   8   3    8.39    2.02  16 0.76712-0.88211 0.47945 0.22017-0.33909 0.49217
   0  10   1   -1.49    2.30  16 0.76774-0.90044 0.47591 0.41958-0.34523 0.33229
   1  -2  -8   74.45    2.29  16 0.76737-0.61133 0.47804-0.61502-0.34155-0.24296
   1  -1 -10  116.32    2.74  16 0.76712-0.61698 0.47945-0.51188-0.33909-0.40395
   1   0 -11  115.25    3.64  17 0.76599-0.62517 0.48522-0.42032-0.32893-0.49727
   1   1 -12   31.41    3.53  16 0.76654-0.63308 0.48251-0.31893-0.33373-0.57483
   1   4   5  230.97    2.87  16 0.76774-0.73844 0.47591-0.16528-0.34523 0.67783
   1   8   5    6.22    1.99  16 0.76699-0.78933 0.48015 0.19111-0.33786 0.63573
   1  10   4    1.94    3.31  17 0.76599-0.80962 0.48522 0.37429-0.32893 0.53483
   2  -3  -8  253.63    3.23  16 0.76798-0.49883 0.47449-0.71628-0.34768-0.23283
   2  -3  -2  252.18    3.84  16 0.76662-0.52052 0.48208-0.76650-0.33448 0.20126
   2  -2 -10    1.65    2.80  16 0.76645-0.50320 0.48296-0.61966-0.33293-0.40655
   2   3   6  175.80    2.67  16 0.76685-0.62824 0.48086-0.28210-0.33663 0.74761
   2   9   6    2.32    2.26  16 0.76762-0.70440 0.47662 0.26380-0.34401 0.70346
   3  -4  -6   35.80    2.22  16 0.76822-0.39367 0.47307-0.83339-0.35013-0.07745
   3  -4  -5  110.85    2.63  16 0.76774-0.39683 0.47591-0.84353-0.34523-0.00777
   3  -4  -4  270.62    3.37  16 0.76822-0.40146 0.47307-0.84814-0.35013 0.07189
   3  -3 -10   44.90    2.57  16 0.76822-0.39207 0.47307-0.71508-0.35013-0.38446
   3   3   7   85.79    3.00  16 0.76663-0.53224 0.48203-0.30485-0.33458 0.81605
   4  -4  -8   31.52    2.32  16 0.76699-0.28477 0.48015-0.84087-0.33786-0.24419
   4  -3 -11    2.56    2.44  16 0.76798-0.28784 0.47449-0.72349-0.34768-0.46656
   4   4   8   36.82    2.23  16 0.76810-0.44906 0.47378-0.22752-0.34891 0.89121
   5  -4  -9   19.82    3.53  16 0.76656-0.18024 0.48237-0.84891-0.33397-0.32710
   5  -2   4   38.21    3.34  17 0.76645-0.25503 0.48297-0.76440-0.33292 0.62377
   5   5   9    6.38    2.29  16 0.76699-0.36446 0.48015-0.16531-0.33786 0.94010
   5   6   9   14.16    2.37  16 0.76810-0.37869 0.47378-0.06929-0.34891 0.94287
   5   7   9    8.33    2.39  16 0.76833-0.39130 0.47235 0.02250-0.35135 0.93647
   6   4   9   11.28    2.37  16 0.76822-0.25307 0.47307-0.26293-0.35013 0.95723
   7  -1   6    1.03    3.03  17 0.76529-0.07527 0.48852-0.72313-0.32304 0.74401
   7   0   7   -0.93    3.14  17 0.76631-0.09165 0.48366-0.63452-0.33170 0.81899
   7   3   9   23.99    2.62  16 0.76712-0.13946 0.47945-0.37283-0.33909 0.94980
   8  -1   6   27.83    3.82  17 0.76631 0.02568 0.48366-0.73191-0.33170 0.74828
   8   0   7   15.01    3.61  16 0.76695 0.00764 0.48035-0.64603-0.33753 0.82155
  -1   1  -6   47.57    2.10  17 0.76533-0.85609 0.48772-0.33979-0.32428-0.12737
  -1   1  -3  495.42    6.20  18 0.76263-0.86491 0.49895-0.37258-0.30381 0.07648
  -1   4   1  579.50    5.12  17 0.76503-0.92059 0.48911-0.12086-0.32180 0.36668
  -1   7   1    9.29    2.58  17 0.76375-0.95845 0.49455 0.14422-0.31192 0.33060
  -1   8   0   18.01    2.22  17 0.76518-0.96855 0.48842 0.24873-0.32304 0.25796
   0  -1  -6  643.97    4.40  17 0.76518-0.73011 0.48842-0.53500-0.32304-0.11604
   0  -1  -5  272.15    3.75  17 0.76326-0.73172 0.49653-0.55014-0.30829-0.05597
   0  -1  -4   99.27    3.17  18 0.76284-0.73535 0.49816-0.55919-0.30528 0.01584
   0  -1  -3   20.10    2.11  17 0.76472-0.74072 0.49048-0.55887-0.31932 0.10458
   0   3 -11    0.86    2.29  17 0.76472-0.76212 0.49048-0.13985-0.31932-0.52772
   0   4 -11   -0.72    3.42  18 0.76306-0.77445 0.49730-0.05666-0.30687-0.54868
   0   5   4  414.25    4.03  17 0.76300-0.84234 0.49756-0.07535-0.30639 0.56102
   0   6   4   19.75    2.82  17 0.76358-0.85611 0.49527 0.01749-0.31061 0.55650
   0   9   3   28.09    3.04  17 0.76283-0.88926 0.49819 0.29221-0.30522 0.45014
   0  10   2   11.21    3.36  17 0.76286-0.89806 0.49810 0.38983-0.30539 0.36672
   1  -2  -7   72.37    2.27  17 0.76456-0.61272 0.49117-0.63520-0.31807-0.19194
   1  -2  -2  206.25    3.90  17 0.76346-0.63060 0.49572-0.67556-0.30977 0.17281
   1   2 -12    2.92    3.50  18 0.76289-0.64282 0.49798-0.24618-0.30562-0.61259
   1   3   5  131.60    3.04  17 0.76318-0.72080 0.49683-0.27704-0.30773 0.64969
   1   9   5   39.79    2.39  17 0.76391-0.79792 0.49391 0.26745-0.31310 0.60231
   2  -3  -7    3.03    1.91  17 0.76563-0.50020 0.48634-0.73528-0.32675-0.17876
   2  -3  -6   63.75    2.89  17 0.76331-0.50157 0.49633-0.75142-0.30866-0.12340
   2  -3  -3  218.04    3.56  18 0.76294-0.51338 0.49779-0.77566-0.30596 0.09837
   2  -1 -11    2.35    2.15  17 0.76375-0.50920 0.49459-0.53347-0.31186-0.51017
   2   0 -12    7.20    3.33  18 0.76322-0.51728 0.49668-0.43774-0.30802-0.59678
   2   0   4   47.18    3.17  18 0.76287-0.57810 0.49803-0.55575-0.30552 0.59321
   2   1   5    4.55    2.41  17 0.76292-0.59446 0.49784-0.47248-0.30588 0.65910
   2   5   7    1.04    2.60  18 0.76306-0.65425 0.49730-0.12630-0.30687 0.77422
   2   6   7    2.33    1.88  17 0.76424-0.66793 0.49254-0.03121-0.31559 0.77514
   2   7   7    4.71    2.04  17 0.76408-0.67937 0.49322 0.05966-0.31435 0.76592
   2   8   7    4.22    3.01  18 0.76279-0.69127 0.49836 0.14401-0.30491 0.74615
   2  10   6    2.95    2.47  17 0.76391-0.71590 0.49391 0.33654-0.31310 0.66346
   3  -3  -9   -2.06    1.97  17 0.76472-0.39201 0.49048-0.73889-0.31932-0.34101
   3  -3   0   52.33    3.01  18 0.76261-0.42399 0.49904-0.81306-0.30366 0.31504
   3  -2 -11   11.39    2.45  17 0.76488-0.39789 0.48979-0.63353-0.32056-0.49819
   3  -1 -12    4.70    3.49  17 0.76306-0.40556 0.49730-0.54318-0.30687-0.59394
   3   0   5   12.56    1.86  17 0.76518-0.48371 0.48842-0.56770-0.32304 0.68124
   3   1   6    2.68    2.64  17 0.76337-0.49948 0.49609-0.49269-0.30911 0.73306
   3   5   8  149.19    3.28  17 0.76306-0.55710 0.49730-0.14733-0.30687 0.84482
   3   6   8   40.39    2.16  17 0.76440-0.57172 0.49185-0.05177-0.31683 0.84667
   3   7   8   14.57    2.13  17 0.76456-0.58449 0.49117 0.03964-0.31807 0.83868
   3   8   8    5.41    3.20  17 0.76341-0.59652 0.49595 0.12493-0.30936 0.82187
   4  -4  -7   11.99    2.15  17 0.76456-0.28663 0.49117-0.85868-0.31807-0.19013
   4  -4  -2  138.49    3.09  17 0.76408-0.30381 0.49322-0.89725-0.31435 0.17984
   4  -3 -10    2.52    2.25  17 0.76391-0.28727 0.49391-0.74912-0.31310-0.42690
   4   3   8   85.68    2.38  17 0.76391-0.43268 0.49391-0.33879-0.31310 0.86441
   4   7   9   11.89    3.33  17 0.76298-0.48638 0.49760 0.01183-0.30631 0.89641
   5  -4  -8    4.07    3.13  18 0.76322-0.17974 0.49669-0.87013-0.30799-0.27811
   5   2   8  112.03    2.62  17 0.76456-0.31928 0.49117-0.44068-0.31807 0.87256
   5   4   9   12.04    2.24  17 0.76391-0.34894 0.49391-0.26994-0.31310 0.92521
   6  -4   0  169.33    4.77  18 0.76237-0.10945 0.49992-0.94768-0.30201 0.30816
   6   0   7   60.07    3.25  18 0.76235-0.18693 0.50002-0.63669-0.30182 0.79324
   6   3   9   -0.93    2.20  17 0.76391-0.23628 0.49391-0.37467-0.31310 0.92902
   7   1   8    7.20    3.27  17 0.76374-0.10646 0.49459-0.56262-0.31185 0.86621
   8   1   8    2.37    2.61  17 0.76518-0.00886 0.48842-0.57079-0.32304 0.87176
  -1   3  -8    9.74    2.02  18 0.76144-0.87032 0.50335-0.16010-0.29566-0.32271
  -1   6  -8    1.12    3.10  18 0.75857-0.90737 0.51273 0.10088-0.27772-0.36755
  -1   8   1   41.43    3.05  19 0.75877-0.96502 0.51211 0.21713-0.27892 0.28831
  -1   9  -1   22.24    2.44  18 0.76144-0.97361 0.50335 0.33147-0.29566 0.14791
   0   0  -8   20.89    2.06  18 0.76181-0.73117 0.50201-0.44420-0.29816-0.29911
   0   1  -9   32.18    2.78  19 0.75935-0.73881 0.51030-0.35421-0.28242-0.39831
   0   2 -10    2.20    2.08  18 0.76067-0.74897 0.50600-0.25286-0.29063-0.47378
   0   4   4   44.02    2.65  18 0.75941-0.82664 0.51010-0.17877-0.28280 0.54608
   0   7   4  291.22    3.22  18 0.76218-0.86813 0.50067 0.10209-0.30067 0.53861
   0   8   4   25.56    2.98  18 0.75942-0.87776 0.51009 0.18248-0.28283 0.51063
   1  -2  -6   43.12    2.00  18 0.76163-0.61322 0.50268-0.65389-0.29691-0.13793
   1  -2  -5  105.86    2.97  19 0.75925-0.61496 0.51061-0.66898-0.28182-0.07860
   1  -2  -3    1.04    2.66  19 0.75898-0.62147 0.51147-0.68514-0.28017 0.06993
   1  -1  -9  144.92    2.66  18 0.76236-0.61566 0.50000-0.54017-0.30192-0.36555
   1   0 -10   -2.35    2.84  19 0.75936-0.62165 0.51028-0.45188-0.28245-0.46823
   1   1 -11   47.02    3.35  18 0.75957-0.63037 0.50959-0.35297-0.28378-0.55068
   1   3 -12   16.24    3.70  19 0.75934-0.65300 0.51034-0.16802-0.28234-0.64406
   1   5   6  289.81    3.55  18 0.75958-0.74687 0.50957-0.11655-0.28383 0.68267
   1   6   6  336.46    3.17  18 0.76106-0.76098 0.50468-0.02127-0.29315 0.68321
   1   7   6    4.12    1.99  18 0.76067-0.77384 0.50600 0.06716-0.29063 0.67121
   1   8   6   14.37    2.91  19 0.75880-0.78370 0.51202 0.15181-0.27909 0.65092
   1  10   5   25.47    3.50  18 0.75894-0.80579 0.51159 0.34008-0.27994 0.55991
   2  -3  -5   24.21    1.91  18 0.76181-0.50423 0.50201-0.76489-0.29816-0.05838
   2  -3  -4   33.79    2.00  18 0.76144-0.50752 0.50335-0.77392-0.29566 0.01315
   2  -2  -9   21.56    2.05  18 0.76181-0.50211 0.50201-0.64575-0.29816-0.36618
   2   2   6    6.32    2.54  18 0.75911-0.60732 0.51105-0.40256-0.28097 0.70026
   2   4   7   16.41    2.69  18 0.75951-0.63782 0.50979-0.22875-0.28341 0.76051
   2   9   7  118.41    3.71  18 0.75964-0.70215 0.50938 0.22226-0.28418 0.71897
   3  -3  -8   18.62    2.16  18 0.76067-0.39249 0.50600-0.76127-0.29063-0.29487
   3  -2 -10    5.64    2.87  18 0.75925-0.39631 0.51061-0.66113-0.28182-0.46245
   3  -1   4   28.54    2.78  18 0.76039-0.46294 0.50692-0.66959-0.28890 0.58103
   3   2   7  168.35    3.49  18 0.75916-0.51133 0.51090-0.42447-0.28127 0.77097
   3   4   8   83.44    3.02  18 0.75939-0.54111 0.51017-0.25064-0.28267 0.82982
   3   9   8   37.02    2.67  18 0.76125-0.60661 0.50401 0.20591-0.29440 0.79837
   4  -4  -6   -0.44    1.89  18 0.76218-0.28667 0.50067-0.87528-0.30067-0.13230
   4  -4  -5   94.45    2.65  18 0.76067-0.28962 0.50600-0.88832-0.29063-0.06806
   4  -4  -4  143.97    3.54  18 0.75976-0.29201 0.50898-0.89790-0.28495 0.00090
   4  -4  -3   25.16    2.17  18 0.76086-0.29775 0.50534-0.90160-0.29189 0.08291
   4  -3  -9   61.33    3.40  19 0.75911-0.28621 0.51107-0.77412-0.28094-0.38498
   4  -2 -11    8.03    3.46  18 0.75956-0.29189 0.50965-0.66688-0.28367-0.53946
   4  -1   5   50.11    3.10  19 0.75831-0.36303 0.51350-0.69742-0.27622 0.63749
   4   0   6   59.10    2.50  18 0.76181-0.38408 0.50201-0.60305-0.29816 0.72576
   4   1   7    2.66    2.67  18 0.75990-0.39930 0.50855-0.52701-0.28577 0.77914
   4   5   9    4.70    2.07  18 0.76047-0.45866 0.50667-0.17737-0.28938 0.89720
   4   6   9    1.98    2.21  18 0.76236-0.47374 0.50000-0.08099-0.30192 0.90155
   4   8   9   13.54    2.58  18 0.76218-0.49835 0.50067 0.09817-0.30067 0.88289
   5  -4  -7    1.96    2.20  18 0.76027-0.18109 0.50733-0.88959-0.28812-0.22485
   5  -4  -1  190.18    4.23  18 0.75978-0.20343 0.50894-0.93405-0.28504 0.21936
   5  -3 -10    8.99    2.58  18 0.76047-0.18385 0.50667-0.77664-0.28938-0.45625
   6  -4  -8    5.54    2.50  18 0.76144-0.07918 0.50335-0.89274-0.29566-0.29597
   6  -1   6   13.82    2.95  19 0.75945-0.16812 0.50999-0.73069-0.28302 0.70927
   6   1   8    7.04    3.00  18 0.75979-0.20267 0.50888-0.56293-0.28514 0.84338
   6   5  10   11.25    2.57  18 0.76106-0.26198 0.50468-0.21280-0.29315 0.96486
   7  -4   0   -0.97    3.04  19 0.75915-0.00644 0.51094-0.97292-0.28119 0.28106
   7   2   9   13.77    3.46  19 0.75945-0.11847 0.50998-0.49532-0.28304 0.90215
   8  -4   0   -0.37    3.37  19 0.76017 0.09222 0.50766-0.98160-0.28749 0.28194
  -1   3   1  563.78    5.76  19 0.75470-0.89755 0.52353-0.24590-0.25661 0.31015
  -1   4  -8   12.56    2.19  19 0.75703-0.87897 0.51716-0.08353-0.26931-0.35771
  -1   5  -8   10.69    3.07  20 0.75499-0.88913 0.52277 0.00088-0.25814-0.37805
  -1   5   2    2.84    1.83  19 0.75658-0.92839 0.51844-0.06830-0.26677 0.37729
  -1   6   2  199.79    3.06  19 0.75726-0.94244 0.51651 0.02502-0.27058 0.37257
  -1   7   2   10.31    2.74  19 0.75470-0.95330 0.52353 0.10826-0.25661 0.34982
  -1   9   0   -0.07    3.02  20 0.75542-0.97332 0.52163 0.30519-0.26042 0.18723
   0   0  -7   52.35    2.96  19 0.75537-0.72881 0.52176-0.47018-0.26016-0.26255
   0   2   3  442.87    4.74  19 0.75459-0.79151 0.52384-0.36549-0.25599 0.46190
   0   3 -10    5.62    3.01  19 0.75507-0.75631 0.52256-0.17911-0.25855-0.51337
   0   9   4    2.46    3.06  19 0.75468-0.88377 0.52359 0.25923-0.25648 0.47576
   0  10   3   45.69    3.48  19 0.75515-0.89588 0.52235 0.35816-0.25897 0.39695
   1  -2  -4  190.10    3.00  19 0.75792-0.61732 0.51458-0.68021-0.27437-0.01179
   1  -1  -8  211.18    2.91  19 0.75612-0.61335 0.51972-0.56567-0.26424-0.32979
   1   4   6  239.37    3.41  19 0.75531-0.72967 0.52193-0.21903-0.25983 0.66785
   1   9   6  252.54    4.00  19 0.75470-0.79310 0.52353 0.23063-0.25661 0.62101
   2  -2  -8    1.63    1.82  19 0.75612-0.50096 0.51972-0.67075-0.26424-0.32415
   2  -1 -10   26.62    2.26  19 0.75703-0.50594 0.51716-0.56326-0.26931-0.47847
   2   0 -11    9.00    3.18  19 0.75526-0.51329 0.52206-0.47003-0.25956-0.57112
   2   1 -12    2.14    2.43  19 0.75703-0.52428 0.51716-0.36767-0.26931-0.64594
   3  -3  -7   27.22    2.17  19 0.75612-0.39056 0.51972-0.78292-0.26424-0.24772
   3  -1 -11    1.25    2.25  19 0.75566-0.40098 0.52099-0.57391-0.26169-0.56547
   3   0 -12    2.19    3.48  19 0.75542-0.40956 0.52163-0.47831-0.26042-0.65049
   4   2   8   17.40    2.71  19 0.75502-0.41101 0.52270-0.45766-0.25827 0.81814
   4   4   9  105.68    2.54  19 0.75612-0.44087 0.51972-0.28150-0.26424 0.88060
   5  -4  -6   47.66    2.49  19 0.75681-0.18158 0.51780-0.90670-0.26804-0.17040
   5  -4  -5  186.98    3.94  20 0.75406-0.18261 0.52521-0.92175-0.25322-0.11037
   5  -4  -2   93.63    3.42  20 0.75437-0.19420 0.52440-0.94305-0.25485 0.11482
   5  -3  -9   -1.27    3.24  20 0.75446-0.18121 0.52416-0.80212-0.25533-0.41592
   5   3   9   13.06    2.18  19 0.75813-0.32888 0.51393-0.38060-0.27564 0.89613
   5   5  10    8.60    3.38  20 0.75481-0.35669 0.52325-0.21623-0.25718 0.93470
   5   6  10    3.75    2.44  19 0.75792-0.37273 0.51458-0.11759-0.27437 0.94252
   6  -4  -7    4.28    2.31  19 0.75726-0.07957 0.51651-0.91188-0.27058-0.24649
   6   2   9    0.89    3.12  19 0.75494-0.21545 0.52290-0.49428-0.25788 0.88100
   6   4  10   16.50    2.50  19 0.75635-0.24491 0.51908-0.31648-0.26550 0.94578
  -1   3  -7   56.09    3.10  20 0.75050-0.86207 0.53412-0.19803-0.23507-0.30858
  -1   4   2 1222.13    6.77  20 0.75064-0.91024 0.53379-0.17309-0.23577 0.35506
  -1   8   2  179.80    3.67  20 0.74968-0.96043 0.53596 0.18634-0.23121 0.31550
  -1   9   1   11.21    3.01  20 0.74957-0.96908 0.53619 0.28354-0.23072 0.23067
   0   1  -8  173.50    3.50  20 0.74982-0.73188 0.53564-0.38677-0.23187-0.37401
   0   1   2 3447.55   13.97  20 0.74968-0.77001 0.53596-0.46068-0.23121 0.37104
   0   2  -9   52.04    3.06  20 0.75011-0.74125 0.53499-0.28891-0.23324-0.45638
   0   3   4  393.78    3.74  20 0.75103-0.80483 0.53290-0.29166-0.23762 0.50942
   0   4 -10    5.79    2.25  20 0.75130-0.76609 0.53229-0.09854-0.23890-0.54223
   0   5 -10    2.14    3.33  21 0.74947-0.77631 0.53642-0.01250-0.23022-0.56119
   0   5   5   31.41    2.76  20 0.74989-0.83344 0.53548-0.12035-0.23221 0.56112
   0   6 -10    8.59    3.87  21 0.74997-0.78808 0.53532 0.07812-0.23256-0.56682
   0   6   5  451.19    3.58  20 0.75208-0.84846 0.53043-0.02528-0.24274 0.56317
   0   7   5   57.83    2.18  20 0.75156-0.86080 0.53167 0.06381-0.24018 0.55178
   0   8   5   -0.27    2.88  21 0.74885-0.87028 0.53778 0.14748-0.22735 0.53015
   1  -1  -7   26.33    2.68  21 0.74906-0.60962 0.53733-0.59174-0.22831-0.29119
   1   0  -9   68.06    2.32  20 0.75076-0.61684 0.53351-0.48130-0.23634-0.44131
   1   1 -10  104.09    3.46  21 0.74981-0.62423 0.53567-0.38731-0.23181-0.52850
   1   1   4    0.77    1.93  20 0.75361-0.68198 0.52670-0.47933-0.25040 0.53492
   1   2 -11    3.23    2.28  20 0.75311-0.63776 0.52795-0.28154-0.24785-0.59519
   1   2   5  738.48    4.69  20 0.75234-0.69690 0.52982-0.40024-0.24401 0.59430
   1  10   6   22.76    3.63  20 0.74927-0.80015 0.53686 0.30687-0.22930 0.58336
   2  -2  -7   52.73    2.79  21 0.74968-0.49706 0.53596-0.69422-0.23121-0.28414
   2  -1   3    1.33    2.78  21 0.74807-0.54710 0.53946-0.67970-0.22377 0.44437
   2   2 -12   -0.74    3.52  20 0.75050-0.53123 0.53413-0.29507-0.23505-0.68804
   2   3   7   41.67    2.11  20 0.75234-0.61734 0.52982-0.33855-0.24401 0.73026
   2   5   8    5.73    2.65  20 0.74962-0.64423 0.53608-0.17177-0.23094 0.77268
   2   6   8   45.86    2.11  20 0.75234-0.65962 0.52982-0.07501-0.24401 0.77827
   2   7   8   37.99    2.29  20 0.75285-0.67344 0.52857 0.01669-0.24657 0.77234
   2   8   8   49.88    2.45  20 0.75182-0.68453 0.53105 0.10421-0.24146 0.75785
   3  -3  -6  156.64    2.86  20 0.75130-0.38934 0.53229-0.80220-0.23890-0.19817
   3  -3  -1  362.56    4.76  21 0.74859-0.40579 0.53834-0.84541-0.22617 0.16308
   3  -2  -9   10.81    1.98  20 0.75208-0.39106 0.53043-0.68850-0.24274-0.42746
   3   3   8   53.38    2.25  20 0.75234-0.52077 0.52982-0.36036-0.24401 0.79972
   3   5   9   10.05    2.91  21 0.74940-0.54714 0.53658-0.19387-0.22988 0.84190
   3   6   9    5.60    2.19  20 0.75234-0.56306 0.52982-0.09671-0.24401 0.84862
   3   7   9    6.33    2.20  20 0.75336-0.57782 0.52733-0.00476-0.24912 0.84433
   3   8   9    2.97    2.41  20 0.75260-0.58879 0.52919 0.08512-0.24529 0.83237
   4  -3  -8   72.21    2.53  20 0.75336-0.28412 0.52733-0.79785-0.24912-0.34191
   4  -3   1  287.01    5.98  21 0.74645-0.31088 0.54281-0.87837-0.21656 0.29750
   4  -2 -10   -1.96    2.22  20 0.75234-0.28847 0.52982-0.69533-0.24401-0.50498
   4   6  10    4.80    3.33  20 0.74950-0.46350 0.53636-0.12501-0.23036 0.90268
   4   7  10   34.85    2.67  20 0.75076-0.47871 0.53351-0.03143-0.23634 0.90101
   5  -4  -4    3.53    2.00  20 0.75234-0.18575 0.52982-0.93327-0.24401-0.04512
   5  -4  -3    3.52    1.99  20 0.75208-0.18826 0.53043-0.94148-0.24274 0.02870
   5   0   7  119.98    2.83  20 0.75260-0.27818 0.52919-0.65175-0.24529 0.74255
   5   1   8   17.97    2.13  20 0.75130-0.29358 0.53229-0.57263-0.23890 0.80229
   5   4  10    7.65    3.29  21 0.74930-0.33685 0.53679-0.32016-0.22944 0.91533
   6  -4  -6    3.33    2.23  20 0.75361-0.07780 0.52670-0.92993-0.25040-0.19326
   6  -4  -5   -1.15    3.00  21 0.74995-0.07873 0.53535-0.94545-0.23249-0.13585
   6  -4  -1    5.68    2.08  20 0.75234-0.09543 0.52982-0.96947-0.24401 0.17443
   6  -3  -9    3.58    2.49  20 0.75156-0.07818 0.53167-0.82334-0.24018-0.43512
   7  -4  -6    7.23    2.51  20 0.75311 0.02221 0.52795-0.94645-0.24785-0.20018
   7  -4  -5   26.08    3.67  21 0.74928 0.02206 0.53683-0.96203-0.22936-0.14368
   7  -4  -1    1.40    3.01  21 0.74980 0.00646 0.53570-0.98930-0.23176 0.15684
   7  -2   5   -0.43    3.68  22 0.74386-0.03800 0.54789-0.86765-0.20544 0.56145
   8  -4  -2    2.23    3.51  21 0.74885 0.10988 0.53778-0.99909-0.22735 0.07292
   8  -4  -1   19.00    2.87  20 0.75311 0.10352 0.52795-0.99680-0.24785 0.16875
   8  -2   5    1.17    4.74  22 0.74350 0.06476 0.54858-0.88139-0.20390 0.55503
  -1   2   0    9.76    2.90  21 0.74454-0.87004 0.54655-0.35302-0.20874 0.19630
  -1   4  -7  111.22    3.48  22 0.74209-0.86824 0.55117-0.12459-0.19848-0.35447
  -1   6   3  123.82    3.26  21 0.74495-0.93392 0.54575-0.01157-0.21049 0.38654
  -1   7  -7   37.54    4.03  22 0.74415-0.90728 0.54729 0.14878-0.20710-0.37331
  -1   7   3  265.22    3.83  21 0.74370-0.94538 0.54816 0.07664-0.20518 0.37245
  -1  10  -3    0.23    4.41  21 0.74380-0.95903 0.54798 0.39002-0.20559-0.09971
  -1  10  -2   13.17    3.82  21 0.74473-0.96716 0.54617 0.38592-0.20957-0.02128
  -1  10  -1   57.55    4.09  21 0.74426-0.97002 0.54708 0.37751-0.20757 0.05176
   0   0  -6   28.15    1.96  21 0.74822-0.72592 0.53907-0.49586-0.22493-0.22280
   0   4   5    0.29    2.59  21 0.74380-0.81388 0.54798-0.22466-0.20559 0.54220
   0   9   5   12.35    3.19  21 0.74371-0.87732 0.54814 0.22765-0.20524 0.49895
   0  10   4   26.21    2.51  21 0.74620-0.89056 0.54326 0.33019-0.21592 0.42672
   1   0   3  138.89    3.80  22 0.74345-0.65479 0.54863-0.58475-0.20414 0.42187
   1   3 -11    6.82    2.36  21 0.74678-0.64298 0.54207-0.20660-0.21850-0.63485
   1   3   6   19.97    1.94  21 0.74678-0.70783 0.54207-0.32902-0.21850 0.63467
   1   5   7   56.65    2.82  21 0.74459-0.73617 0.54646-0.16030-0.20894 0.68265
   1   6   7  117.22    2.46  21 0.74793-0.75180 0.53967-0.06281-0.22365 0.68839
   1   7   7    3.53    1.93  21 0.74850-0.76603 0.53847 0.02677-0.22622 0.68057
   1   8   7    1.93    2.21  21 0.74649-0.77581 0.54267 0.11505-0.21721 0.66545
   1   9   7    4.35    3.35  21 0.74362-0.78440 0.54831 0.19824-0.20486 0.64044
   2  -1  -9    8.19    1.99  21 0.74850-0.50112 0.53847-0.59242-0.22622-0.44675
   2   0 -10    4.11    1.95  21 0.74501-0.50788 0.54563-0.50025-0.21076-0.54695
   2   1 -11   -0.49    2.21  21 0.74590-0.51738 0.54385-0.40235-0.21463-0.62587
   2   4   8   56.60    2.86  22 0.74346-0.62418 0.54862-0.27383-0.20416 0.75536
   2   9   8   10.73    2.54  21 0.74850-0.69507 0.53847 0.18731-0.22622 0.73435
   3  -3  -5   18.14    2.09  21 0.74678-0.38890 0.54207-0.81969-0.21850-0.14361
   3  -3  -4    8.52    2.77  22 0.74287-0.38937 0.54973-0.83385-0.20171-0.08593
   3  -2  -8  102.25    3.18  22 0.74360-0.38716 0.54835-0.71445-0.20476-0.39021
   3  -1 -10   -1.39    2.03  21 0.74620-0.39525 0.54326-0.60384-0.21592-0.53675
   3   0 -11    0.22    3.20  22 0.74410-0.40138 0.54739-0.51005-0.20688-0.62866
   3   1 -12   -0.57    2.54  21 0.74649-0.41353 0.54267-0.40811-0.21721-0.70254
   3   4   9    8.73    2.82  22 0.74308-0.52862 0.54933-0.29662-0.20259 0.82221
   4  -3  -7   42.79    2.35  21 0.74649-0.28022 0.54267-0.82011-0.21721-0.29909
   4  -2  -9   -0.86    2.92  22 0.74349-0.28367 0.54856-0.72231-0.20429-0.47098
   4  -1 -11    8.50    2.46  21 0.74822-0.29331 0.53907-0.60776-0.22493-0.60626
   4   3   9    0.77    2.06  21 0.74765-0.42052 0.54027-0.39212-0.22236 0.84791
   4   5  10   -1.67    2.20  21 0.74531-0.44696 0.54504-0.22269-0.21205 0.89374
   5  -3  -8    5.31    2.13  21 0.74707-0.17781 0.54147-0.82550-0.21979-0.37589
   5  -3   2   14.53    3.66  22 0.74194-0.21030 0.55143-0.90822-0.19791 0.34781
   5  -2 -10   -1.40    2.44  21 0.74678-0.18263 0.54207-0.72167-0.21850-0.53596
   5  -1   6   92.24    3.40  21 0.74494-0.25412 0.54578-0.75124-0.21044 0.64274
   5   2   9   -0.03    2.07  21 0.74649-0.30581 0.54267-0.49894-0.21721 0.84632
   6  -4  -4   -0.17    2.06  21 0.74736-0.07956 0.54087-0.95875-0.22107-0.07285
   6  -4  -3    9.51    2.10  21 0.74620-0.08237 0.54326-0.96831-0.21592-0.00314
   6  -4  -2   28.12    2.43  21 0.74765-0.08736 0.54027-0.97296-0.22236 0.07749
   6  -3  -8   23.02    3.50  22 0.74380-0.07462 0.54798-0.84664-0.20559-0.39564
   6   3  10    4.49    2.42  21 0.74765-0.22195 0.54027-0.42726-0.22236 0.91195
   7  -4  -4    0.21    2.23  21 0.74620 0.02108 0.54326-0.97506-0.21592-0.08330
   7  -4  -3   41.26    3.52  21 0.74478 0.01966 0.54608-0.98537-0.20978-0.01417
   7  -4  -2    4.55    2.23  21 0.74590 0.01359 0.54385-0.99077-0.21463 0.06412
   7   1   9    3.46    3.45  21 0.74328-0.08880 0.54895-0.62236-0.20344 0.82876
   8  -4  -3   -0.62    2.56  21 0.74765 0.11606 0.54027-0.99396-0.22236-0.00761
  -1   2  -5   11.19    1.79  22 0.74093-0.84783 0.55310-0.32181-0.19395-0.19185
  -1   5  -7    8.75    2.86  23 0.73587-0.87447 0.56164-0.04544-0.17430-0.38771
  -1   5   3   11.24    1.97  22 0.74220-0.91830 0.55079-0.10720-0.19913 0.38394
  -1   6  -7  206.74    5.18  23 0.73603-0.88789 0.56139 0.04587-0.17490-0.39581
  -1   8   3  220.21    3.78  22 0.73857-0.95379 0.55720 0.15736-0.18461 0.34388
  -1   9   2   33.35    2.39  22 0.74060-0.96451 0.55367 0.25849-0.19265 0.26885
  -1  10   0   27.54    2.81  22 0.74060-0.97005 0.55367 0.36350-0.19265 0.11110
   0   0  -5  613.11    4.63  22 0.73896-0.72019 0.55652-0.51980-0.18616-0.18700
   0   1  -7  715.80    5.18  22 0.73746-0.72310 0.55905-0.41818-0.18033-0.35101
   0   3  -9   31.53    2.31  22 0.74093-0.74522 0.55310-0.21754-0.19395-0.50441
   0   6   6    2.92    2.68  22 0.73728-0.83760 0.55934-0.06146-0.17966 0.57298
   0   7   6   30.49    2.84  22 0.73754-0.85103 0.55891 0.02935-0.18066 0.56627
   1  -1  -6   91.80    2.36  22 0.73995-0.60419 0.55482-0.61607-0.19006-0.25398
   1   0  -8  153.61    2.79  22 0.73962-0.60956 0.55539-0.51166-0.18876-0.41377
   1   1  -9   14.36    2.82  23 0.73650-0.61451 0.56063-0.42049-0.17667-0.50918
   1   2 -10    1.07    2.09  22 0.73896-0.62628 0.55652-0.31755-0.18616-0.58243
   1   4 -11    2.52    2.37  22 0.74157-0.65136 0.55195-0.12524-0.19654-0.66458
   1   4   7   13.50    2.60  22 0.73785-0.71588 0.55841-0.26272-0.18182 0.66399
   2  -2  -6   69.58    2.27  22 0.74220-0.49336 0.55079-0.71653-0.19913-0.24081
   2  -1  -8   11.11    2.60  22 0.73772-0.49501 0.55862-0.61891-0.18133-0.41666
   2   1   6  988.78    5.47  22 0.73962-0.57564 0.55539-0.53740-0.18876 0.61753
   2   2   7  103.95    3.01  22 0.73777-0.59060 0.55854-0.45750-0.18151 0.67640
   2   7   9   14.20    3.19  22 0.73759-0.66205 0.55883-0.02107-0.18084 0.78115
   2   8   9    7.21    3.37  22 0.73715-0.67372 0.55957 0.06881-0.17913 0.77053
   3  -3  -3  277.96    3.60  22 0.74093-0.39063 0.55310-0.84524-0.19395-0.01871
   3  -3  -2  348.23    4.01  22 0.74189-0.39557 0.55137-0.85060-0.19784 0.05973
   3   0   6   44.43    2.86  22 0.73855-0.46170 0.55723-0.64366-0.18454 0.61764
   3   1   7  121.21    2.65  22 0.74189-0.48111 0.55137-0.55441-0.19784 0.69660
   3   2   8   92.26    3.09  22 0.73805-0.49494 0.55807-0.47873-0.18260 0.74750
   3   7  10   -6.81    3.47  23 0.73762-0.56566 0.55878-0.04250-0.18096 0.85144
   4  -3  -6  195.68    3.18  22 0.73962-0.27768 0.55539-0.84026-0.18876-0.25331
   4  -1 -10   11.02    3.09  23 0.73670-0.28510 0.56030-0.63554-0.17744-0.58088
   4   1   8  106.11    3.20  23 0.73691-0.37910 0.55996-0.58437-0.17822 0.74606
   4   4  10    7.84    3.09  22 0.73758-0.42669 0.55885-0.32767-0.18081 0.87217
   5  -3  -7    1.80    2.10  22 0.73929-0.17215 0.55596-0.84780-0.18746-0.33486
   5  -2  -9   11.31    3.19  23 0.73639-0.17609 0.56081-0.74821-0.17624-0.50307
   5   3  10   31.04    2.37  22 0.73896-0.31460 0.55652-0.42975-0.18616 0.88006
   6  -2   5   15.93    3.89  23 0.73296-0.12503 0.56617-0.86888-0.16356 0.52409
   6   1   9    3.83    3.09  23 0.73645-0.18093 0.56071-0.62062-0.17648 0.80830
   7   0   8   22.80    2.52  22 0.74125-0.07052 0.55253-0.71125-0.19525 0.75686
  -1   3  -6    4.55    1.91  23 0.73496-0.85079 0.56325-0.23453-0.17067-0.29873
  -1   3   2  268.15    3.66  23 0.73496-0.88156 0.56325-0.29271-0.17067 0.29785
  -1   4   3   15.36    1.89  23 0.73355-0.89703 0.56545-0.21176-0.16545 0.35844
  -1   6   4  203.17    3.56  23 0.73018-0.92353 0.57044-0.04336-0.15340 0.40385
  -1   7   4  161.72    3.41  23 0.73017-0.93617 0.57045 0.04687-0.15338 0.39534
  -1   8  -6    0.51    3.92  23 0.72850-0.91020 0.57281 0.20784-0.14757-0.36544
  -1   9   3   53.13    3.35  23 0.73026-0.95865 0.57032 0.23405-0.15369 0.30417
  -1  10   1   56.12    2.97  23 0.73496-0.96793 0.56325 0.34696-0.17067 0.16318
   0   0  -4 1769.63    8.31  24 0.72955-0.71485 0.57133-0.54238-0.15122-0.14751
   0   2  -8   83.43    2.44  23 0.73566-0.72946 0.56215-0.32525-0.17328-0.44187
   0   2   4  592.44    4.98  23 0.73113-0.77290 0.56905-0.41745-0.15678 0.43721
   0   3   5   19.30    2.56  23 0.73055-0.78850 0.56990-0.33584-0.15471 0.50116
   0   5  -9    7.23    3.19  24 0.72905-0.76024 0.57204-0.05595-0.14947-0.56710
   0   5   6  242.18    2.90  23 0.73283-0.82108 0.56654-0.15843-0.16284 0.56626
   0   7  -9    5.81    3.83  23 0.73143-0.78628 0.56863 0.12891-0.15782-0.57481
   0   8   6   15.91    2.14  23 0.73496-0.86184 0.56325 0.11542-0.17067 0.54867
   0   9   6   17.06    3.29  23 0.73026-0.86925 0.57032 0.19793-0.15369 0.52210
   0  10   5   23.56    2.51  23 0.73496-0.88337 0.56325 0.30273-0.17067 0.45695
   1  -1  -5   -1.08    2.58  24 0.73026-0.59976 0.57032-0.63834-0.15369-0.21397
   1   2   6   84.09    2.87  24 0.72956-0.67804 0.57132-0.44842-0.15125 0.57603
   1   3 -10   14.30    3.04  24 0.72952-0.62999 0.57138-0.24280-0.15109-0.62738
   1   6   8    3.38    2.74  23 0.73076-0.73968 0.56960-0.09960-0.15545 0.69560
   1   7   8   67.76    2.29  23 0.73283-0.75375 0.56654-0.00678-0.16284 0.69331
   1   8   8    6.17    2.27  23 0.73174-0.76550 0.56817 0.08155-0.15892 0.68063
   2  -2  -5  225.12    2.99  23 0.73461-0.48934 0.56380-0.73704-0.16937-0.19615
   2   0  -9   42.32    2.89  23 0.73106-0.49572 0.56916-0.53159-0.15653-0.52555
   2   0   5  548.09    4.71  23 0.73319-0.55226 0.56600-0.63039-0.16415 0.52686
   2   1 -10    5.48    2.92  23 0.73076-0.50512 0.56960-0.43504-0.15545-0.60962
   2   2 -11    4.56    2.23  23 0.73566-0.51918 0.56215-0.33045-0.17328-0.67557
   2   3   8  608.68    4.04  23 0.73174-0.60132 0.56817-0.38369-0.15892 0.71931
   2   5   9   28.59    2.93  23 0.73079-0.63010 0.56956-0.21196-0.15554 0.77362
   2   6   9   11.58    2.02  23 0.73601-0.64718 0.56159-0.11371-0.17459 0.78343
   3  -2  -7    8.10    1.85  23 0.73355-0.38088 0.56545-0.73859-0.16545-0.35416
   3  -1  -9    3.35    1.91  23 0.73461-0.38727 0.56380-0.63202-0.16937-0.50904
   3   0 -10   36.09    3.15  24 0.73043-0.39168 0.57008-0.54023-0.15428-0.60704
   3   1 -11   -0.35    2.24  23 0.73210-0.40298 0.56763-0.44108-0.16023-0.68492
   3   3   9   19.60    2.86  23 0.73108-0.50471 0.56913-0.40662-0.15659 0.78702
   3   5  10   29.11    3.14  23 0.73026-0.53267 0.57032-0.23430-0.15369 0.84104
   3   6  10    2.06    2.25  23 0.73566-0.55089 0.56215-0.13740-0.17328 0.85124
   4  -3  -5   23.25    2.08  23 0.73210-0.27281 0.56763-0.85957-0.16023-0.20632
   4  -2  -8    2.10    2.00  23 0.73246-0.27615 0.56709-0.74701-0.16153-0.43889
   4   0 -11    2.76    2.40  23 0.73496-0.29310 0.56325-0.54071-0.17067-0.67103
   4   0   7   -1.83    1.91  23 0.73426-0.36057 0.56435-0.67313-0.16807 0.66958
   4   2   9   26.72    2.09  23 0.73283-0.39272 0.56654-0.50828-0.16284 0.79682
   4   6  11   20.86    3.64  23 0.73072-0.45024 0.56965-0.16619-0.15533 0.90371
   5  -3  -6    3.13    2.79  23 0.73054-0.16892 0.56991-0.86772-0.15469-0.29282
   5  -1 -10    4.28    3.38  24 0.72980-0.17885 0.57098-0.66103-0.15209-0.61050
   6  -3  -7    2.45    2.21  23 0.73532-0.06922 0.56270-0.86930-0.17198-0.35358
   6  -2  -9   -2.30    2.35  23 0.73246-0.07149 0.56709-0.76780-0.16153-0.52312
   6   0   8  119.02    3.02  23 0.73461-0.16380 0.56380-0.70732-0.16937 0.73603
   6   2  10    6.49    3.44  23 0.73148-0.19459 0.56854-0.54615-0.15801 0.85680
   7  -3  -7    2.48    2.57  23 0.73496 0.03138 0.56325-0.88470-0.17067-0.36079
   7  -1   7   65.93    3.88  24 0.72963-0.04159 0.57122-0.81224-0.15150 0.64661
   8  -1   7    2.85    3.62  24 0.72864 0.05915 0.57262-0.82804-0.14803 0.63795
  -1   2  -4  581.23    6.29  24 0.72393-0.83374 0.57888-0.35511-0.13212-0.17898
  -1   5   4  223.12    3.00  24 0.72569-0.90577 0.57657-0.13994-0.13798 0.39757
  -1   8   4    9.94    2.11  24 0.72608-0.94524 0.57605 0.12993-0.13929 0.37303
  -1  10   2   24.38    2.62  24 0.72724-0.96407 0.57448 0.32764-0.14323 0.21173
   0   1  -6   94.90    3.05  25 0.72198-0.71231 0.58136-0.44771-0.12575-0.33121
   0   3  -8   73.17    3.23  25 0.72141-0.73014 0.58207-0.25341-0.12392-0.50026
   0   4   6   25.08    1.94  24 0.72411-0.79836 0.57864-0.26066-0.13273 0.54576
   0   6  -9    9.66    2.51  24 0.72724-0.76962 0.57448 0.03232-0.14323-0.58160
   0  10   6    7.52    3.58  24 0.72240-0.87316 0.58083 0.27821-0.12712 0.48730
   1   0  -7   73.11    2.22  24 0.72530-0.59839 0.57709-0.54015-0.13667-0.39138
   1   1   5  446.37    4.01  24 0.72647-0.65853 0.57553-0.53584-0.14060 0.49952
   1   2  -9    3.86    2.74  25 0.72164-0.61411 0.58177-0.35106-0.12468-0.57010
   1   3   7   24.64    1.98  24 0.72490-0.69050 0.57761-0.37217-0.13535 0.62661
   1   4 -10   10.16    3.14  25 0.72108-0.63363 0.58247-0.16454-0.12287-0.66473
   1   5   8    3.42    1.92  24 0.72608-0.72197 0.57605-0.19747-0.13929 0.68637
   1   9   8    0.59    2.38  24 0.72801-0.77483 0.57342 0.16645-0.14585 0.65904
   2  -2  -4  125.90    2.61  24 0.72686-0.48575 0.57500-0.75518-0.14192-0.14952
   2  -2   0  119.78    3.51  24 0.72647-0.50071 0.57553-0.78454-0.14060 0.14781
   2  -1  -7   10.17    1.90  24 0.72490-0.48474 0.57761-0.64584-0.13535-0.38832
   2   3 -11    4.03    2.42  24 0.72608-0.52263 0.57605-0.25393-0.13929-0.71799
   2   4   9   73.71    3.05  24 0.72232-0.60736 0.58092-0.31384-0.12687 0.75262
   3  -2  -6   75.75    2.94  25 0.72225-0.37345 0.58101-0.76113-0.12666-0.31906
   4  -3  -4  136.59    2.83  24 0.72530-0.27040 0.57709-0.87612-0.13667-0.15611
   4  -3   0  151.86    3.93  24 0.72273-0.28316 0.58041-0.90854-0.12820 0.13405
   4  -1  -9    2.28    2.78  25 0.72250-0.27481 0.58069-0.66295-0.12747-0.55541
   4   3  10    2.86    2.12  24 0.72530-0.40253 0.57709-0.43533-0.13667 0.83595
   4   5  11   16.50    2.45  24 0.72451-0.43055 0.57813-0.26489-0.13404 0.89119
   5  -3  -5    4.52    2.80  24 0.72232-0.16397 0.58093-0.88771-0.12687-0.24633
   5  -2  -8    6.16    2.15  24 0.72411-0.16573 0.57864-0.77306-0.13273-0.47220
   5   0   8   25.59    3.03  25 0.72110-0.24961 0.58245-0.71173-0.12292 0.69443
   5   1   9   47.21    3.19  24 0.72369-0.27028 0.57919-0.62626-0.13133 0.76963
   5   2  10   28.13    3.26  25 0.72149-0.28377 0.58196-0.54458-0.12418 0.82664
   5   4  11    2.21    2.54  24 0.72763-0.32101 0.57395-0.36461-0.14454 0.90575
   6  -3  -6   14.90    2.23  24 0.72608-0.06341 0.57605-0.88937-0.13929-0.31271
   6  -1   7  211.55    4.47  25 0.72103-0.13289 0.58253-0.80892-0.12270 0.62301
   7  -3  -6    2.64    2.38  24 0.72530 0.03759 0.57709-0.90406-0.13667-0.32043
  -1   2   1  333.64    4.72  25 0.71749-0.84702 0.58670-0.39952-0.11164 0.17351
  -1   3   3   68.20    2.92  25 0.71391-0.86404 0.59078-0.32803-0.10066 0.30306
  -1   4  -6   92.43    3.41  25 0.71530-0.84305 0.58922-0.17021-0.10488-0.37346
  -1   4   4    7.65    2.47  25 0.71441-0.88123 0.59022-0.24443-0.10217 0.37084
  -1   6   5   65.73    2.95  25 0.71393-0.91033 0.59075-0.07122-0.10072 0.42564
  -1   7   5  191.86    3.55  25 0.71445-0.92478 0.59017 0.01935-0.10230 0.41954
  -1   9   4   18.51    2.22  25 0.71833-0.95050 0.58571 0.21207-0.11428 0.33923
  -1  10   3    8.37    2.48  25 0.71791-0.95878 0.58621 0.30840-0.11296 0.25441
   0   0  -3  489.97    5.13  25 0.71791-0.70704 0.58621-0.56420-0.11296-0.11088
   0   1   3   20.45    2.18  25 0.71833-0.74263 0.58571-0.51777-0.11428 0.32835
   0   2  -7   31.02    2.70  25 0.71517-0.71335 0.58937-0.35776-0.10449-0.43573
   0   5   7   53.35    2.86  25 0.71362-0.80417 0.59110-0.19054-0.09977 0.57786
   0   6   7   45.11    2.17  25 0.71917-0.82319 0.58471-0.09387-0.11692 0.58674
   0   7   7   18.70    2.12  25 0.72082-0.83825 0.58270-0.00165-0.12218 0.58319
   0   8   7   45.31    2.35  25 0.71958-0.84888 0.58421 0.08727-0.11823 0.57063
   0   9   7   29.69    3.39  25 0.71446-0.85784 0.59017 0.17073-0.10232 0.54661
   1  -1  -4   49.41    2.29  25 0.71917-0.59139 0.58471-0.66022-0.11692-0.17806
   1   1  -8   93.72    2.50  25 0.71875-0.60045 0.58521-0.45112-0.11560-0.49553
   1   4   8  144.85    2.53  25 0.71664-0.69830 0.58769-0.29873-0.10901 0.66563
   1   5 -10   23.67    3.53  26 0.71437-0.63888 0.59027-0.08151-0.10205-0.69312
   1   7   9   25.21    3.19  25 0.71405-0.73876 0.59062-0.03890-0.10109 0.70639
   1   8   9    5.44    3.39  25 0.71405-0.75154 0.59062 0.05177-0.10109 0.69691
   2  -2  -3    2.16    1.82  25 0.71958-0.48415 0.58421-0.77033-0.11823-0.09863
   2  -2  -2    1.94    2.61  26 0.71415-0.48226 0.59051-0.78410-0.10139-0.03962
   2  -2  -1   32.31    2.84  26 0.71405-0.48444 0.59062-0.79248-0.10109 0.03313
   2   0  -8    2.46    2.66  26 0.71416-0.48364 0.59051-0.56105-0.10140-0.50454
   2   2 -10    7.81    2.12  25 0.71621-0.50273 0.58818-0.36360-0.10769-0.66692
   2   4 -11   -0.60    2.53  25 0.71833-0.52815 0.58571-0.17311-0.11428-0.75217
   2   6  10   34.14    2.32  25 0.71578-0.63101 0.58867-0.14829-0.10637 0.78981
   2   7  10    3.39    2.40  25 0.71917-0.64605 0.58471-0.05491-0.11692 0.79203
   3  -1  -8   39.45    2.15  25 0.72000-0.37562 0.58371-0.65899-0.11955-0.48423
   3  -1   5    2.42    1.83  25 0.71833-0.42336 0.58571-0.75632-0.11428 0.47949
   3   0  -9  144.69    3.55  26 0.71377-0.37933 0.59094-0.56913-0.10023-0.58733
   3   1 -10    6.59    3.02  26 0.71377-0.38760 0.59094-0.47240-0.10022-0.67070
   3   1   8   11.77    2.81  26 0.71330-0.45631 0.59146-0.60176-0.09880 0.67125
   3   2 -11   24.96    2.66  25 0.71917-0.40195 0.58471-0.36826-0.11692-0.73691
   3   4  10    1.94    2.12  25 0.72082-0.51043 0.58270-0.33795-0.12218 0.81758
   3   6  11   15.87    3.54  25 0.71443-0.53412 0.59020-0.17190-0.10224 0.85539
   4  -3  -3   26.28    2.12  25 0.71917-0.26818 0.58471-0.89092-0.11692-0.10126
   4  -3  -2  368.32    4.57  25 0.71503-0.26782 0.58952-0.90282-0.10406-0.03982
   4  -3  -1   39.86    2.93  25 0.71499-0.27159 0.58957-0.91027-0.10394 0.03471
   4  -2  -7    3.88    1.94  25 0.71958-0.26639 0.58421-0.77098-0.11823-0.40726
   4  -2   4  288.52    6.93  26 0.70915-0.29787 0.59589-0.86283-0.08650 0.38231
   4  -1   6   66.03    3.23  25 0.71649-0.32614 0.58786-0.77920-0.10856 0.54574
   4   0 -10   -0.56    2.15  25 0.71875-0.28071 0.58521-0.56944-0.11560-0.65174
   4   1 -11    1.66    2.37  25 0.72041-0.29149 0.58321-0.47098-0.12087-0.72915
   4   4  11    4.08    3.31  25 0.71405-0.40571 0.59062-0.36797-0.10109 0.86678
   5  -3  -4   29.39    2.89  26 0.71287-0.15820 0.59192-0.90538-0.09752-0.20030
   5  -1  -9    1.34    3.05  25 0.71449-0.16745 0.59013-0.68626-0.10241-0.58713
   5   3  11    1.46    3.47  25 0.71405-0.29244 0.59062-0.47055-0.10109 0.86796
   6  -3  -5    1.11    2.10  25 0.71621-0.05759 0.58818-0.90839-0.10769-0.26948
   6  -3   2   87.79    4.68  26 0.70786-0.07554 0.59722-0.96875-0.08274 0.22858
   6  -2  -8   11.38    2.36  25 0.72000-0.06399 0.58371-0.79173-0.11955-0.49136
   7  -3  -5    8.18    2.29  25 0.71621 0.04216 0.58818-0.92283-0.10769-0.27618
   7  -2  -8    8.50    2.64  25 0.71958 0.03773 0.58421-0.80744-0.11823-0.49709
   8  -3  -5    2.78    2.52  25 0.72041 0.13872 0.58321-0.93319-0.12087-0.26658
   8  -3   2    2.68    3.29  25 0.71485 0.11776 0.58973-0.98955-0.10350 0.23886
  -2   6  -1    5.05    2.81  26 0.70631-0.98078 0.59895-0.02197-0.07808-0.03807
  -2   6   0    4.64    2.68  26 0.70689-0.98489 0.59837-0.02783-0.07973 0.03704
  -2   7  -1   31.33    3.03  26 0.70440-0.99088 0.60084 0.06719-0.07264-0.05265
  -2   7   0    1.63    2.64  27 0.70518-0.99580 0.60007 0.05878-0.07485 0.02424
  -1   3  -5   26.62    2.19  26 0.71022-0.82994 0.59495-0.27370-0.08940-0.30575
  -1   5  -6    6.76    2.73  27 0.70225-0.84434 0.60290-0.09435-0.06660-0.42050
  -1   5   5    4.22    1.82  26 0.70749-0.89116 0.59776-0.16809-0.08147 0.41617
  -1   7  -6  110.15    5.37  27 0.69972-0.86682 0.60524 0.08470-0.05965-0.44533
  -1   8   5   23.27    2.22  26 0.71200-0.93426 0.59305 0.10782-0.09469 0.40348
  -1   9   5   15.88    3.18  26 0.70518-0.94061 0.60007 0.19032-0.07485 0.37438
  -1  10   4   24.26    3.62  26 0.70703-0.95127 0.59823 0.28918-0.08014 0.29692
   0   0  -2   15.71    3.23  26 0.70542-0.69810 0.59983-0.58490-0.07554-0.07489
   0   2   5  448.42    4.25  26 0.70583-0.75085 0.59943-0.45544-0.07671 0.43200
   0   3   6  452.86    3.65  26 0.70749-0.76913 0.59776-0.37086-0.08147 0.50287
   1  -1  -3   71.84    2.44  26 0.70703-0.58312 0.59823-0.68064-0.08014-0.14038
   1   0  -6    8.36    1.80  26 0.70795-0.58538 0.59730-0.56822-0.08279-0.37021
   1   0   4  175.04    3.72  26 0.70544-0.62073 0.59982-0.64318-0.07559 0.36838
   1   3  -9   27.21    3.02  26 0.70543-0.60910 0.59983-0.27731-0.07555-0.62777
   1   5   9   18.84    2.79  27 0.70460-0.70347 0.60064-0.22833-0.07320 0.69482
   1   6   9    2.53    2.05  26 0.71111-0.72317 0.59400-0.13233-0.09205 0.70580
   2  -1  -6  176.24    2.85  26 0.70977-0.47401 0.59542-0.67068-0.08808-0.36153
   2   1  -9  113.56    2.76  26 0.71200-0.48975 0.59305-0.46642-0.09469-0.59610
   2   1   7   14.41    2.01  26 0.71111-0.55107 0.59400-0.58260-0.09205 0.59496
   2   2   8    0.25    1.91  26 0.71200-0.56805 0.59305-0.50022-0.09469 0.66337
   2   3   9  115.11    3.22  26 0.70674-0.57961 0.59852-0.42195-0.07930 0.71452
   2   5  10   47.96    2.39  26 0.70886-0.61107 0.59636-0.24652-0.08544 0.77789
   3  -2  -5   54.68    2.16  26 0.70931-0.36391 0.59589-0.78299-0.08676-0.28443
   3   0   7    2.64    2.76  27 0.70460-0.43107 0.60064-0.69492-0.07321 0.57883
   3   2   9  226.70    3.07  26 0.71200-0.47178 0.59305-0.52035-0.09469 0.73395
   3   3 -11   45.50    2.95  26 0.70749-0.40395 0.59776-0.29000-0.08147-0.78116
   3   3  10  177.01    3.63  26 0.70548-0.48179 0.59977-0.44460-0.07571 0.78064
   3   5  11    1.20    2.37  26 0.70749-0.51333 0.59776-0.26922-0.08147 0.84255
   4  -2  -6  111.98    3.40  26 0.70545-0.25593 0.59981-0.79404-0.07561-0.37486
   4  -1  -8  159.83    3.48  26 0.70574-0.26152 0.59952-0.68859-0.07645-0.53232
   4   1   9   73.63    3.25  26 0.70582-0.35256 0.59944-0.63169-0.07667 0.71941
   4   2 -11   16.25    3.58  26 0.70570-0.28866 0.59956-0.39683-0.07632-0.78171
   4   2  10    5.81    2.96  27 0.70469-0.36832 0.60055-0.54916-0.07346 0.78139
   5  -3  -3   35.18    2.90  27 0.70450-0.15395 0.60073-0.92128-0.07294-0.15048
   5  -3   1   66.57    3.54  27 0.70468-0.16897 0.60056-0.95066-0.07344 0.14961
   5  -2  -7   12.35    2.06  26 0.71022-0.15718 0.59495-0.79654-0.08940-0.43996
   5   0 -10   -1.97    2.31  26 0.71066-0.17199 0.59448-0.59397-0.09073-0.68150
   6  -3  -4    2.29    2.83  26 0.70680-0.05163 0.59846-0.92615-0.07948-0.22371
   6  -2  -7    0.90    3.03  27 0.70518-0.05145 0.60007-0.81524-0.07485-0.45953
   6  -1  -9    0.79    2.33  26 0.71022-0.06201 0.59495-0.70644-0.08940-0.60416
   6   1  10    0.51    3.39  27 0.70377-0.15274 0.60144-0.66884-0.07088 0.77641
   7  -3  -4    1.85    3.10  26 0.70703 0.04795 0.59823-0.94103-0.08014-0.22739
   7  -3   2    5.34    3.01  27 0.70333 0.02841 0.60187-0.98776-0.06963 0.20925
   7  -2  -7    5.62    3.33  26 0.70555 0.04863 0.59971-0.82933-0.07590-0.46523
   7   0   9   14.41    3.70  27 0.70363-0.03628 0.60158-0.76603-0.07047 0.70550
   8  -3  -4    3.91    2.53  26 0.71156 0.14355 0.59353-0.94948-0.09337-0.21979
   8  -3  -3    4.63    3.39  27 0.70451 0.14668 0.60073-0.96514-0.07295-0.16656
  -2   5  -1    0.43    2.57  27 0.69467-0.95451 0.60972-0.12399-0.04644-0.06273
  -2   5   0   74.78    3.27  27 0.69621-0.96129 0.60838-0.12855-0.05054 0.01698
  -2   6  -2   77.53    4.52  28 0.68993-0.95978 0.61368-0.02842-0.03402-0.15716
  -2   6   1    0.53    1.98  27 0.70083-0.98254 0.60421-0.04187-0.06310 0.09560
  -2   7   1    1.64    1.94  27 0.70035-0.99521 0.60466 0.04876-0.06178 0.08570
  -2   7   2   48.15    2.97  28 0.69374-0.99101 0.61052 0.03582-0.04396 0.14173
  -2   8   0    2.28    2.90  27 0.69500-0.99796 0.60944 0.14070-0.04730-0.01218
  -2   8   1    8.20    2.90  28 0.69372-0.99992 0.61053 0.13267-0.04391 0.05886
  -1   2  -3    0.07    2.72  27 0.69743-0.81213 0.60731-0.39068-0.05382-0.18230
  -1   2   2  213.01    3.96  27 0.69527-0.82861 0.60920-0.42939-0.04803 0.18398
  -1   4   5 1073.06    5.63  28 0.69464-0.86513 0.60974-0.27052-0.04636 0.38901
  -1   6  -6   44.03    3.44  28 0.69481-0.84935 0.60960-0.01016-0.04680-0.44984
  -1   6   6   29.19    2.76  27 0.69545-0.89595 0.60904-0.09734-0.04851 0.44852
  -1   7   6    5.72    1.93  27 0.69792-0.91127 0.60687-0.00419-0.05515 0.44699
  -1   8   6   56.29    3.21  27 0.69588-0.92250 0.60867 0.08366-0.04967 0.43255
  -1  10   5    3.70    3.53  28 0.69468-0.94227 0.60971 0.27083-0.04647 0.33684
   0   1  -5    4.00    1.76  27 0.69987-0.69368 0.60510-0.47870-0.06045-0.32182
   0   4   7  414.48    3.45  27 0.70179-0.78053 0.60332-0.29287-0.06575 0.55283
   0   5  -8   -1.16    2.88  28 0.69669-0.72991 0.60796-0.09867-0.05183-0.58858
   0   6  -8    4.77    3.14  28 0.69420-0.74166 0.61012-0.01045-0.04518-0.60548
   0   6   8    3.66    2.00  27 0.69890-0.80681 0.60599-0.12230-0.05780 0.60269
   0   7  -8    1.70    3.34  28 0.69590-0.75566 0.60865 0.08092-0.04971-0.60836
   0   7   8   37.80    2.25  27 0.70226-0.82284 0.60287-0.02882-0.06708 0.60257
   0   8   8   13.72    2.29  27 0.70131-0.83512 0.60377 0.06019-0.06443 0.59203
   0   9   8   26.00    2.61  27 0.69743-0.84442 0.60731 0.14588-0.05382 0.57187
   1  -1  -2  578.30    6.13  28 0.69432-0.57441 0.61002-0.69974-0.04549-0.10026
   1   1  -7   51.41    3.00  27 0.69633-0.58200 0.60827-0.48143-0.05087-0.48554
   1   1   6   50.81    2.70  27 0.69612-0.63207 0.60846-0.57634-0.05031 0.48384
   1   2  -8   12.83    2.81  27 0.69654-0.59174 0.60809-0.38300-0.05142-0.56856
   1   2   7   -1.40    1.76  27 0.70274-0.65522 0.60242-0.48672-0.06840 0.56837
   1   3   8    8.93    1.93  27 0.70035-0.66979 0.60466-0.40702-0.06178 0.62573
   2  -1   4    0.70    2.69  28 0.69380-0.49712 0.61046-0.75759-0.04413 0.34001
   2   0  -7   19.91    2.73  28 0.69422-0.46769 0.61010-0.58868-0.04525-0.48744
   2   0   6  177.84    3.37  27 0.69681-0.52001 0.60785-0.68011-0.05215 0.48979
   2   3 -10    6.08    2.17  27 0.70274-0.50257 0.60242-0.28919-0.06840-0.71421
   2   4  10   26.35    3.06  27 0.69660-0.58665 0.60804-0.34907-0.05160 0.75300
   3  -2  -4  139.09    3.17  28 0.69518-0.35385 0.60928-0.80372-0.04779-0.24851
   3  -1  -7   39.41    2.08  27 0.70321-0.36313 0.60196-0.68516-0.06973-0.45891
   3   2 -10    1.85    3.02  27 0.69605-0.38317 0.60852-0.39808-0.05011-0.72897
   3   4 -11    3.56    2.62  27 0.69792-0.40802 0.60687-0.20938-0.05515-0.81656
   3   4  11    0.13    3.16  28 0.69520-0.48745 0.60926-0.37076-0.04785 0.81795
   4   0  -9   10.48    2.05  27 0.69938-0.26535 0.60555-0.59782-0.05912-0.63268
   4   0   8  210.41    3.84  27 0.69764-0.32797 0.60712-0.72261-0.05438 0.63176
   4   1 -10   56.49    2.79  27 0.69987-0.27461 0.60510-0.49975-0.06045-0.71548
   4   3  11   11.78    3.31  27 0.69671-0.37725 0.60794-0.47585-0.05189 0.82633
   5  -3  -2   76.90    3.28  27 0.69705-0.14980 0.60764-0.93548-0.05279-0.09579
   5  -3  -1  231.88    4.46  28 0.69277-0.14900 0.61134-0.94695-0.04141-0.03211
   5  -3   0   -1.58    2.70  28 0.69420-0.15510 0.61012-0.95335-0.04519 0.04569
   5  -2  -6   44.59    3.05  28 0.69513-0.14620 0.60933-0.81846-0.04764-0.40881
   5  -2   5   11.76    3.53  28 0.69171-0.18409 0.61222-0.90070-0.03864 0.40426
   5  -1  -8   -0.88    2.90  28 0.69595-0.15163 0.60861-0.71184-0.04984-0.56352
   5  -1   7   27.87    2.25  27 0.70083-0.21324 0.60421-0.81672-0.06310 0.56898
   6  -3  -3    3.51    2.82  27 0.69743-0.04486 0.60731-0.94276-0.05382-0.17432
   6   0   9   13.73    3.27  27 0.69545-0.12866 0.60904-0.75995-0.04851 0.68957
   7  -3  -3    3.32    2.93  27 0.69691 0.05523 0.60777-0.95591-0.05242-0.18167
   8  -3  -2    6.19    3.39  27 0.69686 0.15147 0.60781-0.97805-0.05229-0.11235
   8  -3  -1    2.62    3.31  28 0.69398 0.15019 0.61031-0.98987-0.04460-0.04509
   8  -3   0    9.01    3.33  28 0.69243 0.14785 0.61162-0.99745-0.04051 0.02587
   8  -3   1    0.84    3.26  28 0.69545 0.14073 0.60904-0.99993-0.04851 0.10849
   8  -2  -6    1.96    3.59  28 0.69495 0.15528 0.60947-0.86001-0.04719-0.42429
  -2   5   1  354.85    4.14  28 0.69132-0.96011 0.61263-0.13956-0.03805 0.07912
  -2   6   2   31.91    2.17  28 0.69183-0.97729 0.61221-0.05609-0.03938 0.14630
  -2   7  -2   70.24    4.45  29 0.68267-0.96627 0.61943 0.05643-0.01602-0.18437
  -2   8  -1    0.20    2.89  28 0.68772-0.98762 0.61555 0.14233-0.02875-0.10563
  -2   8   2   74.00    3.27  28 0.68650-0.99778 0.61651 0.11970-0.02564 0.11533
  -1   3   4   35.56    2.00  28 0.69284-0.84669 0.61136-0.35533-0.04203 0.31936
  -1   5   6 1884.78    6.64  28 0.68772-0.87503 0.61555-0.19347-0.02875 0.43767
  -1   9   6   64.33    2.65  28 0.68979-0.92941 0.61389 0.16845-0.03406 0.40830
   0   1   4   91.91    2.55  28 0.68876-0.71687 0.61472-0.55375-0.03141 0.32075
   0   2  -6   -0.41    1.83  28 0.68824-0.69170 0.61513-0.39077-0.03008-0.43506
   0   3  -7   87.22    2.57  28 0.69234-0.70357 0.61179-0.29097-0.04070-0.50869
   0   5   8   18.94    1.97  28 0.69132-0.78610 0.61263-0.21922-0.03805 0.59128
   1   0  -5 1130.31    6.21  29 0.68510-0.56640 0.61759-0.59556-0.02211-0.35625
   1   4  -9   10.65    2.25  28 0.69234-0.60867 0.61179-0.20104-0.04070-0.67132
   1   4   9   21.01    2.08  28 0.69183-0.67768 0.61221-0.33075-0.03938 0.67110
   1   5  -9    9.48    3.15  29 0.68357-0.61390 0.61876-0.11750-0.01825-0.70325
   1   6  10   35.31    2.38  28 0.68824-0.70368 0.61513-0.16082-0.03008 0.71879
   1   7  10   16.16    2.50  28 0.69284-0.72180 0.61136-0.06614-0.04203 0.72084
   2  -1  -5  186.17    2.85  28 0.69081-0.45869 0.61305-0.69532-0.03672-0.33807
   2   1  -8  165.74    2.91  28 0.68824-0.47080 0.61513-0.49455-0.03008-0.58680
   2   2  -9   13.19    2.06  28 0.69183-0.48297 0.61221-0.39550-0.03938-0.65999
   2   4 -10    5.19    2.29  28 0.69081-0.50296 0.61305-0.20842-0.03672-0.75545
   2   5  11    4.97    3.23  28 0.68433-0.58875 0.61818-0.27545-0.02015 0.78543
   2   6  11    3.64    2.42  28 0.69234-0.61118 0.61179-0.17891-0.04070 0.79878
   3   0  -8  216.97    3.10  28 0.69234-0.36100 0.61179-0.59659-0.04070-0.57181
   3   1  -9   45.32    2.37  28 0.69081-0.36920 0.61305-0.50020-0.03672-0.65976
   4  -2  -5   17.45    2.11  28 0.68927-0.24381 0.61431-0.81550-0.03274-0.34367
   4  -1  -7   20.76    2.65  28 0.68580-0.24599 0.61705-0.71280-0.02388-0.51046
   5   0  -9   35.26    2.43  28 0.68979-0.15447 0.61389-0.62038-0.03406-0.66330
   5   1 -10    2.85    2.42  28 0.69030-0.16539 0.61347-0.52271-0.03539-0.74493
   5   1  10    5.83    2.32  28 0.68927-0.24010 0.61431-0.66785-0.03274 0.74518
   5   2  11    0.98    2.39  28 0.68876-0.25606 0.61472-0.58479-0.03141 0.80930
   6  -3  -2    3.21    2.00  28 0.68876-0.04259 0.61472-0.95637-0.03141-0.12282
   6  -3  -1    2.55    2.75  29 0.68245-0.03870 0.61959-0.96878-0.01547-0.06446
   6  -3   1  188.85    5.04  28 0.68538-0.04888 0.61737-0.98146-0.02281 0.09310
   6  -2  -6   -1.43    2.05  28 0.68979-0.03922 0.61389-0.83704-0.03406-0.42758
   6  -1  -8    6.75    2.29  28 0.69183-0.04738 0.61221-0.73045-0.03938-0.57988
   6   0  -9    9.87    3.33  28 0.68510-0.05015 0.61759-0.63776-0.02211-0.68031
   7  -3  -2   10.86    2.20  28 0.68927 0.05845 0.61431-0.97030-0.03274-0.12671
   7  -3  -1   27.88    3.24  29 0.68388 0.05997 0.61852-0.98253-0.01905-0.06540
   7  -3   0   -0.46    2.93  29 0.68325 0.05664 0.61900-0.99179-0.01746 0.00803
   7  -3   1   35.78    3.44  28 0.68510 0.05193 0.61759-0.99571-0.02211 0.08775
   7  -2  -6    2.47    2.27  28 0.68979 0.06073 0.61389-0.84999-0.03406-0.43295
   7  -1  -8    3.09    2.46  28 0.69183 0.05389 0.61221-0.74482-0.03938-0.58467
  -2   5   2    3.18    1.83  29 0.68195-0.95396 0.61995-0.15647-0.01424 0.12961
  -2   6   3   27.25    2.06  29 0.68034-0.96950 0.62114-0.07302-0.01025 0.19143
  -2   7   3   15.36    2.03  29 0.68195-0.98449 0.61995 0.01873-0.01424 0.18753
  -2   8   3  168.12    3.12  29 0.67761-0.99283 0.62308 0.10579-0.00361 0.16779
  -2   9   0   25.38    3.45  29 0.67409-0.99033 0.62550 0.21595 0.00484-0.07295
  -2   9   1   94.69    3.80  29 0.67624-0.99702 0.62404 0.20942-0.00030 0.00727
  -2   9   2   18.24    3.24  29 0.67416-0.99778 0.62546 0.20086 0.00468 0.07585
  -1   2   3   -0.76    2.69  30 0.67429-0.81177 0.62537-0.45242 0.00437 0.20757
  -1   4  -5  580.37    6.37  30 0.67398-0.80667 0.62558-0.21369 0.00511-0.40886
  -1   4   6   -1.13    2.64  30 0.67345-0.84742 0.62593-0.29394 0.00636 0.41119
  -1   6   7  105.59    3.19  29 0.67531-0.88020 0.62468-0.12019 0.00194 0.47294
  -1   7   7    2.77    2.05  29 0.67925-0.89693 0.62192-0.02722-0.00759 0.47308
  -1   8   7   28.17    2.38  29 0.67816-0.90885 0.62269 0.06251-0.00494 0.46247
  -1   9   7   36.28    3.56  29 0.67409-0.91584 0.62551 0.14983 0.00485 0.44321
   0   2   6   33.43    2.01  29 0.67925-0.72823 0.62192-0.48549-0.00759 0.43693
   0   3   7  260.20    2.98  29 0.68249-0.74859 0.61956-0.39919-0.01557 0.51154
   0   4   8  314.24    3.12  29 0.67761-0.76019 0.62308-0.32040-0.00361 0.56541
   0   6   9    1.99    2.12  29 0.67651-0.78831 0.62385-0.14818-0.00095 0.62042
   0   7   9    1.56    2.15  29 0.68088-0.80560 0.62074-0.05417-0.01158 0.62268
   0   8   9    6.66    2.40  29 0.68142-0.81898 0.62035 0.03661-0.01291 0.61468
   1  -1  -1  780.10    7.73  29 0.68034-0.56429 0.62114-0.71768-0.01025-0.06078
   1  -1   0  784.49   11.07  30 0.67125-0.55870 0.62740-0.73181 0.01158-0.00794
   1   2   8   66.45    2.97  29 0.67406-0.63055 0.62553-0.51744 0.00493 0.56893
   1   3  -8   55.11    3.01  29 0.67457-0.58221 0.62518-0.31059 0.00370-0.63225
   1   3   9  125.59    3.18  30 0.67334-0.64574 0.62601-0.43469 0.00662 0.63292
   1   5  10   13.54    2.15  29 0.67979-0.68198 0.62153-0.25699-0.00892 0.70610
   1   7  -9    4.67    2.58  29 0.67925-0.63502 0.62192 0.06158-0.00759-0.73093
   2   1   8   10.89    1.96  29 0.67816-0.52250 0.62269-0.61917-0.00494 0.58290
   2   2   9   60.78    2.30  29 0.68249-0.54294 0.61956-0.53231-0.01557 0.65956
   2   3  -9    4.92    2.89  30 0.67298-0.47698 0.62625-0.31873 0.00749-0.71600
   2   3  10    8.98    2.11  29 0.67816-0.55552 0.62269-0.45289-0.00494 0.71512
   2   5 -10   -0.57    2.37  29 0.68249-0.50856 0.61956-0.12397-0.01557-0.78493
   3  -2  -3   33.64    2.04  29 0.67925-0.34182 0.62192-0.82317-0.00759-0.21412
   3  -1  -6   -0.51    1.84  29 0.68249-0.34601 0.61956-0.70895-0.01557-0.43897
   3  -1   6   24.01    2.78  30 0.67213-0.38126 0.62681-0.80308 0.00949 0.43129
   3   1   9   23.75    2.13  29 0.67925-0.42649 0.62192-0.63995-0.00759 0.65552
   3   2  10   80.04    2.46  29 0.68142-0.44482 0.62035-0.55477-0.01291 0.72615
   3   3 -10    3.30    2.24  29 0.68034-0.38036 0.62114-0.32087-0.01025-0.77817
   3   3  11   23.15    3.18  29 0.67540-0.45592 0.62462-0.47680 0.00172 0.77805
   4   0  -8   70.88    3.15  29 0.67547-0.24380 0.62457-0.62279 0.00155-0.61885
   4   1  -9    4.24    2.84  29 0.67485-0.25391 0.62499-0.52787 0.00304-0.70277
   4   2 -10   13.67    2.51  29 0.68088-0.26793 0.62074-0.42569-0.01158-0.77259
   5  -2  -5    8.82    1.96  29 0.67706-0.13277 0.62347-0.83916-0.00228-0.37849
   5  -1  -7    4.82    2.73  29 0.67515-0.13494 0.62479-0.73446 0.00232-0.54212
   5   0   9   78.71    2.75  29 0.68034-0.21395 0.62114-0.75765-0.01025 0.65691
   6  -3   0    3.06    1.98  29 0.68034-0.04173 0.62114-0.97762-0.01025 0.00460
   7  -2  -5   12.00    3.07  30 0.67389 0.07222 0.62564-0.87079 0.00533-0.39724
   7  -1   8    1.90    3.43  29 0.67275 0.00998 0.62640-0.87434 0.00802 0.56067
   8  -2  -5    2.55    2.39  29 0.68034 0.16612 0.62114-0.88035-0.01025-0.38633
  -2   4   0  834.37    7.51  30 0.66285-0.91481 0.63265-0.24284 0.03074-0.05589
  -2   4   1  315.64    4.44  30 0.66488-0.92081 0.63142-0.24908 0.02611 0.02341
  -2   5   3    9.32    1.91  30 0.66979-0.94655 0.62836-0.17019 0.01480 0.17504
  -2   6   4  231.97    3.12  30 0.66692-0.95996 0.63017-0.08914 0.02144 0.23457
  -2   7   4    8.99    2.02  30 0.66979-0.97595 0.62836 0.00275 0.01480 0.23255
  -2   8  -2    8.14    3.78  31 0.65773-0.95307 0.63561 0.13034 0.04219-0.25080
  -2   8   4   12.67    2.12  30 0.66634-0.98560 0.63053 0.08998 0.02277 0.21627
  -2   9  -1    5.82    4.04  31 0.65895-0.97110 0.63492 0.21384 0.03947-0.18265
  -2   9   3   23.05    2.47  30 0.66692-0.99494 0.63017 0.18849 0.02144 0.13461
  -1   3  -4 1349.02    9.46  30 0.66404-0.78689 0.63193-0.31795 0.02802-0.34826
  -1   3   5  198.36    2.74  30 0.67092-0.82918 0.62762-0.37869 0.01214 0.33965
  -1   5   7   13.36    1.93  30 0.66634-0.85802 0.63053-0.21581 0.02277 0.46114
   0   1  -4  157.64    3.03  30 0.66807-0.66563 0.62945-0.50987 0.01878-0.32621
   0   5   9   21.09    2.03  30 0.66750-0.76594 0.62981-0.24413 0.02011 0.60820
   1   0   5  387.93    3.94  30 0.66922-0.58880 0.62872-0.67937 0.01613 0.35192
   1   1  -6   58.11    2.19  30 0.66692-0.55635 0.63017-0.51005 0.02144-0.48361
   1   1   7   19.01    2.74  30 0.66482-0.60481 0.63147-0.60710 0.02627 0.48135
   1   2  -7  139.76    3.37  30 0.66487-0.56311 0.63143-0.41425 0.02614-0.57156
   1   4  10    7.77    2.06  30 0.66518-0.65489 0.63124-0.35768 0.02543 0.68062
   1   6  11   21.08    3.59  30 0.66285-0.68263 0.63265-0.18635 0.03074 0.73306
   2  -1  -4 1381.07    6.61  30 0.66864-0.44031 0.62909-0.71883 0.01746-0.31769
   2   0  -6  212.13    3.04  30 0.66807-0.44504 0.62945-0.61436 0.01878-0.47738
   2   0   7   15.96    2.70  30 0.66169-0.48761 0.63334-0.71208 0.03335 0.47831
   2   2  -8   19.47    2.73  31 0.66140-0.45623 0.63350-0.42437 0.03400-0.65869
   2   4  11   54.10    2.50  30 0.66922-0.56200 0.62872-0.37647 0.01613 0.75954
   3  -2  -2  997.85    6.53  31 0.66253-0.32870 0.63284-0.84182 0.03146-0.17853
   3   0  -7    2.43    1.91  30 0.66750-0.34087 0.62981-0.62289 0.02011-0.55673
   3   0   8  258.12    3.36  30 0.66634-0.39598 0.63053-0.73167 0.02277 0.55875
   3   1  -8   46.42    2.96  30 0.66285-0.34405 0.63265-0.52721 0.03074-0.65203
   3   2  -9    6.92    2.05  30 0.66807-0.35936 0.62945-0.42598 0.01878-0.72377
   3   4 -10    7.47    2.36  30 0.66692-0.37940 0.63017-0.23993 0.02144-0.81907
   3   4  12   33.19    2.64  30 0.66518-0.46186 0.63124-0.40153 0.02543 0.81936
   4  -2  -4  179.37    3.00  30 0.67149-0.22961 0.62725-0.83609 0.01081-0.31251
   4  -1  -6  350.96    4.21  30 0.66317-0.22641 0.63246-0.73650 0.03002-0.48961
   4  -1   7   10.25    2.02  30 0.66922-0.28242 0.62872-0.82690 0.01613 0.49517
   4   1  10   11.79    2.21  30 0.66979-0.32125 0.62836-0.66803 0.01480 0.70232
   4   2  11   22.96    2.33  30 0.67092-0.33816 0.62762-0.58419 0.01214 0.77118
   4   3 -10   -0.02    3.31  31 0.66314-0.26261 0.63248-0.34581 0.03008-0.82305
   4   3  12    3.57    3.52  31 0.66367-0.34870 0.63216-0.50767 0.02887 0.82155
   5   0  -8   -0.91    1.94  30 0.66576-0.13419 0.63089-0.64413 0.02410-0.64700
   5   1  -9    3.23    3.06  31 0.66355-0.14090 0.63223-0.54642 0.02914-0.73426
   5   2 -10    2.70    2.36  30 0.67092-0.15697 0.62762-0.44569 0.01214-0.80277
   6  -2  -5   11.64    2.06  30 0.67205-0.02656 0.62688-0.85735 0.00948-0.39528
   6  -1  -7    9.87    2.29  30 0.67092-0.02993 0.62762-0.75261 0.01214-0.55665
   6  -1   8   42.02    3.55  30 0.66483-0.08195 0.63146-0.86607 0.02623 0.54970
   6   0  -8    4.60    3.16  31 0.66218-0.03002 0.63305-0.66202 0.03225-0.66085
   7  -1  -7   -0.92    2.30  30 0.67205 0.06890 0.62688-0.76641 0.00948-0.55917
   7   0  -8    2.01    3.54  30 0.66285 0.06910 0.63265-0.67519 0.03074-0.66437
   8  -2  -4    4.27    3.32  30 0.66353 0.17853 0.63224-0.89724 0.02919-0.35146
  -2   4   2   -0.47    1.71  31 0.65926-0.91853 0.63463-0.25998 0.03863 0.08593
  -2   4   3    0.93    2.54  31 0.65078-0.91289 0.63927-0.26995 0.05721 0.14377
  -2   5  -2  210.90    8.36  33 0.63543-0.89285 0.64664-0.15157 0.08931-0.27256
  -2   5   4  197.10    2.87  31 0.65626-0.93653 0.63632-0.18540 0.04527 0.21895
  -2   6   5  458.18    4.36  31 0.65132-0.94896 0.63898-0.10521 0.05605 0.27404
  -2   7   5   30.61    2.21  31 0.65566-0.96571 0.63665-0.01265 0.04660 0.27486
  -2   8   5   27.06    2.33  31 0.65384-0.97641 0.63764 0.07652 0.05058 0.26209
  -2   9   4   -0.81    2.31  31 0.65807-0.98928 0.63531 0.17592 0.04129 0.18823
  -2  10   1  103.04    4.60  31 0.65127-0.98485 0.63901 0.28474 0.05616-0.05828
  -2  10   2   -2.12    3.64  32 0.65201-0.99020 0.63862 0.27840 0.05456 0.01692
  -2  10   3    8.78    3.78  31 0.65023-0.99048 0.63955 0.26844 0.05839 0.08744
  -1   2   4  186.36    2.94  31 0.65384-0.79514 0.63764-0.47224 0.05058 0.23449
  -1   4   7    5.01    2.65  32 0.65044-0.82922 0.63944-0.31496 0.05794 0.43407
  -1   6   8   92.25    2.44  31 0.65445-0.86309 0.63731-0.13948 0.04925 0.49934
  -1   7   8    7.06    2.15  31 0.65926-0.88053 0.63463-0.04629 0.03863 0.50177
  -1   8   8   22.74    2.47  31 0.65926-0.89386 0.63463 0.04420 0.03863 0.49239
   0   0   1   15.24    1.51  31 0.65986-0.66377 0.63429-0.64157 0.03731 0.03796
   0   1   5  184.96    2.96  31 0.66045-0.69347 0.63394-0.57959 0.03598 0.32797
   0   2  -5  689.18    5.54  32 0.64925-0.65598 0.64006-0.42324 0.06050-0.45174
   0   2   7  112.43    3.01  31 0.65173-0.70523 0.63876-0.50942 0.05515 0.44935
   0   3   8   42.98    2.05  31 0.65626-0.72636 0.63632-0.42377 0.04527 0.52486
   0   4   9   12.19    2.76  31 0.65195-0.73908 0.63865-0.34233 0.05468 0.58157
   0   5  -7    1.61    2.69  31 0.65384-0.69029 0.63764-0.13546 0.05058-0.61825
   0   6  10    8.86    3.15  31 0.65202-0.76841 0.63861-0.17030 0.05452 0.63967
   0   7  10   -1.69    2.38  31 0.65807-0.78658 0.63531-0.07605 0.04129 0.64412
   0   8  -7    9.59    3.62  31 0.65280-0.72757 0.63820 0.13468 0.05284-0.64624
   1   0  -4   17.06    2.03  31 0.65505-0.54005 0.63698-0.62212 0.04793-0.35129
   1   4  -8    1.63    1.98  31 0.65566-0.57729 0.63665-0.23187 0.04660-0.68347
   1   5  11   20.05    3.28  31 0.65245-0.66036 0.63838-0.28123 0.05360 0.71782
   2  -1   5   78.09    3.10  32 0.64887-0.45460 0.64025-0.79500 0.06131 0.31005
   2   1  -7  123.33    2.66  31 0.65867-0.44393 0.63497-0.52308 0.03996-0.58165
   2   2  10   10.05    2.84  31 0.65055-0.51449 0.63939-0.56045 0.05771 0.66056
   2   4  -9   37.22    2.48  31 0.65626-0.47166 0.63632-0.23850 0.04527-0.76294
   2   5  12    8.08    2.48  31 0.65505-0.56640 0.63698-0.30208 0.04793 0.79282
   3  -2   3   39.48    5.28  33 0.62893-0.31424 0.64941-0.89465 0.10239 0.12340
   3  -1  -5    4.89    1.74  31 0.65807-0.32587 0.63531-0.73126 0.04129-0.42169
   3   5 -10   -1.39    2.58  31 0.65626-0.38167 0.63632-0.15567 0.04527-0.85105
   4  -2  -3   -3.31    2.66  32 0.65109-0.21288 0.63910-0.85519 0.05655-0.28384
   4   0  -7   50.04    2.86  32 0.64879-0.22017 0.64029-0.64712 0.06148-0.60496
   4   0   9    6.68    2.11  31 0.65747-0.29150 0.63564-0.75791 0.04262 0.60934
   4   2  -9   66.11    3.36  32 0.65078-0.24048 0.63927-0.45119 0.05721-0.76728
   4   4 -10   -6.65    3.50  32 0.64985-0.26271 0.63975-0.26384 0.05920-0.86332
   5  -2  -4    8.60    1.94  31 0.65747-0.11612 0.63564-0.85845 0.04262-0.34972
   5  -1  -6   37.55    2.88  31 0.65119-0.11396 0.63905-0.75710 0.05632-0.52053
   5  -1   8   84.38    3.63  32 0.64973-0.16593 0.63981-0.85904 0.05946 0.52082
   5   1  11    1.47    3.33  31 0.65068-0.20492 0.63931-0.69986 0.05741 0.72858
   5   3 -10    5.65    3.50  32 0.65111-0.15038 0.63909-0.36583 0.05649-0.85229
   6  -2  -4    8.61    2.78  31 0.65226-0.00931 0.63848-0.87484 0.05401-0.36745
   6   0  10   19.02    3.69  32 0.64930-0.08658 0.64003-0.79792 0.06038 0.65494
   6   1  -9    6.44    2.40  31 0.66045-0.03840 0.63394-0.56488 0.03598-0.74758
   7  -2  -4    9.30    2.17  31 0.65505 0.08816 0.63698-0.88896 0.04793-0.36381
   7  -1  -6    1.67    3.10  32 0.65016 0.08613 0.63959-0.78718 0.05854-0.53332
   8  -1  -6    3.29    2.42  31 0.65747 0.18054 0.63564-0.79709 0.04262-0.52264
   9  -2  -2    3.91    3.62  32 0.65013 0.28482 0.63960-0.93488 0.05860-0.23715
  -2   4  -1    6.03    2.98  33 0.63308-0.88082 0.64788-0.25070 0.09480-0.19450
  -2   5   5   41.65    2.86  32 0.64033-0.92489 0.64465-0.20158 0.08002 0.25926
  -2   7   6   -3.72    2.93  33 0.63945-0.95398 0.64506-0.02854 0.08184 0.31515
  -2   8   6   56.11    3.42  32 0.63907-0.96557 0.64523 0.06135 0.08261 0.30513
  -2   9   5   43.62    2.63  32 0.64612-0.98160 0.64188 0.16229 0.06793 0.23688
  -2  10   0    3.07    3.57  32 0.63986-0.96954 0.64487 0.28656 0.08098-0.15768
  -1   3   6   23.06    1.92  32 0.64862-0.81103 0.64063-0.39900 0.06263 0.36387
  -1   5  -5  878.21    8.17  32 0.64014-0.78374 0.64474-0.14297 0.08041-0.49342
  -1   5   8   -0.39    1.85  32 0.64423-0.83936 0.64281-0.23657 0.07191 0.48643
  -1   7   9    0.89    3.16  32 0.63848-0.86266 0.64550-0.06542 0.08382 0.53040
  -1   8  -5    2.40    3.23  33 0.63703-0.82033 0.64616 0.12619 0.08680-0.52618
  -1   8   9    3.54    3.53  32 0.63848-0.87656 0.64550 0.02476 0.08382 0.52355
   0   0   2   13.41    2.42  32 0.64296-0.65083 0.64341-0.65783 0.07456 0.07459
   0   5  10   10.37    2.09  32 0.64232-0.74514 0.64372-0.26498 0.07588 0.62619
   0   6  -7   27.03    2.49  32 0.64486-0.69413 0.64250-0.05022 0.07058-0.64698
   0   7  -7   63.94    3.28  32 0.64423-0.70655 0.64281 0.04014 0.07191-0.65690
   1   0   6   52.93    2.80  33 0.63734-0.56030 0.64602-0.70355 0.08617 0.35584
   1   2   9    2.12    1.94  32 0.64423-0.60452 0.64281-0.54173 0.07191 0.57722
   1   3  10   28.27    2.15  32 0.64359-0.62135 0.64311-0.45978 0.07323 0.64133
   1   4  11   49.13    3.26  33 0.63735-0.63051 0.64601-0.37903 0.08615 0.69360
   1   5  -8   19.27    3.01  32 0.64010-0.57277 0.64476-0.14865 0.08049-0.72614
   2  -1  -3  514.48    4.87  32 0.64000-0.41523 0.64480-0.74178 0.08070-0.30565
   2   1   9   91.01    2.46  32 0.64549-0.49263 0.64219-0.64519 0.06926 0.58361
   2   3  11   43.74    2.49  32 0.64799-0.52941 0.64095-0.47769 0.06396 0.72064
   2   4  12   -0.76    3.39  32 0.63912-0.53677 0.64521-0.40063 0.08250 0.76666
   2   5  -9    3.30    2.22  32 0.64423-0.47255 0.64281-0.15595 0.07191-0.79756
   2   6  -9    2.28    3.30  33 0.63719-0.47830 0.64608-0.06784 0.08647-0.82193
   3  -2  -1  113.87    2.95  32 0.64359-0.31345 0.64311-0.85933 0.07323-0.14541
   3   0  -6  271.00    3.74  33 0.63761-0.31433 0.64590-0.64554 0.08562-0.54940
   3   1  10    0.97    2.09  32 0.64359-0.39577 0.64311-0.66812 0.07323 0.64892
   3   2  11   27.02    2.33  32 0.64799-0.41604 0.64095-0.58214 0.06396 0.72382
   3   3  -9    8.89    2.21  32 0.64737-0.35042 0.64126-0.34818 0.06528-0.77914
   3   3  12   -1.06    2.44  32 0.64296-0.42778 0.64341-0.50333 0.07456 0.77920
   4  -1  -5  143.44    3.34  33 0.63687-0.20419 0.64623-0.75773 0.08713-0.47258
   4   1  -8   22.98    2.11  32 0.64549-0.22655 0.64219-0.55130 0.06926-0.69568
   5  -2  -3   36.65    2.93  33 0.63533-0.09707 0.64691-0.87680 0.09025-0.32209
   5   0  -7    7.27    2.80  32 0.63848-0.11028 0.64550-0.66657 0.08382-0.63231
   5   0  10   59.41    3.58  33 0.63738-0.17405 0.64600-0.78931 0.08607 0.63392
   5   2  -9   10.15    3.10  32 0.64000-0.12972 0.64481-0.46952 0.08070-0.79533
   6  -2   6   21.01    4.12  33 0.63048-0.02660 0.64898-0.95866 0.10003 0.33480
   6  -1  -6    3.82    2.11  32 0.64799-0.01078 0.64095-0.77372 0.06395-0.53379
   6   2  -9    6.57    3.51  33 0.63711-0.02661 0.64612-0.48675 0.08663-0.80822
   7  -2  -3    6.79    2.83  33 0.63647 0.10191 0.64640-0.90523 0.08793-0.33107
   7   0  -7   12.66    3.33  33 0.63765 0.09079 0.64588-0.69585 0.08554-0.64477
   8  -2  -3    6.95    2.26  32 0.64737 0.19146 0.64126-0.91443 0.06528-0.31221
   9  -2  -1    3.72    3.50  33 0.63681 0.29364 0.64625-0.94806 0.08725-0.19109
  -2   4   4    2.41    1.82  33 0.63534-0.90283 0.64674-0.28673 0.09059 0.18398
  -2   5   6    4.32    2.63  34 0.62393-0.91142 0.65145-0.21539 0.11330 0.30063
  -2   6   6   74.73    2.34  33 0.63534-0.93618 0.64674-0.12001 0.09059 0.31455
  -2   9   6    1.90    2.44  33 0.63273-0.97175 0.64787 0.14948 0.09588 0.28300
  -1   2   5  100.04    2.35  33 0.63338-0.77837 0.64759-0.48937 0.09456 0.26550
  -1   3   7  284.32    3.67  33 0.62542-0.79140 0.65087-0.41709 0.11040 0.39058
  -1   4   8    6.58    2.63  33 0.62632-0.80955 0.65051-0.33417 0.10863 0.45920
  -1   6  -5   25.12    3.08  34 0.62280-0.78139 0.65188-0.05917 0.11550-0.53710
  -1   6   9    2.65    2.18  33 0.63207-0.84488 0.64815-0.15656 0.09720 0.52595
  -1   7  -5    0.98    3.50  35 0.61294-0.78350 0.65545 0.02714 0.13439-0.56180
   0   0   3  548.20    5.76  34 0.62507-0.63630 0.65101-0.67289 0.11108 0.11170
   0   1   6  627.77    4.34  33 0.63404-0.67010 0.64731-0.60048 0.09323 0.34516
   0   2   8   54.95    2.84  33 0.62512-0.68136 0.65099-0.52904 0.11099 0.46779
   0   3   9   53.16    2.17  33 0.62942-0.70270 0.64926-0.44450 0.10248 0.54241
   0   4  10   11.51    2.94  33 0.62542-0.71543 0.65087-0.36298 0.11040 0.60026
   0   6  11   14.95    3.52  33 0.62647-0.74699 0.65045-0.18957 0.10833 0.65981
   1   1  -5    0.56    1.69  33 0.62876-0.52300 0.64953-0.53886 0.10380-0.48848
   1   1   8   28.58    2.03  33 0.63404-0.57808 0.64731-0.62906 0.09323 0.48951
   1   2  -6   74.33    2.96  34 0.62405-0.52680 0.65140-0.44132 0.11308-0.58393
   1   3  -7    2.56    1.84  33 0.63469-0.54619 0.64703-0.33926 0.09191-0.64611
   1   5  12   27.06    3.61  34 0.62472-0.63443 0.65114-0.30136 0.11177 0.73397
   1   7  -8    3.42    2.37  33 0.63141-0.59030 0.64843 0.02746 0.09852-0.76306
   2   0  -5   -1.04    1.78  33 0.63534-0.41552 0.64674-0.63908 0.09059-0.47395
   2   0   8  147.57    3.44  34 0.62506-0.45471 0.65101-0.73776 0.11110 0.47529
   2   2  -7  575.89    4.93  34 0.62356-0.42262 0.65159-0.44821 0.11404-0.66526
   2   3  -8   53.14    2.31  33 0.63599-0.44228 0.64646-0.34733 0.08927-0.72304
   3  -2   0  158.02    4.04  34 0.62286-0.29678 0.65186-0.87545 0.11539-0.11334
   3  -1  -4  504.23    4.12  33 0.62942-0.30109 0.64926-0.75334 0.10248-0.40772
   3  -1   7  401.45    4.73  33 0.62581-0.33959 0.65072-0.83515 0.10963 0.40641
   3   0   9  204.89    3.81  33 0.62630-0.36101 0.65052-0.75923 0.10866 0.54822
   3   1  -7  145.59    2.76  33 0.62942-0.31473 0.64926-0.55055 0.10248-0.64915
   3   2  -8   20.82    2.08  33 0.63404-0.32721 0.64731-0.45210 0.09323-0.72358
   3   4  -9   22.86    2.36  33 0.62876-0.34460 0.64953-0.26536 0.10380-0.82577
   4  -2  -2   94.52    3.20  33 0.62792-0.19383 0.64987-0.87294 0.10547-0.25792
   4  -2   5   28.44    3.77  34 0.61964-0.21232 0.65307-0.92754 0.12162 0.24869
   4  -1   8  284.83    4.63  34 0.62283-0.23838 0.65187-0.85721 0.11545 0.46918
   4   1  11   16.29    2.40  33 0.63207-0.28612 0.64815-0.69456 0.09720 0.69441
   4   2  12   -0.29    2.51  33 0.63534-0.30643 0.64674-0.61024 0.09059 0.76633
   4   3  -9   15.50    2.31  33 0.62942-0.23250 0.64926-0.37011 0.10248-0.82185
   5  -1  -5   32.10    2.79  34 0.62495-0.09227 0.65105-0.77715 0.11132-0.50143
   5   1  -8   42.24    2.37  33 0.63534-0.11635 0.64674-0.57034 0.09059-0.72239
   6  -2  -3   31.35    2.18  33 0.63141 0.00721 0.64843-0.89261 0.09852-0.33611
   6   0  -7    5.02    2.10  33 0.63469-0.00539 0.64703-0.68256 0.09191-0.64495
   6   1  -8   44.62    2.64  33 0.63141-0.01241 0.64843-0.58603 0.09852-0.73530
   7  -1  -5    0.24    2.98  33 0.62609 0.10655 0.65060-0.80542 0.10908-0.50940
   7   1  -8   -3.35    2.54  33 0.63338 0.08582 0.64759-0.59865 0.09456-0.73707
   8  -2  -2    6.96    2.27  33 0.63075 0.20455 0.64871-0.92942 0.09984-0.27340
   8  -1  -5   15.64    2.64  33 0.63534 0.19803 0.64674-0.81470 0.09059-0.49594
   9  -2   0    5.71    3.41  33 0.62542 0.30246 0.65087-0.96048 0.11040-0.13829
  -2   3   1  454.55    5.32  35 0.61072-0.85301 0.65625-0.36434 0.13875-0.08032
  -2   3   2  241.81    3.38  34 0.61597-0.86238 0.65445-0.36976 0.12885 0.00423
  -2   3   3  226.56    3.52  34 0.61157-0.86187 0.65597-0.37861 0.13717 0.07034
  -2   4   5   32.91    2.09  34 0.62078-0.89156 0.65270-0.30013 0.11964 0.22908
  -2   6   7    2.53    2.00  34 0.61735-0.92195 0.65396-0.13457 0.12622 0.35352
  -2   7   7   24.74    2.26  34 0.62282-0.94018 0.65193-0.04216 0.11568 0.35624
  -2   8   7    3.33    2.38  34 0.62214-0.95339 0.65219 0.04800 0.11700 0.34527
  -2   9   7   25.19    2.79  34 0.61666-0.96039 0.65420 0.13448 0.12754 0.32676
  -2  10  -1    8.89    4.56  35 0.60670-0.93145 0.65756 0.28112 0.14623-0.29672
  -1   2  -2  108.41    4.87  35 0.61275-0.73067 0.65557-0.44644 0.13494-0.29655
  -1   2   6   42.61    2.67  34 0.61180-0.76048 0.65589-0.50505 0.13674 0.29837
  -1   5   9    6.36    2.10  34 0.62078-0.82004 0.65270-0.25334 0.11964 0.51251
  -1   7  10   21.67    2.68  34 0.61458-0.84356 0.65493-0.08293 0.13148 0.55839
   0   1  -3  115.20    2.95  34 0.61804-0.61958 0.65371-0.54122 0.12490-0.35753
   0   5  11    7.86    2.38  34 0.61528-0.72212 0.65469-0.28300 0.13017 0.64635
   1   0  -3  119.89    3.31  34 0.61269-0.50149 0.65559-0.64754 0.13506-0.36388
   1   2  10    4.58    2.78  35 0.61212-0.57756 0.65578-0.56249 0.13612 0.58777
   1   3  11    4.45    3.04  34 0.61259-0.59419 0.65562-0.48006 0.13524 0.65442
   2  -1   6   14.22    2.57  35 0.60995-0.41920 0.65650-0.81898 0.14019 0.30523
   2   1  -6   30.42    2.01  34 0.62146-0.41050 0.65245-0.54704 0.11832-0.58543
   2   1  10   41.67    2.98  35 0.61062-0.46069 0.65628-0.66752 0.13894 0.58817
   2   2  11    3.95    2.11  34 0.61735-0.48465 0.65396-0.58322 0.12622 0.66631
   2   3  12    2.92    2.35  34 0.61528-0.49997 0.65469-0.49903 0.13017 0.72919
   2   4  -8   58.65    3.21  34 0.61306-0.43236 0.65546-0.26405 0.13436-0.77642
   3   2  12   -3.55    3.36  35 0.61145-0.38343 0.65601-0.60552 0.13739 0.72510
   3   5  -9   16.40    2.45  34 0.61528-0.34403 0.65469-0.17972 0.13017-0.86141
   4   0  -6   89.45    2.45  34 0.61666-0.19271 0.65420-0.66741 0.12754-0.59645
   4   0  10    1.39    2.13  34 0.61597-0.25320 0.65445-0.78440 0.12885 0.59642
   4   1  -7  157.54    3.28  35 0.61091-0.19644 0.65619-0.57196 0.13840-0.69095
   4   2  -8  143.70    3.06  34 0.61528-0.20920 0.65469-0.47179 0.13017-0.76595
   4   4  -9   36.97    3.40  35 0.61086-0.22626 0.65620-0.28685 0.13850-0.86687
   5  -2  -2   37.28    3.02  35 0.61138-0.07681 0.65603-0.89345 0.13752-0.29551
   5  -2   6   12.89    3.64  35 0.60456-0.10075 0.65822-0.95390 0.15016 0.28939
   5   3  -9    0.99    2.17  34 0.61873-0.12162 0.65346-0.38808 0.12359-0.84811
   6  -1  -5   23.55    2.19  34 0.62146 0.01249 0.65245-0.79187 0.11832-0.51408
   6  -1   9   -2.13    3.27  35 0.60969-0.02994 0.65659-0.89687 0.14068 0.50785
   6   3  -9   -0.17    2.49  34 0.61458-0.01712 0.65493-0.40452 0.13148-0.86057
   7  -2  -2    1.07    2.04  34 0.61597 0.11912 0.65445-0.92089 0.12885-0.29629
   8  -2  -1    5.41    3.16  34 0.61288 0.21932 0.65552-0.94313 0.13470-0.23258
   8  -2   5    0.36    4.70  34 0.60850 0.20025 0.65698-0.99158 0.14290 0.20680
   8  -1  -4    7.10    3.25  34 0.61156 0.21908 0.65597-0.83176 0.13718-0.46754
   8   0  -6    1.01    2.35  34 0.61804 0.20601 0.65371-0.72446 0.12490-0.61290
   9  -2   1    1.49    3.47  34 0.61597 0.30685 0.65445-0.97110 0.12885-0.08249
   9  -2   2    1.94    3.51  35 0.61067 0.30932 0.65627-0.97973 0.13885-0.01827
   9  -2   3    1.40    3.71  35 0.61221 0.30374 0.65575-0.98591 0.13596 0.05899
  -2   3   4   40.10    1.97  35 0.60117-0.85569 0.65936-0.38994 0.15648 0.12554
  -2   4   6   62.21    2.23  35 0.60404-0.87855 0.65849-0.31297 0.15124 0.27129
  -2   5   7    4.52    1.97  35 0.60546-0.89684 0.65805-0.22806 0.14862 0.34083
  -2   6   8   26.66    3.03  35 0.59755-0.90595 0.66041-0.14925 0.16302 0.39117
  -2   7   8   -1.23    2.25  35 0.60404-0.92536 0.65849-0.05575 0.15124 0.39406
  -2   8   8   28.83    2.66  35 0.60404-0.93890 0.65849 0.03255 0.15124 0.38576
  -1   1   2  585.99    5.63  35 0.60546-0.72545 0.65805-0.56877 0.14862-0.00385
  -1   1   3   82.72    2.49  35 0.60045-0.72442 0.65957-0.57769 0.15779 0.06156
  -1   3   8  637.46    4.16  35 0.60189-0.77084 0.65914-0.43289 0.15517 0.42045
  -1   4  -4   29.67    2.90  36 0.59564-0.73172 0.66095-0.25656 0.16646-0.49569
  -1   4   9   16.00    1.96  35 0.60260-0.78900 0.65893-0.35000 0.15386 0.48685
  -1   5  10   52.21    3.30  36 0.59670-0.79883 0.66065-0.26650 0.16456 0.54184
  -1   6  10    5.67    2.32  35 0.60759-0.82397 0.65738-0.17535 0.14469 0.55401
   0   0   4 1687.78    7.91  35 0.60546-0.62055 0.65805-0.68729 0.14862 0.14885
   0   1   7   14.02    1.86  35 0.60688-0.64622 0.65760-0.61863 0.14600 0.36694
   0   2   9  369.56    3.93  35 0.59720-0.65692 0.66051-0.54507 0.16366 0.49004
   0   3  10    8.29    2.06  35 0.60117-0.67830 0.65936-0.46171 0.15648 0.56270
   0   4  11    3.21    3.09  36 0.59683-0.69047 0.66062-0.37989 0.16433 0.62166
   0   9  -6    1.15    3.60  35 0.60111-0.69345 0.65938 0.19774 0.15658-0.68334
   1  -1   3  538.56    6.48  35 0.59836-0.49723 0.66018-0.78658 0.16156 0.06535
   1   0   7    2.36    1.85  35 0.60475-0.53178 0.65827-0.72349 0.14993 0.36726
   1   1   9    5.62    1.92  35 0.60189-0.54869 0.65914-0.64949 0.15517 0.50200
   1   4  -7   33.79    2.20  35 0.60759-0.53111 0.65738-0.26093 0.14469-0.70729
   1   4  12    4.65    2.38  35 0.60617-0.60362 0.65783-0.39817 0.14731 0.70837
   2  -1  -2 1180.50    7.07  35 0.60260-0.38261 0.65893-0.76272 0.15386-0.30482
   2   5  -8   18.05    3.01  36 0.59710-0.42887 0.66054-0.17975 0.16384-0.81603
   3  -2   1  146.44    4.57  35 0.59646-0.27435 0.66072-0.89134 0.16498-0.08821
   3   0  -5   91.46    3.03  35 0.59862-0.27858 0.66010-0.66593 0.16109-0.54929
   3   1  11   64.55    2.68  35 0.60617-0.36085 0.65783-0.69041 0.14731 0.64947
   3   3  -8   24.61    2.23  35 0.60688-0.31390 0.65760-0.37157 0.14600-0.78457
   3   6  -9    6.99    2.48  35 0.60688-0.34931 0.65760-0.09374 0.14600-0.88589
   4  -2  -1   55.80    2.87  35 0.60035-0.17023 0.65960-0.88955 0.15797-0.23577
   4  -1  -4   69.24    2.32  35 0.60404-0.17520 0.65849-0.77613 0.15124-0.46201
   4   5  -9    2.79    3.37  36 0.59537-0.22419 0.66102-0.20088 0.16694-0.90266
   5  -1   9   71.06    3.72  36 0.59716-0.11691 0.66052-0.88709 0.16372 0.49099
   5   0  -6    7.09    1.84  35 0.60617-0.08078 0.65783-0.68651 0.14731-0.62062
   5   1  -7   67.56    2.39  35 0.60045-0.08537 0.65957-0.58880 0.15779-0.71576
   5   2  -8    1.43    2.09  35 0.60546-0.09946 0.65805-0.49021 0.14862-0.78959
   5   4  -9    6.92    3.40  35 0.59893-0.11519 0.66001-0.30488 0.16054-0.89193
   6  -2  -2   59.13    2.52  35 0.60830 0.02651 0.65715-0.90866 0.14338-0.30611
   6   0  -6    1.96    1.96  35 0.60404 0.02199 0.65849-0.70075 0.15124-0.63057
   6   1  -7   14.86    2.92  35 0.59803 0.01697 0.66027-0.60478 0.16216-0.72418
   6   2  -8   26.24    2.44  35 0.60260 0.00402 0.65893-0.50637 0.15386-0.79963
   7  -2  -1   12.67    2.88  36 0.59437 0.13680 0.66130-0.93466 0.16873-0.26211
   7  -1  -4    2.07    2.93  35 0.59828 0.13233 0.66020-0.82025 0.16171-0.48881
   7  -1   9   14.48    3.94  35 0.60058 0.07888 0.65953-0.91604 0.15754 0.48777
   7   0  -6   43.74    2.55  35 0.60830 0.11629 0.65715-0.71340 0.14338-0.62709
   7   1  -7   16.27    2.43  35 0.60189 0.11382 0.65914-0.61738 0.15517-0.72224
   7   2  -8    7.77    2.55  35 0.60546 0.10086 0.65805-0.51925 0.14862-0.79937
   8  -2   0   -1.43    3.01  36 0.59646 0.23105 0.66072-0.95568 0.16498-0.18941
   9  -1  -3    4.65    2.52  35 0.60759 0.31874 0.65738-0.85413 0.14469-0.40683
  -3   7   3   31.53    3.05  36 0.58278-0.98503 0.66434-0.01174 0.18914-0.01162
  -3   7   4   15.34    2.94  36 0.58227-0.98695 0.66446-0.01906 0.19001 0.06176
  -3   8   3   -1.46    3.05  37 0.58089-0.99459 0.66478 0.07784 0.19238-0.02338
  -2   3   0  653.01    7.28  37 0.57886-0.81724 0.66524-0.36587 0.19586-0.21263
  -2   3   5   25.57    1.96  36 0.58875-0.84698 0.66288-0.39996 0.17873 0.17819
  -2   4   7  169.70    3.43  36 0.58484-0.86405 0.66385-0.32510 0.18555 0.31140
  -2   5   8    6.39    2.81  36 0.58439-0.88064 0.66396-0.24257 0.18635 0.37655
  -2   7   9    1.60    3.38  36 0.58353-0.90800 0.66417-0.06900 0.18784 0.43332
  -1   1   1  772.76    7.67  36 0.59391-0.71043 0.66152-0.56450 0.16961-0.09912
  -1   1   4   50.03    2.28  36 0.58875-0.71727 0.66288-0.58780 0.17873 0.11556
  -1   2   7   76.82    2.24  36 0.58875-0.74196 0.66288-0.51869 0.17873 0.33121
  -1   6  11    2.52    3.51  36 0.58278-0.80150 0.66434-0.18858 0.18914 0.58393
   0   0   5  774.43    5.45  36 0.58373-0.60345 0.66412-0.70046 0.18749 0.18540
   0   5  -6  106.26    2.87  36 0.59244-0.63188 0.66192-0.16745 0.17222-0.66520
   0   5  12    8.71    2.53  36 0.58652-0.69714 0.66344-0.29928 0.18264 0.66761
   0   8  -6   35.32    3.75  37 0.58023-0.66004 0.66494 0.10110 0.19352-0.71291
   1  -1   4    2.87    2.72  36 0.58146-0.48403 0.66465-0.79737 0.19140 0.10987
   1   2  11    3.35    2.99  36 0.58206-0.54897 0.66451-0.57737 0.19037 0.60492
   1   3  -6   11.25    2.62  37 0.58195-0.49812 0.66454-0.36393 0.19057-0.67041
   1   3  12   19.49    3.36  37 0.58121-0.56539 0.66471-0.49484 0.19184 0.67189
   1   5  -7   91.60    3.34  36 0.58469-0.52013 0.66389-0.17526 0.18581-0.75714
   2   0  -4  329.21    3.61  36 0.59317-0.37738 0.66172-0.66144 0.17091-0.47953
   2   0   9  163.38    2.88  36 0.58801-0.42231 0.66307-0.75679 0.18003 0.48165
   2   2  12    4.74    3.24  36 0.58257-0.45334 0.66439-0.59932 0.18949 0.67745
   2   3  -7    6.13    1.89  36 0.58949-0.40054 0.66269-0.36993 0.17743-0.73663
   2   6  -8   13.17    3.13  36 0.58454-0.42873 0.66392-0.09262 0.18608-0.84542
   2   7  -8    5.46    3.36  37 0.58277-0.44138 0.66434-0.00224 0.18914-0.85911
   3  -1  -3   11.06    1.82  36 0.59244-0.26774 0.66192-0.77350 0.17222-0.40202
   3  -1   8    2.67    2.77  36 0.58324-0.30064 0.66423-0.85583 0.18833 0.40214
   3   0  10   -0.42    2.00  36 0.58726-0.32458 0.66326-0.77897 0.18134 0.54889
   3   1  -6  324.58    3.51  36 0.58875-0.27746 0.66288-0.57206 0.17873-0.65101
   3   2  -7   24.38    2.13  36 0.59244-0.29011 0.66192-0.47389 0.17222-0.72756
   3   4  -8    9.70    2.84  37 0.58315-0.30305 0.66426-0.28801 0.18850-0.83518
   4   1  12    4.72    2.59  36 0.59023-0.24880 0.66250-0.71589 0.17613 0.69074
   4   3  -8    8.36    2.04  36 0.58801-0.19389 0.66307-0.39114 0.18003-0.82425
   4   6  -9    5.40    2.59  36 0.58652-0.22764 0.66344-0.11408 0.18264-0.92841
   5  -2  -1   19.55    2.71  36 0.58278-0.05130 0.66434-0.90901 0.18914-0.27148
   5  -1  -4  148.47    2.90  36 0.59244-0.06276 0.66192-0.79472 0.17222-0.48719
   5   0  11   -0.08    2.52  36 0.58949-0.13044 0.66269-0.81351 0.17743 0.61785
   5   5  -9    0.28    3.51  37 0.58390-0.11241 0.66408-0.21803 0.18719-0.92762
   6  -2  -1  168.25    3.95  36 0.58278 0.04866 0.66434-0.92337 0.18914-0.27656
   6  -1  -4   17.49    2.06  36 0.59097 0.03875 0.66231-0.80888 0.17482-0.49487
   8  -2   1    1.96    3.09  37 0.57976 0.24407 0.66504-0.96663 0.19433-0.14352
   8  -1  -3   11.13    3.25  36 0.58468 0.24228 0.66389-0.84557 0.18584-0.44142
   8   0  -5    7.71    2.34  36 0.58949 0.23168 0.66269-0.74028 0.17743-0.59164
   9  -1  -2   -3.84    3.33  37 0.58353 0.33885 0.66417-0.86705 0.18784-0.37467
   9   0  -4    3.16    3.60  37 0.58093 0.33701 0.66478-0.76452 0.19232-0.53830
  -3   6   2    9.12    2.71  37 0.57078-0.95642 0.66704-0.09715 0.20938-0.09765
  -3   6   3   38.41    2.24  37 0.57670-0.96601 0.66581-0.10306 0.19939-0.01326
  -3   6   4    2.07    1.91  37 0.57517-0.96786 0.66614-0.11098 0.20198 0.05904
  -3   6   5    3.88    2.74  37 0.56824-0.96465 0.66754-0.12015 0.21361 0.12185
  -3   7   2   12.42    2.16  37 0.57822-0.97635 0.66547-0.00494 0.19679-0.09374
  -3   7   5    3.78    2.09  37 0.57441-0.98394 0.66630-0.02836 0.20327 0.12342
  -3   8   2   -0.48    2.20  37 0.57211-0.98371 0.66677 0.08354 0.20715-0.11289
  -3   8   4   -0.47    2.19  37 0.57822-0.99735 0.66547 0.07063 0.19679 0.04638
  -3   8   5    8.46    2.24  37 0.57287-0.99528 0.66662 0.06094 0.20586 0.11254
  -3   9   3    9.82    3.47  37 0.56734-0.99432 0.66771 0.16467 0.21511-0.05450
  -3   9   4   -0.38    3.45  38 0.56785-0.99943 0.66761 0.15871 0.21426 0.02061
  -3   9   5    3.81    3.62  37 0.56635-0.99906 0.66790 0.14995 0.21675 0.09270
  -2   3   6   65.79    2.14  37 0.57287-0.83525 0.66662-0.41122 0.20586 0.22515
  -2   4   8   -0.07    2.64  38 0.56630-0.84706 0.66791-0.33618 0.21684 0.35502
  -2   6   9   -1.59    2.17  37 0.57670-0.88831 0.66581-0.16153 0.19939 0.42962
  -1   1   5    0.64    1.80  37 0.57364-0.70529 0.66646-0.59962 0.20457 0.16492
  -1   2   8   89.16    2.92  38 0.56599-0.72172 0.66796-0.53118 0.21734 0.36668
  -1   3  -3 2557.21   14.79  38 0.56656-0.69381 0.66786-0.36096 0.21641-0.46192
  -1   3   9  132.95    2.60  37 0.57670-0.74986 0.66581-0.44583 0.19939 0.45088
  -1   4  10   19.71    2.08  37 0.57670-0.76646 0.66581-0.36361 0.19939 0.51692
  -1   5  11   26.41    3.46  37 0.56875-0.77550 0.66744-0.28308 0.21277 0.56934
   0   1   8  182.97    2.84  37 0.57898-0.62318 0.66531-0.63231 0.19550 0.39280
   0   2  10  262.29    3.82  37 0.56712-0.63095 0.66775-0.56002 0.21547 0.51309
   0   3  11    0.30    2.10  37 0.57134-0.65190 0.66693-0.47631 0.20845 0.58582
   0   4  12    3.95    3.42  38 0.56669-0.66371 0.66783-0.39513 0.21619 0.64401
   0   6  -6   24.89    2.32  37 0.57517-0.62798 0.66614-0.08042 0.20198-0.70342
   0   7  -6   30.65    3.27  38 0.56894-0.63356 0.66740 0.00806 0.21246-0.72259
   1   0   8  450.46    3.98  37 0.57287-0.50352 0.66662-0.73925 0.20586 0.38606
   1   1  -4  288.28    3.52  37 0.57364-0.47089 0.66646-0.56122 0.20457-0.51714
   1   1  10   21.69    2.84  37 0.56840-0.51987 0.66751-0.66457 0.21335 0.51938
   1   2  -5    5.78    2.46  38 0.56705-0.47340 0.66776-0.46557 0.21559-0.61099
   1   7  -7    9.17    3.20  38 0.56783-0.52986 0.66762 0.00088 0.21430-0.80369
   1   8  -7   -0.52    2.42  37 0.57364-0.54967 0.66646 0.09246 0.20457-0.80276
   2  -1   7  800.72    5.51  37 0.57287-0.38621 0.66662-0.83633 0.20586 0.31502
   2   1  -5  472.05    3.97  37 0.57287-0.36567 0.66662-0.56817 0.20586-0.59831
   2   1  11   23.38    2.33  37 0.57441-0.42827 0.66630-0.68452 0.20327 0.59815
   2   2  -6    0.29    1.73  37 0.57441-0.37714 0.66630-0.47055 0.20327-0.67903
   3   1  12    7.28    3.38  38 0.56701-0.32432 0.66777-0.70750 0.21566 0.65513
   3   5  -8   33.02    3.18  38 0.56576-0.29804 0.66801-0.20147 0.21773-0.87435
   4  -2   0  199.46    4.04  37 0.56747-0.14096 0.66769-0.90517 0.21490-0.21771
   4  -1  -3   30.74    2.67  38 0.56557-0.14068 0.66804-0.79338 0.21804-0.45401
   4  -1   9    9.28    2.19  37 0.57364-0.19459 0.66646-0.87957 0.20457 0.45450
   4   0  -5  221.20    3.12  37 0.57746-0.15689 0.66564-0.68627 0.19809-0.59166
   4   0  11   26.28    3.51  37 0.57029-0.21186 0.66714-0.80488 0.21019 0.59062
   4   1  -6  160.97    3.29  37 0.56838-0.15662 0.66751-0.59071 0.21339-0.69028
   4   2  -7   -1.63    1.85  37 0.57287-0.17154 0.66662-0.49249 0.20586-0.76536
   4   4  -8    2.61    2.94  38 0.56513-0.18469 0.66812-0.30769 0.21877-0.87135
   5   0  -5   69.92    3.07  37 0.56792-0.04733 0.66760-0.70242 0.21414-0.61274
   5   3  -8    9.32    2.16  37 0.57822-0.08483 0.66547-0.40766 0.19679-0.84601
   6   0  -5   65.72    3.08  37 0.56797 0.05323 0.66759-0.71631 0.21406-0.61790
   6   3  -8    8.02    2.31  37 0.57594 0.01746 0.66597-0.42299 0.20068-0.85458
   7  -2   0    2.62    2.82  37 0.57080 0.15706 0.66703-0.94713 0.20933-0.22665
   7  -1  -3   -0.01    2.85  38 0.56747 0.15673 0.66769-0.83462 0.21490-0.46653
   7   0  -5    4.42    2.04  37 0.57594 0.14624 0.66597-0.72994 0.20068-0.60882
   7   1  -6   12.07    3.13  38 0.56747 0.14447 0.66769-0.63423 0.21490-0.70737
   7   2  -7    7.53    3.19  37 0.56870 0.13462 0.66745-0.53503 0.21285-0.78843
   7   3  -8   -0.34    2.51  37 0.57974 0.11418 0.66513-0.43563 0.19420-0.85316
   8  -2   2    3.46    3.13  38 0.56695 0.25279 0.66778-0.97707 0.21576-0.08976
   8   1  -6   10.19    2.47  37 0.57974 0.23164 0.66513-0.64584 0.19420-0.69116
  -3   5   3    1.27    1.84  38 0.55960-0.93533 0.66942-0.19776 0.22772-0.03363
  -3   5   4    0.93    1.80  38 0.55881-0.93833 0.66956-0.20664 0.22900 0.04181
  -3   6   6   19.98    2.13  38 0.55723-0.95781 0.66982-0.13014 0.23157 0.17869
  -3   7   1    5.83    2.01  38 0.56039-0.95502 0.66929-0.00076 0.22643-0.19766
  -3   7   6    3.66    2.21  38 0.56353-0.97750 0.66874-0.03824 0.22128 0.18013
  -3   8   6   15.22    2.51  38 0.56353-0.98969 0.66874 0.05241 0.22128 0.17144
  -2   3   7    0.91    1.76  38 0.55564-0.82115 0.67007-0.42188 0.23414 0.27152
  -2   5   9   12.73    2.19  38 0.56353-0.86235 0.66874-0.25416 0.22128 0.41622
  -1   1   6   96.54    2.25  38 0.55644-0.69204 0.66994-0.60953 0.23285 0.21071
   0   0   6   32.12    1.92  38 0.56196-0.58468 0.66902-0.71286 0.22386 0.22359
   1  -1   5   54.99    2.27  38 0.55802-0.46421 0.66969-0.81053 0.23029 0.14576
   2   4  -7    3.33    1.83  38 0.56039-0.38478 0.66929-0.28562 0.22643-0.79470
   3   3  -7   51.88    2.32  38 0.55802-0.26896 0.66969-0.39035 0.23029-0.79488
   5  -1  -3  190.05    3.12  38 0.55564-0.03026 0.67007-0.80976 0.23414-0.47557
   5   1  -6   17.64    1.98  38 0.55960-0.04829 0.66942-0.60668 0.22772-0.70973
   5   2  -7   16.58    2.11  38 0.56431-0.06218 0.66860-0.50844 0.22000-0.78592
   5   4  -8   12.19    2.27  38 0.55484-0.07421 0.67019-0.32132 0.23542-0.89340
   6  -1  -3   -1.86    1.84  38 0.55723 0.06803 0.66982-0.82359 0.23157-0.47749
   6   1  -6   -0.70    2.02  38 0.55960 0.05186 0.66942-0.62001 0.22772-0.71539
   6   2  -7   11.55    2.23  38 0.56353 0.03937 0.66874-0.52379 0.22128-0.79176
   8  -1  -2   -0.04    2.23  38 0.55723 0.26506 0.66982-0.85899 0.23157-0.41328
   8   0  -4   15.53    2.45  38 0.55723 0.25953 0.66982-0.75355 0.23157-0.57111
   9  -1  -1   14.25    2.65  38 0.55960 0.35914 0.66942-0.88028 0.22772-0.33784
;
_shelx_hkl_checksum              41345
_shelx_res_file
;
TITL            LI0191
 li0191.res created by SHELXL-2016/4 at 21:39:54 on 17-May-2017
CELL  0.71073  7.17320  7.99450  9.59120 83.91000 86.24700 81.52800
ZERR 2  0.00060  0.00060  0.00070  0.00600  0.00600  0.00600
LATT 1
SFAC C H N O
UNIT 22 28 8 2
TEMP -120
PLAN 30
FMAP 2
OMIT -6 50
L.S. 40
SIZE 0.34 0.32 0.28
BOND $H
CONF
ACTA
WGHT    0.079400    0.073000
EXTI    0.062030
FVAR       1.46666   0.59233
C1    1    0.237357    0.160914    0.898428    11.00000    0.03053    0.03077 =
         0.03587   -0.00947   -0.00025   -0.00733
C2    1    0.222492    0.347347    0.919775    11.00000    0.03914    0.02946 =
         0.04037   -0.01144    0.00016   -0.00587
AFIX  23
H2    2    0.312766    0.361341    0.990012    11.00000   -1.20000
H1    2    0.093801    0.387131    0.957760    11.00000   -1.20000
AFIX   0
C3    1    0.262893    0.456575    0.785412    11.00000    0.04028    0.02507 =
         0.04460   -0.00878   -0.00554   -0.00268
AFIX  23
H4    2    0.187972    0.427798    0.710496    11.00000   -1.20000
H3    2    0.221528    0.577397    0.800163    11.00000   -1.20000
AFIX   0
C4    1    0.554798    0.344809    0.637438    11.00000    0.04031    0.02259 =
         0.03074   -0.00207   -0.00517   -0.00737
C5    1    0.740742    0.370965    0.642885    11.00000    0.04211    0.03248 =
         0.03450   -0.00197   -0.00585   -0.01179
C6    1    0.881712    0.293686    0.553386    11.00000    0.03802    0.04984 =
         0.04515   -0.00201   -0.00222   -0.01006
AFIX  43
H5    2    1.009954    0.309393    0.557083    11.00000   -1.20000
AFIX   0
C7    1    0.826763    0.194653    0.460455    11.00000    0.05281    0.03879 =
         0.03867   -0.00463    0.00397   -0.00239
AFIX  43
H6    2    0.919384    0.139249    0.398995    11.00000   -1.20000
AFIX   0
C8    1    0.637229    0.172391    0.453168    11.00000    0.05920    0.02889 =
         0.03300   -0.00661   -0.00314   -0.01023
AFIX  43
H7    2    0.604940    0.104362    0.385487    11.00000   -1.20000
AFIX   0
C9    1    0.498134    0.245523    0.540357    11.00000    0.04531    0.02807 =
         0.03525   -0.00635   -0.00662   -0.01111
AFIX  43
H8    2    0.370003    0.230034    0.535556    11.00000   -1.20000
AFIX   0
C10   1    0.241083    0.086869    1.156838    11.00000    0.06409    0.05209 =
         0.03821   -0.00500   -0.00096   -0.01838
AFIX 137
H10   2    0.138000    0.036749    1.209814    11.00000   -1.20000
H9    2    0.219291    0.210450    1.159458    11.00000   -1.20000
H11   2    0.360994    0.040258    1.198882    11.00000   -1.20000
AFIX   0
C11   1    0.260471   -0.132133    0.992626    11.00000    0.04731    0.02920 =
         0.06007   -0.00318   -0.00248   -0.00787
AFIX 127
H13A  2    0.386119   -0.190604    1.015826    21.00000   -1.20000
H14A  2    0.238741   -0.144173    0.894596    21.00000   -1.20000
H12A  2    0.164666   -0.182399    1.054197    21.00000   -1.20000
H12B  2    0.140231   -0.154180    0.960587   -21.00000   -1.20000
H13B  2    0.287609   -0.200611    1.081816   -21.00000   -1.20000
H14B  2    0.361685   -0.162385    0.922216   -21.00000   -1.20000
AFIX   0
N1    3    0.248432    0.047125    1.012308    11.00000    0.04053    0.03131 =
         0.03856   -0.00646   -0.00163   -0.00875
N2    3    0.460484    0.435177    0.739198    11.00000    0.04185    0.02451 =
         0.03494   -0.00709   -0.00558   -0.01024
N3    3    0.582424    0.514024    0.801630    11.00000    0.04816    0.03403 =
         0.04007   -0.00899   -0.00934   -0.01636
N4    3    0.750995    0.476848    0.745868    11.00000    0.04464    0.04384 =
         0.04293   -0.00923   -0.00735   -0.01664
O     4    0.236603    0.116874    0.779706    11.00000    0.06477    0.03298 =
         0.03819   -0.01108   -0.00330   -0.01256
HKLF 4
REM             LI0191
REM R1 =  0.0465 for    1596 Fo > 4sig(Fo)  and  0.0560 for all    1904 data
REM    149 parameters refined using      0 restraints
END
WGHT      0.0794      0.0730
REM Highest difference peak  0.215,  deepest hole -0.203,  1-sigma level  0.046
Q1    1   0.6506  0.3529  0.6350  11.00000  0.05    0.22
Q2    1   0.5000  0.0000  1.0000  10.50000  0.05    0.18
Q3    1   0.5334  0.2819  0.6045  11.00000  0.05    0.17
Q4    1   0.5157  0.3239  0.5844  11.00000  0.05    0.15
Q5    1   1.0498  0.2496  0.6202  11.00000  0.05    0.15
Q6    1   0.3736  0.1954  0.5803  11.00000  0.05    0.15
Q7    1   0.2363  0.2493  0.9201  11.00000  0.05    0.15
Q8    1   0.3769  0.0753  1.0014  11.00000  0.05    0.15
Q9    1   0.5357 -0.1400  1.0300  11.00000  0.05    0.15
Q10   1   0.9348 -0.0118  0.2917  11.00000  0.05    0.14
Q11   1   0.3943  0.1136  0.7967  11.00000  0.05    0.14
Q12   1   0.2593 -0.0262  1.2478  11.00000  0.05    0.14
Q13   1   0.2452  0.3036  0.6859  11.00000  0.05    0.14
Q14   1   0.4429  0.0850  0.7886  11.00000  0.05    0.14
Q15   1   0.7397  0.4304  0.6834  11.00000  0.05    0.13
Q16   1   0.8615  0.4915  0.7149  11.00000  0.05    0.13
Q17   1   0.2030 -0.2048  1.0814  11.00000  0.05    0.13
Q18   1   0.4007 -0.1819  1.0933  11.00000  0.05    0.13
Q19   1   1.0264  0.4513  0.6221  11.00000  0.05    0.12
Q20   1   0.7400  0.1560  0.4909  11.00000  0.05    0.12
Q21   1   0.2344  0.4153  0.6958  11.00000  0.05    0.12
Q22   1   0.2532  0.3240  1.0664  11.00000  0.05    0.12
Q23   1   0.3766  0.1417  1.1641  11.00000  0.05    0.12
Q24   1   0.2592 -0.0186  1.0025  11.00000  0.05    0.11
Q25   1   0.9922  0.3412  0.5287  11.00000  0.05    0.11
Q26   1   0.6570  0.0541  0.3854  11.00000  0.05    0.11
Q27   1   0.1044  0.0630  0.7934  11.00000  0.05    0.11
Q28   1   0.4902  0.3859  0.6811  11.00000  0.05    0.11
Q29   1   0.1882 -0.1778  0.7573  11.00000  0.05    0.10
Q30   1   0.9701  0.3609  0.4116  11.00000  0.05    0.10
;
_shelx_res_checksum              58799
loop_
_space_group_symop_operation_xyz
'x, y, z'
'-x, -y, -z'
loop_
_atom_site_type_symbol
_atom_site_label
_atom_site_fract_x
_atom_site_fract_y
_atom_site_fract_z
_atom_site_U_iso_or_equiv
_atom_site_adp_type
_atom_site_calc_flag
_atom_site_occupancy
C C1 0.2374(2) 0.1609(2) 0.89843(17) 0.0317(4) Uani d 1
C C2 0.2225(3) 0.3473(2) 0.91977(18) 0.0357(4) Uani d 1
H H2 0.312766 0.361341 0.990012 0.043 Uiso calc 1
H H1 0.093801 0.387131 0.957760 0.043 Uiso calc 1
C C3 0.2629(3) 0.4566(2) 0.78541(18) 0.0363(4) Uani d 1
H H4 0.187972 0.427798 0.710496 0.044 Uiso calc 1
H H3 0.221528 0.577397 0.800163 0.044 Uiso calc 1
C C4 0.5548(2) 0.34481(19) 0.63744(16) 0.0308(4) Uani d 1
C C5 0.7407(3) 0.3710(2) 0.64288(17) 0.0356(4) Uani d 1
C C6 0.8817(3) 0.2937(2) 0.5534(2) 0.0441(5) Uani d 1
H H5 1.009954 0.309393 0.557083 0.053 Uiso calc 1
C C7 0.8268(3) 0.1947(2) 0.46046(19) 0.0441(5) Uani d 1
H H6 0.919384 0.139249 0.398995 0.053 Uiso calc 1
C C8 0.6372(3) 0.1724(2) 0.45317(18) 0.0397(5) Uani d 1
H H7 0.604940 0.104362 0.385487 0.048 Uiso calc 1
C C9 0.4981(3) 0.2455(2) 0.54036(17) 0.0352(4) Uani d 1
H H8 0.370003 0.230034 0.535556 0.042 Uiso calc 1
C C10 0.2411(3) 0.0869(3) 1.15684(19) 0.0505(5) Uani d 1
H H10 0.138000 0.036749 1.209814 0.061 Uiso calc 1
H H9 0.219291 0.210450 1.159458 0.061 Uiso calc 1
H H11 0.360994 0.040258 1.198882 0.061 Uiso calc 1
C C11 0.2605(3) -0.1321(2) 0.9926(2) 0.0454(5) Uani d 1
H H13A 0.386119 -0.190604 1.015826 0.054 Uiso calc 0.59(2)
H H14A 0.238741 -0.144173 0.894596 0.054 Uiso calc 0.59(2)
H H12A 0.164666 -0.182399 1.054197 0.054 Uiso calc 0.59(2)
H H12B 0.140231 -0.154180 0.960587 0.054 Uiso calc 0.41(2)
H H13B 0.287609 -0.200611 1.081816 0.054 Uiso calc 0.41(2)
H H14B 0.361685 -0.162385 0.922216 0.054 Uiso calc 0.41(2)
N N1 0.2484(2) 0.04712(18) 1.01231(15) 0.0362(4) Uani d 1
N N2 0.4605(2) 0.43518(16) 0.73920(14) 0.0327(4) Uani d 1
N N3 0.5824(2) 0.51402(18) 0.80163(15) 0.0390(4) Uani d 1
N N4 0.7510(2) 0.4768(2) 0.74587(16) 0.0422(4) Uani d 1
O O 0.2366(2) 0.11687(15) 0.77971(13) 0.0442(4) Uani d 1
loop_
_atom_site_aniso_label
_atom_site_aniso_U_11
_atom_site_aniso_U_22
_atom_site_aniso_U_33
_atom_site_aniso_U_12
_atom_site_aniso_U_13
_atom_site_aniso_U_23
C1 0.0305(8) 0.0308(8) 0.0359(9) -0.0073(6) -0.0002(7) -0.0095(7)
C2 0.0391(10) 0.0295(8) 0.0404(9) -0.0059(7) 0.0002(7) -0.0114(7)
C3 0.0403(10) 0.0251(8) 0.0446(9) -0.0027(7) -0.0055(8) -0.0088(7)
C4 0.0403(9) 0.0226(7) 0.0307(8) -0.0074(7) -0.0052(7) -0.0021(6)
C5 0.0421(10) 0.0325(8) 0.0345(8) -0.0118(7) -0.0058(7) -0.0020(7)
C6 0.0380(10) 0.0498(11) 0.0452(10) -0.0101(8) -0.0022(8) -0.0020(8)
C7 0.0528(12) 0.0388(10) 0.0387(10) -0.0024(8) 0.0040(8) -0.0046(7)
C8 0.0592(12) 0.0289(8) 0.0330(9) -0.0102(8) -0.0031(8) -0.0066(7)
C9 0.0453(10) 0.0281(8) 0.0352(9) -0.0111(7) -0.0066(7) -0.0064(7)
C10 0.0641(13) 0.0521(12) 0.0382(10) -0.0184(10) -0.0010(9) -0.0050(8)
C11 0.0473(11) 0.0292(9) 0.0601(12) -0.0079(8) -0.0025(9) -0.0032(8)
N1 0.0405(8) 0.0313(7) 0.0386(8) -0.0088(6) -0.0016(6) -0.0065(6)
N2 0.0418(8) 0.0245(6) 0.0349(7) -0.0102(6) -0.0056(6) -0.0071(5)
N3 0.0482(9) 0.0340(7) 0.0401(8) -0.0164(7) -0.0093(7) -0.0090(6)
N4 0.0446(9) 0.0438(9) 0.0429(8) -0.0166(7) -0.0073(7) -0.0092(7)
O 0.0648(9) 0.0330(7) 0.0382(7) -0.0126(6) -0.0033(6) -0.0111(5)
loop_
_atom_type_symbol
_atom_type_description
_atom_type_scat_dispersion_real
_atom_type_scat_dispersion_imag
_atom_type_scat_source
C C 0.0033 0.0016 'International Tables Vol C Tables 4.2.6.8 and 6.1.1.4'
H H 0.0000 0.0000 'International Tables Vol C Tables 4.2.6.8 and 6.1.1.4'
N N 0.0061 0.0033 'International Tables Vol C Tables 4.2.6.8 and 6.1.1.4'
O O 0.0106 0.0060 'International Tables Vol C Tables 4.2.6.8 and 6.1.1.4'
loop_
_geom_angle_atom_site_label_1
_geom_angle_atom_site_label_2
_geom_angle_atom_site_label_3
_geom_angle
O C1 N1 121.60(14)
O C1 C2 120.14(15)
N1 C1 C2 118.25(14)
C1 C2 C3 112.71(13)
C1 C2 H2 109.1
C3 C2 H2 109.1
C1 C2 H1 109.1
C3 C2 H1 109.1
H2 C2 H1 107.8
N2 C3 C2 113.14(14)
N2 C3 H4 109.0
C2 C3 H4 109.0
N2 C3 H3 109.0
C2 C3 H3 109.0
H4 C3 H3 107.8
N2 C4 C5 104.46(14)
N2 C4 C9 133.38(16)
C5 C4 C9 122.15(16)
N4 C5 C4 108.56(16)
N4 C5 C6 130.69(17)
C4 C5 C6 120.75(16)
C7 C6 C5 117.01(17)
C7 C6 H5 121.5
C5 C6 H5 121.5
C6 C7 C8 121.86(18)
C6 C7 H6 119.1
C8 C7 H6 119.1
C9 C8 C7 121.95(16)
C9 C8 H7 119.0
C7 C8 H7 119.0
C8 C9 C4 116.25(16)
C8 C9 H8 121.9
C4 C9 H8 121.9
N1 C10 H10 109.5
N1 C10 H9 109.5
H10 C10 H9 109.5
N1 C10 H11 109.5
H10 C10 H11 109.5
H9 C10 H11 109.5
N1 C11 H13A 109.5
N1 C11 H14A 109.5
H13A C11 H14A 109.5
N1 C11 H12A 109.5
H13A C11 H12A 109.5
H14A C11 H12A 109.5
N1 C11 H12B 109.5
H13A C11 H12B 141.1
H14A C11 H12B 56.3
H12A C11 H12B 56.3
N1 C11 H13B 109.5
H13A C11 H13B 56.3
H14A C11 H13B 141.1
H12A C11 H13B 56.3
H12B C11 H13B 109.5
N1 C11 H14B 109.5
H13A C11 H14B 56.3
H14A C11 H14B 56.3
H12A C11 H14B 141.1
H12B C11 H14B 109.5
H13B C11 H14B 109.5
C1 N1 C10 125.72(14)
C1 N1 C11 118.52(14)
C10 N1 C11 115.70(15)
N3 N2 C4 109.63(14)
N3 N2 C3 119.52(13)
C4 N2 C3 130.85(14)
N4 N3 N2 109.52(13)
N3 N4 C5 107.81(14)
loop_
_geom_bond_atom_site_label_1
_geom_bond_atom_site_label_2
_geom_bond_distance
C1 O 1.228(2)
C1 N1 1.344(2)
C1 C2 1.513(2)
C2 C3 1.515(2)
C2 H2 0.9900
C2 H1 0.9900
C3 N2 1.448(2)
C3 H4 0.9900
C3 H3 0.9900
C4 N2 1.361(2)
C4 C5 1.385(3)
C4 C9 1.401(2)
C5 N4 1.379(2)
C5 C6 1.399(3)
C6 C7 1.365(3)
C6 H5 0.9500
C7 C8 1.404(3)
C7 H6 0.9500
C8 C9 1.364(3)
C8 H7 0.9500
C9 H8 0.9500
C10 N1 1.451(2)
C10 H10 0.9800
C10 H9 0.9800
C10 H11 0.9800
C11 N1 1.455(2)
C11 H13A 0.9800
C11 H14A 0.9800
C11 H12A 0.9800
C11 H12B 0.9800
C11 H13B 0.9800
C11 H14B 0.9800
N2 N3 1.3535(19)
N3 N4 1.296(2)
loop_
_geom_torsion_atom_site_label_1
_geom_torsion_atom_site_label_2
_geom_torsion_atom_site_label_3
_geom_torsion_atom_site_label_4
_geom_torsion
O C1 C2 C3 -16.2(2)
N1 C1 C2 C3 164.77(15)
C1 C2 C3 N2 -72.24(18)
N2 C4 C5 N4 -0.66(18)
C9 C4 C5 N4 178.42(14)
N2 C4 C5 C6 178.83(15)
C9 C4 C5 C6 -2.1(3)
N4 C5 C6 C7 -179.73(18)
C4 C5 C6 C7 0.9(3)
C5 C6 C7 C8 0.8(3)
C6 C7 C8 C9 -1.4(3)
C7 C8 C9 C4 0.2(2)
N2 C4 C9 C8 -179.75(17)
C5 C4 C9 C8 1.5(2)
O C1 N1 C10 -176.82(17)
C2 C1 N1 C10 2.2(3)
O C1 N1 C11 0.2(3)
C2 C1 N1 C11 179.27(15)
C5 C4 N2 N3 0.86(18)
C9 C4 N2 N3 -178.07(17)
C5 C4 N2 C3 -179.29(15)
C9 C4 N2 C3 1.8(3)
C2 C3 N2 N3 -78.81(17)
C2 C3 N2 C4 101.35(19)
C4 N2 N3 N4 -0.77(19)
C3 N2 N3 N4 179.36(14)
N2 N3 N4 C5 0.32(18)
C4 C5 N4 N3 0.23(19)
C6 C5 N4 N3 -179.20(18)

_cod_database_fobs_code 2242161
