#------------------------------------------------------------------------------
#$Date: 2019-04-26 05:36:32 +0300 (Fri, 26 Apr 2019) $
#$Revision: 214794 $
#$URL: file:///home/coder/svn-repositories/cod/cif/2/24/29/2242920.cif $
#------------------------------------------------------------------------------
#
# This file is available in the Crystallography Open Database (COD),
# http://www.crystallography.net/. The original data for this entry
# were provided by IUCr Journals, http://journals.iucr.org/.
#
# The file may be used within the scientific community so long as
# proper attribution is given to the journal article from which the
# data were obtained.
#
data_2242920
loop_
_publ_author_name
'Cruz, Lorenzo M.'
'Moore, Raakiyah Y.'
'Gutierrez, Marcela Torres'
'Herath, Apsara K.'
'Lovely, Carl J.'
'Yousufuddin, Muhammed'
_publ_section_title
;
 Crystal structures of
 4-{(<i>E</i>)-3-[(imino-\l^5^-azanylidene)amino]prop-1-enyl}-<i>N</i>,<i>N</i>-dimethylimidazole-1-sulfonamide
 and
 2-[(imino-\l^5^-azanylidene)amino]-4-{(<i>E</i>)-3-[(imino-\l^5^-azanylidene)amino]prop-1-enyl}-<i>N</i>,<i>N</i>-dimethylimidazole-1-sulfonamide
;
_journal_issue                   5
_journal_name_full               'Acta Crystallographica Section E'
_journal_page_first              695
_journal_page_last               699
_journal_paper_doi               10.1107/S205698901900519X
_journal_volume                  75
_journal_year                    2019
_chemical_formula_moiety         'C8 H11 N9 O2 S'
_chemical_formula_sum            'C8 H11 N9 O2 S'
_chemical_formula_weight         297.32
_chemical_name_systematic
2-[(Imino-\l^5^-azanylidene)amino]-4-{(<i>E</i>)-3-[(imino-\l^5^-azanylidene)amino]prop-1-enyl}-<i>N</i>,<i>N</i>-dimethylimidazole-1-sulfonamide
_space_group_crystal_system      triclinic
_space_group_IT_number           2
_space_group_name_Hall           '-P 1'
_space_group_name_H-M_alt        'P -1'
_symmetry_space_group_name_Hall  '-P 1'
_symmetry_space_group_name_H-M   'P -1'
_atom_sites_solution_hydrogens   geom
_atom_sites_solution_primary     direct
_audit_creation_method           SHELXL-2017/1
_cell_angle_alpha                108.645(4)
_cell_angle_beta                 105.994(4)
_cell_angle_gamma                93.828(4)
_cell_formula_units_Z            2
_cell_length_a                   6.6151(18)
_cell_length_b                   9.563(3)
_cell_length_c                   11.634(3)
_cell_measurement_reflns_used    5257
_cell_measurement_temperature    100(2)
_cell_measurement_theta_max      33.56
_cell_measurement_theta_min      3.22
_cell_volume                     660.6(3)
_computing_cell_refinement
;
SAINT (Bruker, 2016)
;
_computing_data_collection
;
APEX3 (Bruker, 2016)
;
_computing_data_reduction
;
SAINT (Bruker, 2016)
;
_computing_molecular_graphics
;
Mercury (Macrae <i>et al.</i>,  2008)
;
_computing_publication_material
;
SHELXTL (Sheldrick, 2008)
;
_computing_structure_refinement
;
SHELXL2017 (Sheldrick, 2015b)
;
_computing_structure_solution
;
SHELXT2014 (Sheldrick, 2015a)
;
_diffrn_ambient_temperature      100(2)
_diffrn_measured_fraction_theta_full 0.998
_diffrn_measured_fraction_theta_max 0.983
_diffrn_measurement_device_type  'Bruker D8 Quest'
_diffrn_measurement_method       '\f and \w scans'
_diffrn_radiation_type           MoK\a
_diffrn_radiation_wavelength     0.71073
_diffrn_reflns_av_R_equivalents  0.0303
_diffrn_reflns_av_unetI/netI     0.0464
_diffrn_reflns_limit_h_max       10
_diffrn_reflns_limit_h_min       -10
_diffrn_reflns_limit_k_max       14
_diffrn_reflns_limit_k_min       -14
_diffrn_reflns_limit_l_max       18
_diffrn_reflns_limit_l_min       -17
_diffrn_reflns_number            11030
_diffrn_reflns_theta_full        25.242
_diffrn_reflns_theta_max         33.670
_diffrn_reflns_theta_min         3.222
_diffrn_standards_decay_%        0
_diffrn_standards_interval_count 0
_diffrn_standards_interval_time  0
_diffrn_standards_number         0
_exptl_absorpt_coefficient_mu    0.264
_exptl_absorpt_correction_T_max  0.7465
_exptl_absorpt_correction_T_min  0.6342
_exptl_absorpt_correction_type   multi-scan
_exptl_absorpt_process_details
;
(SADABS; Bruker, 2016)
;
_exptl_crystal_colour            colourless
_exptl_crystal_density_diffrn    1.495
_exptl_crystal_description       needle
_exptl_crystal_F_000             308
_exptl_crystal_size_max          0.800
_exptl_crystal_size_mid          0.280
_exptl_crystal_size_min          0.080
_refine_diff_density_max         0.458
_refine_diff_density_min         -0.598
_refine_ls_extinction_coef       0.022(3)
_refine_ls_extinction_expression Fc^*^=kFc[1+0.001xFc^2^\l^3^/sin(2\q)]^-1/4^
_refine_ls_extinction_method
;
SHELXL2017 (Sheldrick, 2015b)
;
_refine_ls_goodness_of_fit_ref   1.072
_refine_ls_hydrogen_treatment    constr
_refine_ls_matrix_type           full
_refine_ls_number_parameters     184
_refine_ls_number_reflns         5171
_refine_ls_number_restraints     0
_refine_ls_restrained_S_all      1.072
_refine_ls_R_factor_all          0.0622
_refine_ls_R_factor_gt           0.0428
_refine_ls_shift/su_max          0.000
_refine_ls_shift/su_mean         0.000
_refine_ls_structure_factor_coef Fsqd
_refine_ls_weighting_details
'w=1/[\s^2^(Fo^2^)+(0.0401P)^2^+0.3565P] where P=(Fo^2^+2Fc^2^)/3'
_refine_ls_weighting_scheme      calc
_refine_ls_wR_factor_gt          0.1014
_refine_ls_wR_factor_ref         0.1094
_reflns_number_gt                4051
_reflns_number_total             5171
_reflns_threshold_expression     'I > 2\s(I)'
_cod_data_source_file            zl2753sup1.cif
_cod_data_source_block           compound_2
_cod_database_code               2242920
_shelx_space_group_comment
;
The symmetry employed for this shelxl refinement is uniquely defined
by the following loop, which should always be used as a source of
symmetry information in preference to the above space-group names.
They are only intended as comments.
;
_shelx_estimated_absorpt_t_min   0.817
_shelx_estimated_absorpt_t_max   0.979
_shelx_hkl_file
;
  -1   0   0 1325.87 36.4657   2
  -1   0   0 1319.94 36.5007   1
   1   0   0 1325.40 36.4666   3
  -2   0   0 2948.73 82.8726   1
   2   0   0 3086.88 82.7721   3
  -3   0   0 1749.92 48.8222   1
  -3   0   0 1805.84 48.7783   2
   3   0   0 1731.56 48.6790   3
  -4   0   0 19.4926 1.82363   2
  -4   0   0 21.5742 2.10827   1
   4   0   0 22.2896 1.86183   3
  -5   0   0 15.8697 2.10662   2
   5   0   0 20.9793 2.17704   3
  -6   0   0 34.4766 2.96202   2
   6   0   0 31.6419 2.99485   3
   6   0   0 26.0192 3.92721   1
  -7   0   0 -1.1817 1.94820   2
   7   0   0 0.67745 2.10041   1
   7   0   0 1.63882 2.19518   4
   7   0   0 -0.5377 2.17624   3
  -8   0   0 5.01341 2.41674   2
   8   0   0 2.38674 2.72956   1
   8   0   0 5.35157 2.68924   4
  -9   0   0 57.1042 6.30092   2
   9   0   0 47.6431 6.22193   1
   9  -1   0 -6.8538 3.41335   1
  -9   1   0 1.79077 2.79131   2
   8  -1   0 13.2791 3.17578   1
  -8   1   0 8.91270 2.54126   2
   7  -1   0 70.2053 4.25898   1
   7  -1   0 66.2440 4.12578   4
   7  -1   0 61.5419 4.10058   3
  -7   1   0 60.1756 4.17605   2
   6  -1   0 10.6816 1.90159   4
   6  -1   0 10.2879 1.91915   1
   6  -1   0 11.2149 1.93286   3
  -6   1   0 8.53603 1.76409   2
   5  -1   0 14.7852 1.75611   1
   5  -1   0 12.0336 1.64774   3
   5  -1   0 14.5140 1.65985   4
  -5   1   0 14.2925 1.66070   2
   4  -1   0 225.397 6.96814   4
   4  -1   0 225.511 7.07827   1
   4  -1   0 231.146 7.07336   3
  -4   1   0 221.275 7.13115   2
   3  -1   0 1719.95 47.1610   4
   3  -1   0 1697.55 47.2294   3
   3  -1   0 1727.33 47.2278   1
  -3   1   0 1688.74 47.3028   2
   2  -1   0 598.672 16.5046   4
   2  -1   0 601.845 16.5544   1
   2  -1   0 580.040 16.6048   3
  -2   1   0 588.851 16.6397   2
   1  -1   0 136.420 4.02155   3
  -1  -1   0 3107.96 82.6684   2
  -1  -1   0 2933.35 82.7966   1
  -2  -1   0 614.485 17.3344   1
  -2  -1   0 620.923 17.1956   2
   2   1   0 601.060 17.1757   3
  -3  -1   0 1.46123 0.97921   1
  -3  -1   0 -0.5285 0.74837   2
   3   1   0 0.82465 0.86695   3
  -4  -1   0 18.7201 1.77874   2
  -4  -1   0 22.0425 2.28308   1
   4   1   0 21.6586 1.94994   3
  -5  -1   0 5.06091 1.76875   1
  -5  -1   0 5.65775 1.43360   2
   5   1   0 6.90893 1.55588   3
  -6  -1   0 51.1209 3.57468   2
  -6  -1   0 60.0741 4.13609   1
   6   1   0 59.0837 3.64789   3
  -7  -1   0 26.0257 2.76981   2
   7   1   0 30.8050 3.33934   4
   7   1   0 33.6541 4.08517   1
   7   1   0 30.0866 3.76822   3
  -8  -1   0 154.675 7.04355   2
   8   1   0 161.160 7.21036   4
   8   1   0 145.232 7.42439   1
  -9  -1   0 31.2279 3.96323   2
   9   1   0 30.5262 4.75019   4
   9   1   0 25.7500 4.15059   1
  -9   2   0 49.3822 5.54705   2
   8  -2   0 79.0959 5.18760   1
  -8   2   0 73.1046 5.11183   2
   7  -2   0 117.516 5.26684   3
   7  -2   0 124.187 5.51327   1
  -7   2   0 116.489 5.54214   2
   6  -2   0 3.01341 1.61327   3
   6  -2   0 1.25498 1.57052   1
  -6   2   0 0.06372 1.56143   2
   5  -2   0 331.568 10.0182   1
   5  -2   0 320.107 10.0646   3
  -5   2   0 327.609 10.2129   2
   4  -2   0 7.51875 1.12946   1
   4  -2   0 8.30417 1.28670   3
  -4   2   0 7.63201 1.29171   2
   3  -2   0 79.1744 2.81472   1
   3  -2   0 80.3560 3.01278   3
  -3   2   0 77.4268 3.08313   2
   2  -2   0 31.2199 1.72803   3
  -2   2   0 31.7252 1.74769   2
   1  -2   0 4.42576 0.81599   3
   1  -2   0 5.37356 0.79835   1
  -1   2   0 4.81783 0.72058   2
   0  -2   0 3731.98 101.450   2
   0  -2   0 3710.73 101.537   1
   0  -2   0 3684.20 101.595   3
  -1  -2   0 1.84746 1.53970   1
  -1  -2   0 -0.5394 0.50353   2
   1   2   0 0.17348 0.78941   3
  -2  -2   0 110.175 3.60404   1
   2   2   0 83.2284 3.25819   3
  -3  -2   0 35.8572 1.85570   2
  -3  -2   0 33.2601 2.21860   1
   3   2   0 33.6596 2.09219   3
  -4  -2   0 295.087 9.03267   2
  -4  -2   0 290.267 9.45531   1
   4   2   0 305.742 9.16005   3
  -5  -2   0 380.226 11.7808   2
   5   2   0 394.152 11.8928   3
  -6  -2   0 3.38762 1.72382   2
  -6  -2   0 -0.1674 2.16842   1
   6   2   0 0.82823 1.92420   3
  -7  -2   0 -0.5756 2.12524   2
   7   2   0 0.73007 3.60651   3
  -8  -2   0 1.64088 2.55906   2
   8   2   0 2.93958 3.11759   4
   8   2   0 9.62918 3.24811   1
  -9  -2   0 43.5950 6.03044   2
   9   2   0 52.8299 6.55596   4
   9   2   0 44.7832 5.03964   1
  -9   3   0 10.3562 3.08800   2
   8  -3   0 61.9966 8.24684   3
   8  -3   0 93.7386 5.49162   1
  -8   3   0 93.3277 5.54835   2
   7  -3   0 13.3635 2.66401   3
   7  -3   0 9.43109 3.03313   1
  -7   3   0 10.7907 2.28758   2
   6  -3   0 38.3924 3.08827   3
   6  -3   0 31.3498 2.69993   1
  -6   3   0 31.0010 3.06672   2
   5  -3   0 323.463 10.1706   1
   5  -3   0 339.446 10.4704   3
  -5   3   0 349.695 10.6309   2
   4  -3   0 512.783 14.9416   1
   4  -3   0 532.757 15.2483   3
  -4   3   0 519.061 15.2926   2
   3  -3   0 160.650 6.16934   1
   3  -3   0 201.889 6.02310   3
  -3   3   0 196.216 6.00512   2
   2  -3   0 1034.49 28.6093   3
  -2   3   0 1012.22 28.5286   2
   1  -3   0 221.861 6.74558   3
   1  -3   0 225.192 6.49173   1
   0  -3   0 1086.83 29.9829   3
   0  -3   0 1108.48 29.8996   1
   0   3   0 1036.51 29.7131   2
  -1  -3   0 398.058 11.0849   2
  -1  -3   0 400.929 11.3866   3
  -1  -3   0 379.334 11.4099   1
  -2  -3   0 3.31232 0.73427   2
  -2  -3   0 3.43241 1.19954   1
   2   3   0 2.69118 0.92719   3
  -3  -3   0 47.1343 2.77060   1
  -3  -3   0 46.9097 2.15253   2
   3   3   0 49.7527 2.55313   3
  -4  -3   0 0.20166 1.49400   1
  -4  -3   0 0.67211 1.05684   2
   4   3   0 0.71425 1.29757   3
  -5  -3   0 33.0737 2.50834   2
  -5  -3   0 36.1420 3.53497   1
   5   3   0 29.7367 3.14839   3
  -6  -3   0 371.618 11.5729   2
  -6  -3   0 354.570 12.3516   1
   6   3   0 363.329 11.6383   3
  -7  -3   0 45.2003 5.09862   1
  -7  -3   0 42.5211 4.08113   2
  -8  -3   0 59.4183 5.25748   2
   8   3   0 63.0959 6.49273   1
   8   3   0 60.3341 6.72478   4
   9   3   0 10.9797 4.33709   1
   9   3   0 21.0501 4.55709   4
  -9   4   0 40.3382 4.39720   2
   8  -4   0 100.272 5.83927   3
  -8   4   0 87.4838 5.57484   2
   7  -4   0 95.6861 4.96025   3
   7  -4   0 79.4362 4.30014   1
  -7   4   0 85.3792 4.93777   2
   6  -4   0 132.518 5.55822   3
   6  -4   0 126.485 4.97604   1
  -6   4   0 137.546 5.53704   2
   5  -4   0 503.037 14.8735   3
   5  -4   0 475.583 14.3531   1
  -5   4   0 504.502 15.0059   2
   4  -4   0 423.748 12.4166   1
   4  -4   0 438.302 12.9007   3
  -4   4   0 427.147 12.8773   2
   3  -4   0 31.5240 2.16918   3
  -3   4   0 30.6942 2.14302   2
   2  -4   0 71.7473 3.00157   3
   2  -4   0 68.8391 2.45330   1
  -2   4   0 67.5537 2.85790   2
   1  -4   0 702.607 19.6906   3
   1  -4   0 672.178 19.5868   1
  -1   4   0 700.965 19.4282   2
   0  -4   0 77.7720 2.92761   1
   0  -4   0 77.8092 3.04938   3
   0   4   0 69.9344 2.75276   2
  -1  -4   0 -0.4049 1.02375   1
  -1  -4   0 -1.1461 0.91328   3
  -1  -4   0 0.83722 0.80435   2
  -2  -4   0 94.6951 3.98453   1
  -2  -4   0 99.2461 3.37023   2
   2   4   0 106.879 3.86704   3
  -3  -4   0 137.438 5.27630   1
  -3  -4   0 142.582 4.61345   2
   3   4   0 137.983 5.04470   3
  -4  -4   0 286.117 8.80622   2
  -4  -4   0 277.853 10.3271   1
   4   4   0 295.686 9.27490   3
  -5  -4   0 117.073 5.66902   1
  -5  -4   0 116.662 4.61868   2
   5   4   0 121.210 5.24318   3
  -6  -4   0 52.1370 3.67580   2
  -6  -4   0 44.6567 4.73847   1
  -7  -4   0 67.1450 4.71292   2
  -7  -4   0 66.5888 6.04145   1
  -9   5   0 11.3516 3.40498   2
   8  -5   0 225.469 9.19121   3
  -8   5   0 220.713 9.14435   2
   7  -5   0 2.44032 2.45962   3
  -7   5   0 3.38170 2.23714   2
   6  -5   0 2.68579 1.62478   1
   6  -5   0 5.29321 2.02995   3
  -6   5   0 1.82195 1.76883   2
   5  -5   0 123.883 5.18530   3
  -5   5   0 127.077 5.23571   2
   4  -5   0 5.21226 1.59776   3
  -4   5   0 4.46521 1.37919   2
   3  -5   0 131.277 4.84541   3
  -3   5   0 126.560 4.68824   2
   2  -5   0 668.329 19.2278   3
   2  -5   0 670.161 18.7098   1
  -2   5   0 656.296 18.9552   2
   1  -5   0 336.018 9.82328   1
   1  -5   0 332.045 10.1885   3
  -1   5   0 339.291 9.84814   2
   0  -5   0 18.3191 1.90188   3
   0  -5   0 19.7746 1.85892   1
   0   5   0 17.5768 1.35544   2
  -1  -5   0 367.379 11.0385   3
  -1  -5   0 363.232 10.5388   2
  -1  -5   0 366.265 11.0314   1
  -2  -5   0 0.89100 0.80385   2
  -2  -5   0 0.44744 1.37673   1
   2   5   0 -1.8145 1.23367   3
  -3  -5   0 267.768 7.81844   2
  -3  -5   0 257.714 8.62545   1
   3   5   0 241.314 8.36432   3
  -4  -5   0 93.8069 4.65982   1
  -4  -5   0 85.7546 3.56755   2
   4   5   0 87.5598 4.28458   3
  -5  -5   0 43.4814 4.12313   1
  -5  -5   0 36.5994 2.88849   2
   5   5   0 36.9764 3.80706   3
  -6  -5   0 11.1210 3.39501   1
  -6  -5   0 7.98166 2.24160   2
   6   5   0 7.78472 2.88538   3
  -7  -5   0 6.24408 3.67669   1
  -9   6   0 15.9351 3.64679   2
   8  -6   0 -0.5326 3.20012   3
  -8   6   0 -0.8558 4.13480   2
   7  -6   0 127.785 6.40289   3
  -7   6   0 132.797 6.39722   2
   6  -6   0 73.3941 4.80026   3
  -6   6   0 73.2041 4.52249   2
   5  -6   0 41.5498 3.53226   3
  -5   6   0 39.9098 3.38841   2
   4  -6   0 181.935 6.72357   3
  -4   6   0 186.517 6.64574   2
   3  -6   0 138.123 5.30023   3
  -3   6   0 137.027 5.05798   2
   2  -6   0 5.28219 1.08670   1
   2  -6   0 6.29833 1.45558   3
  -2   6   0 7.47835 1.33505   2
   1  -6   0 169.143 5.62524   1
   1  -6   0 177.427 6.19693   3
  -1   6   0 173.779 5.60158   2
   0  -6   0 393.498 12.2296   3
   0  -6   0 420.309 12.1116   1
   0   6   0 400.065 11.6987   2
  -1  -6   0 174.422 5.51151   2
  -1  -6   0 178.640 6.16564   1
  -1  -6   0 168.869 6.07219   3
  -2  -6   0 127.842 5.24048   1
  -2  -6   0 129.279 4.38633   2
   2   6   0 127.577 5.20340   3
  -3  -6   0 46.9963 3.58365   1
  -3  -6   0 43.9826 2.51607   2
   3   6   0 50.4517 3.80172   3
  -4  -6   0 114.042 5.53222   1
  -4  -6   0 108.952 4.32152   2
  -5  -6   0 -0.5983 1.62582   2
  -5  -6   0 -1.7291 2.46835   1
   5   6   0 -0.4611 2.46378   3
  -6  -6   0 2.64716 3.53139   1
   6   6   0 4.90364 3.23439   3
  -7  -6   0 84.5880 7.57387   1
  -8  -6   0 5.68493 5.12714   1
  -9   7   0 65.7556 6.92285   2
   8  -7   0 21.5182 4.06812   3
  -8   7   0 22.7290 3.84408   2
   7  -7   0 89.6924 5.89997   3
  -7   7   0 75.4422 5.52514   2
   6  -7   0 21.3107 3.09683   3
  -6   7   0 25.8833 3.03064   2
   5  -7   0 182.490 7.12183   3
  -5   7   0 174.029 6.91465   2
   4  -7   0 121.802 5.35005   3
  -4   7   0 112.914 5.11684   2
  -3   7   0 233.837 7.77178   2
   2  -7   0 147.547 5.64508   3
   2  -7   0 138.734 4.89885   1
  -2   7   0 145.601 5.23242   2
   1  -7   0 257.196 8.48678   3
   1  -7   0 247.432 7.99842   1
  -1   7   0 256.836 7.92771   2
   0  -7   0 165.006 5.73775   1
   0  -7   0 152.459 5.85997   3
   0   7   0 152.893 5.18215   2
  -1  -7   0 71.1803 3.84792   1
  -1  -7   0 70.5979 3.81598   3
   1   7   0 72.0937 3.05462   2
  -2  -7   0 431.803 13.2355   1
  -2  -7   0 409.946 12.2628   2
   2   7   0 413.372 14.1739   3
  -3  -7   0 200.325 6.66844   2
  -3  -7   0 211.797 7.90997   1
   3   7   0 203.183 7.72252   3
  -4  -7   0 3.31360 2.51129   2
  -4  -7   0 1.90748 2.42276   1
   4   7   0 -0.8436 2.51103   3
  -5  -7   0 36.0486 5.11542   1
   5   7   0 41.5843 5.00029   3
  -6  -7   0 0.41009 6.28796   1
   6   7   0 7.47057 3.96280   3
  -7  -7   0 61.6337 7.59023   1
   8  -8   0 2.95695 4.19079   3
  -8   8   0 7.80423 3.76586   2
   7  -8   0 65.9915 5.78071   3
  -7   8   0 65.4203 5.60793   2
   6  -8   0 -0.3298 2.65291   3
  -6   8   0 -1.7561 2.47820   2
   5  -8   0 55.8615 4.51749   3
  -5   8   0 55.4783 4.21805   2
   4  -8   0 113.985 5.68833   3
  -4   8   0 126.668 5.43039   2
   3  -8   0 45.0587 3.76478   3
   2  -8   0 19.6138 2.40096   1
   2  -8   0 16.1265 2.37739   3
  -2   8   0 14.9987 2.01804   2
   1  -8   0 473.560 14.2356   3
   1  -8   0 443.052 13.5559   1
  -1   8   0 439.031 13.3462   2
   0  -8   0 663.856 19.4463   3
   0  -8   0 650.813 19.0592   1
   0   8   0 626.487 18.5506   2
  -1  -8   0 22.9755 4.32126   1
  -1  -8   0 30.1585 3.49311   3
   1   8   0 25.8435 2.37367   2
  -2  -8   0 446.875 14.2208   1
   2   8   0 444.464 14.2496   3
  -3  -8   0 90.7123 5.58987   1
   3   8   0 97.6068 5.64689   3
  -4  -8   0 10.7909 3.34464   1
   4   8   0 4.28113 2.90772   3
  -5  -8   0 -2.2186 3.62164   1
   5   8   0 3.86823 3.43029   3
  -6  -8   0 -0.5712 4.18086   1
  -7  -8   0 60.6493 8.49023   1
   8  -9   0 7.34328 4.42190   3
  -8   9   0 17.6900 4.27174   2
   7  -9   0 11.6550 3.85384   3
  -7   9   0 10.5064 3.94376   2
   6  -9   0 79.7666 6.00335   3
  -6   9   0 78.0028 5.78148   2
   5  -9   0 15.5838 3.23319   3
  -5   9   0 11.2267 2.80214   2
   4  -9   0 244.747 9.41549   3
  -4   9   0 252.661 8.99561   2
   3  -9   0 45.7082 4.11693   3
  -3   9   0 31.5103 3.70682   2
   2  -9   0 42.2581 3.24692   1
   2  -9   0 41.2085 3.97803   3
  -2   9   0 37.5074 3.38489   2
   1  -9   0 276.677 9.21274   1
   1  -9   0 281.280 9.84242   3
  -1   9   0 277.161 8.93480   2
   0  -9   0 30.3736 3.60240   3
   0  -9   0 37.9376 5.27623   1
   0   9   0 33.2699 2.79907   2
  -1  -9   0 22.6900 2.98617   1
   1   9   0 28.6450 3.51204   3
   1   9   0 20.0162 2.77641   2
  -2  -9   0 35.1345 4.40227   1
   2   9   0 40.5849 4.44664   3
  -3  -9   0 12.5043 3.31485   1
   3   9   0 10.9880 3.29768   3
  -4  -9   0 176.347 8.81481   1
  -5  -9   0 35.4589 5.08199   1
   5   9   0 25.9091 4.61587   3
  -6  -9   0 29.2547 5.29679   1
   8 -10   0 6.19940 4.40717   3
   7 -10   0 65.7995 7.24588   3
  -7  10   0 65.2547 6.76443   2
   6 -10   0 11.4556 3.82424   3
  -6  10   0 17.0319 3.74878   2
   5 -10   0 57.1264 5.63555   3
  -5  10   0 63.9384 5.25309   2
   4 -10   0 0.18899 2.79161   3
  -4  10   0 -1.7807 2.64961   2
   3 -10   0 4.75208 2.75022   3
  -3  10   0 5.27496 2.53056   2
   2 -10   0 37.0059 3.74078   1
   2 -10   0 28.3972 4.30445   3
  -2  10   0 35.4087 3.90207   2
   1 -10   0 13.2586 2.79935   3
   1 -10   0 11.2095 3.05919   1
  -1  10   0 12.9740 2.17690   2
   0 -10   0 7.06286 2.77785   3
   0 -10   0 9.39887 2.81238   1
   0  10   0 5.04228 1.97564   2
  -1 -10   0 7.62255 2.79963   1
   1  10   0 8.55806 3.20275   3
  -2 -10   0 52.1975 5.29285   1
   2  10   0 47.2969 5.34960   3
  -3 -10   0 9.76629 3.73388   1
   3  10   0 4.84109 3.92124   3
  -4 -10   0 50.6444 6.90612   1
   4  10   0 53.0922 6.97190   3
  -5 -10   0 23.6311 5.35161   1
   7 -11   0 7.23749 4.69051   3
  -7  11   0 13.0983 4.41812   2
   6 -11   0 22.5554 4.76127   3
  -6  11   0 25.6747 4.37651   2
   5 -11   0 22.0862 4.45701   3
  -5  11   0 32.1542 4.11422   2
   4 -11   0 55.1638 5.84466   3
  -4  11   0 46.7661 5.34364   2
   3 -11   0 10.1366 3.43993   3
  -3  11   0 7.22257 2.91681   2
   2 -11   0 91.7568 6.22150   3
  -2  11   0 109.461 5.59366   2
   1 -11   0 199.250 8.02603   1
   1 -11   0 194.227 8.51240   3
   0 -11   0 10.6000 3.21906   1
   0 -11   0 15.5067 3.33352   3
  -1 -11   0 25.3364 3.65324   1
   1  11   0 28.2496 4.36945   3
  -2 -11   0 15.3669 3.96381   1
   2  11   0 18.5329 4.30910   3
   3  11   0 5.46898 5.04554   3
  -4 -11   0 20.9310 4.95094   1
   4  11   0 7.20099 4.95963   3
  -6  12   0 26.1503 4.44434   2
   5 -12   0 207.869 10.6376   3
   4 -12   0 25.7495 4.53550   3
  -4  12   0 19.3603 4.03984   2
   3 -12   0 1.14727 5.70146   3
  -3  12   0 -1.3806 3.29183   2
   2 -12   0 3.37920 3.78600   3
   1 -12   0 10.4196 3.65612   3
   0 -12   0 18.5979 3.81922   1
   0  12   0 17.8845 4.81654   3
  -1 -12   0 11.6324 4.08773   1
   1  12   0 11.0350 6.01654   3
   2  12   0 44.5367 5.76250   3
  -3 -12   0 17.0346 5.22087   1
   3  12   0 2.91036 5.52763   3
   5 -13   0 -6.3560 4.96881   3
  -5  13   0 4.86691 3.96920   2
   4 -13   0 0.46154 4.59080   3
   3 -13   0 1.14605 4.31241   3
   2 -13   0 23.9741 4.68067   3
   1 -13   0 45.9321 6.91913   3
   0  13   0 -3.3937 4.62120   3
  -1 -13   0 5.96289 4.94462   1
   1  13   0 -2.2515 4.97938   3
  -2 -13   0 15.3786 5.44508   1
   2  13   0 2.01198 5.07968   3
   2 -14   0 26.5460 5.57811   3
  -1  14   0 28.4005 6.13081   3
   0  14  -1 11.5348 5.63259   3
  -1  14  -1 -2.0734 5.17775   3
   2 -14   1 3.62210 4.92539   3
   3 -14   1 15.2003 5.37860   3
   2  13  -1 29.3042 5.72841   3
  -2 -13   1 37.5465 5.51433   1
   1  13  -1 -2.9099 4.72586   3
   0  13  -1 15.8930 4.91898   3
   0 -13   1 16.5955 4.48350   1
   1 -13   1 66.1887 7.04012   3
   2 -13   1 44.1028 6.71261   3
   3 -13   1 39.7540 5.17020   3
   4 -13   1 1.43322 4.54941   3
  -5  13  -1 24.3202 4.33687   2
   5 -13   1 33.2187 5.67855   3
   4  12  -1 1.57127 4.97746   3
  -4 -12   1 21.3688 5.49627   1
   3  12  -1 8.48521 5.51629   3
  -3 -12   1 14.0011 4.87320   1
   2  12  -1 3.96753 4.53431   3
  -2 -12   1 2.84383 4.15379   1
   1  12  -1 48.3785 6.94251   3
  -1 -12   1 45.9257 5.90003   1
   0  12  -1 8.41320 4.12485   3
   0 -12   1 4.74677 3.64886   1
   1 -12   1 3.68066 3.29798   3
   1 -12   1 4.73440 3.51506   1
   2 -12   1 90.9411 6.84575   3
  -3  12  -1 47.7775 5.33438   2
   3 -12   1 38.1187 4.63314   3
  -4  12  -1 14.8853 3.75640   2
   4 -12   1 12.8450 4.37538   3
  -5  12  -1 0.68222 3.69577   2
   5 -12   1 2.43516 4.31787   3
  -6  12  -1 1.55399 3.73297   2
   6 -12   1 11.4549 4.95180   3
   5  11  -1 -0.3342 4.88817   3
  -5 -11   1 3.01261 5.17984   1
   4  11  -1 -5.6882 4.96911   3
  -4 -11   1 0.22532 4.65505   1
   3  11  -1 51.1423 7.27919   3
  -3 -11   1 55.8158 6.57862   1
   2  11  -1 7.53907 3.84758   3
  -2 -11   1 6.46246 3.43382   1
   1  11  -1 109.817 6.87435   3
  -1 -11   1 103.066 6.40094   1
   0 -11   1 21.2071 3.30218   1
   1 -11   1 17.1651 3.31271   3
   1 -11   1 23.7606 3.37723   1
  -2  11  -1 -2.8590 2.38338   2
   2 -11   1 0.01304 2.76956   3
   2 -11   1 3.90489 2.88991   1
  -3  11  -1 71.3893 5.23830   2
   3 -11   1 79.5366 5.83820   3
  -4  11  -1 0.88006 2.93833   2
   4 -11   1 2.86443 3.44975   3
  -5  11  -1 129.741 7.07838   2
   5 -11   1 126.536 8.00402   3
  -6  11  -1 48.8148 6.29327   2
   6 -11   1 27.1616 5.02478   3
  -7  11  -1 2.71405 4.01335   2
   7 -11   1 1.49074 4.25882   3
  -6 -10   1 56.5347 6.46753   1
   5  10  -1 9.21227 5.12678   3
  -5 -10   1 19.5347 5.04979   1
   4  10  -1 19.3686 4.45895   3
  -4 -10   1 21.8925 4.53554   1
   3  10  -1 39.2238 6.01094   3
  -3 -10   1 53.2600 5.66153   1
   2  10  -1 13.0855 3.20337   3
  -2 -10   1 2.39891 2.98951   1
   1  10  -1 6.89167 3.06464   3
  -1 -10   1 -0.7016 2.68093   1
   0 -10   1 23.8360 3.04096   1
   0 -10   1 25.3871 3.81052   3
  -1  10  -1 1.30350 1.83656   2
   1 -10   1 1.47080 2.38366   3
   1 -10   1 2.18878 2.36328   1
   2 -10   1 67.6220 4.13397   1
   2 -10   1 69.0556 4.88401   3
  -3  10  -1 4.69195 2.42107   2
   3 -10   1 4.17777 2.76281   3
   3 -10   1 8.44853 2.32338   1
  -4  10  -1 9.99795 2.78428   2
   4 -10   1 10.4885 3.06015   3
  -5  10  -1 53.2393 4.97485   2
   5 -10   1 53.7038 5.67319   3
  -6  10  -1 12.7734 3.54394   2
   6 -10   1 6.42308 3.81167   3
  -7  10  -1 13.1541 3.93392   2
   8 -10   1 11.7507 4.63974   3
   6   9  -1 16.0593 5.06553   3
  -6  -9   1 11.6329 4.88440   1
   5   9  -1 19.3050 4.23365   3
   4   9  -1 83.8239 6.40821   3
  -4  -9   1 83.9702 6.44879   1
   3   9  -1 63.3367 5.24781   3
  -3  -9   1 58.2676 5.17308   1
   2   9  -1 247.194 9.26236   3
  -2  -9   1 236.238 9.06026   1
   1   9  -1 146.624 6.83503   3
  -1  -9   1 153.739 6.44595   1
   0   9  -1 1.90944 1.46473   2
   0  -9   1 1.73406 2.04312   3
  -1   9  -1 205.985 6.86228   2
   1  -9   1 202.361 7.15254   1
   1  -9   1 199.788 7.73508   3
  -2   9  -1 153.794 5.85049   2
   2  -9   1 153.902 5.75889   1
   2  -9   1 154.406 6.64331   3
  -3   9  -1 40.2438 3.66420   2
   3  -9   1 36.2080 4.09437   3
   3  -9   1 35.7685 3.11358   1
  -4   9  -1 1.06978 2.13203   2
   4  -9   1 -0.8895 2.36679   3
  -5   9  -1 65.0594 4.83244   2
   5  -9   1 60.1354 5.08059   3
  -6   9  -1 8.93089 2.98789   2
   6  -9   1 10.7295 3.37053   3
  -7   9  -1 13.5990 3.80745   2
   7  -9   1 17.0041 4.02155   3
  -8   9  -1 37.1073 5.05434   2
  -7  -8   1 -0.7740 4.85495   1
   6   8  -1 -4.8660 3.99669   3
  -6  -8   1 3.20223 4.12362   1
   5   8  -1 40.0767 5.35079   3
  -5  -8   1 39.1782 5.67070   1
   4   8  -1 165.451 7.49721   3
  -4  -8   1 167.243 7.59188   1
   3   8  -1 12.6350 2.97091   3
  -3  -8   1 14.4947 2.87511   1
   2   8  -1 110.361 5.41921   3
  -2  -8   1 113.075 5.50797   1
   1   8  -1 54.5701 4.10673   3
  -1  -8   1 53.1406 4.46769   1
   0   8  -1 466.101 14.3401   2
   0  -8   1 504.469 15.0583   1
   0  -8   1 526.460 15.4092   3
  -1   8  -1 336.440 10.2634   2
   1  -8   1 345.727 11.0455   3
   1  -8   1 336.770 10.5343   1
  -2   8  -1 7.89636 1.68988   2
   2  -8   1 5.50659 1.56647   1
   2  -8   1 6.22873 1.99151   3
  -3   8  -1 492.613 14.7896   2
   3  -8   1 478.320 14.4161   1
   3  -8   1 497.619 15.2573   3
  -4   8  -1 0.83781 1.92546   2
   4  -8   1 2.64453 2.22577   3
   4  -8   1 2.71620 1.73261   1
  -5   8  -1 3.26226 2.23405   2
   5  -8   1 4.20775 2.44876   3
  -6   8  -1 11.0975 2.64487   2
   6  -8   1 13.0406 2.99707   3
  -7   8  -1 7.05652 3.08040   2
   7  -8   1 6.30019 3.34595   3
  -8   8  -1 9.02472 3.70744   2
   8  -8   1 5.09680 4.75012   3
  -7  -7   1 2.87335 4.42037   1
   6   7  -1 -0.1246 3.41196   3
  -6  -7   1 2.24478 3.69725   1
   5   7  -1 0.79559 2.81439   3
  -5  -7   1 2.51119 2.87807   1
   4   7  -1 9.06409 2.51713   3
  -4  -7   1 5.37898 2.55803   1
   3   7  -1 96.2133 5.08670   3
  -3  -7   1 98.2837 4.94501   1
   2   7  -1 189.138 7.03052   3
   1   7  -1 15.7890 2.27367   3
  -1  -7   1 13.0635 2.00393   1
   0   7  -1 251.487 7.66923   2
   0  -7   1 260.864 8.24779   1
   0  -7   1 254.949 8.46090   3
  -1   7  -1 991.128 28.3480   2
   1  -7   1 999.672 28.5387   1
   1  -7   1 1039.27 29.0313   3
  -2   7  -1 174.544 5.92015   2
   2  -7   1 171.533 5.79084   1
   2  -7   1 176.149 6.36396   3
  -3   7  -1 4.48722 1.59270   2
   3  -7   1 4.90409 1.75674   3
   3  -7   1 3.87346 1.32611   1
  -4   7  -1 60.1581 3.70546   2
   4  -7   1 63.4186 3.98310   3
   4  -7   1 59.0516 3.12652   1
  -5   7  -1 34.6208 3.53350   2
   5  -7   1 41.1450 3.70270   3
  -6   7  -1 46.9934 4.17711   2
   6  -7   1 43.8698 4.09569   3
  -7   7  -1 11.3782 2.94240   2
   7  -7   1 6.99401 2.88366   3
  -8   7  -1 34.4294 4.17073   2
  -9   7  -1 3.22818 3.83481   2
  -8  -6   1 13.7514 4.98271   1
  -7  -6   1 -0.8447 5.02019   1
   6   6  -1 48.2884 5.36253   3
  -6  -6   1 45.2158 5.30661   1
   5   6  -1 -2.6104 2.24395   3
  -5  -6   1 1.57861 2.39830   1
  -5  -6   1 -1.3286 1.87706   2
   4   6  -1 67.9485 6.35943   3
  -4  -6   1 64.1281 2.97655   2
  -4  -6   1 72.1262 4.39768   1
   3   6  -1 195.207 7.31121   3
  -3  -6   1 213.765 7.62138   1
   2   6  -1 41.7328 2.87657   3
  -2  -6   1 39.4211 2.97693   1
   1   6  -1 24.8004 2.47812   3
  -1  -6   1 19.1933 2.29530   1
   0   6  -1 293.139 8.96951   2
   0  -6   1 313.668 9.63535   3
   0  -6   1 320.917 9.48709   1
  -1   6  -1 356.138 10.4937   2
   1  -6   1 360.172 10.9684   3
   1  -6   1 358.050 10.6459   1
  -2   6  -1 23.3102 2.04695   2
   2  -6   1 26.2998 2.31694   3
   2  -6   1 27.1755 1.93629   1
  -3   6  -1 320.220 9.90057   2
   3  -6   1 319.957 10.0969   3
   3  -6   1 318.194 9.55385   1
  -4   6  -1 17.8947 2.48542   2
   4  -6   1 19.9583 2.55731   3
   4  -6   1 17.3065 2.09460   1
  -5   6  -1 65.3430 3.87814   2
   5  -6   1 62.7963 3.31836   1
   5  -6   1 57.3599 4.26034   3
  -6   6  -1 46.2365 3.89152   2
   6  -6   1 48.3399 3.54764   1
   6  -6   1 52.9254 4.10663   3
  -7   6  -1 51.9186 4.68580   2
   7  -6   1 47.2090 4.84202   3
  -8   6  -1 88.0377 6.96625   2
  -9   6  -1 68.4223 6.53393   2
  -8  -5   1 1.34376 4.19850   1
   7   5  -1 16.0280 3.78308   3
  -7  -5   1 12.7936 3.77396   1
   6   5  -1 89.8263 5.21248   3
  -6  -5   1 70.4927 5.49733   1
  -6  -5   1 73.3041 3.95839   2
   5   5  -1 117.989 8.08967   3
  -5  -5   1 134.283 4.91393   2
  -5  -5   1 143.859 6.27753   1
   4   5  -1 48.7089 3.38595   3
  -4  -5   1 41.3638 3.42192   1
  -4  -5   1 39.0907 2.31436   2
   3   5  -1 0.73693 1.48383   3
  -3  -5   1 0.25379 0.82192   2
  -3  -5   1 0.81574 1.51789   1
   2   5  -1 1.39540 1.27805   3
  -2  -5   1 1.98295 1.33872   1
   1   5  -1 14.3464 1.65003   3
  -1  -5   1 14.1770 1.91963   1
   0  -5   1 24.1091 1.86709   1
   0  -5   1 26.2692 2.02152   3
  -1   5  -1 257.077 7.65163   2
   1  -5   1 256.042 8.01593   3
   1  -5   1 258.499 7.75352   1
  -2   5  -1 90.9693 3.46162   2
   2  -5   1 90.9686 3.63298   3
   2  -5   1 88.5259 3.22732   1
  -3   5  -1 47.0490 2.61847   2
   3  -5   1 47.9488 2.71095   3
   3  -5   1 48.7528 2.31103   1
  -4   5  -1 217.939 7.34742   2
   4  -5   1 220.176 7.31335   3
   4  -5   1 219.306 6.93977   1
  -5   5  -1 15.2783 1.97129   2
   5  -5   1 11.6529 1.93604   3
   5  -5   1 12.9125 1.67688   1
  -6   5  -1 327.634 10.6685   2
   6  -5   1 316.309 10.0590   1
   6  -5   1 309.825 11.1787   3
  -7   5  -1 82.9330 5.14306   2
   7  -5   1 97.4120 5.38807   3
  -8   5  -1 9.11711 2.97003   2
  -9   5  -1 37.7869 4.33325   2
   9   4  -1 1.20559 4.32711   1
   9   4  -1 11.1903 4.66016   4
  -8  -4   1 67.8878 8.85693   1
   7   4  -1 7.32601 3.04493   3
  -7  -4   1 6.62807 3.18968   1
  -7  -4   1 10.2921 2.45565   2
   6   4  -1 64.3671 4.56026   3
  -6  -4   1 59.0255 4.83567   1
  -6  -4   1 58.8598 3.54161   2
   5   4  -1 303.547 10.0105   3
  -5  -4   1 299.394 9.39053   2
  -5  -4   1 311.051 10.4197   1
   4   4  -1 915.183 26.0498   3
  -4  -4   1 896.455 25.5137   2
  -4  -4   1 908.272 26.3193   1
   3   4  -1 220.925 7.40768   3
  -3  -4   1 230.000 7.62492   1
  -3  -4   1 235.616 6.84692   2
   2   4  -1 438.521 13.2128   3
  -2  -4   1 460.906 13.3243   1
   1   4  -1 134.043 4.65666   3
  -1  -4   1 132.643 4.58015   1
   0   4  -1 25.3554 1.25704   2
   0  -4   1 28.9039 1.84422   3
   0  -4   1 28.6362 1.76622   1
  -1   4  -1 101.345 3.43989   2
   1  -4   1 105.546 3.50245   1
   1  -4   1 104.833 3.71753   3
  -2   4  -1 126.787 4.34262   2
   2  -4   1 132.014 4.20448   1
   2  -4   1 130.076 4.46566   3
  -3   4  -1 4.46924 1.14135   2
   3  -4   1 6.91183 1.21519   3
   3  -4   1 6.70800 1.03029   1
  -4   4  -1 -0.4223 1.13685   2
   4  -4   1 1.23512 1.19596   3
   4  -4   1 3.03073 1.09417   1
  -5   4  -1 113.654 4.68353   2
   5  -4   1 107.806 4.24400   1
   5  -4   1 109.954 4.48246   3
  -6   4  -1 78.4138 4.14671   2
   6  -4   1 71.7150 3.68463   1
   6  -4   1 69.4238 3.95170   3
  -7   4  -1 147.134 6.40382   2
   7  -4   1 151.389 6.37670   3
   7  -4   1 142.555 6.05162   1
  -8   4  -1 44.1041 4.63579   2
   8  -4   1 28.9649 5.33253   1
  -9   4  -1 44.8866 5.77410   2
   9   3  -1 -0.7566 4.08622   4
   9   3  -1 1.13740 3.84119   1
  -8  -3   1 107.748 6.05373   2
   7   3  -1 296.461 10.3350   3
  -7  -3   1 284.096 10.8756   1
  -7  -3   1 297.430 9.93264   2
   6   3  -1 30.9689 3.58401   3
  -6  -3   1 25.9420 2.88998   2
  -6  -3   1 27.0691 4.02790   1
   5   3  -1 0.17243 1.77274   3
  -5  -3   1 0.96146 1.76248   1
  -5  -3   1 -0.3444 1.28046   2
   4   3  -1 17.9554 2.28718   3
  -4  -3   1 17.3998 1.78806   2
  -4  -3   1 21.5785 2.43272   1
   3   3  -1 25.2136 2.03788   3
  -3  -3   1 24.6877 1.50537   2
  -3  -3   1 26.4664 2.18743   1
   2   3  -1 216.488 7.14177   3
  -2  -3   1 235.912 7.26106   1
  -2  -3   1 243.263 6.70141   2
   1   3  -1 269.904 8.06188   3
  -1  -3   1 268.250 8.05083   1
   0   3  -1 38.0107 1.49285   2
   0  -3   1 44.9774 1.96160   1
   0  -3   1 44.5484 1.97566   3
  -1   3  -1 1559.14 44.3961   2
   1  -3   1 1639.51 44.5444   3
   1  -3   1 1637.78 44.4171   1
  -2   3  -1 0.41402 0.84999   2
   2  -3   1 0.24239 0.83406   3
  -3   3  -1 107.337 3.86794   2
   3  -3   1 106.263 3.75033   3
   3  -3   1 107.387 3.69327   1
  -4   3  -1 88.9581 3.65492   2
   4  -3   1 91.3715 3.51383   3
   4  -3   1 88.9681 3.47169   1
   5  -3   1 62.6825 3.20920   1
   5  -3   1 64.8287 3.22793   3
  -6   3  -1 180.330 6.73923   2
   6  -3   1 174.960 6.40962   3
   6  -3   1 179.612 6.48071   1
  -7   3  -1 24.6946 3.47520   2
   7  -3   1 24.7613 2.69043   3
   7  -3   1 33.1449 3.85716   1
  -8   3  -1 0.95611 2.40981   2
   8  -3   1 1.20265 2.90853   1
  -9   3  -1 94.4934 6.43226   2
   9   2  -1 -2.3836 3.63145   4
   9   2  -1 6.99288 3.63189   1
  -9  -2   1 -2.8687 3.15194   2
   8   2  -1 7.43961 3.16983   1
   8   2  -1 9.56463 3.35855   4
  -8  -2   1 4.84697 2.73413   2
   7   2  -1 112.208 5.74710   3
  -7  -2   1 112.436 5.30035   2
  -7  -2   1 100.960 5.98086   1
   6   2  -1 1.23543 1.86085   3
  -6  -2   1 -1.4383 2.03092   1
  -6  -2   1 1.07918 1.54464   2
   5   2  -1 5.31939 1.73771   3
  -5  -2   1 5.35081 1.80077   1
  -5  -2   1 7.15106 1.44615   2
   4   2  -1 31.1796 2.35884   3
  -4  -2   1 31.1133 2.37399   1
  -4  -2   1 30.8784 1.97141   2
   3   2  -1 565.318 15.9858   3
  -3  -2   1 533.045 16.0330   1
  -3  -2   1 566.354 15.7108   2
   2   2  -1 259.840 8.42653   3
  -2  -2   1 299.054 8.18086   2
  -2  -2   1 299.891 8.59867   1
   1   2  -1 756.471 21.2642   3
  -1  -2   1 767.477 21.2925   1
   0  -2   1 1979.40 54.1499   1
   0  -2   1 1962.54 54.1742   3
  -1   2  -1 790.257 22.2680   2
   1  -2   1 795.349 22.2773   3
   1  -2   1 824.990 22.2741   1
  -2   2  -1 393.468 10.9549   2
   2  -2   1 365.623 10.8073   3
  -3   2  -1 190.933 6.03154   2
   3  -2   1 194.457 5.95026   1
   3  -2   1 187.023 5.84054   3
  -4   2  -1 180.840 6.09233   2
   4  -2   1 180.985 5.99498   1
   4  -2   1 186.149 5.86383   3
  -5   2  -1 219.004 7.45273   2
   5  -2   1 226.858 7.44631   1
   5  -2   1 223.503 7.16776   3
  -6   2  -1 4.69982 1.74992   2
   6  -2   1 0.94112 1.73049   1
   6  -2   1 5.38911 1.65886   3
  -7   2  -1 15.0150 2.42495   2
   7  -2   1 12.5210 2.30992   3
   7  -2   1 13.7337 2.53916   1
  -8   2  -1 -1.4953 2.43941   2
   8  -2   1 5.78166 2.90696   1
  -9   2  -1 15.3162 3.25367   2
   9  -2   1 11.6079 4.20180   1
   9   1  -1 32.3624 4.19316   1
   9   1  -1 34.9123 4.31964   4
  -9  -1   1 37.9749 5.20445   2
   8   1  -1 24.5055 3.54050   4
   8   1  -1 21.5908 3.34201   1
  -8  -1   1 23.1396 2.93820   2
   7   1  -1 6.57692 2.57992   3
  -7  -1   1 4.19180 2.04215   2
   6   1  -1 232.471 8.02921   3
  -6  -1   1 212.831 9.39911   2
  -6  -1   1 246.787 8.38949   1
   5   1  -1 227.585 7.46312   3
  -5  -1   1 221.251 7.27852   2
  -5  -1   1 223.701 7.66837   1
   4   1  -1 313.647 9.53505   3
  -4  -1   1 314.848 9.39385   2
  -4  -1   1 309.227 9.60808   1
   3   1  -1 1528.41 42.3778   3
  -3  -1   1 1544.95 42.2470   2
  -3  -1   1 1507.34 42.4251   1
   2   1  -1 9574.71 262.345   3
  -2  -1   1 9999.99 261.861   2
  -2  -1   1 9166.08 262.229   1
   1   1  -1 13.3851 1.06768   3
  -1  -1   1 12.2962 1.03926   1
  -1  -1   1 15.9772 0.71743   2
  -1   1  -1 2343.68 62.2794   2
  -1   1  -1 1997.10 62.2760   3
   1  -1   1 2323.33 62.2740   1
   1  -1   1 2415.79 62.1638   3
  -2   1  -1 261.015 7.52261   2
   2  -1   1 256.959 7.76523   1
   2  -1   1 256.625 7.67468   4
   2  -1   1 241.513 7.28894   3
  -3   1  -1 143.766 4.60351   2
   3  -1   1 141.503 4.58374   1
   3  -1   1 118.330 4.97413   3
   3  -1   1 139.454 4.47338   4
  -4   1  -1 29.4968 2.07814   2
   4  -1   1 30.6018 2.16389   1
   4  -1   1 32.2540 2.03907   4
   4  -1   1 29.7914 1.94227   3
  -5   1  -1 325.380 10.3298   2
   5  -1   1 326.616 9.98187   3
   5  -1   1 336.896 10.4069   1
   5  -1   1 330.660 10.2531   4
  -6   1  -1 24.4462 2.86457   2
   6  -1   1 26.5205 2.85213   4
   6  -1   1 21.4020 3.07512   1
   6  -1   1 25.6461 2.66298   3
  -7   1  -1 3.44961 2.04883   2
   7  -1   1 6.58584 2.31624   1
  -8   1  -1 74.1819 5.12977   2
   8  -1   1 66.5635 5.47255   1
  -9   1  -1 91.4121 6.38276   2
   9  -1   1 89.0378 6.98401   1
   9   0  -1 42.2716 5.65539   1
  -9   0   1 44.6726 5.08406   2
   8   0  -1 11.8154 2.88861   4
   8   0  -1 6.94142 2.79522   1
   8   0  -1 9.35971 2.98580   3
  -8   0   1 7.33696 2.48924   2
   7   0  -1 2.25803 2.23690   4
   7   0  -1 4.31467 2.24601   1
  -7   0   1 0.35617 1.84269   2
   6   0  -1 20.9008 2.34704   3
  -6   0   1 21.3130 2.58862   2
   5   0  -1 143.942 5.24890   3
  -5   0   1 144.172 5.16935   2
  -5   0   1 141.820 5.30152   1
   4   0  -1 210.570 6.65811   3
  -4   0   1 204.683 6.62721   1
  -4   0   1 205.827 6.53921   2
   3   0  -1 0.09642 0.85329   3
  -3   0   1 0.26667 0.77447   2
  -3   0   1 1.61318 0.83882   1
   2   0  -1 3655.04 98.8728   3
  -2   0   1 3570.84 98.7648   2
  -2   0   1 3588.70 98.7626   1
   1   0  -1 1206.24 33.1108   3
  -1   0   1 1196.76 33.0195   1
  -1   0  -1 100.642 3.12554   2
  -1   0  -1 93.3273 3.18828   1
  -2   0  -1 564.282 15.8604   1
  -2   0  -1 570.038 15.7608   2
   2   0   1 539.831 15.5467   3
  -3   0  -1 113.465 3.85575   2
  -3   0  -1 110.467 4.01165   1
   3   0   1 105.413 3.61108   3
  -4   0  -1 333.436 10.0077   2
   4   0   1 323.762 9.70143   3
  -5   0  -1 125.329 4.95569   2
   5   0   1 132.270 5.20655   1
   5   0   1 129.709 4.73068   3
   5   0   1 130.154 5.04991   4
  -6   0  -1 30.9870 3.04374   2
   6   0   1 31.6141 3.44823   1
   6   0   1 31.4225 2.94091   3
   6   0   1 32.5016 3.22403   4
  -7   0  -1 3.10282 2.09771   2
   7   0   1 0.18217 2.22245   4
   7   0   1 -3.6103 2.24992   1
  -8   0  -1 20.9725 3.04149   2
   8   0   1 16.8712 3.29033   1
  -9   0  -1 3.60277 3.08757   2
   9   0   1 -2.7486 3.71850   1
   9  -1  -1 5.00803 4.28909   1
  -9   1   1 4.77780 3.40820   2
   8  -1  -1 4.69088 2.78277   1
   8  -1  -1 1.46275 2.86574   3
  -8   1   1 7.25161 2.44163   2
   7  -1  -1 27.5186 3.66612   3
   7  -1  -1 27.1157 3.47429   1
   7  -1  -1 27.8286 3.33791   4
  -7   1   1 26.5406 2.70467   2
   6  -1  -1 229.946 7.70745   1
   6  -1  -1 223.665 7.88207   3
   6  -1  -1 223.050 7.51899   4
  -6   1   1 233.591 7.85910   2
   5  -1  -1 75.1762 3.25583   4
   5  -1  -1 77.1444 3.53754   3
   5  -1  -1 76.4755 3.36357   1
  -5   1   1 74.0571 3.39015   2
   4  -1  -1 65.3318 2.89575   3
  -4   1   1 61.6275 2.83439   2
   3  -1  -1 475.498 13.6056   3
  -3   1   1 467.947 13.5545   2
  -2   1   1 1508.69 41.6386   2
   1  -1  -1 3715.46 101.108   3
  -1   1   1 3668.03 101.050   2
   0  -1  -1 37.2804 1.40548   3
   0  -1  -1 39.3842 1.41354   2
   0  -1  -1 36.5714 1.41469   1
  -1  -1  -1 22.3906 1.25046   2
  -1  -1  -1 23.6201 1.46785   1
   1   1   1 18.2481 1.15751   3
  -2  -1  -1 3.27088 0.83961   2
  -2  -1  -1 3.29446 0.99598   1
   2   1   1 3.19871 0.68654   3
  -3  -1  -1 47.5532 2.29247   2
  -3  -1  -1 51.5637 2.66199   1
   3   1   1 46.3610 2.11888   3
  -4  -1  -1 0.80823 1.03245   2
  -4  -1  -1 1.05905 1.43287   1
   4   1   1 2.20732 1.09321   3
  -5  -1  -1 54.5872 4.13884   1
  -5  -1  -1 57.8395 3.19125   2
   5   1   1 57.8981 3.13023   3
  -6  -1  -1 90.7730 4.53564   2
   6   1   1 96.1984 4.88109   4
   6   1   1 94.4212 5.02214   1
   6   1   1 93.1866 4.36990   3
  -7  -1  -1 65.1417 4.53574   2
   7   1   1 62.9690 5.04818   1
   7   1   1 71.7698 4.81558   4
  -8  -1  -1 73.4241 5.13990   2
   8   1   1 69.8593 5.66281   1
   8   1   1 66.5756 5.43942   4
  -9  -1  -1 8.07183 3.52134   2
   9   1   1 3.54756 3.85838   1
  -9   2   1 2.74264 3.77142   2
   8  -2  -1 34.6925 4.36832   3
   8  -2  -1 27.4306 3.26553   1
  -8   2   1 31.4885 3.91086   2
   7  -2  -1 52.8005 4.01778   3
   7  -2  -1 41.0783 3.41749   1
  -7   2   1 40.1798 3.75307   2
   6  -2  -1 158.533 5.97053   3
   6  -2  -1 155.888 5.58977   1
  -6   2   1 152.986 5.95972   2
   5  -2  -1 -1.4711 1.30387   3
   5  -2  -1 -0.3026 1.00020   1
  -5   2   1 0.47320 1.16350   2
   4  -2  -1 254.812 7.72905   1
   4  -2  -1 262.426 8.15208   3
  -4   2   1 261.817 8.10695   2
   3  -2  -1 132.976 4.50143   3
  -3   2   1 128.105 4.42189   2
   2  -2  -1 128.295 4.22063   3
  -2   2   1 127.417 4.14134   2
   1  -2  -1 38.7131 2.10342   3
  -1   2   1 36.7801 1.67222   2
   0  -2  -1 2153.88 58.4087   2
   0  -2  -1 2108.80 58.4593   3
   0  -2  -1 2119.17 58.4080   1
  -1  -2  -1 81.9215 3.06548   1
  -1  -2  -1 82.5707 2.80331   2
  -1  -2  -1 86.0056 2.86021   3
  -2  -2  -1 107.782 3.55635   2
  -2  -2  -1 102.448 3.85284   1
  -3  -2  -1 106.300 3.72087   2
  -3  -2  -1 105.206 4.13079   1
   3   2   1 98.6873 3.64461   3
  -4  -2  -1 511.361 15.6437   1
  -4  -2  -1 523.164 15.2303   2
   4   2   1 526.115 15.1177   3
  -5  -2  -1 103.452 5.00810   1
  -5  -2  -1 102.887 4.31798   2
   5   2   1 99.0784 4.29671   3
  -6  -2  -1 20.8436 3.13276   1
  -6  -2  -1 23.4493 2.95902   2
   6   2   1 24.0032 3.19919   3
  -7  -2  -1 112.562 5.53637   2
   7   2   1 112.738 6.10449   4
   7   2   1 109.115 6.24863   1
  -8  -2  -1 96.7714 6.03573   2
   8   2   1 93.7521 6.74376   1
   8   2   1 95.2594 6.32532   4
  -9  -2  -1 24.6315 3.92899   2
   9   2   1 22.2479 4.60741   4
   9   2   1 26.2949 4.56259   1
  -9   3   1 8.00844 2.91689   2
   8  -3  -1 -4.5652 2.80582   3
  -8   3   1 -0.9540 2.28698   2
   7  -3  -1 139.569 6.00355   3
   7  -3  -1 120.267 5.17979   1
  -7   3   1 130.543 5.85933   2
   6  -3  -1 93.2574 4.38096   3
   6  -3  -1 85.0147 3.77497   1
  -6   3   1 93.5365 4.43599   2
   5  -3  -1 144.965 5.02312   1
   5  -3  -1 156.993 5.65623   3
  -5   3   1 158.154 5.64682   2
   4  -3  -1 23.1308 2.15466   3
  -4   3   1 23.7168 2.32937   2
   3  -3  -1 435.817 12.6478   3
  -3   3   1 421.631 12.5434   2
   2  -3  -1 320.199 9.46870   3
  -2   3   1 314.509 9.32271   2
   1  -3  -1 1357.49 37.1854   3
  -1   3   1 1317.63 37.0071   2
   0  -3  -1 5.82004 0.97779   3
  -1  -3  -1 139.270 4.43699   3
  -1  -3  -1 138.648 4.28189   2
  -1  -3  -1 128.977 4.55796   1
  -2  -3  -1 51.8479 2.59285   1
  -2  -3  -1 50.1154 2.17527   2
   2   3   1 46.7943 2.31437   3
  -3  -3  -1 105.038 4.37385   1
  -3  -3  -1 114.244 3.91577   2
   3   3   1 108.526 4.06194   3
  -4  -3  -1 53.0135 3.37841   1
  -4  -3  -1 46.7881 2.68855   2
   4   3   1 48.1919 2.86898   3
  -5  -3  -1 4.76799 2.33748   1
  -5  -3  -1 4.14290 1.58624   2
   5   3   1 5.20817 1.82267   3
  -6  -3  -1 4.57236 2.57232   1
  -6  -3  -1 3.57025 1.97570   2
   6   3   1 4.36952 2.27310   3
  -7  -3  -1 82.2403 5.14096   2
  -8  -3  -1 4.80977 3.03417   2
   8   3   1 6.32692 3.71625   1
   8   3   1 13.2487 3.91111   4
  -9   4   1 -3.1866 2.73555   2
   8  -4  -1 21.5228 3.60373   3
  -8   4   1 22.6088 3.23262   2
   7  -4  -1 4.69484 2.41289   3
  -7   4   1 4.58534 2.01358   2
   6  -4  -1 27.1115 3.23381   3
  -6   4   1 24.9224 3.08674   2
   5  -4  -1 519.215 15.5091   3
  -5   4   1 508.602 15.7251   2
   4  -4  -1 660.659 19.1010   3
  -4   4   1 646.576 18.9953   2
   3  -4  -1 193.334 6.40088   3
  -3   4   1 191.107 6.27742   2
   2  -4  -1 518.232 14.9457   3
  -2   4   1 503.974 14.7232   2
   1  -4  -1 70.6404 2.58177   1
   1  -4  -1 69.9947 2.97591   3
  -1   4   1 70.5766 2.69661   2
   0  -4  -1 506.429 14.2740   2
   0  -4  -1 499.104 14.5153   3
   0  -4  -1 498.351 14.3847   1
  -1  -4  -1 41.0755 2.24214   3
  -1  -4  -1 43.4432 2.46082   1
  -1  -4  -1 43.9493 1.99482   2
  -2  -4  -1 5.00255 1.36434   1
  -2  -4  -1 5.08539 0.95471   2
   2   4   1 5.01058 1.20412   3
  -3  -4  -1 48.8869 3.07134   1
  -3  -4  -1 50.1711 2.43698   2
   3   4   1 49.2543 2.83331   3
  -4  -4  -1 23.8874 3.08146   1
  -4  -4  -1 23.8357 2.22656   2
   4   4   1 25.8535 2.75159   3
  -5  -4  -1 0.02273 1.71184   2
  -5  -4  -1 -1.4784 2.30689   1
   5   4   1 0.82683 1.98653   3
  -6  -4  -1 2.93855 2.12154   2
  -6  -4  -1 1.37881 2.74744   1
   6   4   1 4.66417 3.90928   3
  -7  -4  -1 160.893 7.13908   2
  -7  -4  -1 166.506 8.51634   1
   8   4   1 50.2588 6.77379   1
   8   4   1 47.7379 6.44849   4
  -9   5   1 41.8357 5.81294   2
   8  -5  -1 1.97839 3.05357   3
  -8   5   1 -0.7399 2.73056   2
   7  -5  -1 115.779 5.93461   3
  -7   5   1 119.960 5.97629   2
   6  -5  -1 32.7275 3.48789   3
  -6   5   1 27.3718 3.36089   2
   5  -5  -1 124.210 5.40777   3
  -5   5   1 132.380 5.36237   2
   4  -5  -1 246.490 8.38668   3
  -4   5   1 260.818 8.34290   2
   3  -5  -1 10.1400 1.62010   3
  -3   5   1 10.0377 1.47459   2
   2  -5  -1 13.1647 1.95621   3
  -2   5   1 13.9634 1.65649   2
   1  -5  -1 649.982 18.7960   3
   1  -5  -1 656.320 18.3788   1
  -1   5   1 641.750 18.4526   2
   0  -5  -1 315.603 9.75390   3
   0  -5  -1 323.405 9.63621   1
  -1  -5  -1 101.685 3.99092   3
  -1  -5  -1 105.784 3.67367   2
  -1  -5  -1 104.116 4.12223   1
  -2  -5  -1 74.6517 3.63567   1
  -2  -5  -1 72.9887 2.96765   2
   2   5   1 67.2288 3.46608   3
  -3  -5  -1 77.4163 3.33586   2
   3   5   1 82.6497 3.93603   3
  -4  -5  -1 44.0980 3.83883   1
  -4  -5  -1 47.3586 2.83939   2
   4   5   1 53.3428 3.47284   3
  -5  -5  -1 15.5376 2.43575   2
  -5  -5  -1 16.7317 3.07804   1
   5   5   1 16.4424 2.49484   3
  -6  -5  -1 8.74304 2.33398   2
  -6  -5  -1 6.13826 3.30728   1
  -7  -5  -1 4.11043 3.91145   1
   8   5   1 69.4761 7.71874   4
   8   5   1 65.6490 7.58858   1
  -9   6   1 103.541 7.55206   2
   8  -6  -1 -0.6957 3.39710   3
  -8   6   1 -2.5568 3.06850   2
   7  -6  -1 1.38260 2.68461   3
  -7   6   1 1.60259 2.33787   2
   6  -6  -1 180.900 7.33025   3
  -6   6   1 173.295 7.04617   2
   5  -6  -1 72.4708 4.28751   3
  -5   6   1 71.7197 4.10297   2
   4  -6  -1 126.501 6.19844   3
   3  -6  -1 19.2781 2.57971   3
  -3   6   1 22.4410 2.36806   2
   2  -6  -1 9.89112 1.68830   3
  -2   6   1 11.0842 1.59979   2
   1  -6  -1 137.918 5.24023   3
   1  -6  -1 139.026 4.82078   1
  -1   6   1 143.535 4.84819   2
   0  -6  -1 673.106 19.8503   3
   0  -6  -1 692.320 19.6518   1
   0   6   1 676.887 19.3546   2
  -1  -6  -1 0.20758 1.04776   2
  -1  -6  -1 -1.5513 1.28980   3
  -1  -6  -1 -0.5702 1.46953   1
  -2  -6  -1 79.5289 4.12047   1
  -2  -6  -1 78.1516 3.36827   2
   2   6   1 88.0541 4.15193   3
  -3  -6  -1 30.6413 2.43388   2
  -3  -6  -1 32.9416 3.43881   1
   3   6   1 29.1366 3.26971   3
  -4  -6  -1 27.6184 3.91987   1
  -4  -6  -1 32.6274 2.79923   2
  -5  -6  -1 286.432 9.59505   2
  -5  -6  -1 285.674 10.8156   1
   5   6   1 283.837 10.0812   3
  -6  -6  -1 17.5209 3.99771   1
  -7  -6  -1 2.52984 4.42288   1
   9  -7  -1 13.3838 5.27795   3
  -9   7   1 30.6910 4.59393   2
   8  -7  -1 8.29694 3.69283   3
  -8   7   1 9.24285 3.35655   2
   7  -7  -1 47.2700 5.39416   3
  -7   7   1 50.7451 4.93324   2
   6  -7  -1 9.64127 2.85483   3
  -6   7   1 10.5888 2.49298   2
   5  -7  -1 7.84976 2.46432   3
  -5   7   1 9.09088 2.36125   2
   4  -7  -1 117.884 5.38879   3
  -4   7   1 111.166 5.07753   2
   3  -7  -1 401.610 12.6816   3
  -3   7   1 391.030 12.2265   2
   2  -7  -1 29.5043 3.88779   3
   2  -7  -1 33.5899 2.31082   1
  -2   7   1 36.0002 2.72061   2
   1  -7  -1 234.313 8.02780   3
   1  -7  -1 228.896 7.43068   1
  -1   7   1 230.505 7.44528   2
   0  -7  -1 261.026 8.73189   3
   0  -7  -1 264.070 8.54374   1
   0   7   1 259.957 8.13302   2
  -1  -7  -1 271.618 9.09217   1
  -1  -7  -1 274.653 9.15003   3
  -1  -7  -1 274.680 8.51441   2
  -2  -7  -1 41.8057 3.75822   1
  -2  -7  -1 37.0227 2.67208   2
  -3  -7  -1 7.36266 2.34390   1
  -3  -7  -1 3.99154 1.65814   2
   3   7   1 6.15320 2.44867   3
  -4  -7  -1 0.61968 1.78516   2
  -4  -7  -1 7.63958 2.95333   1
   4   7   1 -5.6499 2.57296   3
  -5  -7  -1 -7.0443 3.30126   1
   5   7   1 4.41868 3.12987   3
  -6  -7  -1 18.7648 4.51269   1
  -7  -7  -1 9.69719 5.14073   1
   9  -8  -1 14.2954 4.55949   3
   8  -8  -1 -1.1534 4.09089   3
  -8   8   1 -8.0981 3.43923   2
   7  -8  -1 12.9928 3.51201   3
  -7   8   1 12.8834 3.40598   2
   6  -8  -1 200.367 8.47764   3
  -6   8   1 202.718 8.35795   2
   5  -8  -1 16.6896 2.87887   3
  -5   8   1 16.3698 2.89693   2
   4  -8  -1 1.72279 2.22184   3
  -4   8   1 0.47872 2.07923   2
   3  -8  -1 312.012 10.9890   3
  -3   8   1 340.197 10.6472   2
   2  -8  -1 284.927 9.09071   1
   2  -8  -1 294.053 9.96124   3
  -2   8   1 295.536 9.42449   2
   1  -8  -1 53.4328 3.31772   1
   1  -8  -1 53.9888 3.86355   3
  -1   8   1 58.3786 3.35958   2
   0  -8  -1 79.5616 4.19657   1
   0  -8  -1 82.8208 4.52863   3
   0   8   1 77.4414 3.66193   2
  -1  -8  -1 91.4788 4.76089   1
  -1  -8  -1 85.5340 4.81962   3
   1   8   1 84.7007 3.91979   2
  -2  -8  -1 1.54244 1.65618   2
  -2  -8  -1 6.67045 2.61260   1
   2   8   1 1.49818 2.56246   3
  -3  -8  -1 22.7582 3.35033   1
   3   8   1 18.4536 3.09937   3
  -4  -8  -1 15.6732 3.54252   1
   4   8   1 14.2275 3.56482   3
  -5  -8  -1 175.779 11.9733   1
  -6  -8  -1 -1.3537 4.42906   1
   8  -9  -1 9.73018 4.39408   3
  -8   9   1 10.7140 4.38346   2
   7  -9  -1 -5.0756 3.74210   3
  -7   9   1 -1.1929 3.32955   2
   6  -9  -1 14.0255 3.53733   3
  -6   9   1 21.3729 3.59504   2
   5  -9  -1 42.0908 4.84253   3
  -5   9   1 49.7895 4.88543   2
   4  -9  -1 -2.8714 2.57288   3
  -4   9   1 -0.0976 2.41701   2
   3  -9  -1 3.97196 2.45537   3
  -3   9   1 1.46738 2.23225   2
   2  -9  -1 47.6091 3.43505   1
   2  -9  -1 56.0768 4.30834   3
  -2   9   1 54.2914 3.91822   2
   1  -9  -1 156.228 6.01294   1
   1  -9  -1 154.101 6.59971   3
  -1   9   1 147.056 5.85739   2
   0  -9  -1 44.6892 4.14958   3
   0  -9  -1 49.7535 4.00463   1
   0   9   1 39.1092 3.40550   2
  -1  -9  -1 2.66972 2.47165   1
   1   9   1 0.41007 1.80687   2
   1   9   1 1.63045 2.79694   3
  -2  -9  -1 37.5869 4.88506   1
   2   9   1 40.7490 4.77249   3
  -3  -9  -1 13.2134 3.60635   1
   3   9   1 9.61966 3.46177   3
  -4  -9  -1 15.9988 4.18062   1
   4   9   1 12.8053 4.10931   3
  -5  -9  -1 32.2511 5.08881   1
  -6  -9  -1 43.3843 5.95911   1
   8 -10  -1 6.12334 4.33626   3
   7 -10  -1 21.3075 4.76239   3
  -7  10   1 25.9009 4.44774   2
   6 -10  -1 -3.0653 3.64596   3
  -6  10   1 1.61094 3.48871   2
   5 -10  -1 53.8483 5.81256   3
  -5  10   1 48.5303 5.54627   2
   4 -10  -1 29.3714 3.86743   3
  -4  10   1 33.9071 3.80224   2
   3 -10  -1 92.9975 6.00017   3
  -3  10   1 84.3229 5.29140   2
   2 -10  -1 25.8635 3.42463   3
  -2  10   1 34.6652 3.97723   2
   1 -10  -1 5.75542 2.64776   3
   1 -10  -1 3.50897 2.54604   1
  -1  10   1 10.6401 2.46460   2
   0 -10  -1 102.060 5.67533   3
   0 -10  -1 92.8260 5.39810   1
   0  10   1 84.2702 4.73566   2
  -1 -10  -1 7.05169 2.98011   1
   1  10   1 -0.9706 3.42528   3
  -2 -10  -1 0.17882 3.31487   1
   2  10   1 2.84735 3.36244   3
  -3 -10  -1 31.4067 4.37233   1
   3  10   1 23.6814 4.65376   3
  -4 -10  -1 12.3956 4.56899   1
   4  10   1 11.0542 4.96509   3
  -5 -10  -1 -6.6881 4.82949   1
   7 -11  -1 49.6969 5.83648   3
  -7  11   1 53.2397 5.64084   2
   6 -11  -1 -3.4799 4.21094   3
  -6  11   1 5.04853 3.98628   2
   5 -11  -1 5.41840 4.21920   3
  -5  11   1 5.02807 3.74187   2
   4 -11  -1 31.7341 4.41841   3
  -4  11   1 38.3779 4.15320   2
   3 -11  -1 99.4603 6.85575   3
  -3  11   1 115.494 6.26989   2
   2 -11  -1 27.2605 3.91155   3
  -2  11   1 26.5747 3.47849   2
   1 -11  -1 8.63036 3.35767   1
   1 -11  -1 14.6888 3.41489   3
  -1  11   1 18.9551 3.13208   2
   0 -11  -1 14.1835 3.53587   1
   0 -11  -1 9.32697 3.31707   3
  -1 -11  -1 -0.0086 3.61024   1
   1  11   1 2.67205 3.89840   3
  -2 -11  -1 -1.2694 3.91193   1
   2  11   1 11.8238 4.34401   3
  -3 -11  -1 83.8641 7.68101   1
  -4 -11  -1 26.5926 5.39704   1
   4  11   1 13.3933 5.10768   3
   6 -12  -1 23.6262 5.50848   3
   5 -12  -1 49.8015 5.72539   3
  -5  12   1 55.9233 6.64353   2
   4 -12  -1 1.22382 4.22578   3
  -4  12   1 5.69971 3.90430   2
   3 -12  -1 18.9026 4.21780   3
  -3  12   1 22.6496 4.06089   2
   2 -12  -1 36.8552 4.86216   3
   1 -12  -1 6.37498 5.06595   3
   0 -12  -1 24.2429 4.79209   1
   0  12   1 22.7710 5.11218   3
  -1 -12  -1 32.5317 4.68348   1
   1  12   1 31.5228 5.33350   3
  -2 -12  -1 2.89943 4.49323   1
   2  12   1 -0.4279 4.86357   3
  -3 -12  -1 -0.7519 5.07588   1
   3  12   1 -1.3719 5.45030   3
   5 -13  -1 2.58686 5.37053   3
   4 -13  -1 31.3180 5.41670   3
   3 -13  -1 2.88141 4.62198   3
   2 -13  -1 -0.4004 4.27578   3
   1 -13  -1 -0.4363 4.40649   3
   0  13   1 17.6645 5.31250   3
   1  13   1 48.8440 6.30143   3
   1  14  -2 11.7926 5.73842   3
  -1 -14   2 17.2821 5.15409   1
   0  14  -2 -1.3980 5.12635   3
  -1  14  -2 2.11095 5.08957   3
   2 -14   2 5.20404 4.80055   3
   3 -14   2 26.3376 5.47400   3
   3  13  -2 7.77367 5.46181   3
  -3 -13   2 -2.3979 5.10458   1
   2  13  -2 6.48958 4.73704   3
  -2 -13   2 11.3857 4.59846   1
   1  13  -2 6.26510 4.50188   3
  -1 -13   2 15.5412 4.48643   1
   0  13  -2 45.7158 5.61422   3
   0 -13   2 50.5084 6.72074   1
  -1  13  -2 56.7248 7.05865   3
   1 -13   2 56.5168 6.78424   1
   2 -13   2 31.9918 4.80575   3
   3 -13   2 41.4017 5.08168   3
   4 -13   2 73.4001 7.43152   3
  -5  13  -2 0.92752 4.05048   2
   5 -13   2 1.53076 4.79199   3
   4  12  -2 21.9480 5.83607   3
  -4 -12   2 34.2387 5.79287   1
   3  12  -2 198.552 10.8665   3
  -3 -12   2 181.351 9.55742   1
  -2 -12   2 10.1962 3.93188   1
   1  12  -2 78.6240 6.67999   3
  -1 -12   2 78.3956 6.63306   1
   0  12  -2 82.9538 6.79143   3
   0 -12   2 96.3239 6.33125   1
   1 -12   2 0.82867 3.32137   3
   1 -12   2 4.59160 3.37727   1
   2 -12   2 10.7210 5.45224   1
   2 -12   2 2.20373 3.34411   3
  -3  12  -2 -2.2083 3.32585   2
   3 -12   2 5.76005 3.69477   3
  -4  12  -2 19.7059 3.78615   2
   4 -12   2 24.5575 6.32705   3
  -5  12  -2 20.3150 3.95416   2
   5 -12   2 17.5093 4.50134   3
  -6  12  -2 16.6636 3.93111   2
   6 -12   2 22.9735 5.04133   3
   5  11  -2 -0.0089 4.65342   3
  -5 -11   2 1.66755 5.02136   1
   4  11  -2 113.973 14.9843   3
  -4 -11   2 105.462 8.07693   1
   3  11  -2 60.4598 7.07837   3
  -3 -11   2 65.1562 6.31918   1
   2  11  -2 5.66999 3.59924   3
  -2 -11   2 11.6821 3.55982   1
   1  11  -2 21.7853 3.81878   3
  -1 -11   2 20.8215 3.46768   1
   0  11  -2 3.63426 3.12522   3
   0 -11   2 1.40171 2.86840   1
   1 -11   2 5.92515 2.88106   3
   1 -11   2 9.29348 3.06188   1
  -2  11  -2 4.10433 2.47847   2
   2 -11   2 7.19897 2.89156   3
   2 -11   2 3.36378 2.78446   1
  -3  11  -2 35.8685 3.50082   2
   3 -11   2 33.3328 3.95790   3
  -4  11  -2 10.3824 3.00186   2
   4 -11   2 9.27786 3.48993   3
  -5  11  -2 56.1876 5.66086   2
   5 -11   2 57.6497 6.33912   3
  -6  11  -2 109.749 7.82099   2
  -7  11  -2 -0.9475 3.89863   2
   7 -11   2 -0.1747 4.24097   3
   6  10  -2 2.00136 4.74831   3
  -6 -10   2 6.84088 5.05562   1
   5  10  -2 4.92978 4.60137   3
  -5 -10   2 8.11953 4.33336   1
   4  10  -2 32.9592 4.57113   3
  -4 -10   2 33.4894 4.42202   1
   3  10  -2 63.0854 5.97389   3
  -3 -10   2 70.9759 5.71338   1
   2  10  -2 2.41468 2.91060   3
  -2 -10   2 -1.3962 2.93211   1
   1  10  -2 165.617 7.42338   3
  -1 -10   2 160.929 7.10738   1
   0 -10   2 298.748 9.96416   1
   0 -10   2 273.938 10.2233   3
  -1  10  -2 31.4424 3.05043   2
   1 -10   2 32.3103 4.00586   3
   1 -10   2 33.3727 3.79095   1
  -2  10  -2 0.82318 2.10991   2
   2 -10   2 1.36593 2.43819   3
   2 -10   2 0.51954 2.08868   1
  -3  10  -2 3.32725 2.38549   2
   3 -10   2 0.22541 2.14216   1
   3 -10   2 3.78737 2.71149   3
  -4  10  -2 56.9999 4.53093   2
   4 -10   2 54.9488 4.98593   3
  -5  10  -2 4.57867 2.83214   2
   5 -10   2 8.26742 3.33988   3
  -6  10  -2 6.17175 3.22502   2
   6 -10   2 2.56659 3.71395   3
  -7  10  -2 21.8798 4.26683   2
   7 -10   2 13.6195 4.79906   3
  -7  -9   2 37.3865 6.18757   1
   6   9  -2 36.0381 5.34619   3
  -6  -9   2 32.3947 5.36495   1
   5   9  -2 5.47780 3.87763   3
  -5  -9   2 4.27124 3.98214   1
   4   9  -2 132.359 7.23064   3
  -4  -9   2 135.507 7.06106   1
   3   9  -2 70.8729 5.77319   3
  -3  -9   2 92.0185 5.51891   1
   2   9  -2 92.1465 5.37996   3
  -2  -9   2 87.7412 5.26870   1
   1   9  -2 18.0848 3.02811   3
  -1  -9   2 19.3490 2.81761   1
   0  -9   2 107.583 5.26059   3
  -1   9  -2 340.907 10.7335   2
   1  -9   2 364.610 11.2531   1
   1  -9   2 357.453 11.7548   3
  -2   9  -2 3.86363 1.80935   2
   2  -9   2 -0.4043 1.67863   1
   2  -9   2 2.21698 2.24410   3
  -3   9  -2 76.3642 4.21572   2
   3  -9   2 65.6278 4.52376   3
   3  -9   2 66.1831 3.98411   1
  -4   9  -2 29.2158 3.65519   2
   4  -9   2 21.1578 3.01145   3
   4  -9   2 23.0319 2.63515   1
  -5   9  -2 11.1647 2.74077   2
   5  -9   2 15.5637 3.08913   3
  -6   9  -2 33.2820 3.73745   2
   6  -9   2 40.2894 5.00548   3
  -7   9  -2 5.94714 3.41041   2
   7  -9   2 11.4824 3.84663   3
  -8   9  -2 15.7195 4.10933   2
   7   8  -2 10.8026 6.33057   3
  -7  -8   2 25.5713 5.38386   1
   6   8  -2 -3.8467 3.85816   3
   5   8  -2 23.3539 3.70026   3
  -5  -8   2 17.6408 3.52896   1
   4   8  -2 8.25402 2.97517   3
  -4  -8   2 9.88846 2.89031   1
   3   8  -2 19.3349 2.93118   3
  -3  -8   2 19.6186 2.99803   1
   2   8  -2 115.545 5.53164   3
  -2  -8   2 121.632 5.44153   1
   1   8  -2 149.108 6.15049   3
  -1  -8   2 141.898 5.87407   1
   0  -8   2 94.5705 4.38042   1
   0  -8   2 101.088 4.67285   3
  -1   8  -2 53.8982 2.92122   2
   1  -8   2 56.5692 3.32777   1
   1  -8   2 59.9563 3.93317   3
  -2   8  -2 50.1369 3.05532   2
   2  -8   2 43.5395 3.56311   3
   2  -8   2 42.5288 3.03724   1
  -3   8  -2 3.66873 1.80768   2
   3  -8   2 0.67073 1.98504   3
   3  -8   2 0.29308 1.64078   1
  -4   8  -2 277.360 9.42880   2
   4  -8   2 280.476 9.08839   1
   4  -8   2 282.453 9.69151   3
  -5   8  -2 37.1337 3.90040   2
   5  -8   2 36.7753 4.09404   3
   5  -8   2 41.3584 3.62422   1
  -6   8  -2 -2.4292 2.32879   2
   6  -8   2 -1.6999 2.60064   3
  -7   8  -2 46.2636 5.35321   2
   7  -8   2 29.6319 3.99396   3
  -8   8  -2 7.11174 3.62874   2
  -8  -7   2 -0.6801 5.00544   1
   7   7  -2 6.37197 4.08988   3
  -7  -7   2 -4.5727 3.87391   1
   6   7  -2 31.3455 4.02666   3
  -6  -7   2 33.7983 4.44217   1
   5   7  -2 118.812 6.30779   3
  -5  -7   2 112.201 6.32552   1
   4   7  -2 5.29613 2.45216   3
  -4  -7   2 7.11080 2.52091   1
   3   7  -2 25.8416 3.48009   3
  -3  -7   2 22.2227 3.35321   1
   2   7  -2 118.775 5.10550   3
  -2  -7   2 117.568 5.04083   1
   1   7  -2 8.79341 1.93380   3
  -1  -7   2 6.24981 1.67782   1
   0   7  -2 214.818 6.69676   2
   0  -7   2 231.109 7.40052   1
   0  -7   2 224.927 7.55383   3
  -1   7  -2 384.957 11.2277   2
   1  -7   2 385.674 11.5545   1
   1  -7   2 375.684 11.8092   3
  -2   7  -2 40.1306 2.65774   2
   2  -7   2 38.5353 2.93373   3
   2  -7   2 40.9181 2.62258   1
  -3   7  -2 1.36583 1.49638   2
   3  -7   2 1.61093 1.59539   3
   3  -7   2 1.66160 1.37062   1
  -4   7  -2 2.06779 1.69563   2
   4  -7   2 4.39650 1.84476   3
   4  -7   2 -0.8180 1.55139   1
  -5   7  -2 245.295 8.72317   2
   5  -7   2 255.019 8.41064   1
   5  -7   2 256.541 8.84825   3
  -6   7  -2 270.381 9.61484   2
   6  -7   2 261.372 9.44542   3
   6  -7   2 265.326 8.97071   1
  -7   7  -2 4.60690 2.72775   2
   7  -7   2 0.71871 2.98220   3
  -8   7  -2 -1.9463 3.02338   2
  -8  -6   2 33.0793 5.15733   1
   7   6  -2 56.7676 6.16365   3
  -7  -6   2 44.4231 6.18790   1
   6   6  -2 5.18403 3.12801   3
  -6  -6   2 4.80809 3.14775   1
   5   6  -2 82.4387 5.01588   3
  -5  -6   2 83.0585 5.11461   1
   4   6  -2 83.0843 4.84718   3
  -4  -6   2 78.8870 4.63120   1
   3   6  -2 67.6326 3.88310   3
  -3  -6   2 60.6987 4.28038   1
   2   6  -2 317.550 10.1853   3
  -2  -6   2 324.390 10.2062   1
   1   6  -2 16.1851 1.91099   3
  -1  -6   2 15.4663 2.14983   1
   0   6  -2 448.182 13.6647   2
   0  -6   2 500.019 14.1262   1
   0  -6   2 492.475 14.2762   3
  -1   6  -2 168.987 5.34668   2
   1  -6   2 164.855 5.81052   3
   1  -6   2 171.164 5.62248   1
  -2   6  -2 54.2300 2.77201   2
   2  -6   2 59.5854 3.03298   3
   2  -6   2 57.5692 2.69574   1
  -3   6  -2 12.0504 1.65360   2
   3  -6   2 15.5960 1.98928   1
   3  -6   2 11.7643 1.74263   3
  -4   6  -2 401.236 12.7089   2
   4  -6   2 381.516 12.1007   3
   4  -6   2 393.046 11.8202   1
  -5   6  -2 95.2033 4.55047   2
   5  -6   2 90.6262 4.18594   1
   5  -6   2 87.5159 4.35036   3
  -6   6  -2 11.1515 2.31209   2
   6  -6   2 17.0556 2.27039   1
   6  -6   2 14.6298 2.38588   3
  -7   6  -2 128.653 6.42862   2
   7  -6   2 144.250 6.16420   3
   7  -6   2 117.394 8.25946   1
  -8   6  -2 6.92765 3.13299   2
  -9   6  -2 47.3810 6.47635   2
  -8  -5   2 -0.9361 3.98892   1
   7   5  -2 179.206 8.49317   3
  -7  -5   2 184.354 8.52350   1
   6   5  -2 133.614 6.33346   3
  -6  -5   2 128.750 6.41957   1
  -6  -5   2 120.102 4.91542   2
   5   5  -2 54.2430 3.98381   3
  -5  -5   2 43.2019 2.62835   2
  -5  -5   2 50.3480 4.11771   1
   4   5  -2 74.9498 4.14497   3
  -4  -5   2 83.2474 4.36480   1
   3   5  -2 1.44536 1.47474   3
  -3  -5   2 2.87546 1.56632   1
   2   5  -2 50.3657 2.85067   3
  -2  -5   2 50.3417 2.86275   1
   1   5  -2 661.164 18.9083   3
  -1  -5   2 647.957 18.8195   1
   0   5  -2 9.12315 0.99809   2
   0  -5   2 12.6087 1.61711   1
   0  -5   2 11.1145 1.35871   3
  -1   5  -2 249.208 7.52069   2
   1  -5   2 253.163 7.71294   1
   1  -5   2 256.866 7.89517   3
  -2   5  -2 34.5803 2.09748   2
   2  -5   2 33.1303 2.00963   1
   2  -5   2 34.9754 2.19293   3
  -3   5  -2 6.17471 1.29272   2
   3  -5   2 6.94427 1.24087   1
   3  -5   2 6.58189 1.31716   3
  -4   5  -2 26.5110 2.41244   2
   4  -5   2 27.2398 2.32406   3
   4  -5   2 24.5635 2.32028   1
  -5   5  -2 176.772 6.59310   2
   5  -5   2 179.445 6.30063   1
   5  -5   2 179.077 6.41389   3
  -6   5  -2 6.34750 2.01438   2
   6  -5   2 8.65992 2.02438   1
   6  -5   2 6.85218 2.12962   3
  -7   5  -2 3.46381 2.29207   2
   7  -5   2 2.18309 2.43192   1
   7  -5   2 7.70183 4.36943   3
  -8   5  -2 -2.6098 4.49316   2
  -9   5  -2 3.62393 3.47226   2
  -8  -4   2 0.85361 3.47140   1
   7   4  -2 28.9254 3.55264   3
  -7  -4   2 29.5910 3.71374   2
  -7  -4   2 36.4005 5.01726   1
   6   4  -2 0.81524 2.34762   3
  -6  -4   2 -1.1390 2.29434   1
  -6  -4   2 0.39753 1.51539   2
   5   4  -2 19.8671 2.47554   3
  -5  -4   2 15.0281 2.41573   1
  -5  -4   2 13.5883 1.94337   2
   4   4  -2 343.329 10.7294   3
  -4  -4   2 348.011 10.8897   1
  -4  -4   2 330.093 9.95404   2
   3   4  -2 30.1517 2.35665   3
  -3  -4   2 28.1308 2.42875   1
   2   4  -2 272.652 8.57293   3
  -2  -4   2 282.329 8.62984   1
   1   4  -2 1874.04 50.8676   3
  -1  -4   2 1793.00 50.7976   1
   0   4  -2 883.000 26.3786   2
   0  -4   2 996.142 26.8237   1
   0  -4   2 993.175 26.8638   3
  -1   4  -2 0.81491 0.76896   2
   1  -4   2 2.19318 0.94028   3
   1  -4   2 0.03735 0.82157   1
  -2   4  -2 1.28479 0.90258   2
   2  -4   2 1.75620 0.92109   3
   2  -4   2 0.82179 0.88083   1
  -3   4  -2 85.9422 3.45200   2
   3  -4   2 84.2316 3.32907   1
   3  -4   2 84.6747 3.29915   3
  -4   4  -2 89.0506 3.87574   2
   4  -4   2 95.7837 3.74742   3
   4  -4   2 93.9960 3.79128   1
  -5   4  -2 179.174 6.49002   2
   5  -4   2 172.606 6.18787   1
   5  -4   2 177.862 6.16608   3
  -6   4  -2 14.8589 2.14400   2
   6  -4   2 16.1063 2.12784   3
   6  -4   2 11.6188 2.30304   1
  -7   4  -2 375.619 12.5816   2
   7  -4   2 379.477 12.3085   1
  -8   4  -2 146.741 7.17131   2
   8  -4   2 144.566 7.05075   1
  -9   4  -2 2.49860 3.12731   2
   9   3  -2 86.5680 7.26047   4
   9   3  -2 87.6172 7.18098   1
   8   3  -2 -1.2630 3.16198   3
  -8  -3   2 3.81796 2.68819   2
  -8  -3   2 0.38876 3.25167   1
   7   3  -2 47.5692 4.56849   3
  -7  -3   2 46.5700 3.87300   2
  -7  -3   2 37.7005 4.78903   1
  -6  -3   2 1.46520 2.10836   1
  -6  -3   2 -0.4844 1.47729   2
   5   3  -2 19.9962 2.29308   3
  -5  -3   2 18.3226 2.05764   2
  -5  -3   2 18.7657 2.70024   1
   4   3  -2 1128.95 31.9464   3
  -4  -3   2 1130.84 32.0778   1
  -4  -3   2 1122.63 31.4683   2
   3   3  -2 350.227 10.4962   3
  -3  -3   2 342.523 10.5347   1
   2   3  -2 175.581 5.80154   3
  -2  -3   2 184.237 5.81853   1
   1   3  -2 9.70900 1.22531   3
  -1  -3   2 8.41156 1.08312   1
   0   3  -2 559.508 16.2064   2
   0  -3   2 582.394 16.5549   1
   0  -3   2 616.354 16.5756   3
   1  -3   2 125.659 5.10831   3
   1  -3   2 150.426 4.44822   1
  -2   3  -2 34.4644 1.89606   2
   2  -3   2 35.1812 1.89737   1
   2  -3   2 32.2223 1.70030   3
  -3   3  -2 179.690 5.86897   2
   3  -3   2 180.895 5.79655   1
   3  -3   2 178.409 5.63661   3
  -4   3  -2 161.821 5.66361   2
   4  -3   2 161.789 5.27441   3
   4  -3   2 159.518 5.52298   1
  -5   3  -2 114.662 4.72018   2
   5  -3   2 117.545 4.69046   1
   5  -3   2 114.203 4.35028   3
  -6   3  -2 48.9248 3.43279   2
   6  -3   2 44.5657 3.12711   3
   6  -3   2 51.5484 3.87609   1
  -7   3  -2 157.731 6.73006   2
   7  -3   2 158.262 6.80240   1
  -8   3  -2 238.805 9.07155   2
   8  -3   2 208.773 9.04859   1
  -9   3  -2 2.40146 3.07172   2
   9  -3   2 -6.0178 5.53393   1
   9   2  -2 51.9887 5.86622   1
   9   2  -2 37.5901 4.41137   4
  -9  -2   2 39.8459 5.48936   2
   8   2  -2 111.347 6.32483   3
  -8  -2   2 102.662 6.68778   1
  -8  -2   2 116.779 5.84768   2
   7   2  -2 -2.3467 2.31114   3
  -7  -2   2 2.32836 2.44406   1
  -7  -2   2 -1.2161 1.92321   2
   6   2  -2 1.98727 1.84170   3
  -6  -2   2 1.78939 1.46695   2
  -6  -2   2 1.04453 2.04421   1
   5   2  -2 52.0144 3.38335   3
  -5  -2   2 50.8899 2.75288   2
  -5  -2   2 54.1064 3.29273   1
   4   2  -2 506.264 14.7275   3
  -4  -2   2 490.271 14.2965   2
  -4  -2   2 495.835 14.7071   1
   3   2  -2 182.206 6.01125   3
  -3  -2   2 186.396 5.59255   2
  -3  -2   2 186.521 6.04789   1
   2   2  -2 28.1766 1.87023   3
  -2  -2   2 30.5073 1.26882   2
  -2  -2   2 30.2014 1.83027   1
   1   2  -2 539.110 15.7342   3
  -1  -2   2 574.609 15.6878   1
   0   2  -2 1430.84 40.4733   2
   0   2  -2 1530.87 40.6558   3
   0  -2   2 1464.86 40.6787   1
  -1   2  -2 874.313 23.9925   2
   1  -2   2 866.663 24.0476   1
   1  -2   2 851.738 23.8961   3
  -2   2  -2 371.467 10.6577   2
   2  -2   2 378.493 10.6605   1
   2  -2   2 348.234 10.3634   3
  -3   2  -2 1071.16 28.5169   2
   3  -2   2 1072.49 28.4911   1
   3  -2   2 894.114 28.5106   3
  -4   2  -2 324.935 9.91571   2
   4  -2   2 324.867 9.88927   1
   4  -2   2 313.780 9.44100   3
  -5   2  -2 27.3326 2.61768   2
   5  -2   2 25.7243 2.16092   3
   5  -2   2 25.1236 2.57283   1
  -6   2  -2 4.88796 1.73289   2
   6  -2   2 3.13177 1.99071   1
   6  -2   2 3.97471 1.63804   3
  -7   2  -2 26.3045 3.54661   2
   7  -2   2 28.9629 3.95309   1
  -8   2  -2 4.43664 2.49008   2
   8  -2   2 4.55458 3.15691   1
  -9   2  -2 8.22951 3.34964   2
   9   1  -2 4.19063 3.33132   1
   9   1  -2 6.29943 3.45749   4
  -9  -1   2 11.7481 2.97415   2
   8   1  -2 11.4792 2.94287   4
   8   1  -2 5.00521 2.98203   3
   8   1  -2 10.6851 2.87946   1
  -8  -1   2 10.5370 2.55070   2
   7   1  -2 107.956 5.44860   3
  -7  -1   2 101.501 5.49182   1
  -7  -1   2 102.204 4.95700   2
   6   1  -2 -0.4418 1.66926   3
  -6  -1   2 -0.2113 1.40540   2
  -6  -1   2 -0.6108 1.81618   1
   5   1  -2 291.268 9.23311   3
  -5  -1   2 285.821 8.93066   2
  -5  -1   2 286.000 9.19298   1
   4   1  -2 2755.46 75.5563   3
  -4  -1   2 2721.19 75.4917   1
  -4  -1   2 2716.04 75.2936   2
   3   1  -2 991.515 28.0780   3
  -3  -1   2 1009.45 28.0066   1
  -3  -1   2 995.820 27.8158   2
   2   1  -2 1108.88 30.1914   3
  -2  -1   2 1067.39 30.0764   1
  -2  -1   2 1077.10 29.9050   2
   1   1  -2 2278.18 61.4811   3
  -1  -1   2 2174.86 61.3942   1
  -1  -1   2 2260.71 61.2546   2
   0   1  -2 286.184 7.68794   3
   0   1  -2 263.201 7.66804   2
   0  -1   2 269.101 7.77737   1
   1  -1   2 112.382 3.67737   1
  -2   1  -2 7.06159 0.96076   2
   2  -1   2 6.11463 1.02231   1
  -3   1  -2 28.5776 1.84712   2
   3  -1   2 19.9356 1.29762   3
   3  -1   2 26.8549 1.89566   1
   3  -1   2 24.6966 1.74729   4
  -4   1  -2 60.4802 2.90081   2
   4  -1   2 61.0424 2.86626   4
   4  -1   2 62.1278 3.04063   1
   4  -1   2 56.5569 2.41330   3
   5  -1   2 54.2122 3.09791   4
   5  -1   2 58.4915 3.28062   1
   5  -1   2 47.7819 2.64390   3
  -6   1  -2 154.598 6.27113   2
   6  -1   2 169.733 6.52712   1
   6  -1   2 152.326 5.60014   3
  -7   1  -2 34.9108 3.78480   2
   7  -1   2 32.5530 4.16346   1
  -8   1  -2 67.7990 5.42281   2
   8  -1   2 70.7097 5.62945   1
  -9   1  -2 7.69142 3.33400   2
   9  -1   2 18.9931 4.41328   1
   9   0  -2 89.4343 6.49484   1
   9   0  -2 102.177 6.41584   4
  -9   0   2 96.5704 6.10783   2
   8   0  -2 172.696 7.59586   3
   8   0  -2 171.362 7.15955   4
   8   0  -2 161.215 7.32089   1
  -8   0   2 173.109 7.09092   2
   7   0  -2 1.50632 2.19787   4
   7   0  -2 1.53526 2.16989   1
   7   0  -2 2.33095 2.16777   3
  -7   0   2 2.07153 1.76262   2
   6   0  -2 50.1812 3.67067   3
  -6   0   2 56.6278 3.73236   2
  -6   0   2 59.4065 3.56689   1
   5   0  -2 2.86907 1.47567   3
  -5   0   2 4.00998 1.40739   1
  -5   0   2 3.79725 1.24930   2
   4   0  -2 -0.2791 1.09455   3
  -4   0   2 1.04218 1.04839   1
  -4   0   2 -0.3344 0.90834   2
   3   0  -2 1274.76 34.1976   3
  -3   0   2 1151.08 33.9403   1
  -3   0   2 1242.51 33.9947   2
   2   0  -2 482.724 13.6215   3
  -2   0   2 459.342 13.3667   1
  -2   0   2 490.165 13.4674   2
   1   0  -2 486.270 13.0371   3
  -1   0   2 439.926 12.8158   1
   0   0  -2 126.453 3.74828   2
   0   0  -2 124.956 3.62507   3
   0   0   2 122.283 3.74008   1
  -1   0  -2 841.480 23.6192   2
  -2   0  -2 1905.12 51.7258   2
   2   0   2 1862.28 51.7113   4
   2   0   2 1847.80 51.7872   1
  -3   0  -2 961.584 25.9865   2
   3   0   2 809.852 25.4707   3
   3   0   2 961.561 26.1108   1
   3   0   2 948.351 25.9951   4
  -4   0  -2 144.944 5.04216   2
   4   0   2 134.130 4.51245   3
   4   0   2 141.043 5.15549   1
   4   0   2 136.587 5.00028   4
   5   0   2 33.0495 2.28098   3
   5   0   2 29.2490 3.61983   4
  -6   0  -2 -0.1343 1.78064   2
   6   0   2 0.14941 1.93521   4
   6   0   2 2.27641 1.93196   1
  -7   0  -2 27.6955 3.13023   2
   7   0   2 27.6264 3.26700   4
   7   0   2 32.6407 4.08952   1
  -8   0  -2 59.9246 5.04917   2
   8   0   2 60.6555 5.77050   1
  -9   0  -2 16.6476 3.61693   2
   9   0   2 15.4324 4.20152   1
 -10   1   2 9.86133 3.59773   2
  -9   1   2 52.3869 5.16245   2
   8  -1  -2 13.5447 2.73537   1
   8  -1  -2 15.6885 2.90213   4
   8  -1  -2 17.1354 3.12741   3
  -8   1   2 9.93326 2.35645   2
   7  -1  -2 49.1531 4.04860   3
   7  -1  -2 47.5307 3.38014   4
   7  -1  -2 46.4726 3.51422   1
  -7   1   2 45.6292 3.65832   2
   6  -1  -2 2.18676 1.69787   3
   6  -1  -2 1.63333 1.47476   4
   6  -1  -2 3.26162 1.43564   1
  -6   1   2 -0.3795 1.47341   2
   5  -1  -2 162.483 5.85379   3
  -5   1   2 162.677 5.71281   2
   4  -1  -2 384.338 11.1704   3
  -4   1   2 370.834 11.0141   2
  -4   1   2 354.335 10.7238   1
   3  -1  -2 40.4740 2.25917   3
  -3   1   2 39.3239 2.09405   2
   2  -1  -2 1222.72 33.7735   3
  -2   1   2 1207.55 33.6645   2
   1  -1  -2 1399.04 38.2034   3
   1  -1  -2 1365.58 38.1379   2
   0  -1  -2 2791.11 77.8949   1
   0  -1  -2 2848.46 77.9282   2
   0  -1  -2 2884.40 77.8539   3
  -1  -1  -2 187.532 5.62297   2
  -1  -1  -2 176.487 5.74597   1
  -1  -1  -2 194.096 5.38614   3
  -2  -1  -2 0.75501 1.04984   1
  -2  -1  -2 1.08574 0.81020   2
   2   1   2 -0.2026 0.58134   3
  -3  -1  -2 281.599 8.38151   2
  -3  -1  -2 279.432 8.66090   1
   3   1   2 259.087 7.97839   3
  -4  -1  -2 42.1368 3.01452   1
  -4  -1  -2 40.6318 2.57039   2
   4   1   2 39.5894 2.28277   3
   5   1   2 94.9716 4.70002   1
   5   1   2 95.7609 4.55626   4
   5   1   2 87.8422 3.79816   3
  -6  -1  -2 93.4802 4.69768   2
   6   1   2 94.7246 5.14776   1
   6   1   2 95.4719 4.97328   4
  -7  -1  -2 4.41932 2.29452   2
   7   1   2 3.09389 2.62340   1
   7   1   2 4.72811 2.72731   4
  -8  -1  -2 3.48372 2.89440   2
   8   1   2 8.02165 3.28392   1
   8   1   2 8.74623 3.44942   4
  -9  -1  -2 11.4423 3.76860   2
   9   1   2 10.2915 4.35130   1
 -10   2   2 -0.4009 3.37345   2
   9  -2  -2 40.7603 4.77588   3
  -9   2   2 42.8378 4.97648   2
   8  -2  -2 89.0722 5.49245   3
  -8   2   2 82.0478 5.21699   2
   7  -2  -2 17.2187 2.70641   3
   7  -2  -2 13.4221 2.07549   1
  -7   2   2 20.2475 2.53060   2
   6  -2  -2 32.3405 2.46242   1
   6  -2  -2 33.9233 3.19480   3
  -6   2   2 37.0220 3.10693   2
   5  -2  -2 461.669 14.1279   1
   5  -2  -2 515.100 14.8448   3
  -5   2   2 502.078 14.6957   2
   4  -2  -2 232.613 7.48182   3
  -4   2   2 230.977 7.39061   2
   3  -2  -2 110.696 4.04618   3
  -3   2   2 108.915 3.87789   2
   2  -2  -2 70.4614 2.86948   3
  -2   2   2 69.1393 2.71565   2
   1  -2  -2 9.12361 1.06553   3
   0  -2  -2 653.867 18.4359   2
   0  -2  -2 666.674 18.4596   3
   0  -2  -2 654.268 18.4243   1
  -1  -2  -2 129.538 4.13444   2
  -1  -2  -2 120.345 4.30462   1
  -1  -2  -2 131.870 4.03270   3
  -2  -2  -2 67.6679 2.71130   2
  -2  -2  -2 69.2287 3.10257   1
  -3  -2  -2 11.8608 1.64777   2
  -3  -2  -2 13.9520 1.76678   1
   3   2   2 13.5861 1.59113   3
  -4  -2  -2 0.23002 1.15903   2
  -4  -2  -2 0.01798 1.60955   1
   4   2   2 1.64032 1.22781   3
  -5  -2  -2 47.1716 3.57487   2
  -5  -2  -2 45.5883 3.93925   1
   5   2   2 39.5468 2.94690   3
  -6  -2  -2 136.282 5.66077   2
   6   2   2 126.274 6.20760   1
   6   2   2 122.970 6.03702   4
  -7  -2  -2 189.079 7.46722   2
   7   2   2 171.460 8.11402   1
   7   2   2 171.757 7.80720   4
  -8  -2  -2 17.5723 3.43417   2
   8   2   2 19.9327 3.89315   1
   8   2   2 23.3939 4.01464   4
 -10   3   2 6.11218 3.58168   2
   9  -3  -2 7.63028 3.67368   3
  -9   3   2 10.4953 3.34310   2
   8  -3  -2 196.076 8.29861   3
  -8   3   2 202.512 8.07557   2
   7  -3  -2 261.036 9.34512   3
  -7   3   2 267.214 9.39925   2
  -6   3   2 27.5886 2.98176   2
   5  -3  -2 472.530 14.1920   3
  -5   3   2 458.823 14.0330   2
   4  -3  -2 246.726 7.83842   3
  -4   3   2 235.820 7.68947   2
   3  -3  -2 2.54499 1.18025   3
  -3   3   2 1.72752 1.04420   2
   2  -3  -2 475.103 13.8616   3
  -2   3   2 476.992 13.7386   2
   1  -3  -2 120.286 4.24921   3
  -1   3   2 125.951 4.12723   2
   0  -3  -2 20.3544 1.53978   2
   0  -3  -2 21.6489 1.64584   3
   0  -3  -2 20.1656 1.60484   1
  -1  -3  -2 156.443 4.91750   3
  -1  -3  -2 149.963 5.11833   1
  -1  -3  -2 151.728 4.88673   2
  -2  -3  -2 258.847 8.16224   1
  -2  -3  -2 262.229 7.80898   2
   2   3   2 248.028 7.73791   3
  -3  -3  -2 62.3308 3.46662   1
  -3  -3  -2 64.6952 2.90188   2
   3   3   2 59.0184 2.94518   3
  -4  -3  -2 86.1567 3.85450   2
  -4  -3  -2 89.3578 4.63823   1
   4   3   2 90.1702 3.80192   3
  -5  -3  -2 176.098 6.41637   2
  -5  -3  -2 169.110 7.27345   1
  -6  -3  -2 -1.2819 1.89233   2
  -7  -3  -2 37.1450 4.50901   2
   7   3   2 41.9790 5.11266   4
   7   3   2 33.8443 4.23860   1
  -8  -3  -2 13.5351 3.56997   2
   8   3   2 8.12045 4.09279   4
   8   3   2 15.6600 4.00568   1
   9  -4  -2 45.0429 6.43344   3
  -9   4   2 38.9803 5.56782   2
   8  -4  -2 37.4911 4.96493   3
  -8   4   2 26.6437 3.45990   2
   7  -4  -2 233.860 8.65254   3
  -7   4   2 218.316 8.38972   2
   6  -4  -2 284.455 9.61386   3
  -6   4   2 275.819 9.47841   2
   5  -4  -2 71.3509 3.86256   3
  -5   4   2 71.3519 3.83577   2
   4  -4  -2 35.2986 2.66679   3
  -4   4   2 32.8351 2.53666   2
   3  -4  -2 0.42857 1.14664   3
  -3   4   2 0.36530 1.09719   2
   2  -4  -2 354.705 10.6566   3
  -2   4   2 345.439 10.4388   2
   1  -4  -2 34.8000 2.21016   1
   1  -4  -2 38.2052 2.27472   3
  -1   4   2 39.4012 2.05684   2
   0  -4  -2 8.62361 1.22438   3
   0  -4  -2 11.2360 1.61183   1
   0  -4  -2 7.99469 1.07252   2
  -1  -4  -2 39.2195 2.06417   2
  -1  -4  -2 39.1354 2.19977   3
  -1  -4  -2 37.9045 2.40596   1
  -2  -4  -2 1.94339 0.92597   2
  -2  -4  -2 2.28740 1.33306   1
   2   4   2 3.00616 1.33799   3
  -3  -4  -2 9.51248 1.98777   1
  -3  -4  -2 9.16835 1.37307   2
   3   4   2 6.24585 1.57893   3
  -4  -4  -2 29.3602 2.56425   2
  -4  -4  -2 29.6999 3.64406   1
   4   4   2 24.4787 2.89922   3
  -5  -4  -2 -1.7148 1.81063   2
  -5  -4  -2 1.96130 2.43382   1
   5   4   2 0.83143 2.06882   3
  -6  -4  -2 239.011 10.0235   1
  -6  -4  -2 259.266 9.03658   2
  -7  -4  -2 155.888 7.18942   2
   7   4   2 146.077 11.2998   1
   7   4   2 136.996 12.2353   4
   8   4   2 4.52136 4.15500   4
   9  -5  -2 9.34089 4.06840   3
  -9   5   2 16.2605 3.72738   2
   8  -5  -2 107.191 6.55943   3
  -8   5   2 102.081 6.12507   2
   7  -5  -2 36.2431 4.28662   3
  -7   5   2 48.1463 4.36436   2
   6  -5  -2 17.9241 2.64641   3
  -6   5   2 19.6372 2.58882   2
   5  -5  -2 186.515 6.97383   3
  -5   5   2 181.900 6.86502   2
   4  -5  -2 157.021 5.93452   3
  -4   5   2 154.411 5.78737   2
   3  -5  -2 84.5954 3.86324   3
  -3   5   2 82.8012 3.67181   2
   2  -5  -2 0.97355 1.22581   3
  -2   5   2 2.56271 1.15245   2
   1  -5  -2 473.916 13.6235   1
   1  -5  -2 473.431 14.0784   3
  -1   5   2 473.426 13.7741   2
   0  -5  -2 55.0286 2.59895   2
   0  -5  -2 55.0753 2.75066   1
   0  -5  -2 52.4659 2.82475   3
  -1  -5  -2 21.2815 1.90909   2
  -1  -5  -2 22.3940 2.03254   3
  -1  -5  -2 18.1810 2.25340   1
  -2  -5  -2 -0.3871 1.05657   2
  -2  -5  -2 -0.5658 1.42409   1
   2   5   2 3.09095 1.63790   3
  -3  -5  -2 490.200 14.6379   1
  -3  -5  -2 466.687 13.8681   2
   3   5   2 443.736 14.0595   3
  -4  -5  -2 154.391 6.69756   1
  -4  -5  -2 144.565 5.48126   2
   4   5   2 144.288 5.81022   3
  -5  -5  -2 3.06772 2.75621   1
  -5  -5  -2 3.77088 2.05506   2
   5   5   2 7.25466 2.41090   3
  -6  -5  -2 90.6490 5.33670   2
  -6  -5  -2 89.2304 6.61884   1
   7   5   2 121.250 7.89111   1
   7   5   2 125.619 7.84509   4
  -9   6   2 0.76639 3.53115   2
   8  -6  -2 13.3676 3.71211   3
  -8   6   2 22.1715 3.78363   2
   7  -6  -2 14.8062 2.99575   3
  -7   6   2 11.8007 2.89116   2
   6  -6  -2 108.087 5.64009   3
  -6   6   2 109.659 5.49397   2
   5  -6  -2 34.0587 3.72757   3
  -5   6   2 31.7450 3.41150   2
   4  -6  -2 2.60915 1.89897   3
  -4   6   2 0.51183 1.67573   2
   3  -6  -2 114.502 4.89374   3
  -3   6   2 113.726 4.67702   2
   2  -6  -2 432.118 13.3254   3
  -2   6   2 435.599 13.0177   2
   1  -6  -2 355.678 10.6644   1
   1  -6  -2 361.898 11.2102   3
  -1   6   2 357.553 10.8020   2
   0  -6  -2 48.1234 2.87089   1
   0  -6  -2 43.3146 3.00997   3
  -1  -6  -2 13.1800 1.85763   3
  -1  -6  -2 12.5358 1.55870   2
  -1  -6  -2 10.5422 1.89176   1
  -2  -6  -2 238.262 7.66278   2
   2   6   2 236.373 8.15264   3
  -3  -6  -2 95.9156 4.12179   2
  -3  -6  -2 91.9512 5.13843   1
  -4  -6  -2 73.5235 6.07247   2
  -4  -6  -2 74.1219 5.25665   1
   4   6   2 69.1295 5.49705   3
  -5  -6  -2 52.4140 5.51104   1
  -5  -6  -2 56.7434 4.25461   2
  -6  -6  -2 -3.6656 4.45702   1
   9  -7  -2 -0.5592 4.17227   3
  -9   7   2 6.25362 3.94989   2
   8  -7  -2 54.6748 6.51463   3
  -8   7   2 58.9196 5.82959   2
   7  -7  -2 -1.0899 3.02421   3
  -7   7   2 0.34313 2.86646   2
   6  -7  -2 2.82535 2.64918   3
  -6   7   2 7.78914 2.58907   2
   5  -7  -2 157.887 6.86763   3
  -5   7   2 163.187 6.75378   2
   4  -7  -2 154.898 6.50389   3
  -4   7   2 150.245 6.19363   2
   3  -7  -2 57.2091 3.77586   3
  -3   7   2 46.6169 5.61927   2
   2  -7  -2 321.790 10.6509   3
  -2   7   2 326.746 10.2884   2
   1  -7  -2 826.686 23.5515   1
  -1   7   2 822.671 23.6476   2
   0  -7  -2 28.7142 3.52750   3
   0  -7  -2 28.6440 2.89012   1
   0   7   2 27.1797 2.49872   2
  -1  -7  -2 12.9733 1.72219   2
  -1  -7  -2 12.1683 2.25131   1
  -2  -7  -2 2.73743 2.28883   1
  -2  -7  -2 3.19097 1.58470   2
   2   7   2 4.83275 2.35558   3
  -3  -7  -2 61.5319 3.71157   2
  -3  -7  -2 70.1076 5.03545   1
  -4  -7  -2 24.3545 2.93105   2
  -4  -7  -2 17.5374 3.62517   1
   4   7   2 19.3303 3.28598   3
  -5  -7  -2 40.3978 4.78304   1
  -6  -7  -2 -5.3231 4.08209   1
   9  -8  -2 0.03341 4.19970   3
   8  -8  -2 20.8598 4.77107   3
  -8   8   2 19.4924 4.24558   2
   7  -8  -2 19.0278 3.88814   3
  -7   8   2 12.3805 3.66104   2
   6  -8  -2 24.6081 3.62042   3
  -6   8   2 33.5659 4.63333   2
   5  -8  -2 62.4902 4.83521   3
  -5   8   2 57.3439 4.73978   2
   4  -8  -2 87.2561 5.29330   3
  -4   8   2 84.9457 4.94762   2
   3  -8  -2 36.2964 3.77013   3
  -3   8   2 41.8574 3.71720   2
   2  -8  -2 -1.4101 2.10943   3
  -2   8   2 5.06524 3.68233   2
   1  -8  -2 11.6562 2.42902   3
   1  -8  -2 12.1233 1.97080   1
  -1   8   2 10.6955 1.94269   2
   0  -8  -2 186.240 6.87927   1
   0  -8  -2 185.985 7.19047   3
   0   8   2 182.745 6.51318   2
  -1  -8  -2 15.1009 2.57355   3
  -1  -8  -2 11.5539 2.58720   1
   1   8   2 15.9396 2.16692   2
  -2  -8  -2 346.585 11.2617   2
  -2  -8  -2 359.408 12.1542   1
   2   8   2 372.275 12.2678   3
  -3  -8  -2 226.451 9.65326   2
  -3  -8  -2 202.495 8.85526   1
  -4  -8  -2 -0.9240 3.50080   1
   4   8   2 6.59352 3.54348   3
  -5  -8  -2 126.101 8.16387   1
  -6  -8  -2 22.5595 5.12854   1
   8  -9  -2 4.85861 4.40796   3
  -8   9   2 2.32843 4.19926   2
  -7   9   2 12.8052 3.99914   2
   6  -9  -2 -0.0156 3.23714   3
  -6   9   2 -0.4084 3.10082   2
   5  -9  -2 65.1491 5.43697   3
  -5   9   2 75.3893 5.50116   2
   4  -9  -2 1.52788 2.65894   3
  -4   9   2 1.45991 2.70491   2
   3  -9  -2 4.70581 2.55248   3
  -3   9   2 6.00591 2.50664   2
   2  -9  -2 134.478 6.32226   3
   2  -9  -2 121.331 5.22842   1
  -2   9   2 141.495 5.95060   2
   1  -9  -2 52.9906 3.78687   1
   1  -9  -2 50.0007 4.37148   3
  -1   9   2 59.8499 3.98263   2
   0  -9  -2 15.3995 2.83733   1
   0  -9  -2 11.4707 2.70677   3
   0   9   2 12.1973 2.74403   2
  -1  -9  -2 -1.2650 2.61122   3
  -1  -9  -2 3.20714 2.78653   1
   1   9   2 -2.7896 2.05170   2
  -2  -9  -2 34.8189 5.00114   1
   2   9   2 27.5050 3.88497   3
  -3  -9  -2 82.7911 6.45273   1
  -4  -9  -2 57.9082 9.01513   1
   4   9   2 60.0640 6.67688   3
  -5  -9  -2 12.6510 4.83589   1
   7 -10  -2 -3.2806 4.33633   3
  -7  10   2 -4.8951 4.10861   2
   6 -10  -2 183.374 10.8251   3
  -6  10   2 182.190 10.8034   2
   5 -10  -2 279.021 11.6161   3
  -5  10   2 321.010 11.3966   2
   4 -10  -2 14.0770 3.56744   3
  -4  10   2 20.0934 3.40832   2
   3 -10  -2 158.971 7.66909   3
  -3  10   2 154.020 7.14917   2
   2 -10  -2 54.3362 5.05549   3
  -2  10   2 58.6686 4.87600   2
   1 -10  -2 13.8430 3.08019   3
   1 -10  -2 22.6913 3.46373   1
  -1  10   2 22.9771 2.83909   2
   0 -10  -2 7.61428 3.18705   1
   0 -10  -2 4.16474 2.87505   3
   0  10   2 2.89221 2.40426   2
  -1 -10  -2 9.33791 3.32175   1
   1  10   2 2.51746 3.57467   3
  -2 -10  -2 16.3256 3.83614   1
   2  10   2 14.2049 4.03977   3
  -3 -10  -2 20.4578 4.36572   1
   3  10   2 10.7683 4.74326   3
  -4 -10  -2 15.4689 4.88297   1
   7 -11  -2 32.3697 5.60349   3
  -7  11   2 27.0776 5.07853   2
   6 -11  -2 73.4995 7.83548   3
  -6  11   2 61.3946 7.36060   2
   5 -11  -2 46.9829 6.58315   3
  -5  11   2 61.8170 6.62742   2
   4 -11  -2 23.3316 6.29132   3
  -4  11   2 39.9968 5.62399   2
   3 -11  -2 4.97299 3.48550   3
  -3  11   2 9.98759 3.48550   2
   2 -11  -2 22.2869 3.83750   3
  -2  11   2 36.5054 5.03176   2
   1 -11  -2 4.47998 3.38102   3
  -1  11   2 -0.1098 2.88643   2
   0 -11  -2 29.9219 4.15715   1
   0 -11  -2 29.8681 4.17567   3
  -1 -11  -2 6.71040 3.80324   1
   1  11   2 6.26917 4.37935   3
  -2 -11  -2 7.68290 4.18185   1
   2  11   2 -1.0137 4.42065   3
   3  11   2 6.09105 5.51379   3
   6 -12  -2 32.1203 5.76616   3
  -6  12   2 20.7566 4.45017   2
   5 -12  -2 11.0597 4.79259   3
  -5  12   2 8.05211 4.22362   2
   4 -12  -2 4.24578 4.42679   3
  -4  12   2 1.93149 4.19632   2
   3 -12  -2 39.9207 5.04302   3
  -3  12   2 52.9594 6.38165   2
   2 -12  -2 18.6119 4.22001   3
   1 -12  -2 104.736 7.68045   3
   0  12   2 1.55919 4.61115   3
  -1 -12  -2 -4.0248 4.59074   1
   1  12   2 5.71830 4.93751   3
  -2 -12  -2 5.72622 4.91229   1
   2  12   2 2.44981 4.63278   3
   4 -13  -2 19.1983 5.45434   3
   3 -13  -2 7.36587 4.95126   3
   2 -13  -2 7.10337 4.82602   3
   1 -13  -2 3.24634 4.75403   3
   0  13   2 48.6253 6.29442   3
   1  14  -3 28.3111 5.76712   3
  -1 -14   3 33.2192 5.31938   1
   0  14  -3 0.52233 5.10817   3
   0 -14   3 7.51262 5.81942   1
  -1  14  -3 89.8012 8.46364   3
  -2  14  -3 39.8795 5.86105   3
   3 -14   3 4.84834 4.83397   3
   4 -14   3 2.80022 5.05824   3
   3  13  -3 56.4173 6.88643   3
  -3 -13   3 54.2357 7.71599   1
   2  13  -3 37.9016 5.39266   3
  -2 -13   3 50.7615 6.96903   1
   1  13  -3 16.7045 4.52609   3
  -1 -13   3 12.3012 4.37708   1
   0  13  -3 3.77513 4.24812   3
   0 -13   3 1.56173 3.93887   1
  -1  13  -3 93.7183 7.71942   3
   1 -13   3 92.0507 7.15676   1
   2 -13   3 43.0393 5.15733   3
   3 -13   3 12.5107 4.41796   3
   4 -13   3 13.9929 4.77404   3
  -5  13  -3 29.3257 5.89569   2
   5 -13   3 16.6845 4.85586   3
   4  12  -3 14.3290 5.48513   3
  -4 -12   3 16.5805 5.13318   1
   3  12  -3 14.2517 4.78762   3
  -3 -12   3 6.24917 4.14053   1
   2  12  -3 8.87286 4.77163   3
  -2 -12   3 10.7441 4.16962   1
   1  12  -3 22.6270 4.10679   3
  -1 -12   3 17.6870 3.92072   1
   0  12  -3 18.4634 3.91823   3
   0 -12   3 17.3212 3.63648   1
  -1  12  -3 38.9290 4.61987   3
   1 -12   3 45.0455 5.24963   1
   2 -12   3 -1.3525 3.26974   1
   2 -12   3 -0.2929 3.20616   3
   3 -12   3 21.8297 4.15643   3
  -4  12  -3 9.51666 3.33706   2
   4 -12   3 7.44598 3.94477   3
  -5  12  -3 14.3816 3.95059   2
   5 -12   3 19.2234 4.65882   3
  -6  12  -3 7.16759 3.72952   2
   6 -12   3 4.17687 4.28507   3
   5  11  -3 5.55029 4.96204   3
  -5 -11   3 6.35665 4.82814   1
  -4 -11   3 32.5926 4.74338   1
   3  11  -3 114.158 7.88031   3
  -3 -11   3 116.366 7.25347   1
   2  11  -3 21.8957 3.89517   3
  -2 -11   3 28.3728 3.86359   1
   1  11  -3 19.5426 3.49854   3
  -1 -11   3 18.2642 3.37634   1
   0  11  -3 -2.5427 2.97175   3
   0 -11   3 3.77286 2.87889   1
   1 -11   3 61.5829 5.09520   3
   1 -11   3 71.2848 5.12501   1
  -2  11  -3 99.7844 8.16563   2
   2 -11   3 94.3558 5.87842   3
   2 -11   3 101.772 5.55561   1
  -3  11  -3 3.84401 2.75447   2
   3 -11   3 5.62417 2.97853   3
   3 -11   3 10.1499 2.94799   1
  -4  11  -3 4.39007 2.80148   2
   4 -11   3 8.99146 3.31727   3
  -5  11  -3 28.9774 3.76596   2
   5 -11   3 26.8597 4.30563   3
  -6  11  -3 10.3242 3.89485   2
   6 -11   3 0.02927 4.46090   3
  -7  11  -3 13.0687 3.93683   2
   7 -11   3 10.9231 6.97105   3
   6  10  -3 61.1482 7.91913   3
   5  10  -3 -1.5238 4.27477   3
  -5 -10   3 -0.5598 4.16268   1
   4  10  -3 15.6952 4.10214   3
  -4 -10   3 15.5632 3.80335   1
   3  10  -3 181.004 8.44779   3
  -3 -10   3 177.475 8.19424   1
   2  10  -3 110.097 6.07687   3
  -2 -10   3 106.053 6.08736   1
   1  10  -3 23.0459 3.28773   3
  -1 -10   3 24.5506 3.16247   1
   0  10  -3 17.5109 3.05040   3
   0 -10   3 25.9482 3.86654   1
  -1  10  -3 144.804 5.44940   2
   1 -10   3 133.357 6.36742   3
   1 -10   3 150.694 6.17943   1
  -2  10  -3 0.41313 1.96210   2
   2 -10   3 2.54794 2.44523   3
   2 -10   3 -2.3432 2.22229   1
  -3  10  -3 3.35985 2.28671   2
   3 -10   3 0.11641 2.54361   3
  -4  10  -3 80.5485 4.94156   2
   4 -10   3 70.0185 5.16003   1
   4 -10   3 78.6291 5.65204   3
  -5  10  -3 146.267 7.06686   2
   5 -10   3 140.682 7.45513   3
  -6  10  -3 0.01850 3.09363   2
   6 -10   3 -3.9799 3.62006   3
  -7  10  -3 26.5678 4.30747   2
   7   9  -3 2.58505 4.47146   3
  -7  -9   3 3.17683 5.00042   1
   6   9  -3 75.0645 7.84330   3
  -6  -9   3 77.7831 7.41060   1
   5   9  -3 82.3439 6.66884   3
  -5  -9   3 73.4858 6.34016   1
   4   9  -3 14.3554 3.39342   3
  -4  -9   3 12.7035 3.36056   1
   3   9  -3 16.1783 3.20447   3
  -3  -9   3 11.7964 2.97999   1
   2   9  -3 1.97702 2.41470   3
  -2  -9   3 1.29368 2.51696   1
   1   9  -3 40.1256 4.02213   3
  -1  -9   3 45.6429 3.91488   1
   0   9  -3 9.85433 2.60876   3
   0  -9   3 17.9379 2.50743   1
  -1   9  -3 11.7004 1.86220   2
   1  -9   3 5.74807 2.23303   3
   1  -9   3 15.2929 2.10934   1
  -2   9  -3 198.156 6.96165   2
   2  -9   3 202.775 7.22406   1
   2  -9   3 201.942 7.70129   3
  -3   9  -3 16.1542 2.48527   2
   3  -9   3 17.7367 2.46331   1
   3  -9   3 19.9920 2.85664   3
  -4   9  -3 11.0013 2.41373   2
   4  -9   3 20.8016 2.63406   1
   4  -9   3 14.3667 2.88587   3
  -5   9  -3 98.7839 5.43399   2
   5  -9   3 103.551 8.55217   1
   5  -9   3 94.5371 5.84100   3
  -6   9  -3 72.5395 5.45060   2
   6  -9   3 72.0210 5.89104   3
  -7   9  -3 4.46616 3.12413   2
  -8   9  -3 6.31929 4.05632   2
   7   8  -3 12.1107 4.62483   3
  -7  -8   3 6.03936 4.46558   1
   6   8  -3 2.54908 3.66202   3
  -6  -8   3 3.15795 3.57385   1
   5   8  -3 11.7347 3.29439   3
  -5  -8   3 11.4954 3.22432   1
   4   8  -3 1.81213 2.63179   3
  -4  -8   3 1.26256 2.75819   1
   3   8  -3 106.840 5.62856   3
  -3  -8   3 104.709 5.37967   1
   2   8  -3 185.925 7.15333   3
  -2  -8   3 180.872 7.09753   1
   1   8  -3 0.83698 1.99485   3
  -1  -8   3 2.19510 1.74843   1
   0  -8   3 390.799 11.8866   1
   0  -8   3 367.454 13.2671   3
  -1   8  -3 127.157 4.59948   2
   1  -8   3 127.361 5.04943   1
  -2   8  -3 17.8826 2.46724   2
   2  -8   3 15.1252 2.08053   1
  -3   8  -3 537.799 16.3418   2
   3  -8   3 550.416 16.3330   1
   3  -8   3 553.345 16.7234   3
  -4   8  -3 164.174 6.45001   2
   4  -8   3 164.755 6.25804   1
   4  -8   3 165.149 6.63722   3
  -5   8  -3 0.26826 2.09484   2
   5  -8   3 2.09364 2.19025   1
   5  -8   3 -3.4587 2.26785   3
  -6   8  -3 13.1945 2.87309   2
   6  -8   3 14.2057 3.13089   3
  -7   8  -3 1.25731 3.60887   2
  -8   8  -3 11.7591 3.72903   2
  -8  -7   3 62.3275 7.91355   1
   7   7  -3 32.2380 4.68727   3
  -7  -7   3 37.6588 4.94931   1
   6   7  -3 5.55343 3.39368   3
  -6  -7   3 11.0089 3.36636   1
   5   7  -3 42.0674 4.38609   3
  -5  -7   3 38.9095 4.36456   1
   4   7  -3 122.804 5.76322   3
  -4  -7   3 122.537 5.90028   1
   3   7  -3 6.93227 2.12613   3
  -3  -7   3 6.23428 2.08793   1
   2   7  -3 78.7212 4.06849   3
  -2  -7   3 76.6600 3.99532   1
   1   7  -3 262.567 8.64904   3
  -1  -7   3 249.523 8.40264   1
   0  -7   3 196.650 6.62763   1
   0  -7   3 187.839 6.71699   3
  -1   7  -3 4.55695 1.26025   2
   1  -7   3 4.94079 1.49682   3
   1  -7   3 6.99180 1.49100   1
  -2   7  -3 159.996 5.61574   2
   2  -7   3 165.985 5.78416   1
   2  -7   3 163.832 6.03231   3
  -3   7  -3 468.182 14.1882   2
   3  -7   3 477.247 14.1711   1
   3  -7   3 473.475 14.4190   3
  -4   7  -3 258.796 8.53055   2
   4  -7   3 240.598 8.44186   3
   4  -7   3 250.646 8.28974   1
  -5   7  -3 21.9391 2.67692   2
   5  -7   3 24.5628 3.92553   3
   5  -7   3 26.0247 3.20808   1
  -6   7  -3 6.99159 2.35562   2
   6  -7   3 8.08425 2.63271   1
   6  -7   3 3.63192 2.46916   3
  -7   7  -3 18.5068 3.20113   2
  -8   7  -3 35.9697 4.36070   2
   8   6  -3 9.28041 4.28541   3
  -8  -6   3 7.47001 4.32401   1
   7   6  -3 2.35843 3.38725   3
  -7  -6   3 6.06302 3.57286   1
   6   6  -3 0.09991 2.87457   3
  -6  -6   3 0.80936 2.68526   1
   5   6  -3 15.5446 2.87651   3
  -5  -6   3 15.5522 2.91401   1
   4   6  -3 227.319 8.17249   3
  -4  -6   3 229.632 8.31986   1
   3   6  -3 264.852 9.02219   3
  -3  -6   3 274.654 9.07037   1
   2   6  -3 5.33959 1.50519   3
  -2  -6   3 6.48541 1.52639   1
   1   6  -3 349.377 10.6854   3
  -1  -6   3 337.546 10.5668   1
   0  -6   3 1168.82 33.3395   1
   0  -6   3 1200.70 33.4811   3
  -1   6  -3 83.6458 3.22574   2
   1  -6   3 90.5503 3.70390   3
   1  -6   3 86.1616 3.56856   1
  -2   6  -3 30.7859 2.21734   2
   2  -6   3 32.9580 2.29383   1
   2  -6   3 30.7824 2.44279   3
  -3   6  -3 99.6863 4.09926   2
   3  -6   3 100.833 4.03356   1
   3  -6   3 94.7320 4.08984   3
  -4   6  -3 72.8330 4.25855   2
   4  -6   3 77.2941 3.77737   3
   4  -6   3 75.6419 3.75636   1
  -5   6  -3 6.82883 1.86418   2
   5  -6   3 7.39439 1.95557   3
   5  -6   3 9.29644 1.84372   1
  -6   6  -3 4.99555 2.06904   2
   6  -6   3 2.35787 2.13136   3
   6  -6   3 3.27988 2.23355   1
  -7   6  -3 16.5895 3.01313   2
   7  -6   3 17.2563 3.09442   1
  -8   6  -3 48.5500 5.63052   2
  -9   6  -3 -0.3974 3.32065   2
  -9  -5   3 5.05234 4.27609   1
   8   5  -3 30.2514 4.62886   3
   7   5  -3 69.4063 5.92532   3
  -7  -5   3 64.6170 5.60994   1
   6   5  -3 1.03236 2.60119   3
  -6  -5   3 -1.1311 2.48214   1
   5   5  -3 55.1224 4.22356   3
  -5  -5   3 56.6191 4.10716   1
   4   5  -3 233.202 8.12325   3
   3   5  -3 700.481 20.3344   3
  -3  -5   3 688.220 20.3116   1
   2   5  -3 41.6676 2.64766   3
  -2  -5   3 39.3822 2.53746   1
   1   5  -3 7.99222 1.38023   3
  -1  -5   3 7.78821 1.37557   1
   0  -5   3 -0.6721 0.95713   1
   0  -5   3 0.92065 1.10811   3
  -1   5  -3 377.982 11.0495   2
   1  -5   3 378.637 11.1854   1
   1  -5   3 377.706 11.2364   3
  -2   5  -3 521.659 15.0572   2
   2  -5   3 516.740 15.1296   3
   2  -5   3 524.986 15.1432   1
  -3   5  -3 46.7445 2.69484   2
   3  -5   3 48.2232 2.70394   1
   3  -5   3 50.9978 2.64011   3
  -4   5  -3 57.7458 3.27493   2
   4  -5   3 55.0283 3.27405   1
   4  -5   3 64.5027 3.09363   3
  -5   5  -3 232.391 7.94048   2
   5  -5   3 222.939 7.72079   1
   5  -5   3 224.678 7.56682   3
  -6   5  -3 24.5482 3.29727   2
   6  -5   3 23.1371 3.00301   3
   6  -5   3 23.2918 2.74027   1
  -7   5  -3 19.6188 2.79488   2
   7  -5   3 9.99980 2.88018   1
  -8   5  -3 317.389 11.8794   2
  -9   5  -3 73.5668 6.33606   2
  -9  -4   3 4.71358 3.88767   1
   8   4  -3 2.13721 3.42197   3
  -8  -4   3 -5.9814 3.29740   1
   7   4  -3 80.7956 5.47946   3
  -7  -4   3 79.4667 5.60605   1
  -7  -4   3 75.9062 4.41458   2
   6   4  -3 483.659 15.0509   3
  -6  -4   3 475.597 14.1904   2
  -6  -4   3 466.117 15.1078   1
   5   4  -3 -0.5642 1.90312   3
  -5  -4   3 0.70560 1.76458   1
  -5  -4   3 2.42681 1.14089   2
   4   4  -3 1.71831 1.61673   3
  -4  -4   3 2.74585 1.64270   1
  -4  -4   3 3.30919 0.86712   2
   3   4  -3 128.700 4.79226   3
  -3  -4   3 121.655 4.73131   1
   2   4  -3 405.858 12.1227   3
  -2  -4   3 408.062 12.0961   1
   1   4  -3 11.3710 1.74801   3
  -1  -4   3 13.5710 1.65021   1
   0   4  -3 230.412 7.00273   3
   0  -4   3 224.993 6.98845   1
  -1   4  -3 -0.1069 0.76773   2
   1  -4   3 1.10637 0.92575   1
   1  -4   3 -0.9205 0.84523   3
  -2   4  -3 144.606 4.74985   2
   2  -4   3 137.341 4.77820   1
   2  -4   3 140.784 4.64696   3
  -3   4  -3 502.101 14.8134   2
   3  -4   3 512.478 14.5712   3
   3  -4   3 500.622 14.7438   1
  -4   4  -3 310.598 9.93053   2
   4  -4   3 317.922 9.57401   3
   4  -4   3 324.337 9.93541   1
  -5   4  -3 617.910 17.9251   2
   5  -4   3 576.734 17.2875   3
   5  -4   3 596.910 17.7432   1
  -6   4  -3 175.761 6.81825   2
   6  -4   3 155.564 6.25493   3
   6  -4   3 189.439 6.86518   1
  -7   4  -3 3.31958 2.28631   2
   7  -4   3 3.93556 2.50806   1
  -8   4  -3 -0.4400 2.65174   2
   8  -4   3 -1.1108 3.07187   1
  -9   4  -3 131.568 7.73067   2
   8   3  -3 1.09312 3.23792   3
  -8  -3   3 9.15413 3.40098   1
  -8  -3   3 8.69970 2.70195   2
   7   3  -3 87.2773 5.35235   3
  -7  -3   3 81.4741 5.42616   1
  -7  -3   3 85.4340 4.57588   2
   6   3  -3 29.9875 3.68183   3
  -6  -3   3 25.1312 2.65657   2
  -6  -3   3 29.0143 3.42328   1
   5   3  -3 935.104 26.6291   3
  -5  -3   3 917.061 25.9773   2
  -5  -3   3 906.862 26.6030   1
   4   3  -3 228.571 7.65720   3
  -4  -3   3 231.834 7.65550   1
  -4  -3   3 229.194 6.95764   2
   3   3  -3 279.572 8.66856   3
  -3  -3   3 273.493 8.61061   1
   2   3  -3 103.204 3.83181   3
  -2  -3   3 102.879 3.75632   1
   1   3  -3 77.8924 3.00560   3
  -1  -3   3 73.9679 2.92099   1
   0   3  -3 11.9875 1.45986   3
   0   3  -3 11.0151 0.94075   2
   0  -3   3 12.7075 1.44356   1
  -1   3  -3 1310.39 35.6352   2
   1  -3   3 1296.74 35.7790   1
   1  -3   3 1252.88 35.6395   3
  -2   3  -3 2.51788 0.92729   2
   2  -3   3 2.60872 1.01241   1
   2  -3   3 2.94667 0.84402   3
  -3   3  -3 45.7000 2.46407   2
   3  -3   3 46.0339 2.50290   1
   3  -3   3 47.1070 2.04952   3
  -4   3  -3 41.9430 2.68190   2
   4  -3   3 43.2174 2.76281   1
   4  -3   3 42.6245 2.21611   3
  -5   3  -3 28.7572 2.67385   2
   5  -3   3 24.0023 2.20258   3
   5  -3   3 29.0150 2.91406   1
  -6   3  -3 113.176 5.30262   2
   6  -3   3 114.067 5.34192   1
  -7   3  -3 81.8123 5.07318   2
   7  -3   3 95.6480 5.41316   1
   8  -3   3 66.8681 5.67747   1
  -9   3  -3 -2.3668 3.22365   2
   9  -3   3 -0.7910 3.95277   1
   9   2  -3 0.26136 3.46757   1
   9   2  -3 0.26837 3.58593   4
  -9  -2   3 -1.7341 3.09488   2
   8   2  -3 10.2889 3.18059   3
  -8  -2   3 10.9756 3.24926   1
  -8  -2   3 7.23979 2.48037   2
   7   2  -3 154.767 6.91421   3
  -7  -2   3 163.445 6.26606   2
  -7  -2   3 160.871 6.99295   1
   6   2  -3 964.135 31.8559   3
  -6  -2   3 1077.43 29.1644   2
   5   2  -3 27.1623 2.82888   3
  -5  -2   3 28.1956 2.19612   2
  -5  -2   3 29.8039 2.75961   1
   4   2  -3 710.529 20.5694   3
  -4  -2   3 703.686 20.0787   2
  -4  -2   3 719.280 20.4937   1
   3   2  -3 319.562 9.57260   3
  -3  -2   3 303.993 9.36978   1
  -3  -2   3 311.651 9.29692   2
   2   2  -3 204.248 6.32457   3
  -2  -2   3 191.806 6.11147   1
  -2  -2   3 200.024 5.73605   2
   1   2  -3 456.945 13.0311   3
  -1  -2   3 441.720 13.0215   1
   0   2  -3 490.006 14.3145   2
   0   2  -3 537.531 14.4323   3
  -1   2  -3 3.36125 0.79929   2
   1  -2   3 3.07335 1.00018   1
  -2   2  -3 268.932 8.02271   2
   2  -2   3 262.364 8.08012   1
  -3   2  -3 30.1440 2.01234   2
   3  -2   3 32.2710 2.22284   1
  -4   2  -3 284.122 9.12928   2
   4  -2   3 292.719 9.19776   1
  -5   2  -3 307.951 9.54080   2
   5  -2   3 272.929 9.60011   1
   5  -2   3 281.514 8.58119   3
  -6   2  -3 8.04609 2.00254   2
   6  -2   3 8.25066 2.23774   1
  -7   2  -3 172.969 7.42334   2
   7  -2   3 190.723 7.78218   1
  -8   2  -3 -0.5625 4.03846   2
   8  -2   3 -1.0381 3.30562   1
  -9   2  -3 33.0948 4.06766   2
   9  -2   3 24.6574 4.62269   1
   9   1  -3 6.31770 3.77315   3
   9   1  -3 10.2796 3.81943   1
   9   1  -3 10.5454 3.72686   4
  -9  -1   3 9.91050 2.95994   2
   8   1  -3 1.69163 2.82646   3
  -8  -1   3 0.30372 2.20343   2
   7   1  -3 3.52151 2.41230   3
  -7  -1   3 0.78669 1.77638   2
  -7  -1   3 2.36082 2.19864   1
   6   1  -3 117.947 5.18640   3
  -6  -1   3 114.891 4.68699   2
  -6  -1   3 113.929 4.98634   1
   5   1  -3 445.633 13.5485   3
  -5  -1   3 442.737 13.1602   2
  -5  -1   3 446.222 13.3475   1
   4   1  -3 1129.73 31.7071   3
  -4  -1   3 1120.40 31.4849   1
  -4  -1   3 1113.57 31.3226   2
   3   1  -3 8.12824 1.31568   3
  -3  -1   3 10.0643 1.17798   1
  -3  -1   3 8.50362 0.97943   2
   2   1  -3 686.196 19.1996   3
  -2  -1   3 703.776 18.9028   2
  -2  -1   3 646.970 18.9817   1
   1   1  -3 200.016 5.90054   2
   1   1  -3 215.040 6.16647   3
  -1  -1   3 198.664 6.01783   1
   0   1  -3 5394.51 143.559   3
   0   1  -3 5274.16 143.635   2
   0  -1   3 5075.13 143.687   1
  -1   1  -3 1725.67 48.0672   2
   1  -1   3 1759.54 48.1605   1
  -2   1  -3 71.1635 2.83480   2
   2  -1   3 70.9529 2.96408   1
  -3   1  -3 349.941 10.5440   2
   3  -1   3 351.602 10.6604   1
  -4   1  -3 52.2092 2.86136   2
   4  -1   3 52.8771 3.04533   1
  -5   1  -3 61.5198 3.56776   2
   5  -1   3 63.9287 3.80971   1
  -6   1  -3 46.4189 3.59232   2
   6  -1   3 45.1235 4.14554   1
  -7   1  -3 37.0547 4.15583   2
   7  -1   3 45.0584 4.63644   1
  -8   1  -3 2.11227 3.48549   2
   8  -1   3 3.02066 3.24687   1
  -9   1  -3 56.3868 6.41779   2
   9  -1   3 48.3889 5.54138   1
 -10   0   3 17.1963 3.68503   2
   9   0  -3 1.68054 3.39489   3
  -9   0   3 -1.2929 2.67320   2
   8   0  -3 8.88277 2.95707   4
   8   0  -3 7.65638 3.02716   3
   8   0  -3 10.4220 2.74300   1
  -8   0   3 8.77771 2.27513   2
   7   0  -3 23.6723 2.90644   3
  -7   0   3 20.6290 2.47553   2
   6   0  -3 22.0702 2.93817   3
  -6   0   3 18.7007 2.61805   1
  -6   0   3 19.5799 2.10414   2
   5   0  -3 5.21040 1.54010   3
  -5   0   3 6.38701 1.41978   1
  -5   0   3 4.46166 1.28725   2
   4   0  -3 125.931 4.63588   3
  -4   0   3 124.524 4.21978   1
  -4   0   3 123.895 4.34068   2
   3   0  -3 24.9119 1.90845   3
  -3   0   3 21.4049 1.58586   2
  -3   0   3 21.8798 1.42895   1
   2   0  -3 3074.94 82.8422   3
  -2   0   3 2929.63 82.4742   1
  -2   0   3 3028.19 82.6255   2
   1   0  -3 28.7831 1.57843   3
   1   0  -3 27.1421 1.40363   2
  -1   0   3 26.0680 1.34641   1
   0   0  -3 867.335 23.5815   3
   0   0   3 840.150 23.7397   1
  -1   0  -3 85.9418 2.99672   2
   1   0   3 83.7515 3.10476   1
   1   0   3 82.2824 3.00443   4
  -2   0  -3 104.371 3.68429   2
   2   0   3 103.899 3.71654   4
   2   0   3 101.186 3.79392   1
  -3   0  -3 783.334 22.0247   2
   3   0   3 768.403 22.1596   1
   3   0   3 759.495 22.0059   4
  -4   0  -3 3.87927 1.31130   2
   4   0   3 3.60264 1.52365   1
   4   0   3 4.60385 1.47683   4
  -5   0  -3 208.117 7.34674   2
   5   0   3 201.362 7.28801   4
   5   0   3 202.115 7.46067   1
  -6   0  -3 85.8034 4.59299   2
   6   0   3 91.6412 4.95507   1
   6   0   3 78.0554 4.67048   4
  -7   0  -3 71.9746 4.76294   2
   7   0   3 59.1257 5.31771   1
  -8   0  -3 -0.2586 4.80282   2
   8   0   3 -0.3900 3.94671   1
   9   0   3 59.6600 7.78771   1
 -10   1   3 6.35593 3.38160   2
   9  -1  -3 12.6438 3.74760   3
  -9   1   3 14.8667 2.79418   2
   8  -1  -3 81.0051 5.46431   3
   8  -1  -3 82.6072 5.02629   4
   8  -1  -3 87.6604 5.11059   1
  -8   1   3 78.6775 4.89176   2
   7  -1  -3 92.9338 5.07389   3
   7  -1  -3 85.9051 4.30343   1
   7  -1  -3 88.0982 4.17002   4
  -7   1   3 87.8466 4.56982   2
   6  -1  -3 33.9501 3.22792   3
  -6   1   3 28.6291 3.04491   2
   5  -1  -3 32.4525 2.67201   3
  -5   1   3 29.3380 2.41807   2
  -5   1   3 27.7933 2.05914   1
   4  -1  -3 360.176 10.8753   3
  -4   1   3 350.906 10.6148   2
   3  -1  -3 13.2555 1.71960   3
  -3   1   3 12.6334 1.49855   2
   2  -1  -3 31.6152 1.88830   3
  -2   1   3 30.4687 1.74815   2
   1  -1  -3 721.719 20.1944   2
   0  -1  -3 1716.08 46.8509   2
   0  -1  -3 1800.57 46.7229   3
   0   1   3 1587.92 46.7940   1
   0   1   3 1683.67 46.7702   4
  -1  -1  -3 25.7226 1.21561   3
  -1  -1  -3 23.4904 1.62688   2
   1   1   3 22.2418 1.77794   1
   1   1   3 23.6663 1.68010   4
  -2  -1  -3 7.37029 1.05680   2
   2   1   3 6.99774 1.23717   4
   2   1   3 5.30087 1.27856   1
  -3  -1  -3 510.415 14.7530   2
   3   1   3 497.836 14.9480   1
   3   1   3 498.312 14.8149   4
  -4  -1  -3 479.943 14.2902   2
   4   1   3 474.265 14.3262   4
   4   1   3 471.234 14.5252   1
  -5  -1  -3 -2.1688 1.59450   2
   5   1   3 2.40039 1.91176   1
   5   1   3 -0.4179 1.82807   4
  -6  -1  -3 9.57159 2.14754   2
   6   1   3 13.8719 2.94973   4
   6   1   3 13.9256 3.00174   1
  -7  -1  -3 16.3161 2.82868   2
   7   1   3 10.4620 2.98364   4
   7   1   3 14.0177 3.04626   1
  -8  -1  -3 9.39564 3.92007   2
   8   1   3 7.90758 3.74637   1
 -10   2   3 46.2256 5.95132   2
   9  -2  -3 7.87008 3.57749   3
  -9   2   3 6.18601 2.98763   2
   8  -2  -3 32.7895 4.45498   3
  -8   2   3 30.7254 4.04320   2
   7  -2  -3 235.536 8.09202   1
   7  -2  -3 265.619 9.21221   3
  -7   2   3 253.702 8.85332   2
   6  -2  -3 119.841 6.11777   3
  -6   2   3 120.333 5.08093   2
   5  -2  -3 144.093 5.59201   3
  -5   2   3 146.787 5.39901   2
   4  -2  -3 880.329 25.4212   3
  -4   2   3 897.253 25.2772   2
   3  -2  -3 152.117 5.26395   3
  -3   2   3 154.522 5.12903   2
   2  -2  -3 604.792 17.1569   3
  -2   2   3 592.916 17.0140   2
   1  -2  -3 268.630 8.00125   2
   1  -2  -3 267.568 8.02878   3
   0  -2  -3 113.251 3.73858   3
   0  -2  -3 111.801 3.83708   1
   0  -2  -3 112.494 3.81381   2
  -1  -2  -3 94.4504 3.33545   2
  -1  -2  -3 87.5640 3.30813   3
  -1  -2  -3 90.3809 3.51816   1
  -2  -2  -3 148.862 5.28120   1
  -2  -2  -3 146.892 4.96396   2
  -3  -2  -3 307.327 9.63504   1
  -3  -2  -3 308.885 9.27798   2
   3   2   3 278.510 8.76560   3
  -4  -2  -3 40.9403 2.84047   2
  -5  -2  -3 116.338 5.10164   2
   5   2   3 113.265 5.32080   4
   5   2   3 112.311 5.56826   1
  -6  -2  -3 64.1962 4.35194   2
   6   2   3 58.5307 4.59554   4
   6   2   3 56.0408 4.89546   1
  -7  -2  -3 98.2272 5.73311   2
   7   2   3 96.7859 6.35766   1
   7   2   3 88.3436 6.12441   4
  -8  -2  -3 12.8341 3.55813   2
   8   2   3 12.8460 3.91365   4
   8   2   3 7.44772 3.94384   1
 -10   3   3 32.6477 4.08813   2
   9  -3  -3 61.6611 6.42194   3
   8  -3  -3 124.006 6.61341   3
  -8   3   3 129.088 6.29409   2
   7  -3  -3 125.686 5.98698   3
  -7   3   3 119.600 5.73686   2
   6  -3  -3 64.4076 4.08801   3
  -6   3   3 60.9712 3.81891   2
   5  -3  -3 260.233 8.73275   3
  -5   3   3 261.514 8.59654   2
   4  -3  -3 739.903 21.2253   3
  -4   3   3 718.585 21.0068   2
   3  -3  -3 31.9651 2.28193   3
  -3   3   3 33.0390 2.17603   2
   2  -3  -3 947.221 26.7043   3
  -2   3   3 941.848 26.5491   2
   1  -3  -3 843.366 23.7009   3
   1  -3  -3 832.147 23.6037   2
   0  -3  -3 3.05039 1.06938   1
   0  -3  -3 1.75675 0.87052   2
   0  -3  -3 3.23756 0.97636   3
  -1  -3  -3 0.38468 0.86123   2
  -1  -3  -3 0.22718 0.84324   3
  -1  -3  -3 0.39325 1.12336   1
  -2  -3  -3 58.2813 2.67882   2
  -2  -3  -3 59.8785 3.15542   1
   2   3   3 55.0189 2.65558   3
  -3  -3  -3 36.3179 3.11021   1
  -3  -3  -3 37.0384 2.44202   2
   3   3   3 30.1851 2.39505   3
  -4  -3  -3 996.237 28.8212   1
  -4  -3  -3 975.332 28.2657   2
  -5  -3  -3 69.6447 4.02140   2
  -6  -3  -3 51.9347 4.15931   2
   6   3   3 48.8608 4.46456   4
   6   3   3 44.3442 4.68737   1
  -7  -3  -3 88.8074 5.81505   2
  -8  -3  -3 73.3230 6.51276   2
   8   3   3 56.7309 6.98480   1
   8   3   3 75.1363 6.89142   4
 -10   4   3 8.78378 3.68774   2
   9  -4  -3 6.89304 3.89535   3
  -9   4   3 5.33056 3.25203   2
   8  -4  -3 46.9502 5.23327   3
  -8   4   3 54.3723 4.94229   2
   7  -4  -3 100.550 5.56442   3
  -7   4   3 92.4876 5.17164   2
   6  -4  -3 54.9715 4.11347   3
  -6   4   3 61.3853 3.99696   2
   5  -4  -3 14.0995 3.68428   3
  -5   4   3 13.8505 2.01142   2
   4  -4  -3 37.8233 2.86707   3
  -4   4   3 40.6486 2.70727   2
   3  -4  -3 647.791 18.8071   3
  -3   4   3 635.844 18.6064   2
   2  -4  -3 850.018 24.6008   3
  -2   4   3 873.586 24.4464   2
   1  -4  -3 10.4457 1.44574   3
   1  -4  -3 11.7065 1.51697   1
   1  -4  -3 12.5091 1.66972   2
   0  -4  -3 182.576 5.88620   3
   0  -4  -3 173.764 5.76694   2
   0  -4  -3 176.332 5.80036   1
  -1  -4  -3 195.009 6.62237   1
  -1  -4  -3 199.112 6.36083   2
  -1  -4  -3 197.243 6.35020   3
  -2  -4  -3 -0.0991 1.58156   1
  -2  -4  -3 1.48713 1.07913   2
   2   4   3 0.93551 1.45191   3
  -3  -4  -3 11.7855 2.30281   1
  -3  -4  -3 7.90429 1.48969   2
   3   4   3 6.38901 1.69678   3
  -4  -4  -3 229.144 8.58499   1
  -4  -4  -3 240.943 8.37638   2
   4   4   3 213.690 7.59763   3
  -5  -4  -3 176.190 7.71532   1
  -5  -4  -3 172.453 6.74970   2
  -6  -4  -3 2.49707 2.46197   2
   6   4   3 4.53006 3.14706   1
   6   4   3 0.48466 3.15746   4
  -7  -4  -3 21.9016 3.48310   2
   7   4   3 18.7164 4.18695   4
   7   4   3 16.7977 4.31583   1
   9  -5  -3 9.98764 4.12721   3
  -9   5   3 11.9908 3.68662   2
   8  -5  -3 12.6112 3.47488   3
  -8   5   3 11.7335 3.02785   2
   7  -5  -3 10.6178 2.77135   3
  -7   5   3 8.34153 2.54789   2
   6  -5  -3 32.9907 3.82802   3
  -6   5   3 27.0118 3.62192   2
   5  -5  -3 246.857 8.79209   3
  -5   5   3 252.837 8.56785   2
   4  -5  -3 177.218 7.12050   3
  -4   5   3 185.406 6.72110   2
   3  -5  -3 10.2526 1.77705   3
  -3   5   3 10.6589 1.65137   2
   2  -5  -3 251.313 8.23125   3
  -2   5   3 248.817 7.94934   2
   1  -5  -3 233.381 7.66588   3
   1  -5  -3 231.993 7.20103   1
  -1   5   3 233.439 7.43382   2
   0  -5  -3 117.568 4.46924   3
   0  -5  -3 116.787 4.35092   2
   0  -5  -3 115.334 4.40991   1
  -1  -5  -3 319.817 9.97032   3
  -1  -5  -3 324.249 10.1672   1
  -1  -5  -3 321.455 9.87521   2
  -2  -5  -3 100.263 4.69015   1
  -2  -5  -3 97.9231 4.08792   2
   2   5   3 99.0345 4.44893   3
  -3  -5  -3 225.059 8.08639   1
  -3  -5  -3 197.972 7.13346   2
  -4  -5  -3 0.22998 1.83660   2
  -4  -5  -3 -0.2578 2.44962   1
   4   5   3 -0.3622 1.94144   3
  -5  -5  -3 27.3644 2.98502   2
  -5  -5  -3 40.3254 5.03002   1
  -6  -5  -3 18.0593 3.10417   2
   6   5   3 22.5174 5.34877   1
   7   5   3 4.58935 4.13159   4
   7   5   3 6.82306 4.11383   1
   9  -6  -3 57.7267 7.45072   3
  -9   6   3 84.4600 6.75901   2
   8  -6  -3 8.39040 3.42889   3
  -8   6   3 -2.3537 3.50834   2
   7  -6  -3 2.98506 2.78240   3
  -7   6   3 5.56445 2.73862   2
   6  -6  -3 2.81679 2.33534   3
  -6   6   3 0.06881 2.28529   2
   5  -6  -3 35.2932 3.69633   3
  -5   6   3 40.5940 3.62698   2
   4  -6  -3 257.231 8.95528   3
  -4   6   3 249.171 8.60126   2
   3  -6  -3 176.952 7.36207   3
  -3   6   3 183.182 6.52882   2
   2  -6  -3 22.8892 2.52026   3
  -2   6   3 19.7520 2.42368   2
   1  -6  -3 44.5067 3.11649   3
   1  -6  -3 44.6600 2.69566   1
  -1   6   3 45.1517 2.81891   2
   0  -6  -3 19.6399 2.49194   3
   0  -6  -3 18.0262 2.56602   1
   0  -6  -3 16.8626 2.29651   2
  -1  -6  -3 5.01974 1.87845   1
  -1  -6  -3 5.20906 1.64573   3
  -1  -6  -3 3.24744 1.41525   2
  -2  -6  -3 428.729 13.2164   2
  -2  -6  -3 458.279 13.9277   1
   2   6   3 425.803 13.5740   3
  -3  -6  -3 31.7333 3.52975   1
  -3  -6  -3 22.1108 3.67027   2
   3   6   3 22.7776 2.84546   3
  -4  -6  -3 6.71123 3.00875   1
  -4  -6  -3 6.00321 2.08820   2
   4   6   3 4.25286 2.74256   3
  -5  -6  -3 21.5597 3.75948   1
  -5  -6  -3 12.0129 2.76473   2
   7   6   3 74.7131 8.00912   1
   7   6   3 75.3035 7.88892   4
   9  -7  -3 10.2937 4.30667   3
  -9   7   3 21.7419 4.59390   2
   8  -7  -3 24.9991 4.60179   3
  -8   7   3 26.6213 4.41500   2
   7  -7  -3 63.3845 6.03244   3
  -7   7   3 58.5387 5.81989   2
   6  -7  -3 54.1934 5.07572   3
  -6   7   3 69.0965 4.93430   2
   5  -7  -3 -0.9178 2.37004   3
  -5   7   3 5.19163 2.25016   2
   4  -7  -3 169.172 6.97895   3
  -4   7   3 172.271 6.72759   2
   3  -7  -3 8.68928 2.29235   3
  -3   7   3 12.9037 2.24252   2
   2  -7  -3 229.478 8.28895   3
  -2   7   3 234.759 8.01705   2
   1  -7  -3 31.8909 2.84409   1
   1  -7  -3 38.4411 3.35247   3
  -1   7   3 35.0351 2.90980   2
   0  -7  -3 527.813 15.9135   1
   0  -7  -3 539.343 16.2667   3
   0   7   3 525.877 15.8088   2
  -1  -7  -3 131.041 5.32586   2
  -1  -7  -3 139.438 6.51453   1
  -1  -7  -3 136.873 5.71644   3
  -2  -7  -3 13.5445 2.85438   1
  -2  -7  -3 12.0101 2.06895   2
   2   7   3 13.5673 2.77468   3
  -3  -7  -3 499.248 16.0021   1
  -3  -7  -3 484.622 15.0748   2
  -4  -7  -3 39.9246 4.30429   2
  -4  -7  -3 51.6811 5.56578   1
   4   7   3 33.9084 5.18625   3
  -5  -7  -3 52.9966 7.78876   1
   8  -8  -3 2.74832 4.13577   3
  -8   8   3 -4.4976 3.95248   2
   7  -8  -3 16.7760 4.11091   3
  -7   8   3 17.2542 4.00992   2
   6  -8  -3 67.4735 5.74346   3
  -6   8   3 64.2830 5.60396   2
   5  -8  -3 11.4069 2.85938   3
  -5   8   3 15.5510 3.00189   2
   4  -8  -3 56.0214 4.56363   3
  -4   8   3 62.5644 4.60233   2
   3  -8  -3 -1.3747 2.28961   3
  -3   8   3 -4.5960 2.18470   2
   2  -8  -3 6.90860 2.32885   3
  -2   8   3 10.6912 2.20764   2
   1  -8  -3 0.44156 2.02266   1
   1  -8  -3 -3.1692 2.12361   3
  -1   8   3 4.11721 1.97922   2
   0  -8  -3 122.256 5.74248   3
   0  -8  -3 117.127 5.72834   1
  -1  -8  -3 88.0250 5.17045   1
  -1  -8  -3 81.8230 4.96195   3
  -1  -8  -3 86.5443 4.69364   2
  -2  -8  -3 115.472 6.16022   1
  -2  -8  -3 107.899 5.37486   2
   2   8   3 112.261 5.99901   3
  -3  -8  -3 2.66876 2.49858   2
  -3  -8  -3 -0.3267 3.25903   1
   3   8   3 -3.9454 3.16367   3
  -4  -8  -3 40.3664 5.92630   1
  -5  -8  -3 1.41867 4.47148   1
   8  -9  -3 66.9769 7.77806   3
  -8   9   3 101.391 8.32197   2
   7  -9  -3 98.3201 7.38338   3
  -7   9   3 82.6517 7.40982   2
   6  -9  -3 -1.0481 3.41441   3
  -6   9   3 3.82775 3.51718   2
   5  -9  -3 42.4407 5.24380   3
  -5   9   3 47.0178 5.11149   2
   4  -9  -3 127.435 6.59424   3
  -4   9   3 122.183 6.60812   2
   3  -9  -3 78.3425 5.36616   3
  -3   9   3 88.2651 5.21501   2
   2  -9  -3 15.2400 2.96469   3
  -2   9   3 22.4677 2.99375   2
   1  -9  -3 0.40591 2.37142   1
   1  -9  -3 1.06665 2.49338   3
  -1   9   3 1.62746 2.21873   2
   0  -9  -3 1.17209 2.72797   1
   0  -9  -3 -0.5616 2.47366   3
   0   9   3 0.46544 2.14220   2
  -1  -9  -3 16.3465 3.07108   3
  -1  -9  -3 11.9036 3.18268   1
   1   9   3 13.9138 2.68101   2
  -2  -9  -3 14.7255 3.52486   1
  -2  -9  -3 8.33348 2.94529   2
   2   9   3 3.68099 3.47640   3
  -3  -9  -3 81.0898 6.76405   1
  -4  -9  -3 6.81815 4.29980   1
  -5  -9  -3 -6.8158 4.93461   1
   7 -10  -3 31.8186 5.05786   3
  -7  10   3 37.2078 5.15897   2
   6 -10  -3 30.9982 4.81573   3
  -6  10   3 36.4591 4.85549   2
   5 -10  -3 -2.2618 3.61807   3
  -5  10   3 -1.4359 3.40820   2
   4 -10  -3 14.0424 3.54754   3
  -4  10   3 14.5675 3.64568   2
   3 -10  -3 145.560 7.41134   3
  -3  10   3 144.398 7.26316   2
   2 -10  -3 129.839 7.03907   3
  -2  10   3 136.678 6.67562   2
   1 -10  -3 13.0510 3.07246   3
  -1  10   3 12.4300 2.91672   2
   0 -10  -3 3.53244 3.30955   1
   0 -10  -3 6.27088 3.05500   3
   0  10   3 6.10417 2.71879   2
  -1 -10  -3 -3.6418 3.33767   1
   1  10   3 0.51613 3.79581   3
  -2 -10  -3 8.78437 3.90630   1
   2  10   3 -5.7067 4.03720   3
  -3 -10  -3 5.49707 4.29708   1
   3  10   3 5.96701 5.29017   3
  -4 -10  -3 4.21693 5.03637   1
   6 -11  -3 56.3424 7.47111   3
  -6  11   3 46.8586 5.45399   2
   5 -11  -3 53.7690 6.83734   3
  -5  11   3 69.1244 8.17593   2
   4 -11  -3 7.80028 3.90411   3
  -4  11   3 9.18742 4.08792   2
   3 -11  -3 47.3180 6.89316   3
  -3  11   3 42.8960 6.04395   2
   2 -11  -3 17.9072 3.79456   3
  -2  11   3 8.23040 3.60400   2
   1 -11  -3 5.39291 3.51961   3
  -1  11   3 9.00639 3.39784   2
   0 -11  -3 3.76045 3.73623   3
  -1 -11  -3 0.87937 4.14206   1
   1  11   3 1.94057 4.52125   3
  -2 -11  -3 11.2019 4.73771   1
   2  11   3 0.35088 5.95252   3
  -3 -11  -3 54.8550 7.79874   1
   5 -12  -3 -4.0484 4.72951   3
  -5  12   3 3.69846 4.12633   2
   4 -12  -3 17.3254 4.70621   3
  -4  12   3 7.96979 4.37601   2
   3 -12  -3 41.1047 5.19803   3
  -3  12   3 37.9348 5.08237   2
   2 -12  -3 128.827 8.39836   3
   1 -12  -3 -6.6938 4.00391   3
   0  12   3 -7.8969 4.73422   3
   1  12   3 -0.6864 4.64751   3
   3 -13  -3 -0.9568 4.94132   3
   2 -13  -3 54.9138 7.93842   3
   1 -13  -3 15.7169 5.25424   3
   2  14  -4 14.2191 5.73695   3
  -2 -14   4 2.57155 5.27407   1
   1  14  -4 57.4128 8.14984   3
  -1 -14   4 64.8493 7.98032   1
   0  14  -4 103.044 8.72835   3
   0 -14   4 112.268 8.42198   1
  -1  14  -4 18.5096 5.14212   3
   1 -14   4 18.5823 5.34552   1
  -2  14  -4 11.0754 5.02448   3
   4 -14   4 11.0233 5.06826   3
   3  13  -4 36.9467 6.09946   3
  -3 -13   4 35.5016 5.56434   1
   2  13  -4 4.85139 4.45695   3
  -2 -13   4 6.01805 4.37324   1
   1  13  -4 3.31657 4.29677   3
  -1 -13   4 10.0405 4.32956   1
   0  13  -4 18.8274 4.74925   3
   0 -13   4 25.7666 4.28277   1
  -1  13  -4 -0.9022 4.01253   3
   1 -13   4 0.74957 3.83194   1
  -2  13  -4 -0.7708 4.04740   3
   2 -13   4 -0.7322 4.26305   1
   3 -13   4 8.84863 4.35286   3
   4 -13   4 57.5642 7.29255   3
   5 -13   4 29.5946 5.11042   3
   5  12  -4 -3.0280 5.03780   3
  -5 -12   4 5.74082 5.36526   1
   4  12  -4 17.9352 5.52426   3
  -4 -12   4 23.7851 5.02445   1
   3  12  -4 5.22019 4.36468   3
  -3 -12   4 5.86617 4.39398   1
   2  12  -4 -5.0988 3.43939   3
  -2 -12   4 -2.8660 3.68344   1
   1  12  -4 81.6831 6.73152   3
  -1 -12   4 101.071 6.57998   1
   0  12  -4 44.6792 5.74485   3
   0 -12   4 55.8216 5.40871   1
  -1  12  -4 3.84848 3.40297   3
   1 -12   4 -1.7597 3.14437   1
   2 -12   4 0.70542 3.31808   1
   2 -12   4 5.14766 3.40459   3
   3 -12   4 15.3444 3.85455   1
   3 -12   4 12.6319 3.76310   3
  -4  12  -4 16.5015 3.58214   2
   4 -12   4 19.4491 4.23978   3
  -5  12  -4 119.936 7.31976   2
   5 -12   4 110.810 13.6491   3
  -6  12  -4 16.8878 3.95810   2
   6 -12   4 15.0378 4.73085   3
  -6 -11   4 5.56054 5.31149   1
   5  11  -4 164.800 9.90639   3
  -5 -11   4 169.490 9.39972   1
   4  11  -4 98.5885 8.49437   3
  -4 -11   4 90.2702 9.66139   1
   3  11  -4 31.4837 4.51580   3
  -3 -11   4 25.9966 4.16432   1
   2  11  -4 56.7838 5.18585   3
  -2 -11   4 57.2056 5.72441   1
   1  11  -4 50.7485 5.05550   3
  -1 -11   4 52.3562 5.08528   1
   0  11  -4 42.9988 4.92553   3
   0 -11   4 31.2791 4.52228   1
  -1  11  -4 24.4328 3.67072   3
   1 -11   4 18.6568 2.98852   1
  -2  11  -4 20.3999 2.97607   2
   2 -11   4 20.3285 3.37973   3
   2 -11   4 31.4372 4.47997   1
  -3  11  -4 34.2701 3.41915   2
   3 -11   4 37.7687 5.04733   3
   3 -11   4 33.1915 4.92039   1
  -4  11  -4 7.49189 2.99195   2
   4 -11   4 7.85529 4.92652   1
   4 -11   4 7.75875 3.48243   3
  -5  11  -4 21.3725 3.66366   2
   5 -11   4 19.7683 4.19560   3
  -6  11  -4 41.5217 4.50299   2
   6 -11   4 31.1966 5.07465   3
  -7  11  -4 12.6010 4.07850   2
   6  10  -4 13.6981 4.98415   3
  -6 -10   4 2.69694 4.58879   1
   5  10  -4 32.1997 4.78556   3
  -5 -10   4 36.1156 4.92315   1
   4  10  -4 208.984 9.48088   3
  -4 -10   4 219.679 9.32546   1
   3  10  -4 65.6740 5.59177   3
  -3 -10   4 68.3199 5.53036   1
   2  10  -4 16.7164 3.10330   3
  -2 -10   4 17.1333 3.09917   1
   1  10  -4 7.31310 2.57920   3
  -1 -10   4 7.75347 2.63205   1
   0  10  -4 4.60228 2.62435   3
   0 -10   4 2.86293 2.35538   1
  -1  10  -4 27.6478 3.01853   2
   1 -10   4 24.7845 3.11509   3
   1 -10   4 29.3713 3.70038   1
  -2  10  -4 18.8861 2.32001   2
   2 -10   4 16.3802 2.84653   3
   2 -10   4 15.4838 2.72713   1
  -3  10  -4 92.6023 4.90499   2
   3 -10   4 83.3333 5.38776   3
   3 -10   4 90.3543 5.42157   1
  -4  10  -4 24.2870 3.11460   2
   4 -10   4 31.1785 4.60312   3
   4 -10   4 21.7416 3.26384   1
  -5  10  -4 23.6945 3.39058   2
   5 -10   4 24.5747 3.75408   3
  -6  10  -4 36.4137 5.18751   2
   6 -10   4 35.9547 4.38141   3
  -7  10  -4 17.9780 4.18782   2
  -7  -9   4 26.5715 5.55875   1
   6   9  -4 5.36361 4.35316   3
  -6  -9   4 2.39211 4.06845   1
   5   9  -4 80.8783 6.23302   3
  -5  -9   4 63.6084 6.16260   1
   4   9  -4 8.15604 3.22007   3
  -4  -9   4 9.88975 3.15363   1
   3   9  -4 31.3019 4.15521   3
  -3  -9   4 23.4386 3.27633   1
   2   9  -4 34.9435 3.90583   3
  -2  -9   4 38.6740 4.04189   1
   1   9  -4 46.1092 3.84468   3
  -1  -9   4 42.7426 3.87801   1
   0   9  -4 274.614 9.81820   3
   0  -9   4 290.705 9.65863   1
  -1   9  -4 238.990 7.60091   2
   1  -9   4 238.557 8.59186   3
  -2   9  -4 11.1729 2.05082   2
   2  -9   4 7.94036 2.26075   1
   2  -9   4 10.3013 2.40019   3
  -3   9  -4 167.322 6.31665   2
   3  -9   4 150.675 8.79228   1
   3  -9   4 155.423 6.69833   3
  -4   9  -4 116.845 5.68489   2
   4  -9   4 124.121 5.86646   1
   4  -9   4 126.041 6.09000   3
  -5   9  -4 3.36961 2.49925   2
   5  -9   4 11.0452 2.90697   1
   5  -9   4 9.20725 3.07031   3
  -6   9  -4 13.9444 3.14754   2
   6  -9   4 25.4343 3.80934   3
  -7   9  -4 21.7472 3.94478   2
  -8   9  -4 14.3472 4.34307   2
  -8  -8   4 4.73998 5.03787   1
   7   8  -4 7.73434 4.61920   3
  -7  -8   4 -0.6173 4.20720   1
   6   8  -4 0.02504 3.63727   3
  -6  -8   4 3.03945 3.60969   1
   5   8  -4 1.26474 3.05012   3
  -5  -8   4 -0.1946 2.94656   1
   4   8  -4 56.9165 4.72875   3
  -4  -8   4 55.1527 4.68372   1
   3   8  -4 11.9876 2.60236   3
  -3  -8   4 15.5906 2.71605   1
   2   8  -4 21.8893 3.21396   3
  -2  -8   4 20.2073 2.54378   1
   1   8  -4 43.6550 3.44260   3
   0  -8   4 45.9800 3.35000   1
  -1   8  -4 1196.56 32.9310   2
   1  -8   4 1203.17 33.5530   1
   1  -8   4 1128.93 33.7518   3
  -2   8  -4 139.069 5.26288   2
   2  -8   4 142.711 5.56916   1
   2  -8   4 139.035 5.79171   3
  -3   8  -4 28.5890 3.10050   2
   3  -8   4 28.4426 3.17316   1
  -4   8  -4 17.0562 2.50539   2
   4  -8   4 14.5679 2.39349   1
   4  -8   4 16.4323 2.69472   3
  -5   8  -4 18.0871 2.65422   2
   5  -8   4 11.7631 2.77454   3
   5  -8   4 12.0502 2.67876   1
  -6   8  -4 40.1280 4.57698   2
   6  -8   4 38.2493 3.75542   1
   6  -8   4 42.4130 4.78628   3
  -7   8  -4 27.7872 3.96166   2
  -8   8  -4 4.70523 3.79634   2
   8   7  -4 9.16590 4.96909   3
  -8  -7   4 3.39893 4.62309   1
   7   7  -4 -0.8603 3.84155   3
  -7  -7   4 3.30388 5.15991   1
   6   7  -4 6.47989 3.19898   3
  -6  -7   4 9.34973 3.21781   1
   5   7  -4 -0.7531 2.44388   3
  -5  -7   4 7.54956 2.74642   1
   4   7  -4 19.2612 2.76474   3
  -4  -7   4 22.1971 3.02389   1
   3   7  -4 214.684 7.86291   3
  -3  -7   4 212.299 7.76386   1
   2   7  -4 176.134 6.61819   3
  -2  -7   4 189.200 6.73618   1
   1   7  -4 -0.5360 1.38386   3
  -1  -7   4 -1.6267 1.36687   1
   0   7  -4 396.760 12.3433   3
   0  -7   4 405.087 12.2940   1
  -1   7  -4 84.6630 3.38991   2
   1  -7   4 85.4186 3.88397   3
   1  -7   4 87.7966 3.84958   1
  -2   7  -4 160.561 5.70189   2
   2  -7   4 164.330 6.00892   3
   2  -7   4 170.252 5.93656   1
  -3   7  -4 252.254 8.27675   2
   3  -7   4 248.600 8.33266   1
   3  -7   4 248.569 8.37775   3
  -4   7  -4 127.850 5.42848   2
   4  -7   4 127.490 5.39367   1
   4  -7   4 137.230 5.40983   3
  -5   7  -4 -1.9467 1.83133   2
   5  -7   4 3.19117 2.26193   3
   5  -7   4 3.00927 2.22909   1
  -6   7  -4 20.1966 2.94422   2
   6  -7   4 16.7339 4.09607   3
   6  -7   4 16.2396 2.98253   1
  -7   7  -4 36.6087 4.73907   2
   7  -7   4 36.7555 5.28096   1
  -8   7  -4 29.4869 4.21923   2
   8   6  -4 14.6612 4.42178   3
  -8  -6   4 16.2189 4.38226   1
   7   6  -4 12.6147 3.63436   3
  -7  -6   4 12.3836 3.58278   1
   6   6  -4 94.6886 5.76697   3
  -6  -6   4 78.7394 5.48662   1
   5   6  -4 61.4127 4.60065   3
  -5  -6   4 60.1663 4.69024   1
   4   6  -4 26.7700 3.52436   3
  -4  -6   4 35.9271 3.38733   1
   3   6  -4 5.41188 1.80996   3
  -3  -6   4 6.59058 1.78705   1
   2   6  -4 138.273 5.35925   3
  -2  -6   4 139.696 5.27079   1
   1   6  -4 98.5928 4.17404   3
  -1  -6   4 105.534 4.23000   1
   0   6  -4 30.2236 2.44168   3
   0  -6   4 28.9811 2.33177   1
  -1   6  -4 239.499 7.18708   2
   1  -6   4 232.858 7.57413   3
   1  -6   4 232.224 7.53667   1
  -2   6  -4 69.1504 3.12746   2
   2  -6   4 66.5074 3.29857   1
   2  -6   4 68.2358 3.25545   3
  -3   6  -4 -1.0161 1.29179   2
   3  -6   4 0.75035 1.37669   1
   3  -6   4 0.21229 1.40024   3
  -4   6  -4 11.8046 1.86257   2
   4  -6   4 9.34305 1.89337   1
   4  -6   4 10.5918 1.83536   3
  -5   6  -4 62.9961 3.94641   2
   5  -6   4 61.8235 3.69467   3
   5  -6   4 54.7048 4.03206   1
  -6   6  -4 213.425 8.18806   2
   6  -6   4 218.695 8.22519   1
  -7   6  -4 40.6462 4.68816   2
   7  -6   4 41.8533 5.11797   1
  -8   6  -4 3.31221 2.90638   2
  -9  -5   4 5.88988 4.20023   1
   8   5  -4 29.2823 4.65917   3
  -8  -5   4 38.1781 4.57610   1
   7   5  -4 7.64162 3.39912   3
  -7  -5   4 4.90574 3.09068   1
   6   5  -4 2.45827 2.62493   3
  -6  -5   4 1.25444 2.26301   1
   5   5  -4 535.209 16.5466   3
  -5  -5   4 536.843 16.6090   1
   4   5  -4 787.139 23.0115   3
  -4  -5   4 780.241 23.0036   1
   3   5  -4 116.933 4.74246   3
  -3  -5   4 112.630 4.66120   1
   2   5  -4 427.787 13.1437   3
  -2  -5   4 447.304 13.1416   1
   1   5  -4 1201.40 33.7733   3
  -1  -5   4 1199.36 33.7581   1
   0   5  -4 155.315 5.12582   3
   0   5  -4 136.145 4.42420   2
   0  -5   4 150.059 5.07687   1
  -1   5  -4 594.194 16.9591   2
   1  -5   4 598.864 17.2112   3
   1  -5   4 600.872 17.2876   1
  -2   5  -4 36.3545 2.21592   2
   2  -5   4 35.8122 2.26358   3
   2  -5   4 36.5738 2.41231   1
  -3   5  -4 119.327 4.58690   2
   3  -5   4 124.402 4.43839   3
   3  -5   4 121.192 4.67160   1
  -4   5  -4 607.854 18.0068   2
   4  -5   4 587.492 17.3464   3
   4  -5   4 603.088 17.7701   1
  -5   5  -4 36.3638 3.25011   2
   5  -5   4 41.1525 2.96219   3
   5  -5   4 42.6618 3.46312   1
  -6   5  -4 163.668 6.78402   2
   6  -5   4 170.229 6.85945   1
  -7   5  -4 400.842 13.6429   2
   7  -5   4 411.948 13.5522   1
  -8   5  -4 4.08538 2.86289   2
   8  -5   4 5.74983 3.50899   1
   9   4  -4 -1.6965 4.29185   3
  -9  -4   4 -0.2185 3.82287   1
   8   4  -4 100.177 6.74048   3
  -8  -4   4 87.5387 6.56558   1
   7   4  -4 317.188 11.0377   3
  -7  -4   4 323.368 11.0788   1
  -7  -4   4 275.005 10.5845   2
   6   4  -4 155.293 6.61862   3
  -6  -4   4 152.338 6.48085   1
  -6  -4   4 136.857 5.24952   2
  -5  -4   4 16.6009 3.00246   1
  -5  -4   4 10.8128 1.33706   2
   4   4  -4 226.447 7.84127   3
  -4  -4   4 230.946 7.80984   1
   3   4  -4 5.48776 1.44994   3
  -3  -4   4 5.39685 1.36207   1
   2   4  -4 68.9055 3.17102   3
  -2  -4   4 66.1046 3.00187   1
   1   4  -4 541.191 15.5800   3
  -1  -4   4 534.556 15.5543   1
   0   4  -4 589.166 16.2652   3
   0   4  -4 541.714 15.8381   2
   0  -4   4 569.559 16.3015   1
  -1   4  -4 4.59915 0.89288   2
   1  -4   4 4.41959 1.11762   1
   1  -4   4 5.50525 1.07236   3
  -2   4  -4 75.4858 3.07178   2
   2  -4   4 77.4728 3.24953   1
   2  -4   4 72.0473 2.85073   3
  -3   4  -4 43.3140 2.56905   2
   3  -4   4 40.6221 2.65924   1
   3  -4   4 43.9230 2.21486   3
  -4   4  -4 251.302 8.81364   2
   4  -4   4 251.148 7.72286   3
   4  -4   4 253.719 8.34492   1
  -5   4  -4 190.472 7.01005   2
   5  -4   4 194.123 7.11371   1
   5  -4   4 188.759 6.31847   3
  -6   4  -4 1.58548 1.87369   2
   6  -4   4 2.90250 2.24128   1
  -7   4  -4 79.2603 5.18727   2
   7  -4   4 79.2180 5.34566   1
  -8   4  -4 1.38245 2.74665   2
   8  -4   4 1.36973 3.36033   1
   9  -4   4 2.59471 4.96249   1
   9   3  -4 63.6025 6.56730   3
  -9  -3   4 48.7013 6.53684   1
   8   3  -4 81.7645 6.09955   3
  -8  -3   4 76.2308 5.93845   1
  -8  -3   4 89.4698 5.37495   2
   7   3  -4 103.958 5.87464   3
  -7  -3   4 91.5082 5.57121   1
  -7  -3   4 110.706 5.58638   2
   6   3  -4 29.8622 3.64573   3
  -6  -3   4 38.4378 2.75417   2
  -6  -3   4 38.6529 3.66378   1
   5   3  -4 295.594 9.80490   3
  -5  -3   4 300.827 9.02156   2
  -5  -3   4 294.192 9.68662   1
   4   3  -4 202.836 6.98451   3
  -4  -3   4 199.066 6.79280   1
  -4  -3   4 199.010 6.09893   2
   3   3  -4 12.7873 1.63879   3
  -3  -3   4 13.3212 1.82398   1
   2   3  -4 983.520 27.5240   3
  -2  -3   4 967.695 27.4230   1
   1   3  -4 3466.65 92.1396   3
  -1  -3   4 3229.73 92.0808   1
   0   3  -4 379.138 10.6456   3
   0   3  -4 352.524 10.4189   2
   0  -3   4 371.145 10.7727   1
  -1   3  -4 495.982 14.0517   2
  -1   3  -4 492.696 13.9137   3
   1  -3   4 488.901 14.2574   1
  -2   3  -4 284.714 8.35894   2
   2  -3   4 286.888 8.51640   1
   2  -3   4 251.620 7.91202   3
  -3   3  -4 14.1919 1.85903   2
   3  -3   4 14.6371 1.73427   1
   3  -3   4 13.8736 1.28670   3
  -4   3  -4 -0.4824 1.24525   2
   4  -3   4 -0.8440 1.47292   1
  -5   3  -4 58.4501 3.68090   2
   5  -3   4 60.8425 3.98121   1
  -6   3  -4 1.13434 1.85745   2
   6  -3   4 3.36640 2.30461   1
  -7   3  -4 55.3282 4.33921   2
   7  -3   4 40.8180 4.91170   1
  -8   3  -4 8.71450 3.18226   2
   8  -3   4 4.44659 3.60313   1
   9  -3   4 -0.6401 4.41931   1
   9   2  -4 71.5101 6.80361   3
  -9  -2   4 88.1170 6.01183   2
   8   2  -4 364.230 12.8392   3
  -8  -2   4 371.646 12.7306   1
  -8  -2   4 372.080 12.1540   2
   7   2  -4 5.92867 2.59090   3
  -7  -2   4 6.19274 2.40496   1
  -7  -2   4 7.36334 2.00850   2
   6   2  -4 898.546 25.4455   3
  -6  -2   4 838.942 24.7117   2
  -6  -2   4 853.016 25.1304   1
   5   2  -4 79.3007 4.03353   3
  -5  -2   4 74.2329 3.28935   2
  -5  -2   4 78.2630 3.80762   1
   4   2  -4 27.7168 2.41580   3
  -4  -2   4 28.1551 2.20344   1
  -4  -2   4 27.5361 1.81340   2
   3   2  -4 213.622 6.88848   3
  -3  -2   4 206.813 6.62683   1
  -3  -2   4 214.320 6.29726   2
   2   2  -4 268.395 7.93897   3
  -2  -2   4 261.639 7.40345   2
  -2  -2   4 244.296 7.70297   1
   1   2  -4 980.096 28.0361   2
   1   2  -4 1045.66 28.3501   3
  -1  -2   4 1020.11 28.3034   1
   0   2  -4 12.2790 1.23026   3
   0  -2   4 11.6901 1.52230   1
  -1   2  -4 -0.1491 0.62218   3
  -1   2  -4 0.13264 0.76555   2
   1  -2   4 2.11837 1.04071   1
  -2   2  -4 494.757 14.3921   2
   2  -2   4 498.472 14.5270   1
  -3   2  -4 868.772 24.5551   2
   3  -2   4 850.793 24.6179   1
  -4   2  -4 0.28090 1.18995   2
   4  -2   4 2.43114 1.50737   1
  -5   2  -4 229.631 8.22999   2
   5  -2   4 247.685 8.50532   1
  -6   2  -4 52.4966 3.91406   2
   6  -2   4 49.2962 4.41539   1
  -7   2  -4 21.9125 3.13374   2
   7  -2   4 16.2025 3.36228   1
  -8   2  -4 65.0492 5.34847   2
   8  -2   4 45.5991 6.15151   1
   9  -2   4 4.20809 4.43545   1
 -10  -1   4 4.56701 4.36392   2
   9   1  -4 96.4705 6.98913   3
  -9  -1   4 105.091 5.95381   2
   8   1  -4 70.7103 5.49476   3
  -8  -1   4 69.7719 4.54008   2
  -8  -1   4 71.1985 5.25142   1
   7   1  -4 45.8777 4.19589   3
  -7  -1   4 45.1461 3.52332   2
  -7  -1   4 41.6338 3.97063   1
   6   1  -4 311.422 10.4071   3
  -6  -1   4 302.451 9.83354   1
  -6  -1   4 306.249 9.73306   2
   5   1  -4 56.8163 3.35576   3
  -5  -1   4 55.5821 2.99101   1
  -5  -1   4 56.0021 2.82094   2
   4   1  -4 464.166 13.8464   3
  -4  -1   4 469.999 13.4801   1
  -4  -1   4 450.309 13.3339   2
   3   1  -4 11.7143 1.45988   3
  -3  -1   4 14.6439 1.33201   2
  -3  -1   4 12.5623 1.41857   1
   2   1  -4 40.6987 2.18570   3
  -2  -1   4 38.6102 2.05558   2
   1   1  -4 1019.66 28.2564   2
   1   1  -4 1015.90 28.4707   3
   0   1  -4 4195.42 117.889   2
   0   1  -4 4409.56 117.762   3
   0  -1   4 4299.43 117.981   1
  -1   1  -4 590.521 16.7404   2
   1  -1   4 585.491 16.8290   1
  -2   1  -4 227.912 7.08163   2
   2  -1   4 225.902 7.24629   1
  -3   1  -4 1415.25 40.0083   2
   3  -1   4 1437.41 40.1611   1
  -4   1  -4 464.379 14.0853   2
   4  -1   4 463.099 14.2465   1
  -5   1  -4 8.72592 1.83476   2
   5  -1   4 5.77948 2.05924   1
  -6   1  -4 38.9350 3.57934   2
   6  -1   4 33.1121 4.03948   1
  -7   1  -4 6.06817 2.45782   2
   7  -1   4 9.89579 3.04864   1
  -8   1  -4 65.0010 5.92322   2
   8  -1   4 81.3636 7.28119   1
 -10   0   4 4.34413 3.33972   2
   9   0  -4 -3.2797 3.32420   3
  -9   0   4 1.11025 2.53212   2
   8   0  -4 -0.9183 2.62592   4
   8   0  -4 2.29425 2.62782   1
   8   0  -4 -0.5725 2.72631   3
  -8   0   4 1.21557 2.20632   2
   7   0  -4 8.04474 2.47704   3
  -7   0   4 6.10933 2.04786   2
  -7   0   4 8.39766 2.17552   1
   6   0  -4 773.093 22.4749   3
  -6   0   4 744.682 21.6424   1
  -6   0   4 728.419 21.7227   2
   5   0  -4 0.32409 1.50848   3
  -5   0   4 -0.2288 1.21437   2
  -5   0   4 2.73556 1.21423   1
   4   0  -4 258.438 8.17676   3
  -4   0   4 244.694 7.57853   1
  -4   0   4 255.800 7.82305   2
   3   0  -4 104.386 4.02857   3
  -3   0   4 111.863 3.77817   2
   2   0  -4 264.355 7.68986   3
  -2   0   4 237.813 7.21572   1
   1   0  -4 2.89202 0.77897   2
   1   0  -4 0.59949 0.82680   3
  -1   0   4 2.10722 0.74473   1
   0   0  -4 191.852 5.47858   3
   0   0  -4 185.121 5.71116   2
   0   0   4 176.984 5.69510   1
  -1   0  -4 779.199 22.1462   2
   1   0   4 791.759 22.2429   1
  -2   0  -4 95.0499 3.65755   2
   2   0   4 96.8335 3.69524   4
   2   0   4 100.644 3.86079   1
  -3   0  -4 0.53598 1.04159   2
   3   0   4 1.92618 1.19046   4
   3   0   4 -1.1117 1.15340   1
  -4   0  -4 230.808 7.86409   2
  -5   0  -4 266.435 8.98809   2
   5   0   4 265.454 9.31363   1
   5   0   4 254.729 9.02336   4
  -6   0  -4 20.1983 2.64637   2
   6   0   4 20.8401 3.05300   1
  -7   0  -4 4.85638 2.50271   2
   7   0   4 3.03303 2.97291   1
  -8   0  -4 70.2327 6.02446   2
   8   0   4 63.1423 6.81730   1
  10  -1  -4 26.7723 7.75759   3
 -10   1   4 50.8440 5.61847   2
   9  -1  -4 138.804 7.63840   3
  -9   1   4 128.237 6.66590   2
   8  -1  -4 47.5093 4.73727   3
  -8   1   4 35.6549 3.97047   2
   7  -1  -4 83.7756 5.02902   3
  -7   1   4 81.2924 4.48621   2
   6  -1  -4 1.69868 1.91168   3
  -6   1   4 1.03508 1.70045   2
   5  -1  -4 245.287 8.22932   3
  -5   1   4 243.548 7.91981   2
   4  -1  -4 13.1815 1.69121   3
  -4   1   4 16.2500 1.79451   2
   3  -1  -4 672.776 19.3956   3
  -3   1   4 675.439 19.1758   2
   2  -1  -4 240.114 7.43470   3
   1  -1  -4 750.892 20.4378   3
   1  -1  -4 755.013 20.4492   2
  -1   1   4 667.411 20.1512   1
   0  -1  -4 40.5794 1.77075   3
   0  -1  -4 39.7483 2.02075   2
   0   1   4 40.0365 2.01375   1
  -1  -1  -4 60.3003 2.08296   3
  -1  -1  -4 60.6643 2.58964   2
   1   1   4 55.4880 2.56057   4
   1   1   4 58.5460 2.67466   1
  -2  -1  -4 352.957 10.6261   2
   2   1   4 350.497 10.7875   1
   2   1   4 358.059 10.6764   4
  -3  -1  -4 232.524 7.49199   2
   3   1   4 225.712 7.56505   4
   3   1   4 233.021 7.77272   1
  -4  -1  -4 161.146 8.17132   2
   4   1   4 171.471 6.53932   1
   4   1   4 173.318 6.30795   4
  -5  -1  -4 10.1834 2.08846   2
   5   1   4 7.63074 2.14663   1
   5   1   4 9.66864 2.23244   4
  -6  -1  -4 6.20771 2.17064   2
   6   1   4 5.86293 2.44786   4
   6   1   4 8.62725 2.54767   1
  -7  -1  -4 -0.1290 2.55415   2
   7   1   4 0.78115 3.08533   1
  -8  -1  -4 91.8915 6.60043   2
   8   1   4 82.8198 7.45532   1
  10  -2  -4 0.34255 4.18042   3
 -10   2   4 2.44748 3.14553   2
   9  -2  -4 28.8979 4.25420   3
  -9   2   4 23.3915 3.33851   2
   8  -2  -4 37.5328 4.82789   3
  -8   2   4 28.1076 3.31459   2
   7  -2  -4 3.12554 2.33468   3
  -7   2   4 9.06910 2.30685   2
   6  -2  -4 512.355 15.7062   3
  -6   2   4 499.515 15.3756   2
   5  -2  -4 13.1136 2.11128   3
  -5   2   4 16.6885 2.36744   2
   4  -2  -4 52.7574 2.97871   3
  -4   2   4 50.5068 2.75518   2
   3  -2  -4 565.879 16.2588   3
  -3   2   4 542.950 16.0379   2
   2  -2  -4 863.539 24.1225   3
  -2   2   4 839.075 23.9869   2
   1  -2  -4 12.3773 1.49833   2
   1  -2  -4 13.3904 1.47474   3
  -1   2   4 10.3816 1.19211   1
   0  -2  -4 220.669 6.85085   2
   0  -2  -4 225.903 6.69450   3
   0   2   4 220.110 6.66798   4
   0   2   4 214.964 6.75500   1
  -1  -2  -4 123.157 3.96366   3
  -1  -2  -4 122.872 4.28227   2
   1   2   4 116.450 4.26657   4
  -2  -2  -4 74.3511 3.07223   2
   2   2   4 58.6512 2.55512   3
   2   2   4 67.0658 3.17706   4
  -3  -2  -4 34.1347 2.47034   2
   3   2   4 31.2587 2.87277   1
   3   2   4 33.2026 2.74037   4
  -4  -2  -4 14.7806 1.97687   2
   4   2   4 14.4328 2.18416   4
   4   2   4 11.7635 2.13755   1
  -5  -2  -4 30.2369 3.35684   2
   5   2   4 33.6781 3.56421   4
   5   2   4 27.4456 3.74072   1
  -6  -2  -4 23.4905 2.92447   2
   6   2   4 23.6293 3.19411   4
   6   2   4 20.9180 3.11976   1
  -7  -2  -4 8.85875 2.92957   2
  -8  -2  -4 4.50055 3.53238   2
   8   2   4 5.70344 4.29344   1
  10  -3  -4 14.3181 4.38938   3
   9  -3  -4 20.1007 4.07157   3
   8  -3  -4 2.76035 2.69885   3
  -8   3   4 1.81430 2.47594   2
   7  -3  -4 49.7004 4.48930   3
  -7   3   4 63.5931 4.27807   2
   6  -3  -4 -0.6903 1.97538   3
  -6   3   4 2.10103 1.92801   2
   5  -3  -4 1157.66 33.9619   3
   4  -3  -4 208.388 7.10753   3
  -4   3   4 201.934 6.84298   2
   3  -3  -4 34.2239 2.42720   3
  -3   3   4 32.5138 2.32295   2
   2  -3  -4 851.775 24.1330   3
  -2   3   4 840.999 23.9632   2
   1  -3  -4 117.355 4.12530   3
   1  -3  -4 120.619 4.16426   2
  -1   3   4 107.390 3.66699   4
  -1   3   4 113.657 3.76386   1
   0  -3  -4 24.6397 2.00717   1
   0  -3  -4 23.9594 1.83239   2
   0  -3  -4 23.2754 1.82598   3
  -1  -3  -4 16.8843 2.15910   1
  -1  -3  -4 17.4768 1.76996   2
  -1  -3  -4 14.3303 1.59657   3
  -2  -3  -4 233.028 7.48953   2
  -2  -3  -4 235.761 7.83130   1
   2   3   4 225.139 7.18178   3
  -3  -3  -4 11.3011 2.09519   1
  -3  -3  -4 8.67623 1.55635   2
  -4  -3  -4 18.2029 2.18374   2
   4   3   4 17.4250 2.76941   4
   4   3   4 21.7253 2.84939   1
  -5  -3  -4 10.6506 2.17819   2
   5   3   4 8.37924 2.43941   4
   5   3   4 9.53276 2.48782   1
  -6  -3  -4 216.610 8.27247   2
   6   3   4 201.193 8.90162   1
   6   3   4 201.368 8.60931   4
  -7  -3  -4 61.4716 5.73176   2
   7   3   4 58.2400 6.31868   1
   7   3   4 84.9992 6.43889   4
  10  -4  -4 -2.0315 4.20159   3
   9  -4  -4 13.4856 4.19326   3
  -9   4   4 17.3656 3.72078   2
   8  -4  -4 65.7655 5.68130   3
  -8   4   4 60.3815 5.39616   2
   7  -4  -4 43.8802 4.53307   3
  -7   4   4 43.5523 4.35073   2
   6  -4  -4 8.66312 2.41185   3
  -6   4   4 7.80895 2.20288   2
   5  -4  -4 392.570 12.5021   3
  -5   4   4 386.034 12.2469   2
   4  -4  -4 434.950 13.4933   3
  -4   4   4 438.858 13.2436   2
   3  -4  -4 11.9775 1.72147   3
  -3   4   4 10.0129 1.61603   2
   2  -4  -4 106.645 4.19852   3
  -2   4   4 103.362 4.00172   2
   1  -4  -4 589.672 16.8125   3
   1  -4  -4 574.267 16.3833   1
   1  -4  -4 558.951 16.6657   2
   0  -4  -4 17.0745 1.93121   3
   0  -4  -4 14.3822 2.05798   1
   0  -4  -4 17.7223 1.96716   2
  -1  -4  -4 56.4019 2.83246   2
  -1  -4  -4 53.4933 2.71520   3
  -1  -4  -4 53.8333 3.20568   1
  -2  -4  -4 70.3811 3.89318   1
  -2  -4  -4 66.0634 3.29029   2
   2   4   4 61.9799 3.40262   3
  -3  -4  -4 433.684 13.5083   1
  -3  -4  -4 402.400 13.5207   2
  -4  -4  -4 10.9433 2.00210   2
  -5  -4  -4 34.4331 3.72580   2
   5   4   4 37.4434 4.50090   4
   5   4   4 34.1983 4.60654   1
  -6  -4  -4 110.077 6.10489   2
   6   4   4 116.645 6.94526   4
   6   4   4 113.634 7.43845   1
   7   4   4 0.81861 3.74079   1
   7   4   4 12.8737 4.09288   4
   9  -5  -4 1.60705 4.33846   3
  -9   5   4 -2.3730 3.48678   2
   8  -5  -4 48.2319 5.68287   3
  -8   5   4 52.5751 5.24498   2
   7  -5  -4 136.591 6.87863   3
  -7   5   4 142.822 6.81124   2
   6  -5  -4 65.5069 4.70435   3
  -6   5   4 68.5147 4.44393   2
   5  -5  -4 90.3464 4.89854   3
  -5   5   4 91.8307 4.71149   2
   4  -5  -4 12.0766 2.19676   3
  -4   5   4 15.9000 2.08991   2
   3  -5  -4 0.21279 1.50916   3
  -3   5   4 -0.0332 1.41804   2
   2  -5  -4 10.5045 1.72635   3
  -2   5   4 9.51407 1.60124   2
   1  -5  -4 153.740 5.65514   3
   1  -5  -4 155.959 5.49477   2
   1  -5  -4 150.391 5.19527   1
   0  -5  -4 307.694 9.74137   3
   0  -5  -4 313.815 9.70380   1
   0  -5  -4 308.933 9.67398   2
  -1  -5  -4 114.445 4.89503   1
  -1  -5  -4 117.455 4.59300   3
  -1  -5  -4 113.740 4.57863   2
  -2  -5  -4 2.54027 1.50395   2
  -2  -5  -4 3.61666 2.09557   1
   2   5   4 3.28491 1.95322   3
  -3  -5  -4 17.5945 2.96738   1
  -3  -5  -4 19.6083 2.27221   2
   3   5   4 21.2290 2.57176   3
  -4  -5  -4 101.598 6.07440   1
  -4  -5  -4 106.823 5.04198   2
  -5  -5  -4 70.1195 4.88966   2
   5   5   4 81.1719 5.89364   4
   5   5   4 73.6110 6.04633   1
  -6  -5  -4 20.8271 3.50481   2
   6   5   4 26.3833 4.25041   1
   6   5   4 26.4011 4.28204   4
   7   5   4 0.02478 4.17405   4
   7   5   4 -1.4621 4.04362   1
   9  -6  -4 84.4938 7.36218   3
  -9   6   4 76.1198 6.75318   2
   8  -6  -4 47.4893 5.91910   3
   7  -6  -4 103.912 6.44868   3
  -7   6   4 119.671 6.68014   2
   6  -6  -4 364.987 12.5408   3
  -6   6   4 369.982 12.3138   2
   5  -6  -4 13.2378 2.55986   3
  -5   6   4 22.1968 2.77051   2
   4  -6  -4 25.6620 3.38352   3
  -4   6   4 29.9356 3.12844   2
   3  -6  -4 57.1583 3.85481   3
  -3   6   4 63.3374 3.72558   2
  -2   6   4 56.2316 3.30631   2
   1  -6  -4 111.468 4.32618   1
   1  -6  -4 103.805 4.75995   3
  -1   6   4 115.142 4.68886   2
   0  -6  -4 12.0691 2.00221   3
   0  -6  -4 10.9237 1.94448   1
   0  -6  -4 7.49783 1.69091   2
  -1  -6  -4 301.050 9.74559   3
  -1  -6  -4 297.921 9.97850   1
  -1  -6  -4 297.178 9.65771   2
  -2  -6  -4 105.567 5.43512   1
  -2  -6  -4 102.085 4.61056   2
   2   6   4 90.1969 4.95486   3
  -3  -6  -4 399.798 13.3474   1
  -3  -6  -4 391.904 12.5148   2
  -4  -6  -4 16.2557 2.63542   2
  -4  -6  -4 12.4625 3.41298   1
  -5  -6  -4 124.190 6.40694   2
   6   6   4 67.6280 7.34075   1
   6   6   4 64.5947 7.07321   4
   9  -7  -4 33.5847 5.41395   3
   8  -7  -4 30.8366 4.88869   3
  -8   7   4 38.7067 4.58487   2
   7  -7  -4 3.38447 3.28483   3
  -7   7   4 -2.8047 3.25049   2
   6  -7  -4 9.83455 3.07827   3
  -6   7   4 15.7241 3.12680   2
   5  -7  -4 1.78732 2.49258   3
  -5   7   4 1.22560 2.45610   2
   4  -7  -4 48.9661 4.31778   3
  -4   7   4 58.8799 4.24117   2
   3  -7  -4 0.04462 2.11985   3
  -3   7   4 -0.5205 1.96294   2
   2  -7  -4 136.322 5.92235   3
  -2   7   4 134.338 5.57627   2
   1  -7  -4 402.611 12.6843   3
   1  -7  -4 374.546 12.0536   1
  -1   7   4 408.799 12.4397   2
   0  -7  -4 157.551 6.21728   1
   0  -7  -4 162.196 6.24239   2
   0  -7  -4 155.658 6.45239   3
  -1  -7  -4 398.565 12.7622   1
  -1  -7  -4 383.845 12.5583   3
  -1  -7  -4 393.197 12.3884   2
  -2  -7  -4 247.687 9.45088   1
  -2  -7  -4 250.849 8.78267   2
   2   7   4 259.361 9.31241   3
  -3  -7  -4 2.42025 3.09879   1
  -3  -7  -4 4.17869 2.42028   2
   3   7   4 2.26573 3.21713   3
  -4  -7  -4 29.0928 3.26417   2
  -4  -7  -4 21.2248 4.22200   1
   6   7   4 -1.1234 4.75981   1
   6   7   4 6.50003 4.94698   4
   8  -8  -4 11.0447 4.64221   3
  -8   8   4 8.41717 4.27466   2
   7  -8  -4 14.8194 4.87741   3
  -7   8   4 13.5420 5.41026   2
   6  -8  -4 147.462 7.59628   3
  -6   8   4 146.980 7.32273   2
   5  -8  -4 28.2095 3.71340   3
  -5   8   4 28.8869 3.67464   2
   4  -8  -4 0.43014 2.45977   3
  -4   8   4 -0.3777 2.53701   2
   3  -8  -4 8.54395 2.54742   3
  -3   8   4 9.02955 2.60349   2
   2  -8  -4 159.323 7.06304   3
  -2   8   4 174.818 6.86160   2
   1  -8  -4 207.069 8.04114   3
   1  -8  -4 199.807 7.36468   1
  -1   8   4 210.137 7.60461   2
   0  -8  -4 39.9133 4.17617   3
   0  -8  -4 44.5426 4.35477   1
   0   8   4 44.7486 3.89321   2
  -1  -8  -4 4.80766 2.41984   2
  -1  -8  -4 4.17317 2.56763   3
  -1  -8  -4 11.2830 2.99732   1
  -2  -8  -4 58.2583 4.79290   2
  -2  -8  -4 52.4275 5.27345   1
   2   8   4 57.7790 5.48723   3
  -3  -8  -4 22.4362 3.29984   2
  -3  -8  -4 25.2020 3.98232   1
   3   8   4 21.1381 4.14943   3
  -4  -8  -4 0.05932 4.07694   1
   8  -9  -4 -0.3400 4.64227   3
  -8   9   4 11.9797 4.89619   2
   7  -9  -4 35.4126 4.81174   3
  -7   9   4 33.7050 5.03024   2
   6  -9  -4 41.7051 5.89679   3
  -6   9   4 49.0883 5.99075   2
   5  -9  -4 131.347 7.57296   3
  -5   9   4 146.606 7.52142   2
   4  -9  -4 5.05525 3.04151   3
  -4   9   4 0.80143 3.03805   2
   3  -9  -4 14.0692 3.20412   3
  -3   9   4 18.4215 3.14761   2
   2  -9  -4 7.69119 2.92616   3
  -2   9   4 8.06709 2.82146   2
   1  -9  -4 7.77885 2.83376   3
   1  -9  -4 5.49027 2.76141   1
  -1   9   4 4.88026 2.47296   2
   0  -9  -4 -1.3969 2.66455   3
   0  -9  -4 4.85393 3.11486   1
   0   9   4 1.80536 2.48823   2
  -1  -9  -4 25.2215 3.73195   1
   1   9   4 22.8168 3.20783   2
  -2  -9  -4 22.5193 3.52128   2
  -2  -9  -4 27.3311 3.94536   1
   2   9   4 15.2404 3.93562   3
  -3  -9  -4 5.12063 4.55106   1
  -4  -9  -4 4.84227 4.74225   1
   7 -10  -4 9.28317 4.80315   3
  -7  10   4 1.57535 4.69376   2
   6 -10  -4 1.86333 4.11790   3
  -6  10   4 0.80405 4.21374   2
   5 -10  -4 9.29117 4.12792   3
   4 -10  -4 37.8206 5.59634   3
  -4  10   4 46.3316 5.86655   2
   3 -10  -4 48.1168 5.54950   3
  -3  10   4 53.0699 5.69408   2
   2 -10  -4 50.0384 5.52423   3
  -2  10   4 57.6715 5.60648   2
   1 -10  -4 -0.5264 3.08129   3
  -1  10   4 4.80456 3.13177   2
   0 -10  -4 5.84834 3.20499   3
   0 -10  -4 0.26926 3.80831   1
   0  10   4 1.96431 3.06987   2
  -1 -10  -4 38.8142 4.50374   1
   1  10   4 26.9791 5.02068   3
  -2 -10  -4 29.2009 4.76073   1
   2  10   4 22.9180 4.85630   3
  -3 -10  -4 67.1039 7.64716   1
   6 -11  -4 14.1910 5.12160   3
  -6  11   4 10.0059 4.83702   2
   5 -11  -4 169.798 9.63248   3
  -5  11   4 179.771 9.56426   2
   4 -11  -4 8.21149 4.16710   3
  -4  11   4 0.69919 4.22060   2
   3 -11  -4 81.4036 7.24314   3
  -3  11   4 94.3961 7.18348   2
   2 -11  -4 12.7749 4.62999   3
  -2  11   4 8.10376 4.05205   2
  -1  11   4 -1.0055 3.59335   2
  -1 -11  -4 50.0747 6.62282   1
   1  11   4 46.1655 5.94378   3
  -2 -11  -4 22.3782 5.20595   1
   2  11   4 7.44365 5.34431   3
   5 -12  -4 0.76103 5.02154   3
  -5  12   4 4.15370 4.19759   2
  -4  12   4 34.7151 5.07839   2
   3 -12  -4 3.07516 4.49454   3
  -3  12   4 5.55653 4.51415   2
   2 -12  -4 3.02063 4.40406   3
   1 -12  -4 8.33185 4.48735   3
   0  12   4 -2.4692 4.62396   3
  -2 -14   5 56.3846 8.25410   1
   1  14  -5 9.80351 4.65344   3
  -1 -14   5 14.8561 5.21828   1
   0  14  -5 17.4195 5.02533   3
   0 -14   5 16.8355 4.89772   1
  -1  14  -5 86.8390 8.59541   3
   1 -14   5 74.0657 8.39959   1
  -2  14  -5 129.211 9.16610   3
  -3  14  -5 8.65949 5.07835   3
   4  13  -5 20.5430 5.98449   3
  -4 -13   5 -1.8382 5.00768   1
   3  13  -5 82.7260 8.68229   3
  -3 -13   5 75.2234 8.28177   1
   2  13  -5 7.27549 4.66421   3
  -2 -13   5 3.76910 4.50941   1
   1  13  -5 14.9284 4.16976   3
  -1 -13   5 21.6688 4.58932   1
   0  13  -5 0.34498 3.81994   3
   0 -13   5 2.24412 3.92862   1
  -1  13  -5 0.09531 5.90046   3
   1 -13   5 -2.8347 3.68016   1
  -2  13  -5 64.0956 8.33519   3
   2 -13   5 61.9092 6.65387   1
   4 -13   5 1.38018 4.67629   3
   5 -13   5 14.8007 4.69836   3
   5  12  -5 10.0476 5.34225   3
  -5 -12   5 9.69514 5.19175   1
   4  12  -5 137.689 9.23114   3
  -4 -12   5 134.691 8.64125   1
   3  12  -5 127.442 8.08668   3
  -3 -12   5 111.570 9.53602   1
   2  12  -5 45.5762 5.78844   3
  -2 -12   5 34.5721 4.72503   1
   1  12  -5 35.7755 4.49052   3
  -1 -12   5 40.6026 5.64536   1
   0  12  -5 11.0227 3.37188   3
   0 -12   5 13.0131 3.55144   1
  -1  12  -5 1.21638 3.31474   3
   1 -12   5 0.91543 3.15552   1
  -2  12  -5 10.2994 3.72470   3
   2 -12   5 14.0951 3.43619   1
   3 -12   5 4.37761 3.69774   3
   3 -12   5 6.74420 3.69761   1
  -4  12  -5 42.3021 5.62024   2
   4 -12   5 40.5723 4.97383   3
  -5  12  -5 36.9568 4.62986   2
   5 -12   5 34.2528 7.02023   3
  -6  12  -5 0.55076 3.47886   2
   6  11  -5 43.2320 6.21932   3
   5  11  -5 10.6310 4.79919   3
  -5 -11   5 11.5101 4.56183   1
   4  11  -5 19.6487 4.77189   3
   3  11  -5 -0.8530 3.52522   3
  -3 -11   5 0.57525 3.48789   1
   2  11  -5 -0.6035 2.83499   3
  -2 -11   5 1.07819 3.28982   1
   1  11  -5 123.859 6.60162   3
  -1 -11   5 121.461 6.56852   1
   0  11  -5 85.6050 5.60880   3
   0 -11   5 79.8116 5.53415   1
  -1  11  -5 2.76406 2.92874   3
   1 -11   5 9.85331 2.80266   1
   2 -11   5 4.61747 2.92931   1
  -3  11  -5 5.09028 2.65794   2
   3 -11   5 11.8946 3.29869   1
   3 -11   5 13.5686 3.48892   3
  -4  11  -5 4.04881 2.80846   2
   4 -11   5 8.53379 3.45157   3
   4 -11   5 6.79401 3.60311   1
  -5  11  -5 34.5692 4.20684   2
   5 -11   5 35.4313 4.75392   3
  -6  11  -5 5.72679 3.62890   2
   6  10  -5 5.62125 4.82408   3
  -6 -10   5 4.93154 4.56756   1
   5  10  -5 6.22880 3.99676   3
   4  10  -5 30.2704 4.24626   3
  -4 -10   5 30.6246 4.12031   1
   3  10  -5 4.04793 2.90910   3
  -3 -10   5 4.34300 3.05841   1
   2  10  -5 90.6259 5.35715   3
  -2 -10   5 81.5181 5.40556   1
   1  10  -5 -0.6874 2.36641   3
  -1 -10   5 4.22603 2.64658   1
   0  10  -5 101.818 5.54420   3
   0 -10   5 97.0135 5.38625   1
  -1  10  -5 163.561 7.32931   3
   1 -10   5 177.677 7.10681   1
  -2  10  -5 42.5795 3.42791   2
   2 -10   5 31.5040 4.14496   3
   2 -10   5 30.0293 4.23652   1
  -3  10  -5 10.7186 2.42495   2
   3 -10   5 11.8910 2.92513   1
   3 -10   5 11.5799 2.87762   3
  -4  10  -5 5.90765 2.64347   2
   4 -10   5 3.71498 3.01300   3
   4 -10   5 5.53597 3.06593   1
  -5  10  -5 2.89594 2.97376   2
   5 -10   5 2.52412 3.36832   3
   5 -10   5 7.43774 3.39017   1
  -6  10  -5 14.7315 6.09381   2
  -7  10  -5 19.8161 4.14291   2
   7   9  -5 27.4649 5.23426   3
  -7  -9   5 39.2588 5.59644   1
   6   9  -5 3.44809 4.06188   3
  -6  -9   5 3.80190 4.00682   1
   5   9  -5 78.1721 6.43109   3
  -5  -9   5 77.5108 6.20087   1
   4   9  -5 23.4776 3.57787   3
  -4  -9   5 19.9116 3.40936   1
   3   9  -5 8.79004 2.68046   3
  -3  -9   5 8.45045 2.61094   1
   2   9  -5 2.69018 2.18220   3
  -2  -9   5 -0.4358 2.24191   1
   1   9  -5 410.877 13.3862   3
  -1  -9   5 415.306 13.2673   1
   0   9  -5 185.593 7.40242   3
   0  -9   5 195.277 7.30860   1
  -1   9  -5 65.5603 3.35497   2
  -1   9  -5 67.8863 4.36848   3
   1  -9   5 66.4902 4.35099   1
  -2   9  -5 39.6197 3.19289   2
   2  -9   5 38.0755 3.85208   1
   2  -9   5 33.8717 3.84055   3
  -3   9  -5 152.016 5.97417   2
   3  -9   5 146.153 6.32669   1
   3  -9   5 144.082 6.34553   3
  -4   9  -5 195.085 7.71558   2
   4  -9   5 195.607 7.87686   3
   4  -9   5 210.243 8.00064   1
  -5   9  -5 25.2999 3.26638   2
   5  -9   5 24.8982 3.56836   3
   5  -9   5 29.1683 3.52737   1
  -6   9  -5 6.48928 3.03062   2
   6  -9   5 12.6239 3.55364   1
  -7   9  -5 51.7988 6.33186   2
   8   8  -5 3.37862 4.55246   3
  -8  -8   5 10.7459 5.14958   1
   7   8  -5 -2.4357 5.60626   3
  -7  -8   5 -1.6848 4.01108   1
   6   8  -5 71.2587 6.39232   3
  -6  -8   5 62.0016 6.20236   1
   5   8  -5 38.0783 4.68174   3
  -5  -8   5 31.9941 3.85827   1
   4   8  -5 9.94386 2.71023   3
  -4  -8   5 4.63322 2.67776   1
   3   8  -5 15.2602 2.63829   3
  -3  -8   5 16.4404 2.57684   1
   2   8  -5 162.565 6.48524   3
  -2  -8   5 159.952 6.44045   1
   1   8  -5 -0.2192 1.82574   3
  -1  -8   5 2.52247 1.97932   1
   0  -8   5 393.125 12.3703   1
  -1   8  -5 394.839 11.7784   2
  -1   8  -5 392.014 12.4411   3
   1  -8   5 405.040 12.4485   1
  -2   8  -5 1.36658 1.49103   2
   2  -8   5 3.78658 1.82551   3
   2  -8   5 1.36742 1.83066   1
   3  -8   5 36.3373 3.46440   3
  -4   8  -5 97.9214 5.01558   2
   4  -8   5 101.697 5.23357   1
  -5   8  -5 222.958 8.66473   2
   5  -8   5 230.953 8.63511   1
   5  -8   5 243.491 8.66241   3
  -6   8  -5 76.2137 5.39141   2
   6  -8   5 80.8491 5.58767   1
  -7   8  -5 1.97880 3.23117   2
  -8   8  -5 15.4993 3.92885   2
   8   7  -5 15.7693 4.92345   3
  -8  -7   5 20.9042 4.68924   1
   7   7  -5 37.9535 4.80723   3
  -7  -7   5 41.3342 5.87329   1
   6   7  -5 15.0657 3.56411   3
  -6  -7   5 21.7781 3.73380   1
   5   7  -5 273.238 10.1002   3
  -5  -7   5 265.718 9.95908   1
   4   7  -5 87.9335 5.02227   3
  -4  -7   5 84.2878 4.94605   1
   3   7  -5 34.5546 3.39664   3
  -3  -7   5 30.7768 3.19533   1
   2   7  -5 1.26358 1.76943   3
  -2  -7   5 -1.5410 1.51516   1
   1   7  -5 17.3624 2.58322   3
  -1  -7   5 20.2662 2.54875   1
   0   7  -5 186.950 6.63074   3
   0  -7   5 186.789 6.61738   1
  -1   7  -5 4.06890 1.60470   3
  -1   7  -5 1.45395 1.13947   2
   1  -7   5 3.66608 1.55099   1
  -2   7  -5 13.8677 1.72118   2
   2  -7   5 17.2724 2.49370   3
   2  -7   5 13.8310 1.93050   1
  -3   7  -5 27.2742 2.81322   2
   3  -7   5 28.8059 3.00381   1
   3  -7   5 30.2084 2.95738   3
  -4   7  -5 284.243 9.52265   2
   4  -7   5 275.329 9.31529   3
   4  -7   5 289.212 9.57478   1
  -5   7  -5 -0.5736 1.97358   2
   5  -7   5 -0.5289 2.22711   1
   5  -7   5 0.49091 2.16976   3
  -6   7  -5 36.5743 4.39894   2
   6  -7   5 37.0359 4.62917   1
  -7   7  -5 19.7435 3.41697   2
   7  -7   5 23.0325 3.73960   1
  -8   7  -5 43.6202 6.05793   2
   9   6  -5 3.22969 4.47741   3
  -9  -6   5 2.07762 4.13406   1
   8   6  -5 17.6508 4.43558   3
  -8  -6   5 17.6386 4.12629   1
   7   6  -5 106.950 6.92163   3
  -7  -6   5 102.476 6.60130   1
   6   6  -5 177.890 7.86900   3
  -6  -6   5 173.545 7.70500   1
   5   6  -5 -0.0847 2.26610   3
  -5  -6   5 -2.7610 2.14570   1
   4   6  -5 103.976 5.12420   3
  -4  -6   5 103.990 5.04266   1
   3   6  -5 165.403 6.20528   3
  -3  -6   5 159.259 6.14459   1
   2   6  -5 -1.8718 1.31839   3
  -2  -6   5 2.61026 1.41908   1
   1   6  -5 32.7856 2.51903   3
  -1  -6   5 33.3336 2.51926   1
   0   6  -5 4.44983 1.38113   3
   0  -6   5 2.95651 1.28018   1
  -1   6  -5 46.8813 2.76522   3
  -1   6  -5 51.1963 2.45701   2
   1  -6   5 49.1452 2.87894   1
  -2   6  -5 97.7990 3.93858   2
   2  -6   5 102.926 4.09362   3
   2  -6   5 96.3702 4.18277   1
  -3   6  -5 74.6975 3.69288   2
   3  -6   5 81.1072 3.99284   1
   3  -6   5 76.8861 3.59508   3
  -4   6  -5 399.615 12.1676   2
   4  -6   5 373.538 13.9420   1
   4  -6   5 377.576 11.7267   3
  -5   6  -5 383.462 12.4381   2
   5  -6   5 375.232 11.9521   3
   5  -6   5 390.514 12.4570   1
  -6   6  -5 13.1602 2.66303   2
   6  -6   5 13.3658 2.96684   1
  -7   6  -5 20.7048 3.76621   2
   7  -6   5 18.5292 3.50574   1
  -8   6  -5 2.05225 3.16137   2
   8  -6   5 4.24247 4.11517   1
   9   5  -5 12.1268 4.38423   3
  -9  -5   5 14.2118 4.22958   1
   8   5  -5 3.80661 3.87848   3
  -8  -5   5 3.41762 3.57390   1
   7   5  -5 17.9086 3.57729   3
  -7  -5   5 9.04958 3.11359   1
   6   5  -5 5.01614 2.67027   3
  -6  -5   5 4.52075 2.52577   1
   5   5  -5 56.7017 4.19963   3
  -5  -5   5 48.4433 3.94489   1
   4   5  -5 132.334 5.83207   3
  -4  -5   5 141.733 5.61589   1
   3   5  -5 91.2953 4.12991   3
  -3  -5   5 87.9245 4.02557   1
   2   5  -5 326.493 10.0968   3
  -2  -5   5 318.535 10.0127   1
   1   5  -5 390.670 11.7662   3
  -1  -5   5 391.212 11.7752   1
   0   5  -5 670.176 20.1482   2
   0   5  -5 761.750 20.7003   3
   0  -5   5 737.210 20.7594   1
  -1   5  -5 169.545 5.35383   2
  -1   5  -5 166.831 5.51607   3
   1  -5   5 163.514 5.70456   1
  -2   5  -5 270.238 8.44099   2
   2  -5   5 271.451 8.32236   3
   2  -5   5 270.000 8.67335   1
  -3   5  -5 92.3854 4.03153   2
   3  -5   5 91.3894 3.69858   3
   3  -5   5 95.2008 4.18979   1
  -4   5  -5 101.470 4.57490   2
   4  -5   5 100.592 4.00257   3
   4  -5   5 96.8897 5.64765   1
  -5   5  -5 13.1632 2.20894   2
   5  -5   5 18.0571 2.59597   1
  -6   5  -5 37.3340 3.94689   2
   6  -5   5 35.5466 4.14973   1
  -7   5  -5 3.11929 2.60860   2
   7  -5   5 5.59541 3.03515   1
  -8   5  -5 83.4125 6.29592   2
   8  -5   5 60.3843 6.99053   1
  -9  -4   5 76.1839 7.88301   1
   8   4  -5 18.3927 3.87752   3
  -8  -4   5 17.5397 3.72141   1
   7   4  -5 43.9968 4.80340   3
  -7  -4   5 36.8647 4.55935   1
   6   4  -5 30.9540 4.00772   3
  -6  -4   5 33.9455 3.95785   1
  -6  -4   5 30.0579 2.53419   2
   5   4  -5 60.3526 3.97860   3
  -5  -4   5 56.6018 4.41450   1
  -5  -4   5 48.0077 2.48393   2
   4   4  -5 1031.99 29.5248   3
  -4  -4   5 1020.97 29.3581   1
   3   4  -5 848.331 24.3752   3
  -3  -4   5 843.157 24.2202   1
   2   4  -5 6.89652 1.40169   3
  -2  -4   5 5.09505 1.30498   1
   1   4  -5 235.375 7.39647   3
  -1  -4   5 235.248 7.42754   1
   0   4  -5 5.31531 0.80631   2
   0   4  -5 6.71912 1.11482   3
   0  -4   5 6.96591 1.28019   1
  -1   4  -5 81.6280 3.11705   2
  -1   4  -5 84.1345 3.08234   3
   1  -4   5 80.5029 3.48338   1
  -2   4  -5 5.11555 1.16627   2
   2  -4   5 5.30328 1.40767   1
  -3   4  -5 59.0978 3.09093   2
   3  -4   5 55.2338 2.53012   3
   3  -4   5 60.5961 3.25921   1
  -4   4  -5 5.02988 1.58607   2
   4  -4   5 7.12667 1.86441   1
  -5   4  -5 59.0897 3.77191   2
   5  -4   5 55.3415 4.08231   1
  -6   4  -5 83.1248 4.88037   2
   6  -4   5 88.1622 5.18980   1
  -7   4  -5 24.5542 3.37010   2
   7  -4   5 18.7676 3.39252   1
  -8   4  -5 18.7506 3.64006   2
   9   3  -5 6.51395 4.05783   3
  -9  -3   5 9.55064 3.95903   1
   8   3  -5 375.374 13.4256   3
  -8  -3   5 368.600 13.1881   1
  -8  -3   5 400.301 13.5052   2
   7   3  -5 138.572 6.70256   3
  -7  -3   5 135.733 6.41013   1
  -7  -3   5 131.090 5.51285   2
   6   3  -5 0.14728 2.12349   3
  -6  -3   5 -0.5598 1.95461   1
  -6  -3   5 1.68588 1.43086   2
   5   3  -5 154.700 6.26646   3
  -5  -3   5 157.483 5.25857   2
  -5  -3   5 159.893 5.96675   1
   4   3  -5 52.0379 3.19751   3
  -4  -3   5 44.4868 2.16977   2
  -4  -3   5 51.1610 2.90172   1
   3   3  -5 10.3547 1.57104   3
  -3  -3   5 11.8027 1.15868   2
  -3  -3   5 11.7013 1.46592   1
   2   3  -5 13.6328 1.94604   3
  -2  -3   5 14.9947 1.71773   1
   1   3  -5 1.97551 0.61075   2
   1   3  -5 0.72377 1.03173   3
  -1  -3   5 1.27806 1.03277   1
   0   3  -5 1124.79 31.0200   3
   0   3  -5 1114.34 30.9229   2
   0  -3   5 1103.24 31.2118   1
  -1   3  -5 529.335 14.6507   3
  -1   3  -5 507.515 14.8589   2
   1  -3   5 519.358 15.1316   1
  -2   3  -5 2.03795 1.04542   2
   2  -3   5 0.28582 1.20201   1
  -3   3  -5 662.715 19.1987   2
   3  -3   5 655.670 19.2806   1
  -4   3  -5 408.828 11.8844   2
   4  -3   5 340.786 13.4820   1
  -5   3  -5 21.9445 2.49009   2
   5  -3   5 22.4767 2.89644   1
  -6   3  -5 0.50920 2.01715   2
   6  -3   5 2.70723 2.53599   1
  -7   3  -5 21.6086 3.14080   2
   7  -3   5 18.4786 3.37623   1
  -8   3  -5 14.2478 3.38089   2
   8  -3   5 11.7909 3.96955   1
  10   2  -5 19.1698 6.41547   3
   9   2  -5 11.9847 3.98542   3
  -9  -2   5 11.7661 3.74576   1
  -9  -2   5 17.7103 4.11640   2
   8   2  -5 169.457 7.88271   3
  -8  -2   5 156.538 7.44506   1
  -8  -2   5 169.901 6.82923   2
   7   2  -5 96.5366 5.72854   3
  -7  -2   5 110.535 5.28081   1
  -7  -2   5 103.516 4.84112   2
   6   2  -5 16.7179 2.50278   3
  -6  -2   5 17.1490 2.31411   1
  -6  -2   5 13.7943 1.80135   2
   5   2  -5 1.77121 1.53467   3
  -5  -2   5 4.66032 1.52945   1
  -5  -2   5 6.57160 1.27273   2
   4   2  -5 108.204 4.40681   3
  -4  -2   5 103.830 4.00847   1
  -4  -2   5 103.120 3.66565   2
   3   2  -5 431.820 12.8795   3
  -3  -2   5 438.007 12.2955   2
  -3  -2   5 422.817 12.5613   1
   2   2  -5 343.448 10.0921   3
  -2  -2   5 325.682 9.84179   1
   1   2  -5 27.1473 1.87539   3
   1   2  -5 26.5392 1.48273   2
  -1  -2   5 29.8240 1.92247   1
   0   2  -5 175.206 5.34938   3
   0   2  -5 177.124 5.43253   2
   0  -2   5 170.801 5.61553   1
  -1   2  -5 962.867 27.0680   2
   1  -2   5 967.122 27.2447   1
  -2   2  -5 34.4076 2.14602   2
   2  -2   5 35.8994 2.44915   1
  -3   2  -5 25.6790 2.20338   2
   3  -2   5 25.5280 2.55646   1
  -4   2  -5 111.542 4.77319   2
   4  -2   5 114.782 5.59223   1
  -5   2  -5 21.6406 2.49925   2
   5  -2   5 26.3283 3.01762   1
  -6   2  -5 265.068 9.53317   2
   6  -2   5 270.660 10.0008   1
  -7   2  -5 35.7658 4.43769   2
   7  -2   5 42.0795 4.29142   1
  -8   2  -5 -1.8154 3.05521   2
   8  -2   5 -2.5769 3.75086   1
  10   1  -5 -2.0261 3.74656   3
   9   1  -5 77.4368 6.57838   3
  -9  -1   5 82.5150 5.45533   2
   8   1  -5 255.750 9.92411   3
  -8  -1   5 250.099 9.01649   2
  -8  -1   5 251.764 9.33529   1
   7   1  -5 4.92211 2.56113   3
  -7  -1   5 5.13717 2.19685   1
  -7  -1   5 7.30973 2.02964   2
   6   1  -5 11.2820 2.31299   3
  -6  -1   5 14.3570 2.01061   1
  -6  -1   5 16.8893 1.98855   2
   5   1  -5 41.8845 3.13996   3
  -5  -1   5 43.8468 2.62395   2
  -5  -1   5 43.0269 2.64985   1
   4   1  -5 -0.1442 1.20702   3
  -4  -1   5 2.45930 0.99182   2
  -4  -1   5 2.55942 1.04179   1
   3   1  -5 69.1396 3.16594   3
  -3  -1   5 71.4421 2.74318   2
  -3  -1   5 69.1880 2.74115   1
   2   1  -5 80.1632 2.85725   2
   2   1  -5 78.5412 3.17690   3
  -2  -1   5 77.7439 2.86980   1
   1   1  -5 57.9127 2.59756   3
   1   1  -5 58.1366 2.32466   2
  -1  -1   5 56.8181 2.48735   1
   0   1  -5 783.627 21.7229   3
   0   1  -5 779.977 21.9540   2
   0  -1   5 777.666 22.0334   1
  -1   1  -5 68.6451 2.82519   2
   1  -1   5 67.3087 3.04662   1
  -2   1  -5 1236.08 35.4164   2
   2  -1   5 1289.11 35.5972   1
  -3   1  -5 748.003 21.6343   2
   3  -1   5 746.108 21.7940   1
  -4   1  -5 118.982 5.00684   2
   4  -1   5 123.940 5.29764   1
  -5   1  -5 -0.4390 1.60600   2
   5  -1   5 2.18878 2.09329   1
  -6   1  -5 0.67082 2.07048   2
   6  -1   5 2.40450 2.47598   1
  -7   1  -5 157.623 7.35859   2
   7  -1   5 158.827 8.08042   1
  -8   1  -5 25.0120 3.89101   2
   8  -1   5 21.0886 4.58866   1
  10   0  -5 0.94019 3.85705   3
 -10   0   5 -1.9518 3.26741   2
   9   0  -5 39.3579 4.62177   3
  -9   0   5 36.3605 3.60621   2
   8   0  -5 75.1374 5.37841   3
  -8   0   5 74.4094 4.73349   2
   7   0  -5 6.03878 2.52826   3
  -7   0   5 7.41993 2.07656   1
  -7   0   5 6.21822 2.09784   2
   6   0  -5 14.5463 2.37878   3
  -6   0   5 15.6791 2.00996   2
  -6   0   5 14.0595 1.87657   1
   5   0  -5 128.381 5.26106   3
  -5   0   5 133.162 4.55221   1
  -5   0   5 123.983 4.74801   2
   4   0  -5 20.6891 2.24774   3
  -4   0   5 19.4684 1.57270   1
  -4   0   5 20.1539 1.84934   2
   3   0  -5 0.67251 1.11373   3
  -3   0   5 0.63795 0.85490   2
   2   0  -5 141.072 4.76433   3
   2   0  -5 143.592 4.57902   2
  -2   0   5 131.444 4.32842   1
   1   0  -5 418.384 11.7334   3
   1   0  -5 404.149 11.7148   2
  -1   0   5 390.315 11.5949   1
   0   0  -5 1964.88 54.7006   2
   0   0  -5 1975.67 54.3872   3
   0   0   5 1991.11 54.6852   1
  -1   0  -5 132.223 4.59413   2
   1   0   5 133.592 4.71925   1
  -2   0  -5 414.056 12.5448   2
   2   0   5 427.757 12.7553   1
  -3   0  -5 65.4504 3.32813   2
   3   0   5 69.6351 3.67473   1
  -4   0  -5 4.21611 1.53914   2
   4   0   5 1.87058 1.80825   1
  -5   0  -5 8.85988 1.96479   2
   5   0   5 7.13414 2.44995   1
  -6   0  -5 105.511 5.43359   2
   6   0   5 103.565 6.09818   1
  -7   0  -5 3.11215 2.76260   2
   7   0   5 4.19504 3.16897   1
  -8   0  -5 35.4499 4.31581   2
   8   0   5 32.0753 5.11936   1
  10  -1  -5 0.20312 3.61679   3
 -10   1   5 5.85405 3.24372   2
   9  -1  -5 -1.1894 3.45760   3
  -9   1   5 3.07192 2.74421   2
   8  -1  -5 90.6004 5.88801   3
  -8   1   5 95.0234 5.29834   2
   7  -1  -5 10.4814 2.64193   3
  -7   1   5 4.50794 2.18178   2
   6  -1  -5 22.5406 3.23345   3
  -6   1   5 22.5499 2.44389   2
   5  -1  -5 505.533 15.2991   3
  -5   1   5 497.070 14.9278   2
   4  -1  -5 37.9245 2.67178   3
  -4   1   5 41.5724 2.44881   2
   3  -1  -5 0.24206 1.12403   3
  -3   1   5 3.82705 0.98563   2
   2  -1  -5 91.4582 3.45746   2
   2  -1  -5 92.7950 3.61993   3
   1  -1  -5 20.9072 1.63621   3
   1  -1  -5 19.4526 1.68090   2
  -1   1   5 20.0716 1.48930   1
   0  -1  -5 49.5812 2.11452   3
   0  -1  -5 49.7977 2.42370   2
   0   1   5 52.6613 2.48493   1
  -1  -1  -5 270.835 7.58937   3
  -1  -1  -5 257.904 8.11957   2
   1   1   5 257.411 8.19965   1
  -2  -1  -5 47.5563 2.61019   2
   2   1   5 43.7782 2.58025   4
   2   1   5 44.4228 2.79812   1
  -3  -1  -5 3.76364 1.39456   2
   3   1   5 2.73365 1.57934   1
   3   1   5 3.49464 1.42125   4
  -4  -1  -5 17.5949 2.15841   2
   4   1   5 16.0359 2.42476   1
   4   1   5 15.2536 2.23627   4
  -5  -1  -5 0.64173 1.83793   2
   5   1   5 -1.4954 2.04015   4
   5   1   5 -2.1312 2.12869   1
  -6  -1  -5 30.7497 3.94790   2
   6   1   5 18.6761 3.26227   1
  -7  -1  -5 152.962 8.51537   2
  -8  -1  -5 7.92351 3.78825   2
   8   1   5 16.8420 4.59353   1
  10  -2  -5 3.85910 3.84209   3
 -10   2   5 5.58943 3.57073   2
   9  -2  -5 1.93509 3.42233   3
  -9   2   5 4.16950 2.88284   2
   8  -2  -5 66.9946 5.30770   3
  -8   2   5 50.6571 4.74671   2
   7  -2  -5 133.931 6.37280   3
  -7   2   5 127.742 5.96299   2
   6  -2  -5 49.2638 3.85839   3
  -6   2   5 54.0941 3.68620   2
   5  -2  -5 119.861 6.32242   3
  -5   2   5 119.458 4.84248   2
   4  -2  -5 348.757 10.9474   3
  -4   2   5 347.769 10.6720   2
   3  -2  -5 7.66937 1.48650   3
  -3   2   5 3.29713 1.10689   2
   2  -2  -5 385.253 11.5292   3
   1  -2  -5 176.481 5.63080   2
   1  -2  -5 172.312 5.55214   3
  -1   2   5 162.664 5.27899   1
   0  -2  -5 149.723 5.14645   2
   0  -2  -5 156.326 4.92528   3
   0   2   5 148.572 4.93135   4
   0   2   5 150.802 5.03263   1
  -1  -2  -5 7.60881 1.23715   2
  -1  -2  -5 6.38907 1.01201   3
   1   2   5 4.52620 1.30393   4
   1   2   5 7.26197 1.40130   1
  -2  -2  -5 60.6787 3.03065   2
   2   2   5 59.3308 3.15709   4
   2   2   5 60.1789 3.31590   1
   3   2   5 177.548 6.65331   1
   3   2   5 164.842 6.33678   4
  -4  -2  -5 98.1445 4.65281   2
   4   2   5 88.7537 4.67903   4
   4   2   5 92.2234 4.96159   1
  -5  -2  -5 4.50472 2.07620   2
   5   2   5 5.01280 2.35641   4
   5   2   5 3.41157 2.41266   1
  -6  -2  -5 30.1359 4.30954   2
   6   2   5 32.3728 4.58978   4
   6   2   5 36.7303 4.72989   1
  -7  -2  -5 35.2709 5.69336   2
   7   2   5 32.2731 4.54862   1
  10  -3  -5 0.88073 3.91486   3
 -10   3   5 2.39578 3.58532   2
   9  -3  -5 24.1233 4.35503   3
  -9   3   5 16.2402 5.19250   2
   8  -3  -5 9.12889 3.05711   3
  -8   3   5 9.46237 2.75784   2
   7  -3  -5 345.722 12.0570   3
  -7   3   5 358.318 12.1645   2
   6  -3  -5 131.899 5.94117   3
  -6   3   5 128.674 5.62599   2
   5  -3  -5 91.8761 4.60440   3
  -5   3   5 90.3519 4.28992   2
   4  -3  -5 42.8568 3.12154   3
  -4   3   5 44.5748 2.93231   2
   3  -3  -5 3.18445 1.41722   3
  -3   3   5 2.05360 1.16312   2
   2  -3  -5 126.545 4.73363   3
   1  -3  -5 84.9959 3.51724   2
   1  -3  -5 85.1220 3.42875   3
  -1   3   5 85.7701 3.16017   1
   0  -3  -5 44.5744 2.36518   3
   0  -3  -5 43.8989 2.50190   2
   0   3   5 47.7067 2.54936   1
   0   3   5 49.1707 2.40527   4
  -1  -3  -5 165.524 5.68454   2
  -1  -3  -5 167.588 5.36828   3
   1   3   5 158.223 5.62370   4
   1   3   5 157.894 5.79188   1
  -2  -3  -5 13.5387 1.70827   2
   2   3   5 15.5311 1.70623   3
   2   3   5 8.70385 1.86861   4
   2   3   5 13.5337 2.07363   1
  -3  -3  -5 373.789 11.4739   2
   3   3   5 360.952 11.7832   1
   3   3   5 349.919 11.5301   4
  -4  -3  -5 249.635 8.67328   2
   4   3   5 250.248 9.27162   1
   4   3   5 246.458 8.90600   4
  -5  -3  -5 1.52725 2.15916   2
   5   3   5 -4.4545 2.38581   4
   5   3   5 2.80146 2.55802   1
  -6  -3  -5 14.2125 2.96223   2
   6   3   5 8.35710 3.33698   1
   6   3   5 11.3961 3.46273   4
  -7  -3  -5 34.1107 4.07608   2
   7   3   5 24.9442 4.63958   1
  10  -4  -5 9.69970 4.30268   3
   9  -4  -5 73.2155 9.41139   3
  -9   4   5 84.3149 6.11709   2
   8  -4  -5 66.8329 5.91390   3
  -8   4   5 69.5007 5.61299   2
   7  -4  -5 -2.1230 2.54157   3
  -7   4   5 -1.2156 2.43472   2
   6  -4  -5 246.673 9.19357   3
  -6   4   5 256.080 8.94665   2
   5  -4  -5 108.472 5.17699   3
  -5   4   5 104.768 4.83019   2
   4  -4  -5 236.031 9.82384   3
  -4   4   5 243.711 9.39613   2
   3  -4  -5 0.15716 1.45237   3
  -3   4   5 1.44340 1.22682   2
   2  -4  -5 3.77093 1.35287   3
  -2   4   5 5.60896 1.43027   2
   1  -4  -5 241.341 7.77667   2
   1  -4  -5 240.077 7.79503   3
  -1   4   5 240.264 7.30031   4
  -1   4   5 235.075 7.39088   1
   0  -4  -5 31.9123 2.36985   3
   0  -4  -5 31.1900 2.46060   2
   0   4   5 27.2550 2.35287   4
   0   4   5 26.7329 2.47514   1
  -1  -4  -5 53.6195 2.81462   3
  -1  -4  -5 54.9650 3.09775   2
   2   4   5 34.8714 3.10488   3
  -3  -4  -5 83.4467 4.26452   2
   3   4   5 80.7750 4.75603   4
   3   4   5 86.8129 4.96620   1
  -4  -4  -5 14.4579 2.31277   2
   4   4   5 17.6184 2.98108   4
   4   4   5 14.2567 2.97506   1
  -5  -4  -5 -1.9027 2.38900   2
   5   4   5 2.24941 2.86801   4
   5   4   5 -1.4391 2.96711   1
  -6  -4  -5 11.8651 3.12597   2
   6   4   5 15.5119 3.87023   4
   6   4   5 12.6780 3.77741   1
  -7  -4  -5 14.6718 4.02944   2
   7   4   5 17.4826 4.61359   4
   7   4   5 14.8329 4.42788   1
   9  -5  -5 69.4463 7.52458   3
  -9   5   5 72.9719 6.47066   2
   8  -5  -5 122.433 7.26775   3
  -8   5   5 120.836 7.16116   2
   7  -5  -5 43.6626 4.71831   3
  -7   5   5 41.3865 4.69156   2
   6  -5  -5 28.1717 3.92501   3
  -6   5   5 23.0650 2.95614   2
   5  -5  -5 36.3388 3.78915   3
  -5   5   5 45.8477 3.58234   2
   4  -5  -5 10.0581 2.22010   3
  -4   5   5 11.5422 2.04232   2
   3  -5  -5 10.8862 2.30369   3
  -3   5   5 10.6783 2.10034   2
   2  -5  -5 31.4055 2.81275   3
  -2   5   5 31.1839 2.70149   2
   1  -5  -5 81.0302 3.89870   2
   1  -5  -5 83.7199 3.99710   3
  -1   5   5 83.2320 3.61148   1
  -1   5   5 84.4240 3.50833   4
   0  -5  -5 33.3843 2.99199   1
   0  -5  -5 31.2512 2.75129   2
   0  -5  -5 34.6047 2.73711   3
  -1  -5  -5 157.488 6.08674   1
  -1  -5  -5 151.604 5.58037   3
  -1  -5  -5 137.040 6.66875   2
  -2  -5  -5 124.833 5.19393   2
  -2  -5  -5 125.583 5.84736   1
   2   5   5 112.601 5.31571   3
  -3  -5  -5 319.684 10.5536   2
  -4  -5  -5 179.614 7.23183   2
   4   5   5 185.070 8.15759   1
   4   5   5 178.389 7.86266   4
  -5  -5  -5 22.3368 3.13376   2
   5   5   5 24.4139 4.00919   4
   5   5   5 22.6172 4.26093   1
  -6  -5  -5 18.5606 3.66960   2
   6   5   5 12.0496 4.22570   4
   6   5   5 22.5413 4.40725   1
   9  -6  -5 5.63473 4.31282   3
  -9   6   5 18.3693 4.45548   2
   8  -6  -5 31.8523 5.61200   3
  -8   6   5 33.6903 4.62943   2
   7  -6  -5 12.8213 3.35469   3
  -7   6   5 5.00182 3.23429   2
   6  -6  -5 10.8943 2.81230   3
  -6   6   5 9.61245 2.87713   2
   5  -6  -5 45.4371 4.02824   3
  -5   6   5 39.0453 3.97228   2
   4  -6  -5 171.899 7.04782   3
  -4   6   5 168.970 6.76010   2
   3  -6  -5 274.400 9.43855   3
  -3   6   5 265.952 9.13928   2
   2  -6  -5 17.5289 2.42981   3
  -2   6   5 11.7761 2.03719   2
   0  -6  -5 238.212 8.21178   3
   0  -6  -5 227.234 8.07883   1
   0  -6  -5 238.671 8.14281   2
  -1  -6  -5 29.1425 3.87399   1
  -1  -6  -5 28.8687 3.32384   2
  -1  -6  -5 34.2645 3.11631   3
  -2  -6  -5 3.62139 2.03268   2
  -2  -6  -5 3.94969 2.73254   1
   2   6   5 7.17402 2.50018   3
  -3  -6  -5 12.6970 2.46091   2
  -4  -6  -5 50.3348 4.57998   2
   4   6   5 48.7162 5.78332   1
   4   6   5 49.1923 5.94621   4
  -5  -6  -5 12.4013 3.26150   2
   5   6   5 11.6491 4.10778   4
   5   6   5 19.5343 4.45086   1
   6   6   5 -1.0965 4.39583   4
   6   6   5 2.07277 4.35995   1
   9  -7  -5 17.7963 5.03014   3
   8  -7  -5 5.09720 4.22125   3
  -8   7   5 -5.7113 3.87612   2
   7  -7  -5 34.5192 4.59911   3
  -7   7   5 44.0461 4.63210   2
   6  -7  -5 4.43151 2.99911   3
  -6   7   5 4.58204 3.20342   2
   5  -7  -5 0.15023 2.56108   3
  -5   7   5 2.77820 2.61015   2
   4  -7  -5 72.0461 4.97191   3
  -4   7   5 75.2586 4.80508   2
   3  -7  -5 277.825 10.0361   3
  -3   7   5 291.281 9.93176   2
   2  -7  -5 16.2595 2.69047   3
   1  -7  -5 -1.1544 2.06311   1
   1  -7  -5 -1.6739 2.08676   3
  -1   7   5 0.84477 2.09917   2
   0  -7  -5 26.6196 3.68026   1
   0  -7  -5 36.9740 3.60234   2
   0  -7  -5 30.5840 3.64982   3
  -1  -7  -5 7.72739 2.17420   2
  -1  -7  -5 3.63122 2.43236   3
  -1  -7  -5 6.69517 2.76700   1
  -2  -7  -5 188.662 8.23868   1
  -2  -7  -5 184.896 7.46597   2
   2   7   5 200.920 7.96718   3
  -3  -7  -5 25.2062 3.13925   2
  -4  -7  -5 6.92326 3.10632   2
   5   7   5 48.1201 5.65401   1
   5   7   5 44.7470 5.63850   4
   8  -8  -5 39.4492 5.54348   3
  -8   8   5 59.5944 6.01799   2
   7  -8  -5 13.0571 4.19188   3
  -7   8   5 10.6444 4.08092   2
   6  -8  -5 6.53978 3.47497   3
  -6   8   5 10.2700 3.58648   2
   5  -8  -5 -0.6846 2.99838   3
  -5   8   5 2.68581 2.95967   2
   4  -8  -5 3.55964 2.66160   3
  -4   8   5 0.69565 2.72972   2
   3  -8  -5 -5.0139 2.35074   3
  -3   8   5 2.27882 2.51695   2
   2  -8  -5 32.7250 4.15952   3
  -2   8   5 34.1568 4.07464   2
   1  -8  -5 163.262 6.69607   1
   1  -8  -5 177.025 7.46418   3
  -1   8   5 177.975 7.05667   2
   0  -8  -5 15.3527 2.72398   3
   0  -8  -5 22.8885 3.33395   1
   0   8   5 19.5431 2.94208   2
  -1  -8  -5 34.5359 4.36734   2
  -1  -8  -5 40.1816 5.11222   1
  -1  -8  -5 37.4884 4.54034   3
  -2  -8  -5 37.8829 4.28646   1
  -2  -8  -5 33.3715 4.73247   2
   2   8   5 27.7781 4.09486   3
  -3  -8  -5 55.6592 5.41715   2
   4   8   5 3.01437 4.53953   1
   4   8   5 3.69962 4.98428   4
   8  -9  -5 3.95707 4.95930   3
   7  -9  -5 7.49862 4.35653   3
  -7   9   5 11.1565 4.67897   2
   6  -9  -5 107.782 7.68643   3
  -6   9   5 122.257 7.87902   2
   5  -9  -5 81.4800 6.58753   3
  -5   9   5 74.3743 6.38262   2
   4  -9  -5 0.54148 3.08083   3
  -4   9   5 -0.1295 3.29823   2
   3  -9  -5 37.3629 5.11448   3
  -3   9   5 35.6108 4.01871   2
   2  -9  -5 3.49328 2.96813   3
  -2   9   5 5.89199 3.02824   2
   1  -9  -5 -2.8974 2.92476   3
  -1   9   5 2.71988 2.66559   2
   0  -9  -5 44.6578 4.99053   3
   0  -9  -5 37.6857 5.45683   1
   0   9   5 34.0685 3.67279   2
  -1  -9  -5 3.92903 3.64886   1
  -1  -9  -5 -0.9608 3.30596   3
   1   9   5 0.51515 3.73267   3
   1   9   5 4.41154 3.22743   2
  -2  -9  -5 14.3300 3.68635   2
  -2  -9  -5 12.4289 4.14849   1
   2   9   5 5.00755 4.18892   3
   4   9   5 -0.7188 5.01626   4
   4   9   5 -3.5567 4.60053   1
   7 -10  -5 64.6766 7.77722   3
  -7  10   5 62.4410 7.93463   2
   6 -10  -5 56.2419 7.34552   3
  -6  10   5 54.0387 5.58390   2
   5 -10  -5 89.9099 7.33036   3
  -5  10   5 94.7767 7.46892   2
   4 -10  -5 4.29403 5.02388   3
  -4  10   5 8.58562 3.89789   2
   3 -10  -5 5.12763 3.54727   3
  -3  10   5 1.01961 3.75361   2
   2 -10  -5 8.79383 3.54529   3
  -2  10   5 11.0591 3.52682   2
   1 -10  -5 19.9203 3.88371   3
   0 -10  -5 3.55167 3.53098   3
   0  10   5 10.0270 3.44914   2
  -1 -10  -5 75.1553 7.13072   1
   1  10   5 65.9160 6.22027   3
   3  10   5 6.29066 4.93575   4
   3  10   5 7.32236 4.66067   1
   6 -11  -5 57.9686 8.76345   3
  -6  11   5 61.8297 6.19977   2
   5 -11  -5 3.55746 4.63051   3
  -5  11   5 9.01876 4.71582   2
   4 -11  -5 17.0424 4.59248   3
  -4  11   5 9.08812 4.54352   2
   3 -11  -5 66.2804 7.12671   3
  -3  11   5 55.7124 6.66755   2
   2 -11  -5 24.3077 4.44361   3
  -2  11   5 29.2282 4.80139   2
   1 -11  -5 19.0177 4.31229   3
  -1  11   5 22.3436 4.35744   2
   0 -11  -5 28.4943 4.77942   3
   1  11   5 2.90451 4.69075   3
   4 -12  -5 -1.1003 4.98416   3
   3 -12  -5 -2.1784 4.80964   3
  -3  12   5 -2.1560 4.27699   2
   2 -12  -5 6.15535 4.68540   3
   1 -12  -5 5.47046 4.84483   3
   2  14  -6 3.10445 5.21339   3
  -2 -14   6 2.15240 5.24149   1
   1  14  -6 7.20253 4.64370   3
  -1 -14   6 5.94778 5.11555   1
   0  14  -6 34.1976 5.39799   3
   0 -14   6 26.7980 5.07894   1
  -1  14  -6 5.60805 4.71443   3
   1 -14   6 31.3381 7.15023   1
  -2  14  -6 33.3100 5.67770   3
   2 -14   6 25.1865 8.10944   1
  -3  14  -6 109.256 9.20739   3
   4  13  -6 29.8111 6.05385   3
  -4 -13   6 23.2901 5.51145   1
   3  13  -6 8.57628 4.95285   3
  -3 -13   6 2.69235 4.66068   1
   2  13  -6 3.91375 4.34330   3
  -2 -13   6 -2.9161 4.42390   1
   1  13  -6 35.8139 4.79806   3
   0  13  -6 110.013 8.10121   3
   0 -13   6 112.627 7.43218   1
   1 -13   6 6.11198 4.02554   1
   2 -13   6 9.48547 4.07521   1
  -3  13  -6 38.0448 5.22195   3
   3 -13   6 27.0191 4.95296   1
  -4  13  -6 23.5473 4.96689   3
   5  12  -6 1.44449 5.28581   3
  -5 -12   6 -7.5403 4.85200   1
   4  12  -6 52.0986 7.59756   3
  -4 -12   6 37.2532 5.38848   1
   3  12  -6 64.0589 6.84376   3
  -3 -12   6 48.2072 6.87623   1
   2  12  -6 3.53495 3.61379   3
  -2 -12   6 -1.3311 3.84057   1
   1  12  -6 3.92033 3.30292   3
  -1 -12   6 2.60965 3.59985   1
   0  12  -6 43.4379 5.58466   3
   0 -12   6 46.2804 5.48606   1
  -1  12  -6 72.1992 6.30444   3
   1 -12   6 78.2230 5.93922   1
  -2  12  -6 28.3217 4.19674   3
   2 -12   6 23.7515 3.83553   1
  -3  12  -6 25.5702 4.15759   3
   3 -12   6 27.3404 4.14101   1
  -4  12  -6 33.4958 4.42519   2
   4 -12   6 47.1111 5.37668   1
  -5  12  -6 3.15085 5.61807   2
   5 -12   6 5.78120 4.94256   3
   6  11  -6 5.95207 5.19686   3
  -6 -11   6 -2.8593 4.86659   1
   5  11  -6 22.6098 5.19439   3
  -5 -11   6 30.5296 4.97256   1
   4  11  -6 5.05782 4.40922   3
  -4 -11   6 5.97575 6.53787   1
   3  11  -6 61.2478 6.16263   3
  -3 -11   6 50.3533 5.87557   1
   2  11  -6 21.2570 3.68521   3
  -2 -11   6 31.7560 3.85306   1
   1  11  -6 78.9491 5.46137   3
  -1 -11   6 80.4968 5.57729   1
   0  11  -6 49.7749 4.96171   3
   0 -11   6 54.0942 5.04833   1
  -1  11  -6 0.74768 2.91055   3
   1 -11   6 -1.1719 2.86799   1
  -2  11  -6 4.78701 3.13022   3
   2 -11   6 5.86280 3.01524   1
  -3  11  -6 2.02144 2.65126   2
   3 -11   6 5.63855 3.30723   1
  -4  11  -6 92.1505 5.88543   2
   4 -11   6 94.3820 6.58564   1
   4 -11   6 98.9329 6.69498   3
  -5  11  -6 30.2171 3.92882   2
   5 -11   6 20.0568 4.45769   3
   5 -11   6 19.9823 7.95456   1
  -6  11  -6 8.87522 3.69436   2
   7  10  -6 17.1519 5.31096   3
  -7 -10   6 31.6136 5.91569   1
   6  10  -6 35.7153 5.35362   3
  -6 -10   6 41.3121 5.55556   1
   5  10  -6 7.17881 3.96417   3
  -5 -10   6 6.53385 5.59046   1
   4  10  -6 16.9552 3.79694   3
  -4 -10   6 9.35865 3.74091   1
   3  10  -6 122.672 6.80738   3
  -3 -10   6 126.477 6.74655   1
   2  10  -6 11.1750 2.90950   3
  -2 -10   6 9.10752 2.88657   1
   1  10  -6 6.31270 2.49900   3
  -1 -10   6 3.02273 2.69198   1
   0  10  -6 71.7056 4.68917   3
   0 -10   6 72.2734 4.93039   1
  -1  10  -6 85.3747 5.40287   3
   1 -10   6 94.0404 5.37896   1
  -2  10  -6 28.1335 4.28533   3
  -2  10  -6 26.4811 3.44738   2
   2 -10   6 26.4130 3.24788   1
  -3  10  -6 20.4154 2.76844   2
   3 -10   6 24.9946 3.45399   3
   3 -10   6 13.7838 3.07502   1
  -4  10  -6 65.8206 5.02294   2
   4 -10   6 71.7991 5.50367   1
   4 -10   6 70.5220 5.76661   3
  -5  10  -6 179.593 7.99469   2
   5 -10   6 177.346 8.20772   1
   5 -10   6 181.852 8.33196   3
  -6  10  -6 56.9735 6.20936   2
  -7  10  -6 -0.5251 3.69659   2
   7   9  -6 6.97550 4.90362   3
  -7  -9   6 0.35829 4.52964   1
   6   9  -6 29.6304 4.86819   3
  -6  -9   6 30.9876 6.28443   1
   5   9  -6 103.418 6.78685   3
  -5  -9   6 103.315 6.74025   1
   4   9  -6 14.2662 3.13414   3
  -4  -9   6 17.0113 3.39469   1
   3   9  -6 141.366 6.68567   3
  -3  -9   6 141.290 6.60296   1
   2   9  -6 81.7533 5.07629   3
  -2  -9   6 89.1569 4.97059   1
   1   9  -6 12.1679 2.44111   3
  -1  -9   6 12.4756 2.57707   1
   0   9  -6 12.2457 2.40269   3
   0  -9   6 13.0361 2.49256   1
  -1   9  -6 2.65300 2.27004   3
  -1   9  -6 1.93057 1.56419   2
   1  -9   6 -1.9518 2.13533   1
  -2   9  -6 62.6525 3.80165   2
  -2   9  -6 69.1687 4.54231   3
   2  -9   6 59.5742 4.40944   1
  -3   9  -6 229.420 8.33451   2
   3  -9   6 243.193 8.89973   3
   3  -9   6 243.612 8.74854   1
  -4   9  -6 205.737 7.85912   2
   4  -9   6 202.254 8.10077   3
   4  -9   6 198.233 7.96526   1
  -5   9  -6 26.4656 3.37594   2
   5  -9   6 27.3949 3.56111   1
  -6   9  -6 92.5682 6.43956   2
   6  -9   6 100.386 6.44827   1
  -7   9  -6 13.6159 3.78050   2
   8   8  -6 30.3871 5.37890   3
  -7  -8   6 70.0130 6.69710   1
   6   8  -6 7.32536 3.60827   3
  -6  -8   6 4.99860 3.60084   1
   5   8  -6 -1.7866 2.80274   3
  -5  -8   6 3.05428 3.02578   1
   4   8  -6 0.25583 2.42912   3
  -4  -8   6 3.42454 2.53908   1
   3   8  -6 28.8857 3.73305   3
  -3  -8   6 36.8595 3.83433   1
   2   8  -6 218.737 8.12001   3
  -2  -8   6 221.441 8.07919   1
   1   8  -6 -0.8637 1.69956   3
  -1  -8   6 2.19736 1.85295   1
   0  -8   6 28.0374 3.35154   1
  -1   8  -6 132.609 5.39409   3
  -1   8  -6 117.465 4.59759   2
   1  -8   6 129.398 6.03496   1
  -2   8  -6 2.08403 1.62615   2
  -2   8  -6 0.12341 1.89845   3
   2  -8   6 1.23084 1.96281   1
  -3   8  -6 332.666 10.9213   2
   3  -8   6 342.207 11.2195   1
   3  -8   6 342.969 11.1104   3
  -4   8  -6 69.3730 4.47495   2
   4  -8   6 71.4406 4.61482   1
   4  -8   6 68.7252 4.46760   3
  -5   8  -6 16.4750 2.95070   2
   5  -8   6 15.3304 2.97097   1
  -6   8  -6 17.0741 3.13397   2
   6  -8   6 11.0354 3.17315   1
  -7   8  -6 -3.3141 3.05761   2
   7  -8   6 0.09922 3.79731   1
   8   7  -6 -1.8197 4.56965   3
  -8  -7   6 -3.0522 4.15950   1
   7   7  -6 3.93306 3.74655   3
  -7  -7   6 4.68705 3.57472   1
   6   7  -6 -0.5693 3.20617   3
  -6  -7   6 4.68329 3.06148   1
   5   7  -6 91.1552 5.57997   3
  -5  -7   6 89.7185 5.32941   1
   4   7  -6 9.58868 2.43522   3
  -4  -7   6 1.06693 2.21616   1
   3   7  -6 3.04654 1.90801   3
  -3  -7   6 7.82345 2.19948   1
   1   7  -6 132.333 5.24742   3
  -1  -7   6 132.751 5.33111   1
   0   7  -6 110.292 4.57704   3
   0  -7   6 102.769 4.58597   1
  -1   7  -6 154.394 5.74470   3
  -1   7  -6 148.638 5.15343   2
   1  -7   6 152.759 5.77571   1
  -2   7  -6 289.164 9.12575   2
  -2   7  -6 286.365 9.26443   3
   2  -7   6 289.866 9.53706   1
  -3   7  -6 17.1894 3.82157   2
   3  -7   6 18.4689 2.46214   1
   3  -7   6 24.9415 3.18728   3
  -4   7  -6 27.2213 3.38150   2
   4  -7   6 29.5897 3.40850   3
   4  -7   6 27.6809 3.02879   1
  -5   7  -6 4.02401 2.18786   2
   5  -7   6 2.47631 2.49745   1
  -6   7  -6 42.7573 4.60225   2
   6  -7   6 47.2002 4.86675   1
  -7   7  -6 19.7286 3.65052   2
   7  -7   6 23.9082 3.84711   1
  -8   7  -6 1.24060 3.64140   2
   9   6  -6 5.44322 4.34362   3
  -9  -6   6 4.57745 3.94321   1
   8   6  -6 35.4341 6.13921   3
   7   6  -6 4.13156 3.41232   3
  -7  -6   6 -3.6211 3.05514   1
   6   6  -6 9.46389 3.05778   3
  -6  -6   6 9.72535 3.00943   1
   5   6  -6 23.8836 3.05476   3
  -5  -6   6 17.9924 2.90600   1
   4   6  -6 173.724 6.78076   3
  -4  -6   6 164.054 6.62731   1
   3   6  -6 12.4201 2.69208   3
  -3  -6   6 11.4518 1.96711   1
   2   6  -6 280.234 9.06139   3
  -2  -6   6 270.321 8.99964   1
   1   6  -6 397.807 12.0150   3
  -1  -6   6 381.065 11.9625   1
   0   6  -6 148.837 5.28930   3
   0   6  -6 138.215 4.56518   2
   0  -6   6 147.943 5.37123   1
  -1   6  -6 212.747 6.85900   2
  -1   6  -6 223.752 7.19475   3
   1  -6   6 220.140 7.40367   1
  -2   6  -6 420.744 12.5774   3
  -2   6  -6 419.205 12.6077   2
   2  -6   6 421.849 12.9564   1
  -3   6  -6 293.355 9.61576   2
  -4   6  -6 123.781 5.49701   2
   4  -6   6 125.679 5.67026   1
   4  -6   6 128.829 5.03361   3
  -5   6  -6 49.8398 4.02939   2
   5  -6   6 49.5098 4.38322   1
  -6   6  -6 6.58246 2.55478   2
   6  -6   6 5.46433 2.98243   1
  -7   6  -6 0.76758 2.98820   2
   7  -6   6 10.5787 3.51405   1
  -8   6  -6 16.2432 4.11886   2
   8  -6   6 15.6246 4.50458   1
   9   5  -6 1.75373 4.08390   3
  -9  -5   6 -0.7034 3.79424   1
   8   5  -6 7.55648 3.93781   3
  -8  -5   6 -0.4904 3.55204   1
   7   5  -6 60.1166 5.94380   3
  -7  -5   6 61.9289 5.11703   1
   6   5  -6 47.8017 4.50952   3
  -6  -5   6 46.5018 4.45118   1
   5   5  -6 109.687 5.52231   3
  -5  -5   6 105.536 5.28069   1
   4   5  -6 2.09644 2.05447   3
  -4  -5   6 -1.1531 1.59591   1
   3   5  -6 84.2796 4.07332   3
  -3  -5   6 83.6622 3.95101   1
   2   5  -6 127.721 4.86033   3
  -2  -5   6 123.738 4.82812   1
   1   5  -6 1048.97 29.4146   3
  -1  -5   6 1025.70 29.4504   1
   0   5  -6 96.6875 3.43967   2
   0   5  -6 103.159 3.88967   3
   0  -5   6 104.729 4.09376   1
  -1   5  -6 57.2146 2.63110   2
  -1   5  -6 57.4857 2.71012   3
   1  -5   6 59.0108 3.09494   1
  -2   5  -6 134.554 4.55718   3
  -2   5  -6 126.308 4.78649   2
   2  -5   6 128.417 5.11695   1
  -3   5  -6 46.5576 3.01138   2
   3  -5   6 42.7229 3.17874   1
  -4   5  -6 197.431 7.25847   2
   4  -5   6 199.818 7.47836   1
  -5   5  -6 43.2238 3.70901   2
   5  -5   6 45.6205 4.21799   1
  -6   5  -6 7.54602 2.53477   2
   6  -5   6 12.8719 3.00999   1
  -7   5  -6 75.6773 5.84933   2
   7  -5   6 74.8906 6.05318   1
  -8   5  -6 8.54996 3.47528   2
   8  -5   6 15.7483 4.18584   1
   9   4  -6 13.8298 4.48927   3
  -9  -4   6 4.74490 4.60951   1
   8   4  -6 21.8892 4.01009   3
  -8  -4   6 28.2134 3.76653   1
   7   4  -6 36.8056 4.69452   3
  -7  -4   6 34.5551 4.51308   1
   6   4  -6 214.190 8.33279   3
  -6  -4   6 218.490 8.07437   1
  -6  -4   6 209.720 6.92742   2
   5   4  -6 389.175 12.4662   3
  -5  -4   6 377.619 12.2996   1
   4   4  -6 468.380 14.1580   3
  -4  -4   6 441.300 13.7668   1
   3   4  -6 103.530 4.32469   3
  -3  -4   6 95.5986 4.03179   1
   2   4  -6 102.690 4.14390   3
  -2  -4   6 101.149 4.06776   1
   1   4  -6 32.6409 2.18807   3
  -1  -4   6 30.4004 2.22451   1
   0   4  -6 13.8402 1.41494   2
   0   4  -6 15.8130 1.76802   3
   0  -4   6 15.2700 1.90783   1
  -1   4  -6 352.353 10.3205   2
  -1   4  -6 343.836 10.1547   3
   1  -4   6 343.148 10.6491   1
  -2   4  -6 13.7467 1.85773   2
   2  -4   6 13.9772 1.83918   1
  -3   4  -6 19.8225 2.43727   2
   3  -4   6 21.9116 2.63897   1
  -4   4  -6 38.5536 3.20614   2
   4  -4   6 38.3946 3.57043   1
  -5   4  -6 13.0840 2.34972   2
   5  -4   6 14.7898 2.67394   1
  -6   4  -6 7.40381 2.36441   2
   6  -4   6 6.43285 2.76638   1
  -7   4  -6 113.412 7.98718   2
   7  -4   6 126.955 7.01169   1
  -8   4  -6 77.1929 6.45210   2
   8  -4   6 79.0922 7.48145   1
   9   3  -6 43.7878 6.94526   3
  -9  -3   6 60.2536 6.34648   1
   8   3  -6 8.86832 3.36747   3
  -8  -3   6 11.1769 3.19705   1
   7   3  -6 30.7334 4.59879   3
  -7  -3   6 36.2882 4.07926   1
  -7  -3   6 36.7241 3.22252   2
   6   3  -6 3.96573 2.11779   3
  -6  -3   6 5.63465 1.56877   2
  -6  -3   6 5.10418 2.76139   1
   5   3  -6 5.95934 1.95580   3
  -5  -3   6 -0.5605 1.13400   2
  -5  -3   6 1.36608 1.63264   1
   4   3  -6 6.82513 1.73122   3
  -4  -3   6 5.12837 0.99250   2
  -4  -3   6 4.60909 1.46850   1
   3   3  -6 61.1893 3.20545   3
  -3  -3   6 57.6418 2.89694   1
   2   3  -6 11.1068 1.51144   3
   2   3  -6 8.59848 1.04681   2
  -2  -3   6 12.1089 1.75360   1
   1   3  -6 341.577 10.1297   3
   1   3  -6 332.748 9.78504   2
  -1  -3   6 340.061 10.1695   1
   0   3  -6 1.99718 0.97224   3
   0   3  -6 3.75070 0.90747   2
   0  -3   6 2.71958 1.22055   1
  -1   3  -6 190.877 6.03186   2
  -1   3  -6 181.733 5.62665   3
   1  -3   6 186.221 6.27499   1
  -2   3  -6 322.661 9.86541   2
   2  -3   6 318.221 10.0743   1
  -3   3  -6 6.82597 1.49763   2
   3  -3   6 8.56724 1.82405   1
  -4   3  -6 710.774 21.2999   2
   4  -3   6 731.229 21.4815   1
  -5   3  -6 7.84684 2.08597   2
   5  -3   6 14.5755 2.75152   1
  -6   3  -6 5.17594 2.20208   2
   6  -3   6 6.60058 2.91990   1
  -7   3  -6 18.8087 5.32823   2
   7  -3   6 33.1973 4.12187   1
  -8   3  -6 24.9101 4.02974   2
   8  -3   6 21.6188 4.51265   1
  10   2  -6 -0.4867 3.80691   3
   9   2  -6 77.2721 7.04031   3
   8   2  -6 34.9899 5.03160   3
  -8  -2   6 33.2256 3.72638   1
  -8  -2   6 32.0205 4.08772   2
   7   2  -6 6.64351 2.66639   3
  -7  -2   6 -0.8594 1.88396   2
  -7  -2   6 2.24230 2.21369   1
   6   2  -6 108.363 5.28875   3
  -6  -2   6 102.591 4.72350   1
  -6  -2   6 102.916 4.28295   2
  -5  -2   6 84.7645 3.83050   1
  -5  -2   6 84.4096 3.53657   2
   4   2  -6 5.55295 1.61145   3
  -4  -2   6 5.98411 1.07562   2
  -4  -2   6 4.90061 1.29009   1
   3   2  -6 39.1253 2.55990   3
  -3  -2   6 38.4999 1.93518   2
  -3  -2   6 37.2770 2.23041   1
   2   2  -6 131.250 4.28520   2
   2   2  -6 133.225 4.74111   3
  -2  -2   6 132.770 4.51733   1
   1   2  -6 753.639 20.9608   2
   1   2  -6 732.799 21.0713   3
  -1  -2   6 746.807 21.1306   1
   0   2  -6 1123.07 31.7560   2
   0   2  -6 1166.49 31.7212   3
   0  -2   6 1122.37 31.9278   1
  -1   2  -6 376.523 11.1867   2
   1  -2   6 376.238 11.3753   1
  -2   2  -6 65.8527 3.07032   2
   2  -2   6 64.7289 3.30677   1
  -3   2  -6 12.3260 1.66249   2
   3  -2   6 12.7309 1.99956   1
  -4   2  -6 15.3296 2.08168   2
   4  -2   6 13.2110 2.37581   1
  -5   2  -6 379.656 12.3825   2
   5  -2   6 376.928 12.6082   1
  -6   2  -6 6.34338 2.29393   2
   6  -2   6 6.98459 2.88423   1
  -7   2  -6 13.4907 4.68455   2
   7  -2   6 13.5823 3.75236   1
  -8   2  -6 -3.3596 3.25618   2
   8  -2   6 5.34948 4.41091   1
  10   1  -6 17.5392 4.27096   3
   9   1  -6 30.3134 4.43680   3
  -9  -1   6 24.6574 3.34024   2
   8   1  -6 -1.5735 2.90818   3
  -8  -1   6 5.04485 2.40237   2
  -8  -1   6 5.55830 3.27926   1
   7   1  -6 -0.3126 2.32374   3
  -7  -1   6 1.08783 2.04975   1
  -7  -1   6 -0.1363 1.89009   2
   6   1  -6 159.911 6.54774   3
  -6  -1   6 151.839 5.77529   1
  -6  -1   6 151.877 5.69699   2
   5   1  -6 16.0570 2.21725   3
  -5  -1   6 19.3446 2.23469   2
  -5  -1   6 17.3236 2.15392   1
   4   1  -6 35.4851 2.69477   3
  -4  -1   6 36.5569 2.15737   1
  -4  -1   6 39.1021 2.25013   2
   3   1  -6 235.389 7.65394   3
  -3  -1   6 240.393 7.21677   2
  -3  -1   6 232.024 7.16635   1
   2   1  -6 981.930 27.2972   2
   2   1  -6 957.902 27.5095   3
  -2  -1   6 982.470 27.2642   1
   1   1  -6 257.557 7.71626   2
   1   1  -6 250.197 7.70510   3
  -1  -1   6 254.797 7.75212   1
   0   1  -6 556.583 16.0955   2
   0   1  -6 566.391 15.8761   3
   0  -1   6 556.022 16.1686   1
  -1   1  -6 52.9351 2.58096   2
   1  -1   6 51.2989 2.84905   1
  -2   1  -6 149.195 5.32939   2
   2  -1   6 151.190 5.54362   1
  -3   1  -6 22.7711 2.63484   2
   3  -1   6 22.6953 2.97347   1
  -4   1  -6 117.970 5.08477   2
   4  -1   6 112.553 5.38931   1
  -5   1  -6 220.993 8.23043   2
   5  -1   6 227.065 8.66502   1
  -6   1  -6 152.947 6.89339   2
   6  -1   6 156.175 7.52098   1
  -7   1  -6 9.53144 2.94753   2
   7  -1   6 5.60521 5.03807   1
  -8   1  -6 -0.4789 3.24916   2
   8  -1   6 -0.5743 4.24342   1
  10   0  -6 1.06527 3.76996   3
 -10   0   6 -1.2434 3.06508   2
   9   0  -6 207.501 9.54880   3
  -9   0   6 191.938 8.21694   2
   8   0  -6 26.0308 3.65803   3
  -8   0   6 37.7486 3.95830   2
   7   0  -6 0.78661 2.28940   3
  -7   0   6 2.36806 1.99619   2
   6   0  -6 87.1066 4.80729   3
   5   0  -6 57.3411 4.04336   3
  -5   0   6 66.0586 3.19355   2
   4   0  -6 61.8920 3.36232   3
  -4   0   6 64.5554 3.01501   2
   3   0  -6 117.260 4.51651   3
  -3   0   6 123.237 4.18847   2
  -3   0   6 110.672 3.79663   1
   2   0  -6 250.468 7.48366   2
   2   0  -6 244.397 7.61983   3
  -2   0   6 229.015 7.20976   1
   1   0  -6 953.031 26.7509   2
   1   0  -6 938.882 26.6533   3
  -1   0   6 958.714 26.6331   1
   0   0  -6 248.669 8.34332   3
   0   0  -6 285.530 8.43719   2
   0   0   6 285.837 8.42130   1
  -1   0  -6 33.4246 2.15747   2
   1   0   6 36.9435 2.53583   1
  -2   0  -6 194.260 6.64883   2
   2   0   6 200.410 6.89477   1
  -3   0  -6 410.773 12.5551   2
   3   0   6 396.267 12.6960   1
  -4   0  -6 5.20200 1.75690   2
   4   0   6 6.92046 2.06586   1
  -5   0  -6 50.6933 3.97057   2
   5   0   6 59.2030 4.52338   1
  -6   0  -6 55.9331 4.63660   2
   6   0   6 55.5851 5.40773   1
  -7   0  -6 4.67911 2.96916   2
   7   0   6 6.77015 3.85970   1
   8   0   6 1.27351 4.69932   1
  10  -1  -6 4.09149 3.79084   3
 -10   1   6 20.9824 3.71579   2
   9  -1  -6 4.96593 3.65785   3
  -9   1   6 8.61193 2.91032   2
   8  -1  -6 138.824 7.09082   3
  -8   1   6 138.836 6.50493   2
   7  -1  -6 109.380 5.94150   3
  -7   1   6 109.742 5.36851   2
   6  -1  -6 124.591 5.83871   3
  -6   1   6 131.295 5.36215   2
   5  -1  -6 22.4437 2.89957   3
  -5   1   6 17.9147 2.37516   2
   4  -1  -6 70.9709 3.60636   3
  -4   1   6 73.7639 3.34741   2
   3  -1  -6 5.27944 1.36629   3
  -3   1   6 6.32676 1.21514   2
   2  -1  -6 233.323 7.27954   3
   2  -1  -6 230.408 7.17482   2
  -2   1   6 215.350 7.03448   1
   1  -1  -6 494.043 14.4899   3
   1  -1  -6 508.348 14.6468   2
  -1   1   6 502.511 14.3787   1
   0  -1  -6 256.250 8.06605   2
   0  -1  -6 252.980 7.66664   3
   0   1   6 262.312 8.03060   1
  -1  -1  -6 0.09161 1.00144   2
   1   1   6 1.00173 1.23797   1
  -2  -1  -6 3.31152 1.28656   2
   2   1   6 5.55327 1.68916   1
  -3  -1  -6 50.8468 3.31450   2
   3   1   6 56.3055 3.79565   1
  -4  -1  -6 64.5274 3.91219   2
   4   1   6 55.4754 4.29802   1
  -5  -1  -6 77.8801 4.69462   2
   5   1   6 81.0717 5.40262   1
  -6  -1  -6 85.9978 5.39304   2
   6   1   6 66.5674 5.85560   1
  -7  -1  -6 2.32785 3.26266   2
   7   1   6 -2.9705 3.71673   1
  10  -2  -6 3.40192 3.97613   3
 -10   2   6 2.31101 3.64958   2
   9  -2  -6 150.723 8.25172   3
  -9   2   6 161.091 7.47767   2
   8  -2  -6 78.9606 5.66785   3
  -8   2   6 63.4082 5.00376   2
   7  -2  -6 10.0987 2.77944   3
  -7   2   6 12.6376 2.60362   2
   6  -2  -6 67.3122 4.45545   3
  -6   2   6 72.5612 4.22619   2
   5  -2  -6 194.486 7.05833   3
  -5   2   6 174.425 7.06985   2
   4  -2  -6 365.721 11.5192   3
  -4   2   6 362.829 11.2072   2
   3  -2  -6 12.3019 1.72752   3
  -3   2   6 13.9342 1.91856   2
   2  -2  -6 0.58951 1.22687   3
   2  -2  -6 1.48059 1.09731   2
   1  -2  -6 50.6800 2.70227   2
   1  -2  -6 48.8534 2.54676   3
  -1   2   6 57.0847 2.50862   1
   0  -2  -6 363.388 11.2770   2
   0  -2  -6 376.723 10.9782   3
   0   2   6 376.766 11.2194   1
  -1  -2  -6 351.372 10.4580   3
  -1  -2  -6 365.711 11.0939   2
   1   2   6 360.593 11.1324   1
  -2  -2  -6 110.338 4.71449   2
   2   2   6 111.498 4.64093   4
   2   2   6 114.231 4.85752   1
  -3  -2  -6 31.4671 2.87173   2
   3   2   6 35.2361 3.51011   1
   3   2   6 30.7453 3.12039   4
  -4  -2  -6 12.4000 2.29854   2
   4   2   6 11.9582 2.47369   1
   4   2   6 13.4720 2.49900   4
  -5  -2  -6 3.59902 2.35747   2
   5   2   6 5.71420 2.74414   1
  -6  -2  -6 5.39637 2.91580   2
  -7  -2  -6 -0.4796 3.51046   2
   7   2   6 7.48398 4.08746   1
  10  -3  -6 -3.0220 3.76333   3
 -10   3   6 3.44271 3.58564   2
   9  -3  -6 5.35195 5.24506   3
  -9   3   6 1.98816 3.26672   2
   8  -3  -6 154.709 7.77588   3
  -8   3   6 169.074 7.58623   2
   7  -3  -6 61.2977 4.87766   3
  -7   3   6 52.2727 4.56746   2
   6  -3  -6 50.5377 4.09551   3
  -6   3   6 49.5900 4.04895   2
   5  -3  -6 13.6907 2.28608   3
  -5   3   6 16.0690 2.15305   2
   4  -3  -6 21.8951 3.51335   3
  -4   3   6 20.1412 2.50059   2
   3  -3  -6 777.915 22.3427   3
  -3   3   6 751.789 22.0658   2
   2  -3  -6 352.656 10.7920   3
   2  -3  -6 344.019 10.7184   2
   1  -3  -6 222.970 7.14419   3
   1  -3  -6 217.966 7.24417   2
  -1   3   6 217.896 6.89871   1
   0  -3  -6 49.6165 2.86802   2
   0  -3  -6 53.1308 2.73026   3
   0   3   6 54.8519 2.77900   4
   0   3   6 50.5742 2.91138   1
  -1  -3  -6 303.604 9.10452   3
  -1  -3  -6 296.490 9.57712   2
   1   3   6 300.939 9.53353   4
   1   3   6 297.538 9.67104   1
  -2  -3  -6 41.6112 3.14144   2
   2   3   6 40.3699 2.70662   3
   2   3   6 44.9074 3.33145   4
   2   3   6 49.0144 3.65146   1
  -3  -3  -6 -1.3029 1.71870   2
   3   3   6 1.08835 2.09791   1
   3   3   6 0.08514 1.95448   4
  -4  -3  -6 -1.6712 1.87204   2
   4   3   6 2.83800 2.40262   4
   4   3   6 2.11647 2.42653   1
  -5  -3  -6 3.14307 2.41866   2
   5   3   6 -0.5207 2.78844   1
   5   3   6 1.96051 2.91710   4
  -6  -3  -6 72.1532 5.71344   2
   6   3   6 61.7050 6.46872   1
  -7  -3  -6 32.5939 4.35707   2
   7   3   6 22.3808 5.06334   1
   9  -4  -6 -1.0492 3.86598   3
  -9   4   6 3.40224 3.63843   2
   8  -4  -6 2.62495 3.06230   3
  -8   4   6 6.70555 3.38430   2
   7  -4  -6 1.52313 2.66659   3
  -7   4   6 -2.8616 2.56606   2
   6  -4  -6 16.7256 2.76606   3
  -6   4   6 16.4920 2.62588   2
   5  -4  -6 171.900 6.92097   3
  -5   4   6 165.440 6.48287   2
   4  -4  -6 153.663 6.14762   3
  -4   4   6 146.952 5.78608   2
   3  -4  -6 125.304 5.20950   3
   2  -4  -6 423.415 12.9642   3
   1  -4  -6 12.5631 1.70207   2
   1  -4  -6 16.1068 2.29303   3
  -1   4   6 11.3512 1.60563   1
   0  -4  -6 162.648 6.03847   2
   0  -4  -6 162.900 5.81525   3
   0   4   6 164.001 5.92311   1
   0   4   6 165.873 5.80136   4
  -1  -4  -6 199.845 7.05488   2
  -1  -4  -6 191.943 6.62455   3
   1   4   6 194.982 6.98680   4
   1   4   6 207.027 7.26786   1
  -2  -4  -6 16.1043 2.14318   2
   2   4   6 18.4127 2.25405   3
   2   4   6 18.9544 2.55819   4
   2   4   6 20.6326 2.76577   1
  -3  -4  -6 14.0942 2.34333   2
   3   4   6 13.2489 2.80037   4
   3   4   6 18.8051 3.04934   1
  -4  -4  -6 -2.4077 2.15481   2
   4   4   6 5.40823 2.77439   1
   4   4   6 -1.4309 2.65441   4
  -5  -4  -6 -1.2321 2.73163   2
   5   4   6 4.17634 3.26178   1
   5   4   6 1.47138 3.12552   4
  -6  -4  -6 33.4662 4.09602   2
   6   4   6 26.0183 4.66295   4
   6   4   6 25.1305 4.56306   1
   9  -5  -6 33.0869 5.07363   3
  -9   5   6 32.3909 4.69169   2
   8  -5  -6 44.1511 6.01887   3
  -8   5   6 52.2604 7.04628   2
   7  -5  -6 81.4899 5.90957   3
  -7   5   6 97.0264 5.79621   2
   6  -5  -6 10.0432 2.72941   3
  -6   5   6 14.7228 2.84609   2
  -5   5   6 15.7985 2.34540   2
   4  -5  -6 2.12633 2.12169   3
  -4   5   6 0.96135 1.76513   2
   3  -5  -6 482.761 14.9182   3
  -3   5   6 475.088 14.6504   2
  -2   5   6 111.981 4.93408   2
   1  -5  -6 213.966 7.49073   3
   1  -5  -6 228.300 7.56307   2
  -1   5   6 208.735 7.07241   1
  -1   5   6 205.468 6.95982   4
   0  -5  -6 14.5298 2.07792   2
   0  -5  -6 13.3178 1.92569   3
   0   5   6 13.6474 2.15224   4
   0   5   6 11.6038 2.21352   1
  -1  -5  -6 390.158 12.2751   3
  -1  -5  -6 387.909 12.5629   2
   1   5   6 415.725 12.5797   4
   1   5   6 402.456 12.7384   1
  -2  -5  -6 324.938 10.9407   2
   2   5   6 313.975 10.6480   3
   2   5   6 344.934 11.1251   4
   2   5   6 347.961 11.4124   1
  -3  -5  -6 -3.3218 2.02333   2
   3   5   6 3.28609 2.64110   4
   3   5   6 3.35126 2.82912   1
  -4  -5  -6 31.7504 4.14386   2
   4   5   6 19.7200 3.79058   1
   4   5   6 20.0685 3.64512   4
  -5  -5  -6 3.76350 3.01045   2
   5   5   6 7.47503 3.78546   1
   5   5   6 7.48893 3.89282   4
  -6  -5  -6 -1.4613 3.82274   2
   6   5   6 4.62543 4.28790   4
   6   5   6 0.89504 4.04186   1
   9  -6  -6 50.4387 7.53317   3
  -9   6   6 71.7810 7.17102   2
   8  -6  -6 4.34507 3.64798   3
  -8   6   6 1.68726 3.79056   2
   7  -6  -6 3.33255 3.18781   3
  -7   6   6 4.92203 3.20517   2
   6  -6  -6 82.5828 5.77549   3
  -6   6   6 88.1015 5.66676   2
   5  -6  -6 100.788 5.61160   3
  -5   6   6 113.366 5.54112   2
   4  -6  -6 3.13730 2.40876   3
  -4   6   6 8.47287 2.28547   2
   3  -6  -6 27.1157 3.46541   3
  -3   6   6 22.7975 3.23583   2
   2  -6  -6 145.377 6.18702   3
  -2   6   6 150.009 6.03843   2
   1  -6  -6 2.15408 1.93749   2
   1  -6  -6 4.21991 2.14902   3
  -1   6   6 6.47203 2.13812   1
  -1   6   6 10.0555 2.11070   4
   0  -6  -6 230.058 8.25657   2
   0  -6  -6 227.604 8.28670   3
   0   6   6 230.889 7.96631   4
   0   6   6 232.278 8.20293   1
  -1  -6  -6 4.66402 2.09521   2
   1   6   6 1.08377 2.61859   1
   1   6   6 1.85270 2.61567   4
  -2  -6  -6 122.156 5.65343   2
   2   6   6 127.865 6.28020   4
   2   6   6 104.951 5.77850   3
   2   6   6 115.095 6.37898   1
  -3  -6  -6 112.265 5.87427   2
   3   6   6 128.102 7.03643   1
   3   6   6 131.380 6.80358   4
  -4  -6  -6 5.99699 2.84831   2
   4   6   6 9.72359 4.39268   1
   4   6   6 3.56672 4.08235   4
   5   6   6 31.6857 5.08104   1
   5   6   6 36.0996 5.10598   4
   8  -7  -6 31.7104 5.16413   3
  -8   7   6 38.3221 5.03625   2
  -7   7   6 84.5459 11.0857   2
   6  -7  -6 80.3346 6.41573   3
  -6   7   6 82.7355 6.01026   2
   5  -7  -6 14.1608 3.19296   3
  -5   7   6 11.6489 3.12864   2
   4  -7  -6 7.77040 2.77820   3
  -4   7   6 4.59841 2.69346   2
   3  -7  -6 24.2005 3.25375   3
  -3   7   6 26.7904 3.77869   2
   2  -7  -6 6.30131 2.49212   3
  -2   7   6 6.45141 2.25770   2
   1  -7  -6 19.2048 2.83333   3
  -1   7   6 17.9775 2.69670   4
  -1   7   6 25.3972 3.01716   2
  -1   7   6 19.9613 2.75186   1
   0  -7  -6 0.38753 2.39480   3
   0  -7  -6 4.14070 2.24791   2
   0   7   6 1.53386 2.72102   1
  -1  -7  -6 84.9977 5.00799   2
  -1  -7  -6 72.6085 5.14606   3
   1   7   6 72.4235 5.43558   4
   1   7   6 84.1864 5.59863   1
  -2  -7  -6 69.1571 5.00080   2
   2   7   6 65.6777 6.02134   1
   2   7   6 72.9802 6.08814   4
  -3  -7  -6 -5.2333 2.85467   2
   3   7   6 6.49974 3.83408   4
   3   7   6 1.85509 3.64329   1
  -4  -7  -6 19.9916 3.71352   2
   4   7   6 25.8729 4.73681   1
   4   7   6 26.8145 4.93373   4
   5   7   6 9.46329 4.87027   4
   5   7   6 -1.6734 4.68011   1
   8  -8  -6 27.4232 5.23440   3
  -8   8   6 24.4336 5.14835   2
   7  -8  -6 3.25405 4.06308   3
  -7   8   6 5.51255 4.01881   2
   6  -8  -6 1.22697 4.49703   3
  -6   8   6 0.31719 3.63359   2
   5  -8  -6 6.70759 3.33471   3
  -5   8   6 8.39114 3.30080   2
   4  -8  -6 22.7433 3.53630   3
  -4   8   6 27.3378 3.64409   2
   3  -8  -6 5.24816 2.94743   3
  -3   8   6 6.68209 2.91524   2
   2  -8  -6 41.0449 4.77632   3
  -2   8   6 45.5325 4.66192   2
   1  -8  -6 4.49807 2.75685   3
  -1   8   6 6.33046 2.68648   2
   0  -8  -6 1.00739 2.77598   3
   0   8   6 3.20735 3.34979   1
   0   8   6 -2.0612 3.32732   4
  -1  -8  -6 16.5011 3.04559   2
  -1  -8  -6 10.0561 3.28014   3
   1   8   6 20.1587 3.89344   1
   1   8   6 6.05912 3.83990   4
  -2  -8  -6 44.8802 5.23166   2
   2   8   6 47.9057 5.19734   4
   2   8   6 46.1745 6.50415   1
  -3  -8  -6 63.5796 6.17032   2
   3   8   6 58.4683 7.32032   4
   3   8   6 66.2231 7.25572   1
   4   8   6 3.12658 4.96681   4
   4   8   6 3.07372 4.82105   1
   7  -9  -6 35.7329 5.55441   3
  -7   9   6 40.5560 5.49118   2
   6  -9  -6 15.0792 4.24075   3
  -6   9   6 18.4585 4.65678   2
   5  -9  -6 5.36034 4.73484   3
  -5   9   6 16.4416 4.16034   2
   4  -9  -6 -0.7415 3.43026   3
  -4   9   6 2.38653 3.48443   2
   3  -9  -6 24.2211 3.97125   3
  -3   9   6 24.5903 3.84346   2
   2  -9  -6 129.938 7.07824   3
  -2   9   6 132.195 7.14302   2
   1  -9  -6 145.394 7.64132   3
  -1   9   6 156.640 7.44136   2
   0  -9  -6 -2.9697 3.15986   3
   0   9   6 2.55852 3.28688   2
   0   9   6 6.73956 5.38612   4
   1   9   6 0.33404 4.31290   4
   1   9   6 6.78306 4.05580   3
   1   9   6 9.32185 4.25903   1
  -2  -9  -6 11.9247 3.98091   2
   2   9   6 1.60048 6.05987   1
   2   9   6 -13.282 7.18734   4
   3   9   6 3.47328 4.56459   4
   3   9   6 0.14867 4.41799   1
   6 -10  -6 26.3683 5.26732   3
  -6  10   6 38.3572 5.61667   2
   5 -10  -6 44.4491 6.65421   3
  -5  10   6 52.0939 5.54762   2
   4 -10  -6 26.8195 4.71009   3
  -4  10   6 29.9902 5.60574   2
   3 -10  -6 22.1845 4.46159   3
  -3  10   6 22.3663 4.46908   2
   2 -10  -6 -0.5864 4.80664   3
  -2  10   6 3.15345 3.85503   2
   1 -10  -6 64.4915 6.38976   3
  -1  10   6 75.8418 6.87924   2
   0 -10  -6 79.1075 6.78746   3
   0  10   6 97.2487 7.09825   2
   1  10   6 -4.5051 6.64293   3
   2  10   6 -1.3645 4.47269   1
   2  10   6 0.70146 4.59340   4
   5 -11  -6 5.95807 4.80826   3
  -5  11   6 -0.2949 4.84933   2
   4 -11  -6 7.35805 4.80385   3
  -4  11   6 9.09956 4.69153   2
   3 -11  -6 52.9489 7.45330   3
  -3  11   6 28.3942 4.98293   2
   2 -11  -6 127.163 8.35961   3
   1 -11  -6 11.9916 4.58201   3
  -1  11   6 11.2147 4.59694   2
   0 -11  -6 51.3906 7.75960   3
   2  14  -7 61.2194 8.51147   3
  -2 -14   7 64.5438 8.51450   1
   1  14  -7 11.3216 4.90290   3
  -1 -14   7 15.8276 5.06999   1
   0  14  -7 19.7452 5.01304   3
   0 -14   7 29.7678 5.26922   1
  -1  14  -7 163.024 9.54741   3
   1 -14   7 174.274 9.51585   1
  -2  14  -7 -1.9618 4.65736   3
   2 -14   7 7.08477 4.86861   1
  -3  14  -7 -0.5263 5.23354   3
   4  13  -7 12.8143 5.52632   3
  -4 -13   7 9.75781 5.34788   1
   3  13  -7 1.09084 5.09126   3
  -3 -13   7 -1.2915 4.77232   1
   2  13  -7 13.3127 4.42289   3
  -2 -13   7 13.3745 4.55974   1
   1  13  -7 48.6680 6.31753   3
   0  13  -7 72.0853 6.93991   3
   0 -13   7 80.4168 6.99272   1
   1 -13   7 5.70265 3.97418   1
   2 -13   7 88.9932 7.26238   1
  -3  13  -7 3.69515 4.73408   3
   3 -13   7 -0.4312 4.32098   1
  -4  13  -7 24.6568 5.37888   3
   5  12  -7 12.4811 5.35526   3
  -5 -12   7 15.5456 5.32713   1
   4  12  -7 26.5635 5.26116   3
  -4 -12   7 38.5723 5.13414   1
   3  12  -7 101.464 7.42259   3
  -3 -12   7 68.8665 7.87533   1
   2  12  -7 0.50052 3.51413   3
  -2 -12   7 6.83660 3.83805   1
   1  12  -7 107.545 6.72775   3
  -1 -12   7 108.073 6.93747   1
   0  12  -7 -0.1049 3.19496   3
   0 -12   7 5.88047 3.51826   1
  -1  12  -7 17.2490 3.63808   3
   1 -12   7 13.0760 3.63010   1
  -2  12  -7 0.84838 3.55601   3
   2 -12   7 5.58886 3.50467   1
   3 -12   7 0.27140 3.72748   1
  -4  12  -7 4.62857 4.28233   3
   4 -12   7 7.00567 4.26453   1
  -5  12  -7 22.5456 4.36149   2
   6  11  -7 40.8370 6.41063   3
  -6 -11   7 44.3134 6.08107   1
   5  11  -7 1.36610 4.37405   3
  -5 -11   7 0.62277 4.13978   1
   4  11  -7 139.097 10.6193   3
  -4 -11   7 139.573 12.1664   1
   3  11  -7 70.6477 6.42161   3
  -3 -11   7 71.6211 6.06531   1
   2  11  -7 5.15392 3.18088   3
  -2 -11   7 4.41440 3.14039   1
   1  11  -7 28.5740 3.65326   3
  -1 -11   7 33.0816 3.84136   1
   0  11  -7 6.43445 2.87334   3
   0 -11   7 3.09801 2.97040   1
  -1  11  -7 11.7550 3.04495   3
   1 -11   7 7.84751 3.03571   1
  -2  11  -7 155.279 7.49045   3
   2 -11   7 161.741 7.75142   1
  -3  11  -7 43.8518 5.26177   3
  -3  11  -7 46.9422 4.92768   2
   3 -11   7 41.7039 5.41164   1
  -4  11  -7 51.7599 5.43731   2
  -4  11  -7 45.8632 6.04276   3
   4 -11   7 41.9077 5.83508   1
  -5  11  -7 4.73683 3.52176   2
   5 -11   7 12.9806 4.16876   1
  -6  11  -7 0.10968 3.38845   2
   7  10  -7 7.30869 5.16917   3
  -7 -10   7 11.1178 5.13401   1
   6  10  -7 -0.2908 4.51274   3
  -6 -10   7 -1.4821 4.38163   1
   5  10  -7 141.454 8.14535   3
  -5 -10   7 137.102 9.49445   1
   4  10  -7 -0.1008 3.19236   3
  -4 -10   7 0.84349 3.38213   1
   3  10  -7 12.0966 3.13338   3
  -3 -10   7 14.6576 3.33427   1
   2  10  -7 51.6989 4.59199   3
  -2 -10   7 39.9555 4.60507   1
   1  10  -7 28.2030 3.89479   3
  -1 -10   7 32.4123 4.22894   1
   0  10  -7 26.1077 3.91365   3
   0 -10   7 32.9692 4.15903   1
  -1  10  -7 109.022 5.73966   3
   1 -10   7 105.996 5.98372   1
  -2  10  -7 1.79933 2.73163   3
  -2  10  -7 1.42466 2.06718   2
   2 -10   7 3.01190 2.82308   1
  -3  10  -7 237.808 9.14460   3
  -3  10  -7 231.830 8.68348   2
   3 -10   7 230.911 9.03907   1
  -4  10  -7 82.4738 5.68060   2
  -4  10  -7 85.4480 6.04873   3
   4 -10   7 90.1683 5.82134   1
  -5  10  -7 26.5846 3.81803   2
   5 -10   7 25.7832 3.98388   1
  -6  10  -7 -0.3066 3.53899   2
   6 -10   7 3.07310 4.18351   1
   7   9  -7 3.71446 4.75160   3
  -7  -9   7 -3.1633 4.26133   1
   6   9  -7 6.31811 4.36876   3
   5   9  -7 22.8577 3.94938   3
  -5  -9   7 25.6224 3.81609   1
   4   9  -7 119.393 6.40579   3
  -4  -9   7 110.945 6.43549   1
   3   9  -7 29.4761 4.12230   3
  -3  -9   7 28.6354 4.16728   1
   2   9  -7 16.1117 2.75324   3
  -2  -9   7 13.7066 2.73196   1
   1   9  -7 13.6566 2.56475   3
  -1  -9   7 7.56743 2.33840   1
   0   9  -7 190.377 7.37649   3
   0  -9   7 180.567 7.30740   1
  -1   9  -7 226.334 8.15300   3
  -1   9  -7 216.687 7.30089   2
   1  -9   7 221.923 8.31056   1
  -2   9  -7 71.5825 4.13646   2
  -2   9  -7 81.8085 4.84688   3
   2  -9   7 75.1830 4.84418   1
  -3   9  -7 3.23386 2.21758   2
  -3   9  -7 7.41223 2.81588   3
   3  -9   7 -0.3697 2.58863   1
  -4   9  -7 3.06480 3.01464   3
  -4   9  -7 0.08548 2.53590   2
   4  -9   7 1.57920 2.69516   1
  -5   9  -7 -1.2369 2.78841   2
   5  -9   7 3.53962 2.99198   1
  -6   9  -7 -0.4223 3.20787   2
   6  -9   7 -3.7487 3.42492   1
  -7   9  -7 28.5564 4.38185   2
   8   8  -7 34.1102 5.65798   3
  -8  -8   7 56.8374 7.37234   1
   7   8  -7 4.26131 4.48864   3
  -7  -8   7 0.33682 3.85807   1
   6   8  -7 167.166 8.45849   3
  -6  -8   7 157.786 8.11812   1
   5   8  -7 -1.6888 2.88746   3
  -5  -8   7 1.94376 2.92195   1
   4   8  -7 21.5313 3.03894   3
  -4  -8   7 23.3265 3.27681   1
   3   8  -7 5.75936 2.28368   3
  -3  -8   7 6.33929 2.37093   1
   2   8  -7 8.13963 2.17746   3
  -2  -8   7 7.50911 2.24901   1
   1   8  -7 173.962 6.73953   3
  -1  -8   7 169.131 6.69804   1
   0  -8   7 120.739 5.43437   1
  -1   8  -7 18.4800 2.29765   3
  -1   8  -7 14.1300 1.78951   2
   1  -8   7 16.1526 2.42569   1
  -2   8  -7 36.9398 2.99797   2
  -2   8  -7 32.3321 3.45511   3
   2  -8   7 41.9257 3.74235   1
  -3   8  -7 303.414 10.1123   2
  -3   8  -7 303.562 10.0557   3
   3  -8   7 300.136 10.4442   1
  -4   8  -7 87.4817 4.88002   3
  -4   8  -7 86.3266 5.05198   2
   4  -8   7 87.1695 5.23992   1
  -5   8  -7 -4.9549 2.43939   2
   5  -8   7 -1.0058 2.76550   1
  -6   8  -7 21.0042 4.00484   2
   6  -8   7 10.9001 3.50874   1
  -7   8  -7 33.8681 4.48383   2
   7  -8   7 45.5877 5.76711   1
   8   7  -7 75.0882 8.08257   3
  -8  -7   7 60.6359 6.98348   1
   7   7  -7 38.6568 4.76911   3
  -7  -7   7 45.4389 4.89411   1
   6   7  -7 0.09202 3.07106   3
  -6  -7   7 7.15742 3.20671   1
   5   7  -7 57.1995 4.86511   3
  -5  -7   7 57.6745 4.78960   1
   4   7  -7 111.323 5.60131   3
  -4  -7   7 113.595 5.56611   1
   3   7  -7 8.06097 2.17935   3
  -3  -7   7 3.87474 2.00779   1
   2   7  -7 157.029 6.30820   3
  -2  -7   7 161.547 6.30976   1
   1   7  -7 208.656 7.37185   3
   0   7  -7 1073.44 30.5601   2
   0   7  -7 1136.33 31.3297   3
   0  -7   7 1083.67 32.5856   1
  -1   7  -7 307.509 9.69895   3
  -1   7  -7 296.891 9.22733   2
   1  -7   7 301.921 11.0099   1
  -2   7  -7 256.644 8.35846   3
  -2   7  -7 247.042 8.29803   2
   2  -7   7 257.008 8.83977   1
  -3   7  -7 285.821 9.31142   3
  -3   7  -7 290.082 9.56372   2
   3  -7   7 288.976 9.90835   1
  -4   7  -7 99.3902 5.05484   2
   4  -7   7 87.3418 5.26452   1
  -5   7  -7 -0.3048 2.20920   2
   5  -7   7 -4.4111 2.57725   1
  -6   7  -7 6.03568 2.90720   2
   6  -7   7 5.68037 3.16264   1
  -7   7  -7 15.3324 3.84558   2
   9   6  -7 4.18819 4.19240   3
  -9  -6   7 1.78314 3.71747   1
   8   6  -7 3.37698 5.16467   3
  -8  -6   7 8.89901 4.48854   1
   7   6  -7 5.45468 3.47268   3
  -7  -6   7 4.65796 3.28146   1
   6   6  -7 57.6205 5.34849   3
  -6  -6   7 60.8702 5.01752   1
   5   6  -7 33.7812 4.25146   3
  -5  -6   7 36.6095 3.96407   1
   4   6  -7 407.337 13.1755   3
  -4  -6   7 405.959 12.9823   1
   3   6  -7 648.865 19.6197   3
   2   6  -7 17.6812 2.58419   3
  -2  -6   7 20.7714 2.59428   1
   1   6  -7 154.933 5.69334   3
  -1  -6   7 148.059 5.70689   1
   0   6  -7 465.412 13.5092   2
   0   6  -7 475.811 14.0977   3
   0  -6   7 469.258 14.2407   1
  -1   6  -7 152.700 5.47137   3
  -1   6  -7 149.729 5.27319   2
   1  -6   7 161.676 5.90526   1
  -2   6  -7 76.7391 3.43432   3
  -2   6  -7 77.0289 3.72348   2
  -3   6  -7 151.621 5.71503   2
  -3   6  -7 128.768 5.01829   3
   3  -6   7 139.853 5.99456   1
  -4   6  -7 73.0371 4.44159   2
   4  -6   7 81.4085 4.76435   1
  -5   6  -7 42.9540 4.29537   2
   5  -6   7 53.3701 4.63139   1
  -6   6  -7 6.56235 2.77416   2
   6  -6   7 3.87569 3.11659   1
  -7   6  -7 106.931 6.65884   2
   7  -6   7 79.5690 9.55052   1
   9   5  -7 13.3635 4.56029   3
  -9  -5   7 8.88845 3.97594   1
   8   5  -7 41.7510 6.30843   3
  -8  -5   7 57.7800 5.98900   1
   7   5  -7 314.053 11.7063   3
  -7  -5   7 312.376 11.3395   1
   6   5  -7 109.942 6.01432   3
  -6  -5   7 114.273 5.81670   1
   5   5  -7 264.303 9.57148   3
  -5  -5   7 266.404 9.25912   1
   4   5  -7 21.9144 3.01105   3
  -4  -5   7 21.4333 2.78931   1
   3   5  -7 113.181 4.95482   3
  -3  -5   7 118.488 4.85544   1
   2   5  -7 5.21901 1.51708   3
  -2  -5   7 4.74787 1.56507   1
   1   5  -7 25.1163 1.67791   2
   1   5  -7 24.1043 2.28485   3
  -1  -5   7 23.6324 2.37952   1
   0   5  -7 30.3214 1.91835   2
   0   5  -7 29.8734 2.28575   3
   0  -5   7 32.0434 2.57201   1
  -1   5  -7 121.192 4.37996   2
  -1   5  -7 120.445 4.37425   3
   1  -5   7 119.212 4.81758   1
  -2   5  -7 211.134 7.08790   2
   2  -5   7 212.282 7.41982   1
  -3   5  -7 7.40095 1.77346   2
   3  -5   7 9.60029 2.05401   1
  -4   5  -7 58.5861 3.92057   2
   4  -5   7 54.8686 4.24635   1
  -5   5  -7 188.946 7.58279   2
   5  -5   7 183.762 7.74816   1
  -6   5  -7 2.96210 2.52940   2
   6  -5   7 0.80872 3.08258   1
  -7   5  -7 9.92048 3.11186   2
   8  -5   7 18.3776 4.73992   1
   9   4  -7 4.38998 4.27620   3
  -9  -4   7 0.48525 3.99208   1
   8   4  -7 3.75224 3.54834   3
  -8  -4   7 1.78617 3.25824   1
   7   4  -7 1.32219 2.90918   3
  -7  -4   7 -0.4593 2.52293   1
   6   4  -7 15.1471 2.91381   3
  -6  -4   7 11.0595 1.64335   2
   5   4  -7 37.5554 3.52070   3
  -5  -4   7 31.7929 3.40148   1
  -5  -4   7 26.2629 2.16239   2
   4   4  -7 181.723 7.56422   3
  -4  -4   7 193.931 6.67767   1
   3   4  -7 443.564 13.4510   3
  -3  -4   7 432.429 13.1965   1
   2   4  -7 1180.48 34.1744   2
   2   4  -7 1248.23 34.9204   3
  -2  -4   7 1275.86 34.8436   1
   1   4  -7 1330.22 37.2659   3
   1   4  -7 1340.39 36.8703   2
  -1  -4   7 1314.89 37.3460   1
   0   4  -7 231.772 7.05806   2
   0   4  -7 227.071 7.14701   3
   0  -4   7 224.881 7.47202   1
  -1   4  -7 3.34098 1.02059   3
  -1   4  -7 2.78879 1.10366   2
   1  -4   7 4.29324 1.45022   1
  -2   4  -7 5.92358 1.40453   2
   2  -4   7 9.85481 1.79938   1
   3  -4   7 114.645 5.08548   1
  -4   4  -7 34.7505 3.24331   2
   4  -4   7 35.0201 3.83075   1
  -5   4  -7 7.15381 2.16494   2
   5  -4   7 5.20964 2.60152   1
  -6   4  -7 14.8965 2.86640   2
   6  -4   7 11.2005 3.27649   1
  -7   4  -7 45.6107 5.41789   2
   7  -4   7 69.5888 9.13143   1
   8  -4   7 21.6571 4.99065   1
   9   3  -7 19.4556 4.46724   3
   8   3  -7 21.6512 3.75666   3
  -8  -3   7 13.7980 3.26215   1
   7   3  -7 56.1883 4.85893   3
  -7  -3   7 46.9921 3.40377   2
  -7  -3   7 51.1223 4.40375   1
   6   3  -7 5.50349 2.40865   3
  -6  -3   7 8.54429 1.68382   2
   5   3  -7 222.585 8.03204   3
  -5  -3   7 213.964 6.85732   2
  -5  -3   7 209.432 7.37933   1
   4   3  -7 193.112 6.99370   3
  -4  -3   7 196.749 6.08174   2
  -4  -3   7 191.678 6.57601   1
   3   3  -7 283.222 9.12147   3
  -3  -3   7 283.530 8.34945   2
  -3  -3   7 280.902 8.82426   1
   2   3  -7 72.2386 3.43353   3
   2   3  -7 79.0011 2.89868   2
  -2  -3   7 82.6469 3.59032   1
   1   3  -7 137.729 4.94202   3
   1   3  -7 145.177 4.68597   2
  -1  -3   7 140.852 5.06029   1
   0   3  -7 80.3203 3.23104   2
   0   3  -7 85.6515 3.19787   3
   0  -3   7 80.2664 3.61600   1
  -1   3  -7 -0.7680 0.91101   3
  -1   3  -7 0.62764 0.97805   2
   1  -3   7 0.37260 1.29935   1
  -2   3  -7 430.116 12.9224   2
   2  -3   7 424.753 13.1560   1
  -3   3  -7 170.376 6.25815   2
   3  -3   7 167.409 6.49900   1
  -4   3  -7 50.3060 3.60546   2
   4  -3   7 48.8777 3.98987   1
  -5   3  -7 -0.2053 1.90639   2
   5  -3   7 1.68874 2.49236   1
  -6   3  -7 64.7661 4.97919   2
   6  -3   7 70.3171 5.66251   1
  -7   3  -7 25.9071 3.68492   2
   7  -3   7 23.6761 4.21847   1
   8  -3   7 21.0914 4.86223   1
  10   2  -7 0.40735 3.67661   3
   8   2  -7 213.385 8.98111   3
  -8  -2   7 197.374 7.81564   2
  -8  -2   7 214.474 8.33695   1
   7   2  -7 20.0605 3.15057   3
  -7  -2   7 23.9146 2.89932   1
  -7  -2   7 20.0552 2.38651   2
   6   2  -7 72.4975 4.70517   3
  -6  -2   7 71.2870 3.98591   1
  -6  -2   7 70.7582 3.60612   2
   5   2  -7 -0.2859 1.77353   3
  -5  -2   7 -0.9036 1.40077   1
  -5  -2   7 0.92884 1.29376   2
   4   2  -7 3.14038 1.50289   3
  -4  -2   7 1.91044 1.11552   2
  -4  -2   7 -0.7387 1.15945   1
   3   2  -7 0.83754 1.30195   3
  -3  -2   7 -0.7466 0.88454   2
  -3  -2   7 2.49484 1.12753   1
   2   2  -7 362.139 10.6778   2
   2   2  -7 371.749 11.0750   3
  -2  -2   7 356.126 10.8178   1
   1   2  -7 440.386 12.5462   2
   1   2  -7 426.040 12.5986   3
  -1  -2   7 421.614 12.6621   1
   0   2  -7 389.161 11.6219   2
   0   2  -7 398.069 11.3670   3
   0  -2   7 388.791 11.7974   1
  -1   2  -7 62.5459 2.97788   2
   1  -2   7 66.2802 3.34509   1
  -2   2  -7 11.3139 1.61886   2
   2  -2   7 10.9472 1.95662   1
  -3   2  -7 1382.65 39.5688   2
   3  -2   7 1405.84 39.8062   1
  -4   2  -7 38.5990 3.23765   2
   4  -2   7 31.9804 3.73830   1
  -5   2  -7 26.6453 3.48298   2
   5  -2   7 27.5198 3.36002   1
  -6   2  -7 7.55769 2.49739   2
   6  -2   7 3.86092 3.25981   1
  -7   2  -7 0.24398 3.08822   2
   7  -2   7 -2.9188 3.70665   1
  10   1  -7 3.48236 3.91542   3
   9   1  -7 4.31892 4.41888   3
  -9  -1   7 0.89482 2.78402   2
   8   1  -7 95.6250 6.23160   3
  -8  -1   7 98.8772 5.26785   2
   7   1  -7 133.651 6.59603   3
  -7  -1   7 145.675 5.80790   2
  -7  -1   7 132.440 5.70644   1
   6   1  -7 61.5604 4.26603   3
  -6  -1   7 61.8383 3.54271   2
  -6  -1   7 58.4277 3.55919   1
   5   1  -7 19.0700 2.85798   3
  -5  -1   7 17.5485 2.24620   1
  -5  -1   7 19.3401 2.29098   2
   4   1  -7 67.8523 3.55274   3
  -4  -1   7 68.6163 3.03876   2
  -4  -1   7 63.6834 2.89353   1
   3   1  -7 4.51863 1.37420   3
  -3  -1   7 3.42695 1.09728   2
  -3  -1   7 3.19191 1.09284   1
   2   1  -7 157.537 5.27227   2
   2   1  -7 159.511 5.51188   3
  -2  -1   7 160.735 5.27324   1
   1   1  -7 15.5756 1.69502   3
   1   1  -7 12.3053 1.66934   2
  -1  -1   7 13.3523 1.81679   1
   0   1  -7 150.566 4.80687   3
   0   1  -7 154.981 5.25165   2
   0  -1   7 149.467 5.31816   1
  -1   1  -7 33.4991 2.28420   2
   1  -1   7 31.2247 2.55304   1
  -2   1  -7 120.667 4.76218   2
   2  -1   7 122.227 5.06784   1
  -3   1  -7 21.8212 2.67536   2
   3  -1   7 26.3366 3.18159   1
  -4   1  -7 462.251 14.6042   2
   4  -1   7 468.799 14.9474   1
  -5   1  -7 22.2283 2.81113   2
   5  -1   7 29.6125 3.50042   1
  -6   1  -7 23.6027 3.20082   2
   6  -1   7 29.4759 4.02888   1
  -7   1  -7 12.6607 3.24049   2
   7  -1   7 13.5680 4.16838   1
  10   0  -7 21.2926 4.52449   3
   9   0  -7 67.1161 8.34382   3
  -9   0   7 71.3251 5.32946   2
   8   0  -7 154.137 7.50161   3
  -8   0   7 152.753 6.69344   2
   7   0  -7 83.8365 5.30689   3
  -7   0   7 90.3267 4.77120   2
   6   0  -7 122.825 5.96983   3
  -6   0   7 135.539 5.41104   2
   5   0  -7 0.91314 1.81441   3
  -5   0   7 1.59383 1.48495   2
   4   0  -7 3.60988 1.62086   3
  -4   0   7 2.17664 1.24454   2
   3   0  -7 180.126 6.27500   3
  -3   0   7 179.995 5.96008   2
  -3   0   7 174.403 5.57530   1
   2   0  -7 7.84731 1.43110   3
   2   0  -7 8.23018 1.26785   2
  -2   0   7 8.53308 1.25826   1
   1   0  -7 0.82606 0.99655   2
   1   0  -7 0.96636 1.05161   3
  -1   0   7 1.27771 1.18818   1
   0   0  -7 2.37311 1.09530   2
   0   0  -7 1.23287 0.90459   3
   0   0   7 2.72365 1.27971   1
  -1   0  -7 59.0415 3.02190   2
   1   0   7 57.7857 3.29807   1
   2   0   7 134.952 5.52005   1
  -3   0  -7 742.418 22.0307   2
   3   0   7 751.846 22.2631   1
  -4   0  -7 20.9534 2.51916   2
   4   0   7 19.8065 2.78233   1
  -5   0  -7 54.6602 4.37967   2
   5   0   7 55.1041 4.97032   1
  -6   0  -7 -1.6583 2.48277   2
   6   0   7 3.89606 3.37636   1
  -7   0  -7 12.1768 3.51779   2
   7   0   7 19.0316 4.56360   1
  -9   1   7 18.4609 3.19983   2
   8  -1  -7 35.0748 5.08340   3
  -8   1   7 34.7935 4.24908   2
   7  -1  -7 58.1080 4.73774   3
  -7   1   7 51.5928 4.24690   2
   6  -1  -7 52.9310 4.23382   3
  -6   1   7 53.6840 3.87848   2
   5  -1  -7 25.7302 3.15156   3
  -5   1   7 28.7489 3.83359   2
   4  -1  -7 115.484 4.92180   3
  -4   1   7 109.658 4.45532   2
   3  -1  -7 280.239 8.98288   3
  -3   1   7 269.705 8.64759   2
   2  -1  -7 730.803 20.7672   3
   2  -1  -7 717.310 20.7201   2
  -2   1   7 710.539 20.3150   1
   1  -1  -7 265.295 8.40016   2
   1  -1  -7 261.971 8.18327   3
  -1   1   7 268.072 8.18678   1
   0  -1  -7 98.4247 4.04730   2
   0  -1  -7 96.5649 3.51165   3
   0   1   7 100.945 4.10556   1
  -1  -1  -7 113.127 4.50551   2
   1   1   7 109.529 4.68985   1
  -2  -1  -7 252.448 8.38428   2
   2   1   7 247.525 8.61493   1
  -3  -1  -7 7.11157 1.83393   2
   3   1   7 2.33227 2.11732   1
  -4  -1  -7 56.8001 4.07139   2
   4   1   7 59.2079 4.57507   1
  -5  -1  -7 31.2303 4.13483   2
   5   1   7 33.1942 4.63983   1
  -6  -1  -7 -0.8420 3.07253   2
   6   1   7 5.56651 3.47070   1
  -7  -1  -7 18.9669 4.16410   2
   7   1   7 14.5368 4.67457   1
  10  -2  -7 27.6394 4.79388   3
   9  -2  -7 7.27873 3.80932   3
  -9   2   7 8.24236 4.63774   2
   8  -2  -7 45.0398 5.01602   3
  -8   2   7 40.1274 4.89821   2
   7  -2  -7 15.8542 3.05605   3
  -7   2   7 15.2592 2.73054   2
   6  -2  -7 17.3240 2.72970   3
  -6   2   7 18.4851 2.50085   2
   5  -2  -7 473.918 14.7737   3
  -5   2   7 463.338 14.3455   2
   4  -2  -7 297.812 11.2821   3
  -4   2   7 315.869 9.87929   2
   3  -2  -7 144.399 5.58277   3
  -3   2   7 145.617 5.32393   2
   2  -2  -7 1016.55 28.7932   2
   2  -2  -7 1004.66 28.7514   3
   1  -2  -7 1040.21 29.2353   2
   1  -2  -7 1003.10 28.9458   3
  -1   2   7 1031.48 28.8499   1
   0  -2  -7 340.924 10.2148   3
   0  -2  -7 341.467 10.6636   2
   0   2   7 341.361 10.5601   1
  -1  -2  -7 1.02435 1.07457   3
   1   2   7 0.78201 1.66844   1
  -2  -2  -7 390.328 12.5977   2
   2   2   7 412.908 12.9193   1
  -3  -2  -7 10.8021 2.08525   2
   3   2   7 14.7544 2.61467   1
  -4  -2  -7 216.608 8.25177   2
   4   2   7 226.979 8.96922   1
  -5  -2  -7 31.9002 4.27448   2
   5   2   7 24.5060 3.82695   1
  -6  -2  -7 24.4950 3.67646   2
   6   2   7 23.8994 4.18027   1
  10  -3  -7 22.2193 4.78938   3
   9  -3  -7 0.53795 3.65805   3
  -9   3   7 6.61112 3.41860   2
   8  -3  -7 3.77432 3.26027   3
  -8   3   7 -1.1583 2.98831   2
   7  -3  -7 94.8626 5.71518   3
  -7   3   7 88.9422 5.31955   2
   6  -3  -7 -1.6519 2.29676   3
  -6   3   7 3.58789 2.11120   2
   5  -3  -7 399.436 12.8882   3
  -5   3   7 390.768 12.4699   2
   4  -3  -7 111.728 5.12609   3
  -4   3   7 113.546 4.83092   2
   3  -3  -7 36.0682 2.92859   3
   2  -3  -7 407.546 12.5157   2
   2  -3  -7 407.199 12.5089   3
   1  -3  -7 5.58085 1.40742   2
   1  -3  -7 7.15605 1.54513   3
  -1   3   7 7.94928 1.56302   1
   0  -3  -7 23.3996 2.32594   3
   0  -3  -7 25.3289 3.21731   2
   0   3   7 26.4954 2.82660   1
  -1  -3  -7 90.4550 3.77130   3
  -1  -3  -7 93.1015 4.42552   2
   1   3   7 93.8977 4.62866   1
  -2  -3  -7 5.33582 1.81516   2
   2   3   7 0.47603 2.08609   4
   2   3   7 6.91913 2.33949   1
  -3  -3  -7 5.44641 2.00950   2
   3   3   7 4.67941 2.38778   4
   3   3   7 9.09484 2.59814   1
  -4  -3  -7 129.047 6.50793   2
   4   3   7 134.788 6.88126   1
  -5  -3  -7 8.27568 2.88521   2
   5   3   7 11.7109 4.42998   1
  -6  -3  -7 66.8095 6.29839   2
   6   3   7 63.4945 7.29599   1
   9  -4  -7 54.2845 5.76317   3
  -9   4   7 68.0832 6.34862   2
   8  -4  -7 1.30456 3.25686   3
  -8   4   7 -1.1361 3.34325   2
   7  -4  -7 2.46643 2.78630   3
  -7   4   7 1.83619 2.77414   2
   6  -4  -7 15.0318 2.92581   3
  -6   4   7 18.6826 2.73464   2
   5  -4  -7 77.2624 4.83578   3
  -5   4   7 82.0452 4.58930   2
   4  -4  -7 3.25538 1.98062   3
  -4   4   7 3.95381 1.86609   2
   3  -4  -7 257.105 8.76553   3
  -3   4   7 241.213 8.38249   2
   2  -4  -7 245.741 8.25219   2
   2  -4  -7 236.440 8.19362   3
   1  -4  -7 715.446 20.4968   3
   1  -4  -7 716.208 20.6147   2
  -1   4   7 665.234 20.0893   1
   0  -4  -7 106.178 4.95521   2
   0  -4  -7 109.374 4.58214   3
   0   4   7 117.156 4.95685   1
  -1  -4  -7 28.5834 2.73821   3
  -1  -4  -7 22.1232 3.03507   2
   1   4   7 26.6555 3.32283   4
   1   4   7 22.9357 3.44865   1
  -2  -4  -7 154.033 6.46575   2
   2   4   7 163.551 6.65246   4
   2   4   7 167.128 6.97476   1
  -3  -4  -7 76.3792 4.67962   2
   3   4   7 81.4528 5.15195   4
   3   4   7 75.2303 5.40383   1
  -4  -4  -7 1.81791 2.51628   2
   4   4   7 -1.7452 3.02650   4
   4   4   7 2.55258 3.07931   1
  -5  -4  -7 31.3814 3.90061   2
   5   4   7 43.4828 6.44634   1
  -6  -4  -7 11.9210 3.95462   2
   6   4   7 10.6477 4.75774   1
   9  -5  -7 4.30252 4.33608   3
  -9   5   7 4.75113 4.11131   2
   8  -5  -7 15.8410 3.93190   3
  -8   5   7 8.23011 3.83694   2
   7  -5  -7 1.58318 3.15985   3
  -7   5   7 2.17404 2.97435   2
   6  -5  -7 97.6441 5.74589   3
  -6   5   7 91.7009 5.48851   2
   5  -5  -7 263.312 9.95626   3
  -5   5   7 276.934 9.58564   2
   4  -5  -7 48.0468 4.02292   3
  -4   5   7 45.5397 3.87793   2
   3  -5  -7 51.3292 4.00572   3
  -3   5   7 55.9315 3.77922   2
   2  -5  -7 66.4075 4.10652   3
  -2   5   7 62.5057 4.09943   2
   1  -5  -7 86.3298 6.06356   3
   1  -5  -7 94.9539 4.62090   2
   0  -5  -7 38.4319 3.18020   3
   0  -5  -7 35.7650 3.47849   2
   0   5   7 31.2628 3.44005   1
   0   5   7 37.6400 3.32643   4
  -1  -5  -7 30.0457 3.24667   3
  -1  -5  -7 33.1186 3.57241   2
   1   5   7 36.8557 4.05941   1
   1   5   7 35.2840 3.88693   4
  -2  -5  -7 62.0790 4.37141   2
   2   5   7 58.9462 4.95296   4
   2   5   7 65.6311 5.14946   1
  -3  -5  -7 58.2978 4.60786   2
   3   5   7 57.4082 5.31871   4
   3   5   7 60.8849 5.65395   1
  -4  -5  -7 3.65940 2.93223   2
   4   5   7 2.59659 3.68427   4
   4   5   7 1.59410 3.84068   1
  -5  -5  -7 44.4602 5.97251   2
   5   5   7 31.0167 4.90833   1
   9  -6  -7 83.5554 8.50314   3
  -9   6   7 92.9950 8.47555   2
   8  -6  -7 82.5408 7.13873   3
  -8   6   7 55.0323 6.49995   2
   7  -6  -7 3.21483 3.32019   3
  -7   6   7 6.40623 3.44408   2
   6  -6  -7 20.3992 3.51991   3
  -6   6   7 26.0256 3.55812   2
   5  -6  -7 13.5060 2.92181   3
  -5   6   7 11.0725 2.70531   2
   4  -6  -7 118.648 6.30898   3
  -4   6   7 125.551 6.03090   2
   3  -6  -7 53.6297 4.35205   3
  -3   6   7 42.6676 3.94363   2
   2  -6  -7 1.53430 2.21343   3
  -2   6   7 0.93131 2.08538   2
   1  -6  -7 200.979 7.43298   3
   1  -6  -7 181.605 7.36879   2
   0  -6  -7 14.9807 2.63390   3
   0  -6  -7 11.6949 2.45942   2
   0   6   7 19.0093 2.74168   4
   0   6   7 9.50105 2.74526   1
  -1  -6  -7 46.5552 4.14532   3
  -1  -6  -7 40.8721 4.16695   2
   1   6   7 42.4855 4.61783   4
   1   6   7 41.7108 4.74381   1
  -2  -6  -7 126.470 6.28253   2
   2   6   7 135.283 6.99277   4
   2   6   7 132.591 7.08570   1
  -3  -6  -7 76.9857 5.43077   2
   3   6   7 82.1456 6.64081   1
   3   6   7 72.7614 6.53546   4
  -4  -6  -7 17.7096 3.55006   2
   4   6   7 7.79150 4.10966   1
   4   6   7 4.56272 4.11403   4
  -5  -6  -7 3.39854 3.96205   2
   5   6   7 -0.8192 4.85919   1
   5   6   7 -3.8019 4.54240   4
   8  -7  -7 -2.5125 4.47580   3
  -8   7   7 -2.9872 4.19310   2
   7  -7  -7 14.3596 4.22033   3
  -7   7   7 15.0007 4.03919   2
   6  -7  -7 33.9170 4.31752   3
  -6   7   7 29.0264 3.96657   2
   5  -7  -7 14.4698 3.35148   3
  -5   7   7 18.9948 3.39949   2
   4  -7  -7 -5.4211 2.70199   3
  -4   7   7 6.32577 2.75693   2
   3  -7  -7 126.819 6.33213   3
  -3   7   7 121.731 6.12597   2
   2  -7  -7 4.67784 2.66755   3
  -2   7   7 4.12358 2.46793   2
   1  -7  -7 170.026 7.30635   3
  -1   7   7 179.975 7.55138   2
   0  -7  -7 31.7040 4.13924   2
   0  -7  -7 23.6508 3.34028   3
   0   7   7 22.1391 3.37310   4
   0   7   7 34.8003 4.61407   1
  -1  -7  -7 2.94524 2.46848   2
  -1  -7  -7 -0.5660 2.91463   3
   1   7   7 2.74373 3.38300   4
   1   7   7 0.23132 3.31677   1
  -2  -7  -7 -0.0072 2.86597   2
   2   7   7 1.42621 3.78670   4
   2   7   7 5.06010 3.94436   1
  -3  -7  -7 21.4633 3.68509   2
   3   7   7 20.5924 5.97812   1
   3   7   7 15.6068 5.46208   4
  -4  -7  -7 21.3348 4.22544   2
   4   7   7 26.3733 4.97099   1
   4   7   7 28.3618 5.14491   4
   8  -8  -7 8.75572 4.85878   3
  -8   8   7 14.7644 4.97812   2
   7  -8  -7 9.82337 4.53538   3
  -7   8   7 12.4452 4.55578   2
   6  -8  -7 23.6425 4.51322   3
  -6   8   7 29.9214 4.61917   2
   5  -8  -7 3.14183 3.45738   3
  -5   8   7 12.2099 3.67334   2
   4  -8  -7 124.991 6.95055   3
  -4   8   7 104.473 6.75290   2
   3  -8  -7 51.6631 5.49138   3
  -3   8   7 57.0907 5.50915   2
   2  -8  -7 8.12408 3.17622   3
  -2   8   7 14.3508 3.24297   2
   1  -8  -7 6.63377 2.94161   3
  -1   8   7 0.99630 2.96301   2
   0  -8  -7 43.6936 5.10959   3
   0   8   7 48.5404 5.56244   4
   0   8   7 46.5458 5.62470   1
  -1  -8  -7 22.8650 3.55620   2
  -1  -8  -7 18.9923 4.97819   3
   1   8   7 20.1332 4.28150   4
   1   8   7 18.9633 4.20947   1
  -2  -8  -7 15.3183 3.65937   2
   2   8   7 5.02596 4.63219   4
   2   8   7 15.2920 4.70856   1
  -3  -8  -7 0.32315 3.92935   2
   3   8   7 4.60238 4.68345   4
   3   8   7 -2.7429 4.28750   1
   7  -9  -7 0.80660 4.76320   3
  -7   9   7 -4.5538 4.56934   2
   6  -9  -7 -4.6046 4.15648   3
  -6   9   7 5.27430 4.76319   2
   5  -9  -7 32.9358 4.72135   3
  -5   9   7 41.9811 5.08289   2
   4  -9  -7 11.0127 6.50586   3
  -4   9   7 -4.9758 4.14024   2
   3  -9  -7 351.416 13.1527   3
   2  -9  -7 113.833 7.35591   3
  -2   9   7 117.813 7.41513   2
   1  -9  -7 4.47270 3.60418   3
  -1   9   7 0.73881 3.59079   2
   0  -9  -7 39.4535 5.75129   3
   0   9   7 35.1666 4.49543   2
   1   9   7 22.5490 5.27051   1
   1   9   7 15.4694 4.99237   4
   2   9   7 7.38666 4.68179   1
   2   9   7 8.08282 4.67356   4
  -6  10   7 26.5571 5.70778   2
   5 -10  -7 82.7915 7.77386   3
  -5  10   7 64.5015 7.80034   2
   4 -10  -7 40.9851 5.21187   3
  -4  10   7 31.1832 5.01781   2
   3 -10  -7 26.4136 4.66746   3
  -3  10   7 17.8942 4.80088   2
   2 -10  -7 123.057 8.38209   3
  -2  10   7 129.141 8.44186   2
   1 -10  -7 5.17887 4.17480   3
  -1  10   7 7.32666 4.33546   2
   0 -10  -7 7.42847 4.54170   3
   0  10   7 3.09488 4.10599   2
   4 -11  -7 18.8784 5.50679   3
   3 -11  -7 7.73877 5.08981   3
  -3  11   7 2.84597 4.23900   2
   2 -11  -7 8.89479 4.68303   3
  -2  11   7 -1.7876 4.23359   2
   2  14  -8 5.31030 5.30149   3
  -2 -14   8 4.80127 5.25394   1
   1  14  -8 15.0206 5.20723   3
  -1 -14   8 17.5222 5.15554   1
   0  14  -8 61.5113 7.77039   3
   0 -14   8 70.6343 7.79701   1
  -1  14  -8 3.31652 4.61844   3
   1 -14   8 1.72300 4.71382   1
  -2  14  -8 4.67762 5.02209   3
   2 -14   8 6.30155 4.85400   1
  -3  14  -8 10.9548 5.20073   3
   3 -14   8 17.4868 5.76446   1
   4  13  -8 34.7027 5.86030   3
  -4 -13   8 34.3857 5.64271   1
   3  13  -8 86.9294 8.61539   3
  -3 -13   8 75.7566 8.13873   1
   2  13  -8 5.01621 4.22468   3
  -2 -13   8 5.68490 4.34968   1
   1  13  -8 -5.1701 3.95322   3
  -1 -13   8 -4.5048 4.10217   1
   0  13  -8 25.1716 4.33144   3
   0 -13   8 16.6784 5.37952   1
   1 -13   8 1.08690 4.19380   1
   2 -13   8 4.80831 4.30898   1
  -3  13  -8 3.78869 4.59427   3
  -4  13  -8 9.58282 5.49630   3
   4 -13   8 8.02685 5.69198   1
   5  12  -8 32.1341 5.78129   3
  -5 -12   8 31.6281 5.44210   1
   4  12  -8 3.93308 4.30631   3
  -4 -12   8 -4.6442 4.45536   1
   3  12  -8 2.39673 4.10909   3
  -3 -12   8 6.64435 4.07052   1
   2  12  -8 5.10282 3.57951   3
  -2 -12   8 9.21257 4.00936   1
   1  12  -8 65.2707 6.14152   3
  -1 -12   8 67.2340 6.21025   1
   0  12  -8 139.943 7.22565   3
   0 -12   8 123.439 7.37776   1
  -1  12  -8 8.78685 3.52184   3
   1 -12   8 3.02720 3.62945   1
  -2  12  -8 -2.3425 3.40649   3
   2 -12   8 1.66615 3.77141   1
  -3  12  -8 27.8616 4.46525   3
   3 -12   8 37.4493 4.73743   1
  -4  12  -8 3.71799 5.10398   3
   4 -12   8 7.14227 4.25054   1
  -5  12  -8 19.9237 4.30515   2
   6  11  -8 0.27543 5.14268   3
  -6 -11   8 9.03684 5.03630   1
   5  11  -8 21.1825 4.93191   3
  -5 -11   8 28.8279 4.84630   1
   3  11  -8 24.5732 4.04923   3
  -3 -11   8 26.1449 4.22441   1
   2  11  -8 -2.3954 2.91029   3
  -2 -11   8 0.57403 3.29048   1
   1  11  -8 19.5013 3.49647   3
  -1 -11   8 20.2461 3.50734   1
   0  11  -8 136.425 6.53212   3
   0 -11   8 129.352 6.87793   1
  -1  11  -8 161.681 7.47148   3
   1 -11   8 155.763 7.98077   1
  -2  11  -8 36.8481 4.85022   3
   2 -11   8 28.6899 3.90745   1
  -3  11  -8 -1.7244 3.34089   3
  -3  11  -8 -1.3837 2.94709   2
   3 -11   8 1.59899 3.41726   1
  -4  11  -8 23.9997 3.76456   2
   4 -11   8 23.4118 4.12019   1
  -5  11  -8 -4.5188 6.04949   2
   5 -11   8 0.50137 4.23537   1
   7  10  -8 30.8390 5.96171   3
  -7 -10   8 30.9697 5.71775   1
   6  10  -8 0.85392 4.40596   3
  -6 -10   8 -6.0868 4.28781   1
   5  10  -8 73.4025 8.45967   3
  -5 -10   8 65.5129 9.90055   1
   4  10  -8 25.5541 3.84724   3
  -4 -10   8 21.4793 3.80981   1
   3  10  -8 11.7530 3.19228   3
  -3 -10   8 15.4542 3.34901   1
   2  10  -8 21.2311 3.29230   3
  -2 -10   8 20.2601 3.37816   1
   1  10  -8 120.650 6.16315   3
  -1 -10   8 112.502 6.17126   1
   0  10  -8 60.9444 4.55357   3
   0 -10   8 50.1326 5.41692   1
  -1  10  -8 21.2293 3.03569   3
   1 -10   8 15.1128 3.07372   1
  -2  10  -8 31.4526 4.28229   3
  -2  10  -8 30.2958 3.97001   2
   2 -10   8 24.3815 3.51501   1
  -3  10  -8 75.4909 5.81141   3
  -3  10  -8 69.8107 5.16564   2
   3 -10   8 66.3190 5.45938   1
  -4  10  -8 5.81334 3.01629   2
   4 -10   8 7.77690 3.34061   1
  -5  10  -8 5.12454 3.48222   2
   5 -10   8 8.83372 3.60592   1
  -6  10  -8 11.1585 3.97044   2
   6 -10   8 1.68771 4.11007   1
   7   9  -8 0.52866 4.61585   3
  -7  -9   8 0.53012 4.50231   1
   5   9  -8 2.95152 3.38816   3
  -5  -9   8 -3.8827 3.41810   1
   4   9  -8 3.09282 2.78474   3
  -4  -9   8 -3.6741 2.65228   1
   3   9  -8 2.12123 2.50878   3
  -3  -9   8 -2.5796 2.60849   1
   2   9  -8 13.8482 2.85902   3
  -2  -9   8 17.6785 2.93487   1
   1   9  -8 0.18124 2.22124   3
  -1  -9   8 3.18765 2.41531   1
   0   9  -8 173.913 6.97308   3
   0  -9   8 175.847 7.28866   1
  -1   9  -8 135.160 5.28596   2
  -1   9  -8 145.637 6.22509   3
   1  -9   8 142.926 6.48650   1
  -2   9  -8 3.55032 2.40702   3
   2  -9   8 2.10390 2.47174   1
  -3   9  -8 -0.8546 2.71845   3
  -3   9  -8 -0.0715 2.38289   2
   3  -9   8 -0.0836 2.54901   1
  -4   9  -8 82.7184 5.63723   2
   4  -9   8 80.9313 5.65943   1
  -5   9  -8 73.0496 6.15925   2
   5  -9   8 72.2462 5.76738   1
  -6   9  -8 90.6568 7.20285   2
   8   8  -8 -3.5906 5.03064   3
  -8  -8   8 1.71713 4.28203   1
   7   8  -8 11.1215 4.36492   3
  -7  -8   8 11.0005 4.20527   1
   6   8  -8 48.3547 5.91542   3
  -6  -8   8 43.1907 5.44140   1
   5   8  -8 99.2435 6.16165   3
  -5  -8   8 88.9587 6.02776   1
   4   8  -8 25.9904 3.96245   3
  -4  -8   8 24.9484 3.36799   1
   3   8  -8 60.3876 4.40545   3
  -3  -8   8 61.1939 4.63138   1
   2   8  -8 152.884 6.51157   3
  -2  -8   8 150.954 6.49352   1
   1   8  -8 60.2920 4.06685   3
  -1  -8   8 58.9660 4.30608   1
   0   8  -8 123.185 5.57896   3
   0  -8   8 116.208 5.51638   1
  -1   8  -8 92.9902 4.61939   3
  -1   8  -8 95.7015 4.05196   2
   1  -8   8 90.4602 4.98533   1
  -2   8  -8 28.4454 3.21692   3
  -2   8  -8 30.2553 3.09712   2
   2  -8   8 29.1082 3.67301   1
  -3   8  -8 100.496 5.32748   2
  -3   8  -8 109.918 4.92873   3
   3  -8   8 106.776 5.57617   1
  -4   8  -8 38.4927 4.49244   2
   4  -8   8 31.6399 4.47297   1
  -5   8  -8 39.8633 5.22243   2
   5  -8   8 51.0656 5.17901   1
  -6   8  -8 76.1854 6.15889   2
   6  -8   8 52.5979 6.15135   1
  -7   8  -8 4.24257 3.70759   2
   7  -8   8 3.34597 4.58345   1
   8   7  -8 31.4822 5.26569   3
  -8  -7   8 29.2970 4.80182   1
   7   7  -8 -2.2979 3.66608   3
  -7  -7   8 0.00680 3.53155   1
   6   7  -8 61.6123 5.60479   3
  -6  -7   8 61.2514 5.39562   1
   5   7  -8 63.4460 5.07087   3
  -5  -7   8 55.5162 4.88568   1
   4   7  -8 11.8065 2.57099   3
  -4  -7   8 13.2476 2.77110   1
   3   7  -8 121.814 5.61918   3
  -3  -7   8 123.301 5.60502   1
   2   7  -8 631.553 18.7172   3
  -2  -7   8 606.398 18.6577   1
   1   7  -8 39.1741 3.25740   3
  -1  -7   8 46.2002 3.44551   1
   0   7  -8 125.599 5.02698   3
   0   7  -8 108.492 4.23587   2
   0  -7   8 126.522 5.28709   1
  -1   7  -8 196.717 7.00427   3
  -1   7  -8 201.052 6.69488   2
   1  -7   8 208.960 7.47641   1
  -2   7  -8 3.73091 1.65866   2
  -2   7  -8 5.18306 1.82997   3
   2  -7   8 8.41549 2.14696   1
  -3   7  -8 -0.6817 1.76841   3
  -3   7  -8 -0.0912 1.84763   2
   3  -7   8 1.38348 2.21330   1
  -4   7  -8 83.6444 5.03930   2
   4  -7   8 85.6038 5.44390   1
  -5   7  -8 61.6380 5.04318   2
   5  -7   8 64.6185 5.48626   1
  -6   7  -8 23.6556 3.80743   2
   6  -7   8 23.5573 4.00405   1
  -7   7  -8 6.14727 3.60926   2
   7  -7   8 17.8132 4.44882   1
   9   6  -8 5.55118 4.61390   3
  -9  -6   8 4.21472 3.78392   1
   8   6  -8 1.73835 4.22328   3
  -8  -6   8 -0.6381 3.80453   1
   7   6  -8 13.2237 3.84638   3
  -7  -6   8 15.1180 3.62514   1
   6   6  -8 0.07298 2.85348   3
  -6  -6   8 5.62617 2.79872   1
   5   6  -8 264.590 9.79501   3
  -5  -6   8 263.628 9.50356   1
   4   6  -8 54.8164 4.18595   3
  -4  -6   8 58.0323 4.02885   1
   3   6  -8 29.0160 3.33436   3
  -3  -6   8 31.3424 3.25211   1
   2   6  -8 694.065 19.4380   3
  -2  -6   8 605.703 21.2151   1
   1   6  -8 671.513 19.7598   3
  -1  -6   8 674.778 19.8892   1
   0   6  -8 110.207 4.49569   3
   0   6  -8 107.251 3.95847   2
   0  -6   8 106.138 5.19910   1
  -1   6  -8 41.0345 2.65571   2
  -1   6  -8 36.8923 2.75036   3
   1  -6   8 37.9017 3.25061   1
  -2   6  -8 1.07998 1.53918   2
  -2   6  -8 2.55097 1.52056   3
   2  -6   8 1.43541 1.93864   1
  -3   6  -8 19.3209 2.34540   2
   3  -6   8 19.5438 2.67109   1
  -4   6  -8 5.79782 2.13902   2
   4  -6   8 9.63045 2.59452   1
  -5   6  -8 5.01983 2.41275   2
   5  -6   8 5.07674 2.86682   1
   6  -6   8 7.10933 3.50890   1
  -7   6  -8 35.2182 4.38417   2
   7  -6   8 32.8814 4.72026   1
   9   5  -8 18.8774 5.08567   3
  -9  -5   8 10.3270 4.07363   1
   8   5  -8 4.43441 4.26765   3
  -8  -5   8 1.63442 3.55766   1
   7   5  -8 -0.7957 3.21941   3
  -7  -5   8 3.81082 3.06737   1
   6   5  -8 98.1576 5.84087   3
  -6  -5   8 91.9931 5.29783   1
   5   5  -8 5.53390 2.44718   3
  -5  -5   8 4.98434 2.29738   1
   4   5  -8 540.880 16.7802   3
  -4  -5   8 542.439 17.1557   1
   3   5  -8 329.993 10.7855   3
  -3  -5   8 334.626 10.6385   1
   2   5  -8 223.151 7.71288   3
  -2  -5   8 227.173 7.69660   1
   1   5  -8 84.2128 3.80005   3
   1   5  -8 83.4178 3.17493   2
  -1  -5   8 78.9263 3.86620   1
   0   5  -8 187.640 6.02251   2
   0   5  -8 180.809 6.18301   3
   0  -5   8 183.868 6.59626   1
  -1   5  -8 302.692 9.40054   3
  -1   5  -8 304.599 9.58273   2
   1  -5   8 324.671 10.3452   1
  -2   5  -8 1.38401 1.42930   2
  -2   5  -8 0.38614 1.17929   3
   2  -5   8 -0.1160 1.68508   1
  -3   5  -8 5.86660 1.83934   2
   3  -5   8 7.02758 2.18515   1
  -4   5  -8 10.0016 2.10911   2
   4  -5   8 7.16950 2.53713   1
  -5   5  -8 56.6460 4.57524   2
   5  -5   8 60.0428 5.08494   1
  -6   5  -8 13.5368 3.65295   2
   6  -5   8 12.3893 3.51554   1
  -7   5  -8 94.7882 6.86251   2
   7  -5   8 107.066 7.35936   1
   9   4  -8 -1.9746 4.02353   3
   8   4  -8 -4.2218 3.44740   3
  -8  -4   8 -6.0262 3.18027   1
   7   4  -8 32.5693 4.06835   3
  -7  -4   8 33.5499 4.48004   1
   6   4  -8 28.8537 4.08145   3
  -6  -4   8 28.0345 2.89956   2
  -6  -4   8 34.3466 3.73778   1
   5   4  -8 132.066 5.92936   3
  -5  -4   8 125.007 4.51700   2
   4   4  -8 65.6075 4.08321   3
  -4  -4   8 56.1473 2.64280   2
  -4  -4   8 62.3267 3.58554   1
   3   4  -8 121.918 4.99592   3
  -3  -4   8 108.696 3.88235   2
  -3  -4   8 119.240 4.74349   1
   2   4  -8 366.637 11.5224   3
   2   4  -8 374.153 10.8532   2
  -2  -4   8 374.041 11.4558   1
   1   4  -8 317.410 10.1437   3
   1   4  -8 338.229 9.86229   2
  -1  -4   8 336.418 10.3589   1
   0   4  -8 177.513 5.76223   2
   0   4  -8 168.244 5.76414   3
   0  -4   8 176.376 6.21027   1
  -1   4  -8 4.25622 1.28314   2
  -1   4  -8 3.36838 1.17268   3
   1  -4   8 3.81186 1.75518   1
  -2   4  -8 117.852 4.86594   2
   2  -4   8 120.924 5.25235   1
  -3   4  -8 97.3212 4.57569   2
   3  -4   8 92.7313 4.85278   1
  -4   4  -8 98.6691 4.95060   2
   4  -4   8 88.4669 5.33613   1
  -5   4  -8 11.2959 2.54764   2
   5  -4   8 9.89089 3.03477   1
  -6   4  -8 -0.0006 2.82181   2
   6  -4   8 0.29625 3.36063   1
  -7   4  -8 4.20946 3.23667   2
   7  -4   8 4.54478 4.17478   1
   9   3  -8 8.46015 4.06137   3
   8   3  -8 10.7047 3.37870   3
  -8  -3   8 10.8337 3.21605   1
   7   3  -8 84.3506 5.72337   3
  -7  -3   8 90.1577 5.28316   1
   6   3  -8 111.904 5.81568   3
  -6  -3   8 114.532 4.63233   2
   5   3  -8 155.155 6.39581   3
  -5  -3   8 155.368 5.37972   2
  -5  -3   8 157.876 5.91120   1
   4   3  -8 206.315 9.30993   3
  -4  -3   8 236.361 7.11091   2
  -4  -3   8 234.062 7.56368   1
   3   3  -8 50.6013 3.15079   3
  -3  -3   8 51.2030 3.06396   1
  -3  -3   8 49.0832 2.48896   2
   2   3  -8 31.5967 1.98889   2
   2   3  -8 31.8393 2.44675   3
  -2  -3   8 30.4555 2.41100   1
   1   3  -8 3.33907 1.08684   2
   1   3  -8 2.37823 1.22824   3
  -1  -3   8 1.14554 1.35469   1
   0   3  -8 36.3152 2.19215   3
   0   3  -8 38.0510 2.32854   2
   0  -3   8 38.2545 2.77866   1
  -1   3  -8 539.859 16.0774   2
   1  -3   8 553.989 16.4156   1
   2  -3   8 4.25580 1.72312   1
  -3   3  -8 24.0570 2.90799   2
   3  -3   8 16.7662 2.70543   1
  -4   3  -8 59.9582 4.07841   2
   4  -3   8 53.5693 4.36813   1
  -5   3  -8 1.72783 2.16192   2
   5  -3   8 1.74205 2.79215   1
  -6   3  -8 57.9727 6.52841   2
   6  -3   8 63.9378 5.95017   1
  -7   3  -8 45.2085 5.75604   2
   7  -3   8 52.9477 6.72922   1
  10   2  -8 29.0825 4.83520   3
   9   2  -8 52.2786 6.80825   3
   8   2  -8 94.3471 6.41834   3
  -8  -2   8 87.0037 5.24668   2
   7   2  -8 -2.1650 2.53193   3
  -7  -2   8 1.77345 2.11077   2
   6   2  -8 41.5027 4.07002   3
  -6  -2   8 45.7011 3.18381   2
  -6  -2   8 42.3713 3.44282   1
   5   2  -8 72.5048 4.24219   3
  -5  -2   8 70.5195 3.31019   2
  -5  -2   8 73.9096 3.59041   1
   4   2  -8 109.468 4.77863   3
  -4  -2   8 105.047 4.19492   1
  -4  -2   8 104.163 4.09301   2
   3   2  -8 -0.0311 1.35718   3
  -3  -2   8 2.12394 1.26688   1
  -3  -2   8 2.10726 1.17031   2
   2   2  -8 246.982 7.62449   2
   2   2  -8 242.801 7.94172   3
  -2  -2   8 242.531 7.76598   1
   1   2  -8 13.3045 1.89274   3
   1   2  -8 16.5775 1.84239   2
  -1  -2   8 15.2588 2.17259   1
   0   2  -8 311.225 9.42619   3
   0   2  -8 319.004 9.80247   2
   0  -2   8 324.449 10.0014   1
  -1   2  -8 1.62062 1.17665   2
   1  -2   8 2.29828 1.52192   1
  -2   2  -8 685.367 20.0070   2
   2  -2   8 672.353 20.1619   1
  -3   2  -8 182.763 6.90451   2
   3  -2   8 185.721 7.21239   1
  -4   2  -8 74.8875 4.45938   2
   4  -2   8 74.4377 5.04336   1
  -5   2  -8 2.85301 2.19688   2
   5  -2   8 -3.2178 2.74701   1
   6  -2   8 8.92430 4.70523   1
  -7   2  -8 67.7810 6.36351   2
   7  -2   8 67.5722 7.18134   1
  10   1  -8 0.33362 4.31755   3
   9   1  -8 140.559 8.36415   3
  -9  -1   8 153.480 7.04800   2
   8   1  -8 23.9743 3.92017   3
  -8  -1   8 21.3760 3.05935   2
   7   1  -8 7.87395 2.84655   3
  -7  -1   8 7.57306 2.31445   2
   6   1  -8 24.2163 3.65253   3
  -6  -1   8 24.8963 2.89259   2
  -6  -1   8 26.4424 2.95493   1
   5   1  -8 50.5267 3.67091   3
  -5  -1   8 44.4928 2.89916   2
  -5  -1   8 39.6100 2.75063   1
   4   1  -8 9.07657 1.85832   3
  -4  -1   8 5.86085 1.38818   2
  -4  -1   8 7.51211 1.38317   1
   3   1  -8 96.1413 4.25335   3
  -3  -1   8 98.6400 3.82508   1
   2   1  -8 8.95882 1.52692   3
   2   1  -8 5.29020 1.20462   2
  -2  -1   8 5.45215 1.33271   1
   1   1  -8 125.870 4.54386   3
   1   1  -8 127.844 4.69989   2
  -1  -1   8 131.653 4.78958   1
   0   1  -8 446.615 13.0281   2
   0   1  -8 417.406 12.4813   3
   0  -1   8 435.750 13.0625   1
  -1   1  -8 183.715 6.40314   2
   1  -1   8 184.011 6.63823   1
  -2   1  -8 239.146 8.24460   2
   2  -1   8 245.195 8.57543   1
  -3   1  -8 22.9036 2.93128   2
   3  -1   8 20.5049 2.68808   1
  -4   1  -8 1.21676 1.88376   2
   4  -1   8 0.22809 2.34591   1
  -5   1  -8 53.5198 4.41104   2
   5  -1   8 47.5525 5.19496   1
  -6   1  -8 105.479 6.47180   2
   6  -1   8 113.937 7.33583   1
  -7   1  -8 0.31131 3.33288   2
   7  -1   8 0.62170 4.38930   1
 -10   0   8 41.9212 4.55410   2
   9   0  -8 9.21610 3.92838   3
  -9   0   8 0.57566 2.95359   2
   8   0  -8 18.8094 3.63822   3
  -8   0   8 14.1044 2.80023   2
   7   0  -8 9.47808 2.71616   3
  -7   0   8 13.6851 2.48617   2
   6   0  -8 9.14602 2.61042   3
  -6   0   8 11.0496 2.20015   2
   5   0  -8 196.055 7.57347   3
  -5   0   8 197.699 6.92514   2
   4   0  -8 186.868 6.86281   3
  -4   0   8 182.242 6.30706   2
   3   0  -8 85.0871 3.99300   3
  -3   0   8 83.3280 3.30752   1
   2   0  -8 94.0189 3.86713   2
   2   0  -8 91.3818 3.93966   3
  -2   0   8 91.5721 3.66190   1
   1   0  -8 371.520 11.2595   2
   1   0  -8 363.969 11.0157   3
  -1   0   8 369.798 11.1404   1
   0   0  -8 257.660 8.11986   2
   0   0  -8 234.895 7.47321   3
   0   0   8 252.684 8.10311   1
   1   0   8 57.4741 3.68089   1
  -2   0  -8 32.3749 2.87591   2
   2   0   8 36.4811 3.46936   1
  -3   0  -8 20.3673 2.46463   2
   3   0   8 28.0049 3.73079   1
  -4   0  -8 14.2563 2.43090   2
   4   0   8 16.5538 3.01833   1
  -5   0  -8 19.6766 3.05085   2
   5   0   8 20.9730 3.75273   1
  -6   0  -8 2.97672 3.00599   2
   6   0   8 3.92928 3.93032   1
  -7   0  -8 47.5194 5.12161   2
   7   0   8 58.2744 7.91152   1
  10  -1  -8 2.80289 4.27963   3
 -10   1   8 5.14583 3.66718   2
   9  -1  -8 35.0510 4.69966   3
  -9   1   8 36.9979 4.02780   2
   8  -1  -8 5.77708 3.20982   3
  -8   1   8 3.85284 2.63662   2
   7  -1  -8 21.5727 3.35500   3
  -7   1   8 23.0064 2.92586   2
   6  -1  -8 5.30753 2.38350   3
  -6   1   8 6.32322 2.09201   2
   5  -1  -8 5.06933 2.18930   3
  -5   1   8 3.86149 1.89770   2
   4  -1  -8 268.152 10.1586   3
  -4   1   8 268.941 8.74158   2
   3  -1  -8 775.384 22.6369   3
   2  -1  -8 760.670 22.4221   2
   2  -1  -8 784.365 22.4475   3
  -2   1   8 784.643 22.0491   1
   1  -1  -8 -0.8831 1.19028   3
   1  -1  -8 0.09314 1.23139   2
  -1   1   8 0.78091 1.43271   1
   0  -1  -8 364.118 11.1610   3
   0  -1  -8 390.573 11.8471   2
   0   1   8 387.597 11.7845   1
  -1  -1  -8 115.077 4.83713   2
   1   1   8 113.740 5.10050   1
  -2  -1  -8 3.08524 1.71831   2
   2   1   8 1.36360 2.15583   1
  -3  -1  -8 21.7129 2.52100   2
   3   1   8 21.1801 2.96640   1
  -4  -1  -8 -2.3603 1.98597   2
   4   1   8 -6.4393 2.55934   1
  -5  -1  -8 41.5776 4.63802   2
   5   1   8 45.2448 5.67143   1
  -6  -1  -8 4.54121 3.06435   2
   6   1   8 3.53679 3.87909   1
  10  -2  -8 1.12623 4.15781   3
   9  -2  -8 -1.5315 3.65110   3
  -9   2   8 2.39685 3.30743   2
   8  -2  -8 12.6960 3.57955   3
  -8   2   8 19.0817 3.25944   2
   7  -2  -8 67.2083 5.23135   3
  -7   2   8 73.1582 4.98443   2
   6  -2  -8 63.2555 4.59761   3
  -6   2   8 62.3985 4.20249   2
   5  -2  -8 207.802 7.94380   3
  -5   2   8 204.766 7.43717   2
   4  -2  -8 120.308 5.35912   3
  -4   2   8 115.586 4.93744   2
   3  -2  -8 150.169 5.94313   3
  -3   2   8 158.853 6.51928   2
   2  -2  -8 601.357 18.6850   2
   2  -2  -8 621.412 17.9209   3
  -2   2   8 595.162 17.3496   1
   1  -2  -8 106.714 4.32028   3
   1  -2  -8 106.096 6.42338   2
  -1   2   8 113.905 4.42085   1
   0  -2  -8 102.631 4.06158   3
   0  -2  -8 109.681 4.67277   2
   0   2   8 107.003 4.67805   1
  -1  -2  -8 18.4846 2.06624   3
  -1  -2  -8 16.9874 2.18045   2
   1   2   8 22.0286 3.22179   1
  -2  -2  -8 62.5333 3.85474   2
   2   2   8 63.0788 4.44092   1
  -3  -2  -8 39.9080 3.71402   2
   3   2   8 41.4941 4.36125   1
  -4  -2  -8 41.9368 4.23219   2
   4   2   8 40.0056 4.90783   1
  -5  -2  -8 79.3355 5.59728   2
   5   2   8 62.7118 7.95326   1
  -6  -2  -8 3.82600 3.58876   2
   6   2   8 12.7269 4.49519   1
   9  -3  -8 50.3853 6.44844   3
  -9   3   8 44.9228 5.91027   2
   8  -3  -8 -1.9754 3.25225   3
  -8   3   8 -0.1565 3.07322   2
   7  -3  -8 8.50036 3.07956   3
  -7   3   8 5.82986 2.78084   2
   6  -3  -8 51.9868 4.56115   3
  -6   3   8 60.4492 4.32460   2
   5  -3  -8 2.99294 2.27261   3
  -5   3   8 6.25108 2.06259   2
   4  -3  -8 238.898 8.52754   3
  -4   3   8 233.655 8.16625   2
   3  -3  -8 47.1623 3.37181   3
  -3   3   8 40.7686 3.29738   2
   2  -3  -8 22.6333 2.73831   2
   2  -3  -8 17.6844 2.19709   3
   1  -3  -8 74.7231 3.76453   3
   1  -3  -8 75.2075 3.94367   2
  -1   3   8 72.1537 3.73956   1
   0  -3  -8 169.600 6.40012   2
   0  -3  -8 167.682 5.94542   3
   0   3   8 168.681 6.40159   1
  -1  -3  -8 46.5022 3.62961   2
  -1  -3  -8 51.4516 2.99456   3
   1   3   8 48.2929 3.98067   1
  -2  -3  -8 38.3690 3.55502   2
   2   3   8 48.8114 4.48998   1
  -3  -3  -8 43.0137 4.05334   2
   3   3   8 42.6287 5.03845   1
  -4  -3  -8 0.55621 2.48810   2
   4   3   8 -1.6131 3.14522   1
  -5  -3  -8 10.0541 3.38777   2
   5   3   8 5.20846 3.94846   1
  -6  -3  -8 75.8228 7.35130   2
   6   3   8 67.1662 8.15298   1
   9  -4  -8 -6.6673 4.09064   3
  -9   4   8 6.14770 4.14222   2
   8  -4  -8 85.0576 7.67182   3
   7  -4  -8 115.192 6.94202   3
  -7   4   8 132.599 6.72702   2
   6  -4  -8 11.3237 2.88674   3
  -6   4   8 8.65098 2.68262   2
   5  -4  -8 2.79053 2.31526   3
  -5   4   8 4.31765 2.25242   2
   4  -4  -8 4.42006 2.18755   3
  -4   4   8 1.58702 1.87459   2
   3  -4  -8 335.284 11.0667   3
  -3   4   8 328.393 10.8475   2
   2  -4  -8 94.7102 4.88351   3
   2  -4  -8 83.6055 4.51985   2
   1  -4  -8 0.47804 1.75721   3
   1  -4  -8 1.27851 1.72094   2
  -1   4   8 5.57738 1.98228   1
   0  -4  -8 72.1381 3.82797   3
   0  -4  -8 66.8477 4.27769   2
   0   4   8 70.7722 4.24056   1
  -1  -4  -8 -2.7201 1.79479   2
  -1  -4  -8 1.41928 1.77319   3
   1   4   8 4.46399 2.68019   1
  -2  -4  -8 1.83657 2.17503   2
   2   4   8 5.10702 2.93448   1
  -3  -4  -8 152.849 6.94823   2
   3   4   8 147.951 7.80036   1
  -4  -4  -8 92.7709 5.96685   2
   4   4   8 72.0450 10.8060   1
  -5  -4  -8 -1.0725 3.34203   2
   5   4   8 -0.2299 4.45827   1
   9  -5  -8 39.8346 5.60793   3
  -9   5   8 43.8871 5.33394   2
   8  -5  -8 17.9919 4.31114   3
  -8   5   8 20.6378 4.16056   2
   7  -5  -8 163.650 8.24389   3
  -7   5   8 170.485 8.02661   2
   6  -5  -8 127.887 6.79628   3
  -6   5   8 123.694 6.49877   2
   5  -5  -8 56.6894 4.85732   3
  -5   5   8 50.5313 4.46036   2
   4  -5  -8 0.89586 2.44402   3
  -4   5   8 2.83031 2.13546   2
   3  -5  -8 12.4131 2.63702   3
  -3   5   8 12.7966 2.39504   2
   2  -5  -8 69.6620 4.45097   3
   1  -5  -8 80.4637 4.41644   3
   1  -5  -8 73.5608 4.50597   2
  -1   5   8 70.5032 4.22990   1
   0  -5  -8 49.5956 4.11454   2
   0  -5  -8 49.2456 4.66894   3
   0   5   8 57.9165 4.55483   1
  -1  -5  -8 14.5034 2.48909   2
  -1  -5  -8 5.69609 4.06785   3
   1   5   8 7.08208 3.03963   1
  -2  -5  -8 15.0554 2.81078   2
   2   5   8 20.0817 3.61139   1
  -3  -5  -8 1.27711 2.82536   2
   3   5   8 2.85227 3.62951   1
  -4  -5  -8 19.9089 3.98374   2
   4   5   8 14.7856 4.71505   1
  -5  -5  -8 13.6296 4.25084   2
   5   5   8 7.73599 5.00625   1
   8  -6  -8 -0.4070 3.98278   3
  -8   6   8 -2.3286 3.91337   2
   7  -6  -8 33.3813 4.65531   3
  -7   6   8 43.3113 5.85678   2
   6  -6  -8 31.5375 4.06852   3
  -6   6   8 24.8382 3.95206   2
   5  -6  -8 14.5245 3.15010   3
  -5   6   8 16.7587 3.19558   2
   4  -6  -8 0.61159 2.69077   3
  -4   6   8 1.72737 2.47832   2
   3  -6  -8 183.946 7.68620   3
  -3   6   8 177.344 7.42337   2
   2  -6  -8 3.25741 2.41113   3
  -2   6   8 1.26072 2.50777   2
   1  -6  -8 -2.4029 2.17255   2
  -1   6   8 3.07365 2.47558   1
   0  -6  -8 -1.9336 2.60927   3
   0  -6  -8 2.52509 2.47127   2
   0   6   8 1.52551 2.94637   1
  -1  -6  -8 6.49598 2.69584   2
   1   6   8 3.96044 3.24248   1
  -2  -6  -8 103.859 6.12829   2
   2   6   8 104.050 7.13744   1
  -3  -6  -8 17.6385 3.45330   2
   3   6   8 -1.1789 6.63825   1
  -4  -6  -8 16.6996 3.87437   2
   4   6   8 0.65016 4.61460   1
   8  -7  -8 2.54144 4.99174   3
  -8   7   8 -0.4653 4.34986   2
   7  -7  -8 6.92568 4.38214   3
  -7   7   8 5.83908 4.02925   2
   6  -7  -8 39.1675 6.48080   3
  -6   7   8 55.9349 6.53317   2
   5  -7  -8 3.49341 3.42581   3
  -5   7   8 3.58563 3.19352   2
   4  -7  -8 8.82418 3.18298   3
  -4   7   8 14.1713 3.29190   2
   3  -7  -8 17.9789 3.32378   3
  -3   7   8 11.5742 2.99089   2
   2  -7  -8 85.3018 5.65670   3
  -2   7   8 93.5281 5.64966   2
   1  -7  -8 64.3535 5.20763   3
   0  -7  -8 39.7731 4.97594   3
   0  -7  -8 33.0736 3.77648   2
   1   7   8 38.6783 4.52919   1
  -2  -7  -8 79.6402 6.11781   2
   2   7   8 62.8905 7.27600   1
   2   7   8 84.2149 7.18094   4
  -3  -7  -8 23.5515 4.08812   2
   3   7   8 5.40423 4.61399   1
   7  -8  -8 -5.2535 4.29548   3
  -7   8   8 -1.4506 4.50109   2
   6  -8  -8 90.4018 7.70185   3
  -6   8   8 85.9091 7.41994   2
   5  -8  -8 204.192 9.47966   3
  -5   8   8 172.523 8.90062   2
   4  -8  -8 1.79715 3.49382   3
  -4   8   8 -1.4618 3.55574   2
   3  -8  -8 2.24451 3.28350   3
  -3   8   8 -1.3670 3.20370   2
   2  -8  -8 100.088 6.49121   3
  -2   8   8 99.1456 6.59215   2
   1  -8  -8 42.6070 5.38121   3
  -1   8   8 47.2675 5.93363   2
   0  -8  -8 12.9337 3.69482   3
  -1  -8  -8 -0.3908 4.25491   2
   1   8   8 -3.3788 4.42829   1
  -2  -8  -8 -1.1790 3.77534   2
   2   8   8 -1.5948 4.51730   1
   6  -9  -8 -7.3732 4.43081   3
  -6   9   8 3.85547 4.82767   2
   5  -9  -8 92.2768 7.74308   3
  -5   9   8 110.344 7.60857   2
   4  -9  -8 75.2219 7.18557   3
  -4   9   8 66.6225 7.16500   2
   3  -9  -8 -0.1990 4.13453   3
  -3   9   8 -1.1301 4.00752   2
   2  -9  -8 -2.8721 3.99655   3
  -2   9   8 6.53015 4.88377   2
   1  -9  -8 24.9727 4.32910   3
  -1   9   8 22.4039 4.86523   2
   0   9   8 17.6067 4.48326   2
   5 -10  -8 33.8833 5.55280   3
  -5  10   8 21.1486 5.40232   2
   4 -10  -8 42.6698 5.77281   3
  -4  10   8 56.8995 7.33092   2
   3 -10  -8 95.2783 8.41495   3
  -3  10   8 69.7443 7.60127   2
  -2  10   8 12.1249 4.40081   2
   1 -10  -8 -7.3342 4.50607   3
  -1  10   8 -1.5253 4.03496   2
   2  14  -9 38.3544 6.30410   3
  -2 -14   9 45.5953 5.85233   1
   1  14  -9 26.4498 5.27501   3
  -1 -14   9 31.1315 5.30759   1
   0  14  -9 26.9212 5.32221   3
   0 -14   9 16.4944 5.00012   1
  -1  14  -9 -2.2430 4.55984   3
   1 -14   9 16.4630 4.93753   1
  -2  14  -9 6.34046 4.95326   3
   2 -14   9 3.81264 5.10613   1
   4  13  -9 27.9745 5.57734   3
  -4 -13   9 25.4780 5.82891   1
   3  13  -9 69.4547 8.17427   3
  -3 -13   9 70.6494 7.81976   1
   2  13  -9 26.4617 4.93758   3
  -2 -13   9 25.0971 4.86003   1
   1  13  -9 67.1216 7.26593   3
  -1 -13   9 67.7677 6.85697   1
   0  13  -9 38.7174 5.12281   3
   0 -13   9 25.4979 4.60558   1
  -1  13  -9 55.6422 6.70254   3
   1 -13   9 57.6305 6.88314   1
  -2  13  -9 10.0540 6.42043   3
   2 -13   9 11.5516 4.47744   1
  -3  13  -9 0.84192 4.69631   3
   3 -13   9 2.26607 4.75201   1
   4 -13   9 -4.3323 5.25742   1
   5  12  -9 0.66255 5.12858   3
  -5 -12   9 -1.7114 4.76895   1
   4  12  -9 14.2300 4.57511   3
  -4 -12   9 17.9213 4.88741   1
   3  12  -9 7.22259 4.14513   3
  -3 -12   9 -4.0470 3.82406   1
   2  12  -9 72.8223 7.48795   3
  -2 -12   9 78.7098 9.27807   1
   1  12  -9 163.153 8.50493   3
  -1 -12   9 160.902 8.37659   1
   0  12  -9 23.2037 4.00136   3
   0 -12   9 16.6751 3.98044   1
  -1  12  -9 25.8457 3.96503   3
   1 -12   9 26.8223 4.24582   1
  -2  12  -9 77.7817 6.64058   3
   2 -12   9 71.3311 7.02602   1
  -3  12  -9 9.70215 4.33138   3
   3 -12   9 15.2270 4.66537   1
   4 -12   9 9.82041 4.54557   1
   6  11  -9 6.91022 5.36111   3
  -6 -11   9 6.77923 5.05699   1
   5  11  -9 4.21502 4.55634   3
  -5 -11   9 11.9005 4.65585   1
   4  11  -9 12.8361 4.14843   3
  -4 -11   9 18.1422 4.37462   1
   3  11  -9 19.0344 3.78088   3
  -3 -11   9 21.1540 3.91112   1
   2  11  -9 1.41545 3.21435   3
  -2 -11   9 0.55114 3.12028   1
   1  11  -9 165.195 7.97383   3
  -1 -11   9 173.898 8.09130   1
   0  11  -9 77.0347 5.71677   3
   0 -11   9 77.0877 5.89308   1
  -1  11  -9 10.0953 3.07606   3
   1 -11   9 6.07143 3.40710   1
  -2  11  -9 15.9353 3.45369   3
   2 -11   9 7.88560 3.58387   1
  -3  11  -9 -4.4654 3.67445   3
   3 -11   9 -2.3585 3.37937   1
  -4  11  -9 47.9755 6.07723   2
   4 -11   9 59.5257 6.21676   1
  -5  11  -9 3.35668 3.64996   2
   5 -11   9 3.21296 4.38332   1
   7  10  -9 -0.3971 5.21990   3
  -7 -10   9 -1.9674 5.10462   1
   6  10  -9 62.4350 7.82218   3
  -6 -10   9 49.7701 7.09681   1
   5  10  -9 50.5010 6.54869   3
   4  10  -9 35.0478 5.26541   3
  -4 -10   9 40.2318 5.50831   1
   3  10  -9 19.9018 3.40522   3
  -3 -10   9 22.2176 3.57683   1
   2  10  -9 -2.5352 2.67059   3
  -2 -10   9 -0.5594 2.86909   1
   1  10  -9 2.79978 2.48901   3
  -1 -10   9 3.98739 2.75123   1
   0  10  -9 -3.1583 2.62743   3
   0 -10   9 -0.0877 2.91678   1
  -1  10  -9 5.78081 2.73765   3
   1 -10   9 8.08956 3.04179   1
  -2  10  -9 5.96763 2.94680   3
  -2  10  -9 6.25834 2.44721   2
   2 -10   9 1.71354 2.86386   1
  -3  10  -9 120.502 6.23359   2
   3 -10   9 108.050 6.60370   1
  -4  10  -9 152.688 7.51678   2
   4 -10   9 152.149 7.72119   1
  -5  10  -9 9.36615 3.99118   2
   5 -10   9 4.02605 4.84576   1
  -6  10  -9 5.41643 3.62397   2
   6 -10   9 0.33327 4.47537   1
   7   9  -9 65.5029 8.13755   3
  -7  -9   9 65.8946 7.55449   1
   6   9  -9 12.7659 4.39768   3
  -6  -9   9 29.5339 6.38889   1
   5   9  -9 7.46822 3.42849   3
  -5  -9   9 8.34362 3.71423   1
   4   9  -9 13.0873 3.28167   3
  -4  -9   9 19.5967 3.39173   1
   3   9  -9 14.0503 2.89198   3
  -3  -9   9 15.8169 3.00024   1
   2   9  -9 57.8583 4.66792   3
  -2  -9   9 53.9313 4.57161   1
   1   9  -9 -1.7772 2.32468   3
  -1  -9   9 2.93030 2.48279   1
   0   9  -9 44.5229 4.22740   3
   0  -9   9 41.4151 4.20483   1
  -1   9  -9 113.783 5.72986   3
  -1   9  -9 108.423 4.71068   2
   1  -9   9 111.985 5.78199   1
  -2   9  -9 12.0746 2.70418   3
  -2   9  -9 19.1024 2.64019   2
   2  -9   9 16.4287 3.03231   1
  -3   9  -9 186.759 7.46628   2
   3  -9   9 174.885 7.89899   1
  -4   9  -9 202.464 8.43387   2
   4  -9   9 199.765 8.79957   1
  -5   9  -9 2.56831 3.25732   2
   5  -9   9 5.68267 3.58633   1
  -6   9  -9 2.66156 3.48372   2
   6  -9   9 -0.1508 4.09167   1
   8   8  -9 11.2142 5.33559   3
  -8  -8   9 7.36067 4.13851   1
   7   8  -9 29.7583 4.87864   3
  -7  -8   9 22.6592 4.50632   1
   6   8  -9 -3.0840 3.39390   3
  -6  -8   9 -1.6218 3.42708   1
   5   8  -9 122.059 6.68374   3
  -5  -8   9 117.532 6.56513   1
   4   8  -9 246.292 9.44549   3
  -4  -8   9 239.429 9.22233   1
   3   8  -9 13.6285 2.74784   3
  -3  -8   9 9.83035 2.70348   1
   2   8  -9 296.244 10.3558   3
  -2  -8   9 304.018 10.4891   1
   1   8  -9 386.684 12.3236   3
  -1  -8   9 363.766 12.3143   1
   0   8  -9 60.8896 3.21314   2
   0   8  -9 72.4513 4.19268   3
   0  -8   9 59.4303 4.23153   1
  -1   8  -9 9.75407 3.21639   3
  -1   8  -9 11.5727 1.86655   2
   1  -8   9 8.71986 2.49627   1
  -2   8  -9 -1.3555 1.94423   2
  -2   8  -9 1.06972 2.06756   3
   2  -8   9 -2.6790 2.16045   1
  -3   8  -9 0.95246 2.24770   2
   3  -8   9 2.38753 2.52363   1
  -4   8  -9 70.0825 5.08181   2
   4  -8   9 48.7724 5.16427   1
  -5   8  -9 15.6368 3.21809   2
   5  -8   9 17.3342 3.68022   1
  -6   8  -9 1.20863 3.42948   2
   6  -8   9 2.14295 3.98376   1
   8   7  -9 -2.1742 4.58369   3
  -8  -7   9 3.69889 3.90483   1
  -7  -7   9 62.3329 6.40034   1
   6   7  -9 -0.1632 3.14579   3
  -6  -7   9 -2.6557 3.05836   1
   5   7  -9 37.9550 4.81647   3
  -5  -7   9 43.8904 4.60677   1
   4   7  -9 312.873 11.0625   3
  -4  -7   9 318.622 10.9282   1
   3   7  -9 126.382 5.95438   3
  -3  -7   9 127.391 5.96697   1
   2   7  -9 16.4457 2.56547   3
  -2  -7   9 18.0356 2.57971   1
   1   7  -9 152.226 7.35874   3
  -1  -7   9 183.935 6.85572   1
   0   7  -9 3.80887 1.83641   3
   0   7  -9 2.32905 1.37646   2
   0  -7   9 2.45286 1.94619   1
  -1   7  -9 26.7528 2.98923   3
  -1   7  -9 28.2427 2.69653   2
   1  -7   9 28.5194 3.44968   1
  -2   7  -9 56.9766 3.69149   3
  -2   7  -9 63.4922 3.93418   2
   2  -7   9 68.7478 4.46822   1
  -3   7  -9 90.7702 4.97823   2
   3  -7   9 83.6308 5.59471   1
  -4   7  -9 18.6996 2.97149   2
   4  -7   9 20.1359 3.32577   1
  -5   7  -9 -0.1563 2.76787   2
   5  -7   9 -3.2559 3.19071   1
  -6   7  -9 28.7594 4.11076   2
   6  -7   9 33.2820 4.58321   1
   7  -7   9 5.53952 4.65374   1
   9   6  -9 36.9781 5.79381   3
  -9  -6   9 10.6894 4.34357   1
   8   6  -9 5.54655 4.39564   3
  -8  -6   9 10.1859 3.91135   1
   7   6  -9 0.86140 3.64916   3
  -7  -6   9 0.21608 3.38652   1
   6   6  -9 13.6399 3.29122   3
  -6  -6   9 12.5424 3.08755   1
   5   6  -9 17.4139 2.92511   3
  -5  -6   9 20.7925 2.87502   1
   4   6  -9 37.2009 3.87091   3
  -4  -6   9 36.9130 3.83913   1
   3   6  -9 5.59874 2.11780   3
  -3  -6   9 6.96463 2.16327   1
   2   6  -9 243.951 9.46616   3
  -2  -6   9 301.230 9.43687   1
   1   6  -9 702.144 20.4362   2
   1   6  -9 706.331 21.1110   3
  -1  -6   9 753.840 21.3790   1
   0   6  -9 8.51789 1.40176   2
   0   6  -9 6.26569 1.65926   3
   0  -6   9 7.43605 1.91086   1
  -1   6  -9 0.43036 1.47386   3
  -1   6  -9 -1.3782 1.32919   2
   1  -6   9 -1.0903 1.71497   1
  -2   6  -9 34.6345 3.21095   2
  -2   6  -9 31.0705 2.60338   3
   2  -6   9 33.7077 3.67384   1
  -3   6  -9 109.622 5.23496   2
   3  -6   9 105.839 5.73393   1
  -4   6  -9 25.1064 3.06442   2
   4  -6   9 30.8433 4.39009   1
  -5   6  -9 17.3266 3.17677   2
   5  -6   9 25.9270 3.84153   1
  -6   6  -9 3.52279 3.08346   2
   6  -6   9 0.73264 3.78707   1
  -7   6  -9 1.95388 3.51635   2
   7  -6   9 -3.2854 4.57763   1
   9   5  -9 8.07858 4.73915   3
  -9  -5   9 4.84847 5.32741   1
   8   5  -9 9.32562 4.20689   3
  -8  -5   9 7.28342 3.57493   1
   7   5  -9 23.4568 3.89839   3
  -7  -5   9 20.1337 3.54413   1
   6   5  -9 73.4576 5.38514   3
  -6  -5   9 77.8907 5.15289   1
   5   5  -9 330.428 11.4792   3
  -5  -5   9 335.180 11.1251   1
   4   5  -9 573.975 17.9907   3
  -4  -5   9 599.336 17.7237   1
   3   5  -9 5.47724 2.14671   3
   2   5  -9 11.2834 1.90375   3
   2   5  -9 14.7729 1.75724   2
  -2  -5   9 11.8913 2.07506   1
   1   5  -9 231.880 7.92230   3
   1   5  -9 240.691 7.49299   2
  -1  -5   9 244.792 8.22864   1
   0   5  -9 51.9828 2.83765   2
   0   5  -9 53.6746 3.01920   3
   0  -5   9 46.9656 3.93927   1
  -1   5  -9 2.26474 1.40220   2
  -1   5  -9 2.87637 1.38771   3
   1  -5   9 3.21227 1.85577   1
  -2   5  -9 76.9556 3.94613   2
   2  -5   9 78.3196 4.56872   1
  -3   5  -9 -1.8835 1.75136   2
   3  -5   9 6.21774 2.25864   1
  -4   5  -9 43.4761 4.02283   2
   4  -5   9 44.9466 4.71277   1
  -5   5  -9 3.50325 2.50728   2
   5  -5   9 4.86802 3.22529   1
  -6   5  -9 52.1477 5.52100   2
   6  -5   9 60.4340 6.56838   1
  -7   5  -9 19.6848 4.08824   2
   7  -5   9 25.6497 5.17097   1
   9   4  -9 32.6665 5.05709   3
   8   4  -9 133.785 8.17146   3
  -8  -4   9 124.309 7.11679   1
   7   4  -9 81.2372 6.06030   3
  -7  -4   9 82.1272 5.51335   1
   6   4  -9 0.93762 2.39603   3
  -6  -4   9 6.45675 2.41249   1
   5   4  -9 222.735 8.35113   3
  -5  -4   9 200.668 6.78766   2
  -5  -4   9 215.835 7.77123   1
   4   4  -9 60.0299 3.94778   3
  -4  -4   9 60.8092 3.73791   1
  -4  -4   9 54.3967 2.74141   2
   3   4  -9 6.36792 1.78652   3
  -3  -4   9 8.12279 1.90368   1
  -3  -4   9 5.36966 1.20063   2
   2   4  -9 -1.2076 1.51632   3
   2   4  -9 1.15008 1.09383   2
  -2  -4   9 -0.0052 1.54054   1
   1   4  -9 385.402 11.9040   3
   1   4  -9 395.480 11.6953   2
  -1  -4   9 393.841 12.1763   1
   0   4  -9 227.546 7.50128   3
   0   4  -9 239.678 7.66207   2
   0  -4   9 246.372 8.17096   1
  -1   4  -9 138.906 5.33767   2
  -1   4  -9 142.121 4.78316   3
   1  -4   9 145.024 5.87117   1
  -2   4  -9 46.3788 3.24281   2
   2  -4   9 40.8648 3.64761   1
  -3   4  -9 47.6585 3.59544   2
   3  -4   9 43.7094 4.05089   1
  -4   4  -9 133.598 6.08913   2
   4  -4   9 123.179 6.38931   1
  -5   4  -9 20.6340 3.26266   2
   5  -4   9 21.7871 3.69570   1
  -6   4  -9 9.13171 3.06662   2
   6  -4   9 13.7946 4.11874   1
  -7   4  -9 43.3793 4.76744   2
   7  -4   9 55.8607 7.48659   1
   9   3  -9 5.70340 4.13799   3
   8   3  -9 7.28055 3.58711   3
   7   3  -9 93.4440 6.14055   3
  -7  -3   9 96.0344 5.47495   1
  -7  -3   9 99.6834 4.88581   2
   6   3  -9 141.341 6.68168   3
  -6  -3   9 150.497 5.49089   2
   5   3  -9 1.86374 2.11714   3
  -5  -3   9 2.28387 1.48148   2
  -5  -3   9 3.16765 1.72410   1
   4   3  -9 12.7831 2.17633   3
  -4  -3   9 11.9790 1.50500   2
  -4  -3   9 13.8495 2.03395   1
   3   3  -9 72.8164 3.91476   3
  -3  -3   9 75.3600 3.71058   1
   2   3  -9 20.3114 2.02228   2
   2   3  -9 16.1918 2.41777   3
  -2  -3   9 20.3613 2.56698   1
   1   3  -9 218.854 7.03180   2
   1   3  -9 217.580 7.14511   3
  -1  -3   9 208.579 7.33707   1
   0   3  -9 248.379 7.67299   3
   0   3  -9 245.265 7.95934   2
   0  -3   9 241.999 8.28633   1
  -1   3  -9 72.8907 3.58732   2
   1  -3   9 77.1123 4.13202   1
  -2   3  -9 11.1852 1.92750   2
   2  -3   9 13.3052 2.38494   1
  -3   3  -9 22.7900 3.14653   2
   3  -3   9 19.3999 2.90116   1
  -4   3  -9 17.2252 2.70708   2
   4  -3   9 19.5020 3.27071   1
  -5   3  -9 104.329 5.86276   2
   5  -3   9 98.0953 6.38095   1
  -6   3  -9 37.3706 4.16179   2
   6  -3   9 41.5347 4.77855   1
  -7   3  -9 3.90794 3.56907   2
   7  -3   9 10.2580 4.66960   1
   9   2  -9 9.15486 4.18050   3
   8   2  -9 46.2169 5.77042   3
  -8  -2   9 60.6209 4.87047   2
   7   2  -9 6.28451 2.91601   3
  -7  -2   9 4.67973 2.33490   2
   6   2  -9 208.804 8.35481   3
  -6  -2   9 224.549 7.55479   1
  -6  -2   9 209.191 8.33428   2
   5   2  -9 73.2335 4.52419   3
  -5  -2   9 69.7028 3.54198   2
  -5  -2   9 71.0298 3.66032   1
   4   2  -9 28.1814 3.22492   3
  -4  -2   9 30.5156 2.43870   2
  -4  -2   9 28.5597 2.63416   1
   3   2  -9 51.1750 3.29647   3
  -3  -2   9 51.1951 3.05883   1
   2   2  -9 1.58164 1.48966   3
   2   2  -9 1.68779 1.20929   2
  -2  -2   9 0.69517 1.36982   1
   1   2  -9 2.08296 1.22708   2
   1   2  -9 0.44020 1.32826   3
  -1  -2   9 3.12692 1.59630   1
   0   2  -9 333.447 10.2710   2
   0   2  -9 316.214 9.75687   3
   0  -2   9 337.579 10.4961   1
  -1   2  -9 3.04953 1.62293   2
   1  -2   9 3.86538 1.85796   1
  -2   2  -9 4.13029 1.60018   2
   2  -2   9 0.59507 2.09633   1
  -3   2  -9 223.201 8.13842   2
   3  -2   9 221.635 8.51461   1
  -4   2  -9 163.913 6.92229   2
   4  -2   9 163.880 7.38683   1
  -5   2  -9 96.0922 5.71686   2
   5  -2   9 84.2878 6.34497   1
  -6   2  -9 142.759 7.50863   2
   6  -2   9 141.060 8.22245   1
   7  -2   9 52.8015 7.49250   1
   9   1  -9 58.3222 6.68823   3
  -9  -1   9 42.0934 5.40325   2
   8   1  -9 -4.0145 3.10787   3
  -8  -1   9 1.78121 2.70499   2
   7   1  -9 8.99245 3.07645   3
  -7  -1   9 10.7035 2.53919   2
   6   1  -9 5.20194 2.39236   3
  -6  -1   9 3.39472 1.94191   2
   5   1  -9 25.3504 3.33794   3
  -5  -1   9 25.5391 2.77573   2
  -5  -1   9 17.7764 2.42795   1
   4   1  -9 20.4638 2.95054   3
  -4  -1   9 24.1320 2.50459   2
  -4  -1   9 22.4562 2.36191   1
   3   1  -9 167.961 5.93283   2
   3   1  -9 167.981 6.22989   3
  -3  -1   9 168.809 5.76951   1
   2   1  -9 225.882 7.44467   3
   2   1  -9 217.139 7.30471   2
  -2  -1   9 220.730 7.25535   1
   1   1  -9 82.0303 3.66660   2
   1   1  -9 79.7211 3.46509   3
  -1  -1   9 74.8716 3.76200   1
   0   1  -9 205.044 6.57203   3
   0   1  -9 215.887 7.23507   2
   0  -1   9 214.239 7.32362   1
  -1   1  -9 67.4507 3.58294   2
   1  -1   9 60.7651 3.88947   1
  -2   1  -9 82.8508 4.26192   2
   2  -1   9 90.0605 4.91082   1
  -3   1  -9 141.968 6.22051   2
   3  -1   9 151.490 6.87096   1
  -4   1  -9 11.7916 2.60514   2
   4  -1   9 16.3632 3.41767   1
  -5   1  -9 3.44560 2.61006   2
   5  -1   9 5.07058 3.73177   1
  -6   1  -9 46.9437 5.63282   2
   6  -1   9 52.5762 5.63018   1
   9   0  -9 2.46528 3.85934   3
  -9   0   9 8.92550 3.40826   2
   8   0  -9 15.7224 3.65827   3
  -8   0   9 11.0604 2.84961   2
   7   0  -9 1.09581 2.71606   3
  -7   0   9 7.97586 2.47769   2
   6   0  -9 304.566 10.8465   3
  -6   0   9 306.957 10.1527   2
   5   0  -9 217.823 8.13039   3
  -5   0   9 207.777 7.46780   2
   4   0  -9 20.6006 3.02938   3
  -4   0   9 18.0765 2.51125   2
   3   0  -9 0.56424 1.66342   3
  -3   0   9 1.61500 1.32759   1
   2   0  -9 349.678 10.7437   3
   2   0  -9 340.800 10.6888   2
  -2   0   9 333.967 10.4114   1
   1   0  -9 200.510 6.69413   3
   1   0  -9 206.210 7.01921   2
  -1   0   9 205.155 6.96033   1
   0   0  -9 29.5030 2.10572   3
   0   0  -9 32.0758 2.82370   2
   0   0   9 31.7363 3.12091   1
  -1   0  -9 39.2105 2.99071   2
   1   0   9 34.5239 3.51177   1
  -2   0  -9 72.3172 4.07132   2
   2   0   9 73.4064 4.77293   1
  -3   0  -9 1.20340 1.89056   2
   3   0   9 1.54273 2.50876   1
  -4   0  -9 1.07190 2.07360   2
   4   0   9 5.17734 3.08485   1
  -5   0  -9 56.4598 6.12595   2
  -6   0  -9 46.5204 5.81360   2
   6   0   9 52.2043 7.38282   1
   9  -1  -9 51.4768 6.73381   3
   8  -1  -9 12.1741 3.72712   3
  -8   1   9 11.3791 3.03618   2
   7  -1  -9 15.0719 3.22357   3
  -7   1   9 20.1862 2.81784   2
   6  -1  -9 27.9604 4.07361   3
  -6   1   9 25.5904 3.59588   2
   5  -1  -9 624.214 19.0782   3
  -5   1   9 610.812 18.4794   2
   4  -1  -9 276.165 9.48261   3
  -4   1   9 268.635 9.01008   2
   3  -1  -9 19.9831 2.85429   3
   2  -1  -9 134.784 5.40016   2
   2  -1  -9 137.107 5.32658   3
  -2   1   9 134.536 5.02430   1
   1  -1  -9 61.0297 3.18576   3
   1  -1  -9 72.7123 3.75159   2
  -1   1   9 67.5402 3.57159   1
   0  -1  -9 56.7731 3.49751   2
   0  -1  -9 50.3172 2.81692   3
   0   1   9 56.7201 3.65118   1
  -1  -1  -9 19.8467 2.83533   2
   1   1   9 20.4310 2.73185   1
  -2  -1  -9 124.209 5.61894   2
   2   1   9 128.730 6.14553   1
  -3  -1  -9 193.723 7.76752   2
   3   1   9 208.390 8.46572   1
  -4  -1  -9 1.73597 2.39284   2
   4   1   9 6.31597 3.30129   1
  -5  -1  -9 3.09754 2.93925   2
   5   1   9 0.01764 3.84125   1
  -6  -1  -9 135.975 8.02895   2
   6   1   9 117.631 8.79832   1
   9  -2  -9 6.15309 4.03085   3
  -9   2   9 4.15994 3.75984   2
   8  -2  -9 92.9588 6.79977   3
  -8   2   9 84.3398 6.14069   2
   7  -2  -9 4.92686 2.83577   3
  -7   2   9 2.42165 2.73479   2
   6  -2  -9 109.920 5.90711   3
  -6   2   9 108.192 5.30194   2
   5  -2  -9 12.3829 2.62758   3
  -5   2   9 10.6792 2.26156   2
   4  -2  -9 16.7170 2.58579   3
  -4   2   9 16.5498 2.27461   2
   3  -2  -9 146.015 6.28574   3
   2  -2  -9 213.685 7.31880   2
   2  -2  -9 202.486 7.07020   3
  -2   2   9 186.785 6.65939   1
   1  -2  -9 62.1656 3.34338   3
   1  -2  -9 67.3975 3.89088   2
  -1   2   9 70.3192 3.67089   1
   0  -2  -9 0.01552 1.47951   3
   0  -2  -9 -2.4134 1.58666   2
   0   2   9 -0.3900 2.09060   1
  -1  -2  -9 5.25376 1.96289   2
   1   2   9 5.99614 2.51806   1
  -2  -2  -9 86.1415 4.71894   2
   2   2   9 86.7264 5.45542   1
  -3  -2  -9 139.519 6.31073   2
   3   2   9 123.125 6.99622   1
  -4  -2  -9 33.3359 4.59813   2
   4   2   9 24.5237 4.16643   1
  -5  -2  -9 12.0240 3.32596   2
   5   2   9 5.64192 4.39170   1
   9  -3  -9 30.0034 4.91706   3
  -9   3   9 21.5853 4.38074   2
   8  -3  -9 0.07416 3.65406   3
  -8   3   9 0.14175 3.28706   2
   7  -3  -9 8.15303 3.17656   3
  -7   3   9 1.27587 2.82090   2
   6  -3  -9 21.6540 3.28457   3
  -6   3   9 21.4824 3.00711   2
   5  -3  -9 748.886 22.7546   3
   4  -3  -9 141.512 6.33390   3
  -4   3   9 145.496 5.95651   2
   3  -3  -9 379.279 12.0456   3
  -3   3   9 358.492 11.8674   2
   2  -3  -9 609.544 18.1252   2
   2  -3  -9 587.741 18.8643   3
   1  -3  -9 48.2860 3.68249   2
   1  -3  -9 55.9916 3.51453   3
  -1   3   9 55.6041 3.65339   1
   0  -3  -9 0.99994 1.73032   3
   0  -3  -9 -1.8189 1.82877   2
   0   3   9 1.40784 2.26963   1
  -1  -3  -9 40.4598 3.69958   2
   1   3   9 37.7936 4.42164   1
  -2  -3  -9 18.0761 2.71960   2
   2   3   9 18.1866 3.34605   1
  -3  -3  -9 -0.1002 2.38151   2
   3   3   9 -1.1072 3.22957   1
  -4  -3  -9 16.4295 4.35466   2
   4   3   9 16.4941 4.36261   1
  -5  -3  -9 -0.2646 3.58433   2
   5   3   9 -1.4441 4.52357   1
   9  -4  -9 55.1229 7.59390   3
  -9   4   9 55.6637 6.82611   2
   8  -4  -9 28.5823 4.64218   3
  -8   4   9 37.0100 4.51306   2
   7  -4  -9 69.7055 5.94045   3
  -7   4   9 66.6068 5.69203   2
   6  -4  -9 13.5789 3.13356   3
  -6   4   9 19.0013 2.98316   2
   5  -4  -9 100.687 5.75713   3
  -5   4   9 103.722 5.46495   2
   4  -4  -9 90.5996 5.20988   3
  -4   4   9 82.3248 4.75899   2
   3  -4  -9 8.49138 2.45200   3
  -3   4   9 9.06715 2.23189   2
   2  -4  -9 -2.4142 1.81679   2
   2  -4  -9 -0.1436 2.13280   3
   1  -4  -9 38.0729 3.55630   2
  -1   4   9 33.4395 3.61016   1
   0  -4  -9 1.54804 2.14494   2
   0  -4  -9 -0.3676 1.95133   3
   0   4   9 -0.2283 2.46492   1
  -1  -4  -9 59.2492 4.51793   2
   1   4   9 64.4970 5.20368   1
  -2  -4  -9 51.2355 4.59290   2
   2   4   9 58.8907 5.53211   1
  -3  -4  -9 8.92161 2.98332   2
   3   4   9 12.5636 3.85738   1
   4   4   9 4.07467 4.21904   1
   5   4   9 16.4269 5.13088   1
   9  -5  -9 58.1414 8.10769   3
   8  -5  -9 5.69879 4.22379   3
  -8   5   9 3.06444 3.71699   2
   7  -5  -9 2.31454 4.00935   3
   6  -5  -9 14.0914 3.33872   3
  -6   5   9 11.3954 3.11173   2
   5  -5  -9 60.1487 5.08429   3
  -5   5   9 52.4766 4.77435   2
   4  -5  -9 11.5034 2.88915   3
  -4   5   9 15.0983 2.75914   2
   3  -5  -9 15.3129 2.92382   3
  -3   5   9 16.9721 2.73980   2
   2  -5  -9 47.3264 4.37169   3
   1  -5  -9 31.7463 3.99798   2
   1  -5  -9 37.0117 4.09443   3
  -1   5   9 31.0694 3.77811   1
   0  -5  -9 62.2268 4.80005   2
   0  -5  -9 66.6341 5.95251   3
   0   5   9 69.6189 5.07232   1
  -1  -5  -9 18.5312 3.09180   2
   1   5   9 23.7194 3.66699   1
  -2  -5  -9 45.5442 4.92116   2
   2   5   9 33.6353 4.54826   1
  -3  -5  -9 3.98995 4.58212   2
   3   5   9 7.43397 4.68549   1
  -4  -5  -9 13.9495 3.98134   2
   4   5   9 11.3842 4.60061   1
   8  -6  -9 6.15025 4.53518   3
  -8   6   9 3.40604 4.12738   2
   7  -6  -9 149.644 8.72584   3
  -7   6   9 150.253 8.14829   2
   6  -6  -9 72.5807 6.62447   3
  -6   6   9 65.2853 8.12270   2
   5  -6  -9 3.28579 3.35264   3
  -5   6   9 0.27833 3.11768   2
   4  -6  -9 -1.4839 3.03421   3
  -4   6   9 7.31493 2.83270   2
   3  -6  -9 -3.9252 2.70860   3
  -3   6   9 2.63236 2.64260   2
   2  -6  -9 1.29164 2.69143   3
  -2   6   9 -0.3461 2.72873   2
   1  -6  -9 16.9418 2.99001   2
   1  -6  -9 17.5486 3.06043   3
   0  -6  -9 19.4049 3.49801   3
   0  -6  -9 17.2763 3.25261   2
   0   6   9 17.5054 3.51732   1
  -1  -6  -9 39.8912 5.11409   2
   1   6   9 41.9886 6.01626   1
  -2  -6  -9 2.05289 4.37990   2
   2   6   9 2.09661 4.28957   1
  -3  -6  -9 5.82622 3.76640   2
   3   6   9 1.93687 4.47081   1
   7  -7  -9 7.48417 4.48290   3
  -7   7   9 10.2796 4.37687   2
   6  -7  -9 30.4681 4.82675   3
  -6   7   9 34.3849 4.74679   2
   5  -7  -9 1.21701 4.78885   3
  -5   7   9 -0.0011 5.96810   2
   4  -7  -9 62.3478 6.10502   3
  -4   7   9 67.3243 6.23735   2
   3  -7  -9 15.8610 3.48430   3
  -3   7   9 10.9161 3.39529   2
   2  -7  -9 6.21729 3.23764   3
  -2   7   9 13.8402 3.34564   2
   1  -7  -9 11.7807 3.53892   3
   0  -7  -9 2.75077 3.17486   2
   1   7   9 21.7978 4.67266   1
  -2  -7  -9 36.3562 4.57474   2
   2   7   9 9.71361 4.65595   1
   7  -8  -9 103.866 9.11738   3
  -7   8   9 101.667 8.31367   2
   6  -8  -9 75.5028 8.00236   3
  -6   8   9 86.1259 7.90188   2
   5  -8  -9 -6.9801 3.90440   3
  -5   8   9 2.49648 4.18647   2
   4  -8  -9 44.1404 6.26348   3
  -4   8   9 49.4221 6.45092   2
   3  -8  -9 101.703 7.24574   3
  -3   8   9 109.260 7.64419   2
   2  -8  -9 54.8384 6.04433   3
  -2   8   9 46.4145 7.77784   2
   1  -8  -9 5.11189 3.86381   3
  -1   8   9 14.0754 4.47735   2
  -1  -8  -9 3.59424 4.04975   2
   5  -9  -9 78.3378 7.87476   3
  -5   9   9 54.3626 6.01605   2
   4  -9  -9 5.68422 4.78468   3
  -4   9   9 9.11234 4.62372   2
   3  -9  -9 21.6027 4.63943   3
  -3   9   9 19.2026 4.81088   2
   2  -9  -9 5.07841 4.27308   3
  -2   9   9 0.49098 4.53871   2
   1  -9  -9 10.9668 4.53200   3
  -1   9   9 8.36540 4.35347   2
   0   9   9 2.54595 4.06231   2
   2  14 -10 10.1303 5.24798   3
  -2 -14  10 -0.2618 5.05086   1
   1  14 -10 76.6134 8.71893   3
  -1 -14  10 79.1749 8.22732   1
   0  14 -10 13.5004 5.10778   3
   0 -14  10 12.4803 5.24240   1
  -1  14 -10 -4.0637 5.17691   3
   1 -14  10 -1.7929 5.05996   1
   4  13 -10 91.5517 8.78540   3
  -4 -13  10 97.6059 8.85783   1
   3  13 -10 39.7813 5.58409   3
  -3 -13  10 31.1655 5.19332   1
   2  13 -10 2.45318 4.40899   3
  -2 -13  10 7.57822 4.43426   1
   1  13 -10 78.7284 7.75449   3
  -1 -13  10 80.4892 7.35564   1
   0  13 -10 129.965 8.46142   3
   0 -13  10 118.170 8.23216   1
  -1  13 -10 0.38606 4.31461   3
   1 -13  10 7.18468 4.37087   1
  -2  13 -10 4.82864 4.85477   3
   2 -13  10 -2.9136 4.52251   1
   3 -13  10 15.9690 5.20450   1
   5  12 -10 5.45771 5.06828   3
  -5 -12  10 4.19423 5.21560   1
   4  12 -10 79.8918 7.57839   3
  -4 -12  10 73.3482 7.60636   1
   3  12 -10 198.002 9.79495   3
  -3 -12  10 190.149 9.67592   1
  -2 -12  10 4.81216 3.89838   1
   1  12 -10 1.56755 3.72163   3
  -1 -12  10 5.32373 4.62564   1
   0  12 -10 14.4737 3.77431   3
   0 -12  10 23.9644 4.25072   1
  -1  12 -10 9.35100 3.94506   3
   1 -12  10 13.6700 4.32559   1
  -2  12 -10 21.0019 4.30480   3
   2 -12  10 20.3516 6.13952   1
   3 -12  10 -1.7935 4.28298   1
   4 -12  10 30.3163 5.26579   1
   6  11 -10 27.4931 6.07830   3
  -6 -11  10 31.1383 5.54402   1
   5  11 -10 5.20487 4.40721   3
  -5 -11  10 9.55754 4.55902   1
   4  11 -10 0.01181 3.63786   3
  -4 -11  10 4.64323 3.88744   1
   3  11 -10 34.2807 4.44436   3
  -3 -11  10 42.7308 5.72277   1
   2  11 -10 56.2257 5.88095   3
  -2 -11  10 50.3357 5.69462   1
   1  11 -10 -0.9020 3.12786   3
  -1 -11  10 5.06100 3.19626   1
   0  11 -10 5.76834 3.12195   3
   0 -11  10 3.94084 3.34522   1
  -1  11 -10 2.84213 3.18987   3
   1 -11  10 1.43753 3.44161   1
  -2  11 -10 7.10046 3.60917   3
   2 -11  10 2.04274 3.69463   1
   3 -11  10 -1.4936 3.82822   1
  -4  11 -10 6.80862 3.92415   2
   4 -11  10 5.44973 4.06217   1
   7  10 -10 27.7993 5.85486   3
  -7 -10  10 21.7292 5.57126   1
   6  10 -10 8.25182 4.84944   3
  -6 -10  10 15.1348 4.72181   1
   5  10 -10 84.1398 7.01280   3
  -5 -10  10 88.1334 6.97200   1
   4  10 -10 20.7813 3.90974   3
  -4 -10  10 18.6660 3.97195   1
   3  10 -10 3.72043 2.96398   3
  -3 -10  10 1.54833 3.23521   1
   2  10 -10 30.0357 3.71740   3
  -2 -10  10 35.3530 4.81214   1
   1  10 -10 6.30137 2.93056   3
  -1 -10  10 9.43101 3.01231   1
   0 -10  10 31.7678 3.80081   1
  -1  10 -10 98.1380 5.80463   3
   1 -10  10 93.3582 6.23658   1
  -2  10 -10 38.2990 5.12166   2
  -2  10 -10 53.4663 5.49228   3
   2 -10  10 50.6684 5.24273   1
  -3  10 -10 7.12119 3.10636   2
   3 -10  10 7.99423 3.54856   1
  -4  10 -10 35.1829 4.30299   2
  -5  10 -10 1.23648 3.49281   2
   5 -10  10 1.53279 4.04850   1
   7   9 -10 8.83726 4.91453   3
  -7  -9  10 22.4745 4.94914   1
   6   9 -10 16.6911 4.37405   3
  -6  -9  10 11.9548 4.28355   1
   5   9 -10 41.6546 5.63858   3
  -5  -9  10 42.8663 5.61419   1
   4   9 -10 117.769 6.59693   3
  -4  -9  10 122.873 6.79311   1
   3   9 -10 46.4754 4.73203   3
  -3  -9  10 51.1504 4.84383   1
   2   9 -10 53.7839 4.67092   3
  -2  -9  10 53.3616 4.73118   1
   1   9 -10 2.12115 2.51560   3
  -1  -9  10 3.11663 2.64452   1
   0   9 -10 4.37214 2.56170   3
   0  -9  10 4.64266 2.73451   1
  -1   9 -10 2.18956 1.89550   2
  -1   9 -10 1.55742 2.56924   3
   1  -9  10 5.78873 2.65477   1
  -2   9 -10 10.7084 2.94719   3
  -2   9 -10 8.08553 2.49268   2
   2  -9  10 11.3288 2.98244   1
  -3   9 -10 61.3570 4.99652   2
   3  -9  10 58.7593 5.44747   1
  -4   9 -10 -3.0594 3.06576   2
   4  -9  10 1.64873 3.39772   1
  -5   9 -10 80.2374 6.78104   2
   5  -9  10 83.9878 6.86868   1
   6  -9  10 21.2018 4.77030   1
  -8  -8  10 18.0734 4.68946   1
   7   8 -10 -0.6234 4.29867   3
  -7  -8  10 11.2120 4.18350   1
   6   8 -10 94.2816 6.90621   3
  -6  -8  10 95.0175 6.83120   1
   5   8 -10 22.6575 3.77524   3
  -5  -8  10 25.8809 3.84045   1
   4   8 -10 102.944 5.90587   3
  -4  -8  10 105.388 5.96528   1
   3   8 -10 188.026 8.17851   3
  -3  -8  10 186.398 7.79154   1
   2   8 -10 17.7306 2.82460   3
  -2  -8  10 19.0588 2.95274   1
   1   8 -10 -1.1917 2.11332   3
  -1  -8  10 1.52336 2.38206   1
   0   8 -10 119.501 5.53423   3
   0   8 -10 101.650 4.45523   2
   0  -8  10 116.002 5.69170   1
  -1   8 -10 135.893 5.49469   2
  -1   8 -10 134.542 5.95734   3
   1  -8  10 135.526 6.27160   1
  -2   8 -10 4.86853 2.28510   3
  -2   8 -10 -0.0019 2.04767   2
   2  -8  10 -0.5661 2.48948   1
  -3   8 -10 163.269 6.84147   2
   3  -8  10 138.111 7.07693   1
  -4   8 -10 25.9193 3.51678   2
   4  -8  10 19.7404 3.68853   1
  -5   8 -10 1.43380 3.37477   2
   5  -8  10 11.1360 3.94211   1
  -6   8 -10 74.8715 7.07240   2
   6  -8  10 73.4165 7.74591   1
   8   7 -10 -3.1903 4.74111   3
  -8  -7  10 3.02851 4.23333   1
   7   7 -10 42.9386 6.31540   3
  -7  -7  10 48.3816 6.21257   1
   6   7 -10 21.4349 3.80285   3
  -6  -7  10 30.8694 3.98383   1
   5   7 -10 102.898 5.99664   3
  -5  -7  10 97.7477 5.84857   1
   4   7 -10 75.7442 5.02430   3
  -4  -7  10 80.6226 5.15441   1
   3   7 -10 1.71145 2.20570   3
  -3  -7  10 0.18233 2.28786   1
   2   7 -10 6.31442 2.33904   3
  -2  -7  10 11.2649 2.49821   1
   1   7 -10 16.2536 2.51680   3
   1   7 -10 13.9094 1.67263   2
  -1  -7  10 10.3382 2.42731   1
   0   7 -10 92.7636 4.53383   3
   0   7 -10 92.1479 4.08855   2
   0  -7  10 102.626 5.09279   1
  -1   7 -10 84.4326 4.23309   3
  -1   7 -10 84.9620 4.27395   2
   1  -7  10 89.0844 5.06387   1
  -2   7 -10 28.0585 3.42634   2
   2  -7  10 28.0796 3.94075   1
  -3   7 -10 25.9406 2.97101   2
   3  -7  10 19.3571 3.19926   1
  -4   7 -10 42.0622 4.76934   2
   4  -7  10 47.5401 5.35663   1
   5  -7  10 7.62988 7.37983   1
  -6   7 -10 42.9803 6.12259   2
   6  -7  10 39.9965 5.17048   1
   8   6 -10 90.6986 7.86696   3
  -8  -6  10 71.4966 7.16491   1
   7   6 -10 69.6858 6.88501   3
  -7  -6  10 85.3574 6.20291   1
   6   6 -10 58.6784 5.44229   3
  -6  -6  10 63.3904 5.28573   1
   5   6 -10 4.50925 2.64885   3
  -5  -6  10 4.81808 2.58416   1
   4   6 -10 91.9428 5.22971   3
  -4  -6  10 85.7577 5.02973   1
   3   6 -10 212.943 8.15954   3
  -3  -6  10 223.307 8.13432   1
   2   6 -10 5.50393 1.29209   2
   2   6 -10 1.95845 2.05380   3
  -2  -6  10 4.80605 2.17082   1
   1   6 -10 47.9536 2.84281   2
   1   6 -10 48.0345 3.46152   3
  -1  -6  10 50.6830 3.73798   1
   0   6 -10 1.71262 1.69311   3
   0   6 -10 2.12690 1.39986   2
   0  -6  10 5.34328 2.06213   1
  -1   6 -10 101.291 4.28399   3
   1  -6  10 100.565 5.20496   1
  -2   6 -10 73.1273 4.27230   2
   2  -6  10 72.9121 4.91373   1
  -3   6 -10 134.841 5.97381   2
   3  -6  10 127.935 6.50952   1
  -4   6 -10 127.227 6.40070   2
   4  -6  10 123.139 6.73675   1
  -5   6 -10 2.94606 4.45337   2
   5  -6  10 3.64476 4.20432   1
  -6   6 -10 3.07320 3.44475   2
   6  -6  10 -2.9705 4.26407   1
   9   5 -10 24.4475 5.30532   3
   8   5 -10 -4.7946 3.87779   3
  -8  -5  10 0.94522 3.71415   1
   7   5 -10 194.443 9.30580   3
  -7  -5  10 204.303 8.54656   1
   6   5 -10 22.9009 3.46750   3
  -6  -5  10 19.0964 3.04576   1
   5   5 -10 33.4157 4.01640   3
  -5  -5  10 38.7531 3.87137   1
   4   5 -10 142.396 6.41350   3
  -4  -5  10 145.820 6.19039   1
   3   5 -10 0.66978 1.95975   3
  -3  -5  10 -0.9698 1.98230   1
  -3  -5  10 0.07478 1.28037   2
   2   5 -10 954.570 28.3820   3
   2   5 -10 957.631 27.7442   2
  -2  -5  10 1037.59 28.5379   1
   1   5 -10 201.274 7.24267   3
   1   5 -10 212.550 6.92610   2
  -1  -5  10 217.784 7.64211   1
   0   5 -10 82.2005 3.73637   2
   0   5 -10 79.2424 3.75975   3
   0  -5  10 84.7364 4.45294   1
  -1   5 -10 13.8356 1.96697   2
  -1   5 -10 11.2015 1.66195   3
   1  -5  10 16.5083 2.58598   1
  -2   5 -10 1.93540 1.83114   2
   2  -5  10 1.55720 2.22359   1
  -3   5 -10 2.07080 2.00792   2
   3  -5  10 3.30948 2.61254   1
  -4   5 -10 70.8868 4.84828   2
   4  -5  10 66.1223 5.59181   1
  -5   5 -10 4.60591 3.34010   2
   5  -5  10 -2.9170 3.76545   1
  -6   5 -10 4.12632 3.17576   2
   6  -5  10 2.54498 4.16429   1
   9   4 -10 18.1500 4.71602   3
   8   4 -10 28.7952 4.58823   3
  -8  -4  10 31.0692 4.61341   1
   7   4 -10 -2.0575 3.11513   3
  -7  -4  10 4.31451 2.89564   1
   6   4 -10 20.0288 3.18427   3
  -6  -4  10 19.4780 2.92302   1
   5   4 -10 62.0150 4.27871   3
  -5  -4  10 52.2556 4.01988   1
  -5  -4  10 53.9110 3.01448   2
   4   4 -10 168.273 6.94884   3
   3   4 -10 354.369 11.7473   3
  -3  -4  10 343.401 11.1515   1
   2   4 -10 143.613 5.86045   3
   2   4 -10 162.403 5.45143   2
  -2  -4  10 151.662 5.90945   1
   1   4 -10 322.838 9.98835   2
   1   4 -10 319.359 10.1239   3
   0   4 -10 6.23366 1.63785   3
   0   4 -10 4.17175 1.51646   2
   0  -4  10 6.37643 2.07029   1
  -1   4 -10 24.4572 2.70735   2
   1  -4  10 18.1935 2.68441   1
  -2   4 -10 12.8555 2.13884   2
   2  -4  10 15.4593 2.56384   1
  -3   4 -10 56.7987 4.12513   2
   3  -4  10 61.8523 4.79112   1
  -4   4 -10 58.3434 4.56169   2
   4  -4  10 58.2981 5.26988   1
  -5   4 -10 13.6848 5.15831   2
   5  -4  10 18.6028 5.07768   1
  -6   4 -10 19.5627 3.75624   2
   6  -4  10 17.3944 4.77751   1
   9   3 -10 60.9013 7.61281   3
   7   3 -10 4.80165 3.05806   3
  -7  -3  10 2.36811 4.02274   2
  -7  -3  10 7.52391 2.72213   1
   6   3 -10 49.6720 4.62832   3
  -6  -3  10 60.1757 4.13307   1
  -6  -3  10 49.0589 3.48041   2
   5   3 -10 10.8753 2.59718   3
  -5  -3  10 10.0246 1.82802   2
  -5  -3  10 10.0169 2.09687   1
   4   3 -10 0.21235 1.93077   3
  -4  -3  10 2.12425 1.41255   2
  -4  -3  10 1.06356 1.73777   1
   3   3 -10 11.6797 1.70547   2
   3   3 -10 12.0292 2.16998   3
  -3  -3  10 14.2121 2.14462   1
   2   3 -10 725.646 21.4153   3
   2   3 -10 739.744 21.1138   2
  -2  -3  10 724.812 21.3320   1
   1   3 -10 11.5284 1.83711   3
   1   3 -10 12.0470 1.72164   2
  -1  -3  10 12.2281 2.07382   1
   0   3 -10 57.8403 3.38034   2
   0   3 -10 60.8342 3.02721   3
   0  -3  10 64.7904 3.93844   1
  -1   3 -10 88.0333 4.21122   2
   1  -3  10 89.2975 4.77902   1
  -2   3 -10 8.29603 1.96273   2
   2  -3  10 9.12723 2.51008   1
  -3   3 -10 155.416 6.46442   2
   3  -3  10 144.483 6.88319   1
  -4   3 -10 130.111 6.32753   2
   4  -3  10 122.040 7.01381   1
  -5   3 -10 38.9454 5.40197   2
  -6   3 -10 27.1550 3.99201   2
   6  -3  10 26.6941 4.80561   1
   9   2 -10 1.57115 4.06803   3
   8   2 -10 39.1595 5.95007   3
  -8  -2  10 50.2392 4.92548   2
   7   2 -10 52.0018 5.14985   3
  -7  -2  10 42.2942 4.23010   2
   6   2 -10 121.599 6.23451   3
  -6  -2  10 125.969 5.21217   2
  -6  -2  10 124.808 5.32361   1
   5   2 -10 69.2332 4.54274   3
  -5  -2  10 74.6274 3.93754   1
  -5  -2  10 78.0950 3.78713   2
   4   2 -10 4.66628 2.04892   3
  -4  -2  10 3.04088 1.57454   2
  -4  -2  10 3.31786 1.65725   1
   3   2 -10 25.2992 2.54063   2
   3   2 -10 22.1912 2.89521   3
  -3  -2  10 19.3896 2.63127   1
   2   2 -10 0.49770 1.32183   2
   2   2 -10 2.16122 1.72509   3
  -2  -2  10 0.95469 1.65149   1
   1   2 -10 191.883 6.61706   2
   1   2 -10 183.146 6.40995   3
  -1  -2  10 189.054 6.85783   1
   0   2 -10 13.5223 1.98131   2
   0   2 -10 15.5642 2.05941   3
   0  -2  10 17.2536 2.46300   1
  -1   2 -10 154.934 5.96854   2
   1  -2  10 148.659 6.25683   1
  -2   2 -10 45.0084 3.46681   2
   2  -2  10 43.7795 4.29062   1
  -3   2 -10 1.55521 2.00188   2
   3  -2  10 0.94579 2.62975   1
  -4   2 -10 109.138 5.95908   2
   4  -2  10 114.217 6.67892   1
  -5   2 -10 115.587 6.64777   2
   5  -2  10 118.949 7.33108   1
  -6   2 -10 49.3414 6.04165   2
   6  -2  10 57.4172 7.06043   1
   9   1 -10 135.624 8.76605   3
  -9  -1  10 136.354 7.75622   2
   8   1 -10 125.476 7.55732   3
  -8  -1  10 111.773 6.15160   2
   7   1 -10 29.2479 3.84332   3
  -7  -1  10 29.3773 3.11376   2
   6   1 -10 150.524 7.13349   3
  -6  -1  10 149.067 6.06577   2
   5   1 -10 161.363 6.76143   3
  -5  -1  10 144.724 5.57877   1
  -5  -1  10 163.498 6.12419   2
   4   1 -10 72.3332 4.23950   3
  -4  -1  10 67.4527 3.56364   1
   3   1 -10 12.7762 1.93455   2
   3   1 -10 13.6765 2.22157   3
  -3  -1  10 16.2508 1.95892   1
   2   1 -10 24.4556 2.59961   2
   2   1 -10 24.3324 2.71155   3
  -2  -1  10 28.1446 2.79550   1
   1   1 -10 129.673 5.21750   2
   1   1 -10 123.278 4.81152   3
  -1  -1  10 126.574 5.22859   1
   0   1 -10 1.87826 1.51282   2
   0   1 -10 0.22519 1.29602   3
   0  -1  10 0.26950 2.00755   1
  -1   1 -10 16.0463 2.21520   2
   1  -1  10 14.2861 2.63210   1
  -2   1 -10 196.182 7.42241   2
   2  -1  10 195.784 7.84967   1
  -3   1 -10 236.699 8.77277   2
   3  -1  10 234.175 9.26632   1
  -4   1 -10 -2.3508 2.27150   2
   4  -1  10 4.91482 3.36251   1
  -5   1 -10 5.65012 3.01852   2
   5  -1  10 0.56861 3.74884   1
  -6   1 -10 10.7581 3.63807   2
   6  -1  10 0.97674 4.46882   1
   9   0 -10 0.62564 4.09127   3
  -9   0  10 3.58057 3.82953   2
   8   0 -10 138.590 8.70694   3
  -8   0  10 135.929 6.71087   2
   7   0 -10 166.463 7.84536   3
  -7   0  10 159.917 6.89240   2
   6   0 -10 55.4024 4.73606   3
  -6   0  10 69.5845 4.14987   2
   5   0 -10 4.87114 2.39375   3
  -5   0  10 2.15567 1.95168   2
   4   0 -10 361.120 12.0605   3
  -4   0  10 372.273 11.5943   2
   3   0 -10 126.064 6.69751   3
   3   0 -10 134.852 5.24483   2
  -3   0  10 114.448 4.81625   1
   2   0 -10 56.6661 3.54597   2
   2   0 -10 57.6796 3.45005   3
  -2   0  10 53.6448 3.30965   1
   1   0 -10 54.2767 3.38084   2
   1   0 -10 50.4571 2.96088   3
  -1   0  10 50.6475 3.48397   1
   0   0 -10 0.36305 1.55789   2
   0   0 -10 0.90305 1.36372   3
   0   0  10 1.30172 2.20162   1
  -1   0 -10 69.3688 4.11197   2
   1   0  10 66.5105 4.60841   1
  -2   0 -10 11.4627 2.28610   2
   2   0  10 10.9454 2.91584   1
  -3   0 -10 107.848 5.49720   2
   3   0  10 91.3087 6.27985   1
  -4   0 -10 109.546 6.18450   2
   4   0  10 107.283 7.27070   1
  -5   0 -10 3.26886 3.10221   2
   5   0  10 -6.6820 4.05208   1
   6   0  10 22.6825 5.46076   1
   9  -1 -10 4.10024 4.12379   3
  -9   1  10 0.67430 3.62080   2
   8  -1 -10 53.9898 8.38077   3
  -8   1  10 55.9857 5.19249   2
   7  -1 -10 53.8337 5.23924   3
  -7   1  10 48.5281 4.61309   2
   6  -1 -10 64.5029 5.21956   3
  -6   1  10 69.2595 4.49816   2
   5  -1 -10 126.144 6.23567   3
  -5   1  10 135.798 5.89144   2
   4  -1 -10 38.7922 3.86910   3
  -4   1  10 36.7834 3.40508   2
   3  -1 -10 83.1787 4.36647   3
   3  -1 -10 76.3137 4.17691   2
  -3   1  10 71.8587 3.58567   1
   2  -1 -10 5.41079 1.88884   3
   2  -1 -10 2.90410 1.73503   2
  -2   1  10 7.75302 1.87080   1
   1  -1 -10 71.1272 3.54347   3
   1  -1 -10 68.1140 4.10451   2
  -1   1  10 71.2900 4.05610   1
   0  -1 -10 401.809 12.1689   3
   0  -1 -10 410.121 13.0325   2
   0   1  10 415.275 12.9348   1
  -1  -1 -10 69.6596 4.30197   2
   1   1  10 74.2259 5.00902   1
  -2  -1 -10 1.11392 1.98623   2
   2   1  10 2.98198 2.81861   1
  -3  -1 -10 19.6553 2.88514   2
   3   1  10 22.7446 3.69299   1
  -4  -1 -10 16.4919 4.42766   2
  -5  -1 -10 0.20023 3.38571   2
   5   1  10 4.64580 4.59305   1
   9  -2 -10 40.8181 5.11754   3
  -9   2  10 52.9525 6.28998   2
   8  -2 -10 4.92921 3.67419   3
  -8   2  10 12.7130 3.35537   2
   7  -2 -10 211.366 9.21041   3
  -7   2  10 212.883 8.45506   2
   6  -2 -10 0.35444 2.80660   3
  -6   2  10 2.81326 2.38418   2
   5  -2 -10 149.098 6.76147   3
  -5   2  10 141.503 6.42330   2
   4  -2 -10 302.751 10.6089   3
  -4   2  10 309.755 10.2881   2
   3  -2 -10 170.134 6.73650   3
   2  -2 -10 24.4984 2.62403   2
   2  -2 -10 21.7576 2.92961   3
  -2   2  10 21.0793 2.88401   1
   1  -2 -10 60.9157 4.06324   2
   1  -2 -10 64.1221 3.56873   3
  -1   2  10 60.4466 4.09403   1
   0  -2 -10 149.348 6.17421   2
   0  -2 -10 138.712 5.33956   3
   0   2  10 148.499 6.32521   1
  -1  -2 -10 167.770 7.13195   2
   1   2  10 192.917 7.77969   1
  -2  -2 -10 10.5875 2.47492   2
   2   2  10 9.38433 3.19020   1
  -3  -2 -10 3.84869 2.61928   2
   3   2  10 -0.5046 3.40657   1
  -4  -2 -10 20.9266 3.62601   2
   4   2  10 18.8415 4.46732   1
  -5  -2 -10 15.3903 4.04729   2
   5   2  10 19.9757 5.09204   1
   9  -3 -10 26.2110 5.07758   3
  -9   3  10 35.5342 4.89120   2
   8  -3 -10 -4.0567 3.62142   3
  -8   3  10 5.28392 3.57228   2
   7  -3 -10 182.123 8.60000   3
  -7   3  10 175.511 7.77550   2
   6  -3 -10 26.5140 3.56317   3
  -6   3  10 22.6270 3.26890   2
   5  -3 -10 9.47134 2.94200   3
  -5   3  10 8.62625 2.53544   2
   4  -3 -10 4.12134 2.41956   3
  -4   3  10 0.39309 1.95674   2
   3  -3 -10 22.9958 2.86378   3
  -3   3  10 19.9683 2.84748   2
   2  -3 -10 116.787 5.62696   2
   2  -3 -10 134.954 5.69177   3
  -2   3  10 120.781 5.09271   1
   1  -3 -10 67.4437 4.01185   3
   1  -3 -10 63.0709 4.32603   2
  -1   3  10 68.2792 4.32200   1
   0  -3 -10 55.6905 4.22739   2
   0   3  10 50.3956 4.71864   1
  -1  -3 -10 18.7736 2.77186   2
   1   3  10 21.0928 3.37386   1
  -2  -3 -10 36.6536 4.41454   2
   2   3  10 39.4714 5.51546   1
  -3  -3 -10 30.4074 3.93244   2
   3   3  10 34.2798 4.78672   1
  -4  -3 -10 10.5440 3.52310   2
   4   3  10 17.7818 4.68534   1
   9  -4 -10 14.4080 4.99992   3
   8  -4 -10 56.2709 6.57510   3
  -8   4  10 60.5280 6.25955   2
   7  -4 -10 6.45295 4.72353   3
  -7   4  10 -1.4991 4.71238   2
   6  -4 -10 138.468 7.24374   3
  -6   4  10 124.993 6.68908   2
   5  -4 -10 12.5518 3.08141   3
  -5   4  10 5.23168 2.77916   2
   4  -4 -10 4.45657 2.60241   3
  -4   4  10 4.77644 2.53349   2
   3  -4 -10 4.34045 2.55310   3
  -3   4  10 3.00734 2.49364   2
   2  -4 -10 1.30779 2.18232   2
   2  -4 -10 -1.1515 2.52695   3
   1  -4 -10 9.12512 2.51779   3
   1  -4 -10 3.97562 2.28195   2
  -1   4  10 9.62169 3.91168   1
   0  -4 -10 2.80031 2.41066   2
   0   4  10 10.4905 2.95349   1
  -1  -4 -10 31.5391 4.34784   2
   1   4  10 31.2595 4.01865   1
  -2  -4 -10 44.9360 4.85637   2
   2   4  10 33.8815 4.62232   1
  -3  -4 -10 19.2456 3.67333   2
   3   4  10 19.7819 4.64114   1
  -4  -4 -10 4.58225 3.85630   2
   4   4  10 8.96216 5.10721   1
   8  -5 -10 2.30644 4.47058   3
  -8   5  10 -2.9016 4.05235   2
   7  -5 -10 6.70827 3.98123   3
  -7   5  10 10.1920 3.59776   2
   6  -5 -10 7.56764 3.71158   3
  -6   5  10 7.99618 3.47387   2
   5  -5 -10 71.4514 5.92656   3
  -5   5  10 64.0169 5.61551   2
   4  -5 -10 7.92318 2.98101   3
  -4   5  10 3.86978 2.68381   2
   3  -5 -10 3.78205 2.86934   3
  -3   5  10 -2.9186 2.52689   2
   2  -5 -10 13.1591 2.90450   3
   1  -5 -10 4.11713 2.64798   2
   1  -5 -10 3.18052 2.88897   3
   0  -5 -10 11.1914 2.91352   2
   0   5  10 12.1281 3.43385   1
  -1  -5 -10 1.34282 2.89447   2
   1   5  10 -0.2818 3.59221   1
  -2  -5 -10 99.1895 6.56506   2
   2   5  10 84.0060 7.78607   1
  -3  -5 -10 121.217 7.62397   2
   8  -6 -10 58.3808 7.76079   3
   7  -6 -10 9.27741 4.36754   3
  -7   6  10 11.3133 4.22351   2
   6  -6 -10 125.274 7.89861   3
  -6   6  10 129.916 7.83653   2
   5  -6 -10 5.76147 3.88319   3
   4  -6 -10 39.0260 4.38393   3
  -4   6  10 40.6619 5.47218   2
   3  -6 -10 58.8894 5.42577   3
  -3   6  10 43.3283 5.38911   2
   2  -6 -10 27.0560 3.68886   3
  -2   6  10 25.0392 3.81736   2
   1  -6 -10 91.7972 6.14153   3
   1  -6 -10 86.8688 5.94829   2
   0  -6 -10 10.2651 3.35142   2
  -1  -6 -10 2.17055 3.43153   2
   1   6  10 1.13955 4.19920   1
  -2  -6 -10 23.5458 4.13972   2
   2   6  10 9.20130 4.48815   1
   7  -7 -10 67.2513 7.94042   3
  -7   7  10 54.5304 7.37208   2
   6  -7 -10 57.2436 7.29689   3
  -6   7  10 58.1192 6.63345   2
   5  -7 -10 64.4774 7.03122   3
  -5   7  10 67.1416 7.12668   2
   4  -7 -10 9.54263 4.44479   3
  -4   7  10 6.85245 3.90231   2
   3  -7 -10 3.31773 3.65036   3
  -3   7  10 9.17733 3.95591   2
   2  -7 -10 21.2704 3.92635   3
  -2   7  10 23.8104 5.12760   2
   1  -7 -10 11.5932 4.19193   3
   0  -7 -10 14.5448 3.74760   2
  -1  -7 -10 7.08241 4.00460   2
   6  -8 -10 -6.3127 4.68065   3
  -6   8  10 3.99410 4.86184   2
   5  -8 -10 6.29745 4.61385   3
  -5   8  10 2.66112 4.69105   2
   4  -8 -10 29.3066 4.81454   3
  -4   8  10 19.8570 4.81947   2
   3  -8 -10 81.8452 7.30704   3
  -3   8  10 57.4974 7.36345   2
   2  -8 -10 1.87317 7.64094   3
  -2   8  10 -4.6062 4.23256   2
  -1   8  10 19.5343 4.82068   2
   4  -9 -10 9.87998 5.26455   3
   3  -9 -10 8.45889 5.21101   3
  -3   9  10 2.46160 4.82587   2
   2  -9 -10 10.2231 5.10950   3
   1  14 -11 -1.1791 5.15686   3
  -1 -14  11 -3.0927 4.94758   1
   0  14 -11 -4.6546 5.07407   3
   0 -14  11 -6.5531 4.89507   1
   3  13 -11 -3.0290 4.64699   3
  -3 -13  11 0.90969 4.77479   1
   2  13 -11 64.5857 7.76210   3
  -2 -13  11 72.5249 7.46565   1
   1  13 -11 26.6292 5.02581   3
  -1 -13  11 26.6577 4.96832   1
   0  13 -11 11.2520 4.66868   3
   0 -13  11 17.8649 4.56751   1
  -1  13 -11 24.1318 4.90509   3
   1 -13  11 14.3774 4.80176   1
   2 -13  11 6.90953 5.07203   1
   5  12 -11 66.9901 8.40288   3
  -5 -12  11 81.0658 8.63904   1
   4  12 -11 74.0800 7.83619   3
  -4 -12  11 49.2276 7.36897   1
   3  12 -11 5.89057 4.09807   3
  -3 -12  11 18.5131 4.47051   1
   2  12 -11 29.5827 4.44463   3
  -2 -12  11 24.7000 4.60492   1
   1  12 -11 127.735 7.81570   3
  -1 -12  11 119.928 7.95536   1
   0  12 -11 4.90225 3.91837   3
   0 -12  11 0.80610 4.11366   1
  -1  12 -11 -0.0236 3.84638   3
   1 -12  11 -1.7121 4.12405   1
   2 -12  11 8.89903 4.36731   1
   3 -12  11 103.148 8.27365   1
   6  11 -11 -4.3257 5.12343   3
  -6 -11  11 8.77328 5.51796   1
   5  11 -11 24.4529 4.88305   3
  -5 -11  11 21.1265 4.82229   1
   4  11 -11 63.8281 6.82024   3
  -4 -11  11 67.3495 6.92083   1
   3  11 -11 5.02583 3.93727   3
  -3 -11  11 -1.9480 5.32128   1
   2  11 -11 38.9532 5.34431   3
  -2 -11  11 28.4064 4.46049   1
   1  11 -11 27.3369 3.89933   3
  -1 -11  11 25.1744 4.08657   1
   0  11 -11 21.0779 3.72803   3
   0 -11  11 14.4354 4.00492   1
  -1  11 -11 -5.8368 3.38861   3
   1 -11  11 2.67735 3.66615   1
   3 -11  11 100.765 7.41467   1
   4 -11  11 98.5949 7.96150   1
   6  10 -11 22.6033 4.89449   3
  -6 -10  11 23.0726 5.05774   1
   5  10 -11 17.3974 4.34995   3
  -5 -10  11 16.1390 4.35152   1
   4  10 -11 0.64613 3.54162   3
  -4 -10  11 0.26226 3.62991   1
   3  10 -11 12.9693 3.41022   3
  -3 -10  11 11.2711 3.60228   1
   2  10 -11 11.0665 3.10075   3
  -2 -10  11 5.24426 3.31201   1
   1  10 -11 122.098 6.44651   3
  -1 -10  11 110.857 6.77782   1
   0  10 -11 34.4467 4.76756   3
   0 -10  11 32.8057 4.02879   1
  -1  10 -11 7.93658 3.25351   3
   1 -10  11 4.55428 3.22067   1
   2 -10  11 -1.7516 3.30437   1
  -3  10 -11 13.2726 3.36257   2
  -4  10 -11 55.7824 7.74532   2
   4 -10  11 86.9930 6.95547   1
   5 -10  11 37.8606 5.34430   1
   7   9 -11 8.02757 5.04710   3
  -7  -9  11 5.94472 4.54368   1
   6   9 -11 293.196 11.9880   3
  -6  -9  11 267.228 11.6255   1
   5   9 -11 254.415 10.8285   3
  -5  -9  11 249.201 10.4449   1
   4   9 -11 2.11046 3.12306   3
  -4  -9  11 -0.4265 3.08013   1
   3   9 -11 66.9731 5.45101   3
  -3  -9  11 74.4564 5.55879   1
   2   9 -11 -0.7603 2.65027   3
  -2  -9  11 5.19595 2.90614   1
   1   9 -11 17.7231 2.92970   3
  -1  -9  11 13.3077 3.06169   1
   0   9 -11 -2.1645 2.62968   3
   0  -9  11 3.16755 2.75287   1
  -1   9 -11 1.28386 2.28192   2
  -1   9 -11 2.42269 2.69538   3
   1  -9  11 5.48598 2.93675   1
  -2   9 -11 7.62943 2.68276   2
   2  -9  11 7.29433 3.09997   1
  -3   9 -11 174.369 7.57122   2
   3  -9  11 155.206 8.10501   1
  -4   9 -11 73.6244 6.47242   2
   4  -9  11 77.1717 6.72330   1
  -5   9 -11 64.5189 6.95345   2
   5  -9  11 91.8152 7.46601   1
   7   8 -11 51.5599 7.43319   3
  -7  -8  11 48.1438 6.82711   1
   6   8 -11 59.8350 7.91358   3
  -6  -8  11 64.5277 6.18438   1
   5   8 -11 50.6641 5.22786   3
  -5  -8  11 61.3644 5.56516   1
   4   8 -11 3.79942 2.90870   3
  -4  -8  11 5.90600 3.04474   1
   3   8 -11 7.10324 2.62198   3
  -3  -8  11 8.90035 2.96733   1
   2   8 -11 7.71964 2.63629   3
  -2  -8  11 7.50988 2.90817   1
   1   8 -11 92.5121 4.93837   3
  -1  -8  11 82.2371 5.35489   1
   0   8 -11 29.3914 3.06682   2
   0   8 -11 27.5100 3.93547   3
   0  -8  11 25.9650 3.20078   1
  -1   8 -11 0.40062 3.41999   3
  -1   8 -11 0.62665 2.04110   2
   1  -8  11 -0.7779 2.50716   1
  -2   8 -11 93.0454 5.20710   2
   2  -8  11 99.0733 5.93030   1
  -3   8 -11 64.5152 4.96512   2
   3  -8  11 58.8458 5.49007   1
  -4   8 -11 190.457 8.44679   2
  -5   8 -11 -0.2473 3.44018   2
   5  -8  11 3.00102 4.06284   1
   8   7 -11 16.1626 5.39575   3
  -8  -7  11 10.9229 4.25452   1
   7   7 -11 13.0344 4.52663   3
  -7  -7  11 23.8577 4.27855   1
   6   7 -11 47.1133 5.61874   3
  -6  -7  11 52.6294 5.80202   1
   5   7 -11 96.5532 5.96984   3
  -5  -7  11 98.6284 6.05046   1
   4   7 -11 11.1914 2.80260   3
  -4  -7  11 15.6804 3.01975   1
   3   7 -11 1.38859 2.32342   3
  -3  -7  11 0.49728 2.52580   1
   2   7 -11 124.507 5.77159   3
  -2  -7  11 116.780 5.91240   1
   1   7 -11 160.133 5.79462   2
   1   7 -11 169.816 6.73634   3
  -1  -7  11 164.935 6.96118   1
   0   7 -11 142.484 5.80983   3
   0   7 -11 145.232 5.58423   2
   0  -7  11 145.022 6.46946   1
  -1   7 -11 33.7746 3.25322   3
  -1   7 -11 27.0398 3.41363   2
   1  -7  11 27.0818 4.09585   1
  -2   7 -11 5.09845 2.27304   2
   2  -7  11 5.63956 2.75803   1
  -3   7 -11 18.2250 2.92810   2
   3  -7  11 16.1930 3.51125   1
  -4   7 -11 -1.2342 2.63055   2
   4  -7  11 -0.8160 3.54011   1
  -5   7 -11 42.8131 5.68487   2
   5  -7  11 47.9502 5.35601   1
   6  -7  11 2.49303 4.88447   1
   8   6 -11 -4.5404 4.27853   3
  -8  -6  11 7.08504 6.44600   1
   7   6 -11 20.9534 6.35303   3
  -7  -6  11 17.6425 3.97709   1
   6   6 -11 0.14434 3.33925   3
  -6  -6  11 -2.7028 2.93415   1
   5   6 -11 40.8571 4.79410   3
  -5  -6  11 41.2476 4.52739   1
   4   6 -11 263.770 10.0967   3
  -4  -6  11 287.049 10.0019   1
   3   6 -11 61.8325 4.41909   3
  -3  -6  11 86.7314 4.85488   1
   2   6 -11 12.0196 2.42830   3
  -2  -6  11 11.5909 2.56989   1
   1   6 -11 19.1931 2.62291   2
   1   6 -11 24.2612 3.08484   3
  -1  -6  11 23.8691 2.80734   1
   0   6 -11 39.3119 3.40589   3
   0   6 -11 45.7237 3.24427   2
   0  -6  11 46.0442 4.04021   1
  -1   6 -11 202.834 7.28297   2
   1  -6  11 202.492 8.02118   1
  -2   6 -11 117.387 5.54709   2
   2  -6  11 123.856 6.31716   1
  -3   6 -11 35.3827 4.15003   2
   3  -6  11 29.3027 3.91950   1
  -4   6 -11 4.17459 2.64629   2
   4  -6  11 5.02221 3.57146   1
  -5   6 -11 2.12405 3.21720   2
   5  -6  11 2.26451 4.09552   1
  -6   6 -11 1.93199 3.74769   2
   6  -6  11 0.30846 4.55112   1
   9   5 -11 62.6147 8.45814   3
   8   5 -11 5.84385 4.29272   3
  -8  -5  11 16.3614 4.16854   1
   7   5 -11 -0.4587 3.43592   3
  -7  -5  11 -2.2360 3.30889   1
   6   5 -11 38.4765 5.03089   3
  -6  -5  11 38.5764 4.69343   1
   5   5 -11 40.8941 4.48948   3
  -5  -5  11 47.0239 4.35334   1
   4   5 -11 74.1916 4.80791   3
  -4  -5  11 79.5221 4.83636   1
   3   5 -11 101.575 5.22857   3
  -3  -5  11 114.969 5.37751   1
   2   5 -11 256.487 8.36448   2
  -2  -5  11 261.090 9.09377   1
   1   5 -11 159.676 5.75928   2
   1   5 -11 153.009 5.95019   3
  -1  -5  11 160.398 6.47680   1
   0   5 -11 5.85045 2.15023   2
   0   5 -11 8.90709 1.87886   3
   0  -5  11 9.19431 2.40633   1
  -1   5 -11 5.56518 1.83992   2
   1  -5  11 5.26213 2.37062   1
  -2   5 -11 66.0612 4.37115   2
   2  -5  11 65.3829 4.88475   1
  -3   5 -11 59.6030 4.58362   2
   3  -5  11 65.6603 5.41968   1
  -4   5 -11 4.84250 2.69471   2
   4  -5  11 1.78354 3.31264   1
  -5   5 -11 19.0165 3.53136   2
   5  -5  11 24.9868 4.73545   1
  -6   5 -11 8.46355 3.76357   2
   6  -5  11 12.1166 4.88616   1
   9   4 -11 2.67228 4.76792   3
   8   4 -11 70.6003 6.98809   3
   7   4 -11 -7.3359 3.21412   3
  -7  -4  11 4.50875 2.99700   1
   6   4 -11 41.8503 5.01384   3
  -6  -4  11 48.9487 4.40340   1
   5   4 -11 155.802 7.09429   3
  -5  -4  11 149.356 5.66409   2
  -5  -4  11 158.470 6.44396   1
   4   4 -11 166.196 7.03926   3
  -4  -4  11 180.414 6.84454   1
  -4  -4  11 166.513 6.04955   2
   3   4 -11 116.422 5.50928   3
   3   4 -11 116.660 4.80197   2
  -3  -4  11 123.991 5.46905   1
   2   4 -11 0.93322 1.88674   3
   2   4 -11 1.06970 1.46089   2
  -2  -4  11 1.16950 1.88066   1
   1   4 -11 7.71881 1.91873   3
   1   4 -11 5.78808 1.58867   2
  -1  -4  11 8.30089 2.24123   1
   0   4 -11 1.03189 1.62082   3
   0   4 -11 -0.1272 1.56100   2
   0  -4  11 0.62084 2.00544   1
  -1   4 -11 144.872 5.96686   2
   1  -4  11 154.430 6.60417   1
  -2   4 -11 103.372 5.13273   2
   2  -4  11 109.155 5.90243   1
  -3   4 -11 12.5448 2.43856   2
   3  -4  11 13.0527 3.15536   1
  -4   4 -11 53.3897 4.87911   2
   4  -4  11 54.2200 5.91425   1
  -5   4 -11 34.8091 4.16037   2
   5  -4  11 37.4354 4.97098   1
  -6   4 -11 68.2699 6.95138   2
   6  -4  11 75.6298 8.07941   1
   9   3 -11 107.016 8.85742   3
   8   3 -11 28.7401 4.63212   3
   7   3 -11 4.40862 3.37809   3
   6   3 -11 24.6551 3.47109   3
  -6  -3  11 23.3802 3.26074   2
  -6  -3  11 24.4427 3.00382   1
   5   3 -11 80.4267 5.22243   3
  -5  -3  11 85.7319 4.10584   2
   4   3 -11 142.035 6.43193   3
  -4  -3  11 158.228 5.75451   2
  -4  -3  11 154.706 6.07129   1
   3   3 -11 11.1568 2.32069   3
   3   3 -11 9.12064 1.79963   2
  -3  -3  11 9.33148 2.12187   1
   2   3 -11 99.5975 4.57808   3
   2   3 -11 94.1324 4.34193   2
   1   3 -11 117.276 4.72238   3
   1   3 -11 104.524 5.06877   2
  -1  -3  11 114.303 5.22348   1
   0   3 -11 50.4951 3.41261   2
   0   3 -11 48.0019 2.90311   3
   0  -3  11 51.4882 4.04256   1
  -1   3 -11 -1.8521 1.64556   2
   1  -3  11 6.45735 2.57354   1
  -2   3 -11 434.067 14.0468   2
   2  -3  11 446.929 14.5440   1
  -3   3 -11 303.192 10.8375   2
   3  -3  11 316.255 11.3247   1
  -4   3 -11 8.74137 2.88555   2
   4  -3  11 7.27098 3.49695   1
  -5   3 -11 31.7085 4.09598   2
   5  -3  11 35.7604 4.95408   1
   6  -3  11 69.8037 7.94717   1
   9   2 -11 24.1255 4.98213   3
   8   2 -11 157.977 8.72672   3
   7   2 -11 71.2107 5.86100   3
  -7  -2  11 72.8743 4.90847   2
   6   2 -11 49.9891 4.69143   3
  -6  -2  11 54.1843 4.00672   2
  -6  -2  11 39.5734 5.48569   1
   5   2 -11 2.09202 2.34068   3
  -5  -2  11 -4.7508 1.96423   2
  -5  -2  11 0.36666 1.90589   1
   4   2 -11 65.5742 4.40590   3
  -4  -2  11 64.1866 3.90197   1
  -4  -2  11 69.0887 4.10257   2
   3   2 -11 333.740 13.0031   2
   3   2 -11 380.252 11.6587   3
  -3  -2  11 346.580 11.1597   1
   2   2 -11 60.7417 3.64549   2
   2   2 -11 56.2243 3.62713   3
  -2  -2  11 53.3802 3.76927   1
   1   2 -11 17.3377 2.08612   3
   1   2 -11 16.5396 2.10074   2
  -1  -2  11 14.6721 2.45076   1
   0   2 -11 107.779 4.21504   3
   0   2 -11 116.174 5.02088   2
   0  -2  11 115.138 5.38707   1
  -1   2 -11 18.6652 2.37636   2
   1  -2  11 16.9756 2.91651   1
  -2   2 -11 38.3301 3.74140   2
   2  -2  11 34.2120 4.37245   1
  -3   2 -11 36.4275 4.14021   2
   3  -2  11 38.8780 5.16105   1
  -4   2 -11 14.3304 3.27786   2
   4  -2  11 16.9177 4.45062   1
  -5   2 -11 28.8214 3.86488   2
   5  -2  11 21.4298 4.60729   1
   9   1 -11 53.3172 7.31375   3
   8   1 -11 36.4049 4.67381   3
  -8  -1  11 41.2119 4.92788   2
   7   1 -11 130.502 7.06130   3
  -7  -1  11 119.962 5.97557   2
   6   1 -11 341.291 12.1326   3
  -6  -1  11 336.499 11.1220   2
   5   1 -11 62.5593 4.75175   3
  -5  -1  11 61.8717 4.12477   2
   4   1 -11 33.1627 3.71621   3
  -4  -1  11 30.8451 3.36903   2
  -4  -1  11 23.9441 3.05638   1
   3   1 -11 60.4809 4.13420   3
   3   1 -11 66.1358 3.85175   2
  -3  -1  11 61.8027 3.78634   1
   2   1 -11 133.662 5.44163   2
   2   1 -11 125.239 5.34230   3
  -2  -1  11 129.695 5.38482   1
   1   1 -11 14.7211 2.02012   3
   1   1 -11 12.4286 2.06165   2
  -1  -1  11 14.9570 2.50898   1
   0   1 -11 60.9904 3.92858   2
   0  -1  11 64.3491 4.40966   1
  -1   1 -11 3.05767 1.93059   2
   1  -1  11 2.86259 2.50040   1
  -2   1 -11 95.0640 5.22200   2
   2  -1  11 99.6016 6.00201   1
  -3   1 -11 61.4597 4.85229   2
   3  -1  11 73.4179 5.78197   1
  -4   1 -11 3.24016 2.91177   2
   4  -1  11 -0.7599 4.07630   1
  -5   1 -11 114.333 7.33831   2
   5  -1  11 111.571 8.27665   1
   9   0 -11 63.4778 7.38826   3
  -9   0  11 50.6300 6.27458   2
   8   0 -11 27.3942 4.38445   3
  -8   0  11 28.2490 3.63594   2
   7   0 -11 1.12176 3.19066   3
  -7   0  11 6.90387 2.54027   2
   6   0 -11 116.452 6.58845   3
  -6   0  11 124.587 5.66911   2
   5   0 -11 23.1058 3.22051   3
  -5   0  11 16.5697 2.53293   2
   4   0 -11 35.1092 3.87551   3
  -4   0  11 32.7070 3.56543   2
   3   0 -11 201.387 7.45327   3
   3   0 -11 186.227 7.13702   2
  -3   0  11 184.256 6.69771   1
   2   0 -11 247.253 8.50023   2
   2   0 -11 242.555 8.27043   3
  -2   0  11 232.621 8.12254   1
   1   0 -11 167.987 6.51064   2
   1   0 -11 155.551 5.86552   3
  -1   0  11 166.612 6.71121   1
   0   0 -11 0.35802 1.86097   2
   0   0  11 1.94603 2.28379   1
  -1   0 -11 262.129 9.63572   2
   1   0  11 287.415 10.1361   1
  -2   0 -11 146.579 6.70162   2
   2   0  11 159.219 7.43603   1
  -3   0 -11 8.84051 2.76118   2
   3   0  11 11.6559 3.81280   1
  -4   0 -11 8.86653 3.14549   2
   4   0  11 18.0947 4.35869   1
  -5   0 -11 7.62778 3.67440   2
   5   0  11 0.28578 4.58286   1
   9  -1 -11 -1.4626 4.25861   3
  -9   1  11 4.27712 3.70567   2
   8  -1 -11 1.23209 3.59432   3
  -8   1  11 8.89357 3.29424   2
   7  -1 -11 19.0606 3.74550   3
  -7   1  11 28.6761 3.18570   2
   6  -1 -11 50.5385 5.14544   3
  -6   1  11 56.2638 4.52244   2
   5  -1 -11 55.9935 4.67611   3
  -5   1  11 57.1928 4.47575   2
   4  -1 -11 109.314 5.67028   3
  -4   1  11 118.514 5.43509   2
   3  -1 -11 -0.6127 1.86034   2
   3  -1 -11 1.05991 2.15053   3
  -3   1  11 -1.5691 1.77167   1
   2  -1 -11 804.430 24.0838   2
   2  -1 -11 819.199 24.2299   3
  -2   1  11 822.189 23.6380   1
   1  -1 -11 204.973 7.24298   3
   1  -1 -11 208.863 7.88215   2
  -1   1  11 211.533 7.73380   1
   0  -1 -11 13.7382 2.37786   2
   0   1  11 20.3623 3.08641   1
  -1  -1 -11 91.7977 5.13757   2
   1   1  11 97.9587 5.75994   1
  -2  -1 -11 51.9057 4.49515   2
   2   1  11 50.9342 5.58745   1
  -3  -1 -11 52.3184 5.05447   2
   3   1  11 56.1505 6.31024   1
  -4  -1 -11 -0.7517 3.26047   2
   4   1  11 -5.8322 4.27921   1
  -5  -1 -11 8.11350 3.91636   2
   5   1  11 6.66520 5.14581   1
   9  -2 -11 114.182 8.56300   3
  -9   2  11 97.3202 7.68010   2
   8  -2 -11 1.39768 3.85107   3
  -8   2  11 9.12864 3.49077   2
   7  -2 -11 39.5723 5.37962   3
  -7   2  11 33.5049 4.46247   2
   6  -2 -11 135.273 7.19021   3
  -6   2  11 130.452 6.55418   2
   5  -2 -11 69.4299 5.02199   3
  -5   2  11 65.4027 4.84248   2
   4  -2 -11 3.25944 2.51794   3
  -4   2  11 4.15357 2.26327   2
   3  -2 -11 21.9988 2.91751   3
   2  -2 -11 9.55468 2.35693   3
   2  -2 -11 4.15974 2.20102   2
  -2   2  11 7.96341 2.23707   1
   1  -2 -11 26.3900 3.46327   3
   1  -2 -11 25.1078 2.97364   2
  -1   2  11 36.7899 3.88088   1
   0  -2 -11 42.0416 3.94658   2
   0   2  11 36.1746 4.31537   1
  -1  -2 -11 159.942 7.18840   2
   1   2  11 172.593 7.78071   1
  -2  -2 -11 22.9944 3.07944   2
   2   2  11 21.5345 4.19686   1
  -3  -2 -11 -2.6505 2.86718   2
   3   2  11 -4.3956 6.46561   1
  -4  -2 -11 18.4102 3.82832   2
   4   2  11 13.0600 4.88763   1
   9  -3 -11 26.0441 5.25565   3
   8  -3 -11 42.0268 5.11719   3
  -8   3  11 45.9926 5.94566   2
   7  -3 -11 8.94498 3.65553   3
  -7   3  11 12.0697 3.87605   2
   6  -3 -11 -0.7484 3.08868   3
  -6   3  11 3.88155 3.17677   2
   5  -3 -11 9.78288 3.14967   3
  -5   3  11 6.59758 2.76427   2
   4  -3 -11 3.83020 2.63121   3
  -4   3  11 2.80436 2.33388   2
   3  -3 -11 9.80221 2.62423   3
  -3   3  11 5.68318 2.65038   2
   2  -3 -11 156.529 6.66952   3
   2  -3 -11 144.596 6.60746   2
   1  -3 -11 4.11215 2.50889   3
   1  -3 -11 -0.1295 2.23674   2
  -1   3  11 8.77149 2.85921   1
   0  -3 -11 11.2111 2.80392   2
   0   3  11 7.55362 3.06632   1
  -1  -3 -11 1.88236 2.51507   2
   1   3  11 7.92495 3.51871   1
  -2  -3 -11 20.3075 4.39834   2
   2   3  11 20.9533 4.34628   1
  -3  -3 -11 142.547 7.49499   2
   3   3  11 117.284 8.45174   1
  -4  -3 -11 19.3828 4.16797   2
   4   3  11 11.6293 5.37248   1
   8  -4 -11 30.1423 5.05767   3
  -8   4  11 34.5154 4.64407   2
   7  -4 -11 82.5612 6.98224   3
  -7   4  11 76.3560 6.11359   2
   6  -4 -11 41.9875 5.86699   3
  -6   4  11 39.8447 5.47127   2
   5  -4 -11 9.35178 3.35046   3
  -5   4  11 8.54604 3.12492   2
   4  -4 -11 36.7644 5.02217   3
  -4   4  11 42.5718 4.66053   2
   3  -4 -11 77.8042 5.27303   3
  -3   4  11 74.6673 5.63934   2
   2  -4 -11 10.7950 2.88411   3
   2  -4 -11 8.38756 2.83691   2
   1  -4 -11 6.14704 2.65569   2
   1  -4 -11 7.46769 2.84275   3
  -1   4  11 3.05541 3.25099   1
   0  -4 -11 7.44616 2.85620   2
   0   4  11 5.47878 3.44552   1
  -1  -4 -11 98.0306 6.39771   2
   1   4  11 110.833 7.28208   1
  -2  -4 -11 36.5539 4.26599   2
   2   4  11 33.7878 7.43464   1
  -3  -4 -11 16.3494 3.83868   2
   3   4  11 6.11298 4.60432   1
   8  -5 -11 28.3348 5.34165   3
  -8   5  11 21.4647 4.69344   2
   7  -5 -11 106.929 8.00850   3
  -7   5  11 97.5993 7.18988   2
   6  -5 -11 32.0895 4.57287   3
  -6   5  11 25.9975 4.09232   2
   5  -5 -11 42.2271 5.94667   3
  -5   5  11 45.9347 7.78350   2
   4  -5 -11 27.6790 4.08805   3
  -4   5  11 32.6270 4.03445   2
   3  -5 -11 1.31672 3.06113   3
  -3   5  11 1.41272 3.12713   2
   2  -5 -11 34.1223 4.81174   3
   1  -5 -11 4.08594 2.98315   2
   0  -5 -11 3.82993 6.12864   2
   0   5  11 8.20757 4.00020   1
  -1  -5 -11 22.2201 3.81950   2
   1   5  11 9.27285 4.40793   1
   7  -6 -11 19.2361 4.99728   3
  -7   6  11 23.0102 4.59767   2
   6  -6 -11 3.58153 4.26478   3
  -6   6  11 8.38743 4.20074   2
   5  -6 -11 6.11834 4.28503   3
  -5   6  11 7.30739 3.82850   2
   4  -6 -11 81.4547 6.71367   3
  -4   6  11 93.2992 7.05672   2
   3  -6 -11 51.0879 5.64267   3
  -3   6  11 43.0472 4.69570   2
   2  -6 -11 0.82521 3.46034   3
  -2   6  11 2.68529 3.73410   2
   1  -6 -11 10.6346 3.53545   2
   0  -6 -11 20.8439 3.98877   2
  -1  -6 -11 10.7723 4.05801   2
   6  -7 -11 26.0534 5.26150   3
  -6   7  11 32.9424 5.30931   2
   5  -7 -11 -3.5451 4.59976   3
  -5   7  11 0.67229 4.44727   2
   4  -7 -11 -1.3062 4.01912   3
  -4   7  11 8.39004 4.32667   2
  -3   7  11 11.2576 4.31811   2
   2  -7 -11 12.7627 4.32053   3
  -2   7  11 11.9381 4.45767   2
  -1   7  11 12.2402 4.92711   2
   0  -7 -11 17.9063 4.25850   2
   4  -8 -11 0.46985 5.02353   3
  -4   8  11 5.26256 5.05486   2
   3  -8 -11 10.1728 4.91269   3
  -3   8  11 7.59016 5.04238   2
  -2   8  11 85.3309 8.39592   2
   3  13 -12 26.0133 5.40607   3
  -3 -13  12 33.8272 5.50320   1
   2  13 -12 14.1603 4.81338   3
  -2 -13  12 1.78261 4.53706   1
   1  13 -12 3.76798 4.52635   3
  -1 -13  12 5.72321 4.89921   1
   0  13 -12 16.4260 4.81156   3
   0 -13  12 18.4387 4.94653   1
  -1  13 -12 0.37247 5.00045   3
   1 -13  12 5.06223 4.94153   1
   4  12 -12 12.2836 4.85140   3
  -4 -12  12 17.7005 5.05321   1
   3  12 -12 7.09874 4.21456   3
  -3 -12  12 3.51401 4.31828   1
   2  12 -12 -8.5625 3.95787   3
  -2 -12  12 2.18657 4.07915   1
  -1 -12  12 68.7342 6.83467   1
   0  12 -12 11.1728 3.98142   3
   0 -12  12 10.4937 4.29447   1
  -1  12 -12 98.6033 7.87668   3
   1 -12  12 104.764 8.06377   1
   2 -12  12 15.0844 4.81699   1
   3 -12  12 61.3105 8.16560   1
   5  11 -12 33.7482 5.47477   3
  -5 -11  12 31.2728 5.28298   1
   4  11 -12 42.2985 5.22244   3
  -4 -11  12 44.0007 5.41308   1
   3  11 -12 36.7083 5.10171   3
  -3 -11  12 33.0859 4.83914   1
   2  11 -12 4.83055 3.51938   3
  -2 -11  12 -1.1550 3.88068   1
   1  11 -12 6.36439 3.52507   3
   0  11 -12 0.83121 3.36627   3
   0 -11  12 -0.4774 5.30409   1
  -1  11 -12 9.81635 4.02351   3
   1 -11  12 12.3901 4.10548   1
   2 -11  12 143.763 8.31862   1
   3 -11  12 28.0437 4.99410   1
   6  10 -12 9.56576 4.76268   3
  -6 -10  12 10.3277 4.88954   1
   5  10 -12 27.7539 4.70480   3
  -5 -10  12 30.3141 4.84509   1
  -4 -10  12 13.4885 4.97212   1
   3  10 -12 38.4481 5.47154   3
  -3 -10  12 35.8284 4.50168   1
   2  10 -12 1.99799 3.13214   3
  -2 -10  12 3.70896 3.54935   1
   1  10 -12 8.64440 3.12861   3
  -1 -10  12 9.53465 3.59189   1
   0  10 -12 7.02981 3.08139   3
   0 -10  12 1.22306 3.46323   1
  -1  10 -12 120.751 8.54298   3
   1 -10  12 128.830 7.39015   1
   2 -10  12 6.93230 4.25254   1
  -3  10 -12 249.938 10.2186   2
   3 -10  12 269.810 11.0649   1
  -4  10 -12 39.1925 4.53788   2
  -7  -9  12 32.0164 5.03972   1
   6   9 -12 -1.4076 3.94297   3
  -6  -9  12 4.92824 4.12946   1
   5   9 -12 3.92579 3.96384   3
  -5  -9  12 -0.8967 4.22759   1
   4   9 -12 4.76718 3.39678   3
  -4  -9  12 3.10043 3.36893   1
   3   9 -12 3.22754 3.03002   3
  -3  -9  12 -1.1422 3.23491   1
   2   9 -12 24.8731 3.43620   3
  -2  -9  12 17.7884 3.77403   1
   1   9 -12 6.22913 2.90499   3
  -1  -9  12 1.16960 3.05686   1
   0   9 -12 114.974 5.98910   3
   0  -9  12 104.699 6.31254   1
   1  -9  12 8.17038 3.25994   1
  -2   9 -12 60.3290 5.06643   2
   2  -9  12 48.2669 5.73049   1
  -3   9 -12 -0.2808 3.12540   2
   3  -9  12 -2.2689 3.67217   1
  -4   9 -12 2.01110 3.36084   2
   4  -9  12 6.17316 4.01170   1
   7   8 -12 7.57659 4.71341   3
  -7  -8  12 -2.1115 4.22822   1
   6   8 -12 14.8375 4.26327   3
  -6  -8  12 26.0513 4.33367   1
   5   8 -12 4.10870 3.33716   3
  -5  -8  12 1.62301 3.35329   1
   4   8 -12 36.5941 4.81702   3
  -4  -8  12 24.6660 3.73262   1
   3   8 -12 132.515 6.91282   3
  -3  -8  12 150.083 7.09670   1
   2   8 -12 33.3617 4.14041   3
  -2  -8  12 30.5726 4.61896   1
   1   8 -12 5.24928 2.70444   3
  -1  -8  12 2.98473 2.80123   1
   0   8 -12 29.1052 4.06662   3
   0   8 -12 27.5624 4.32571   2
   0  -8  12 31.4724 4.39093   1
  -1   8 -12 27.9472 3.82633   2
   1  -8  12 22.6944 3.48531   1
  -2   8 -12 9.67856 2.72427   2
   2  -8  12 7.96746 3.18574   1
  -3   8 -12 107.529 6.30602   2
  -4   8 -12 0.57227 3.34482   2
   4  -8  12 3.90056 3.96420   1
  -5   8 -12 5.31928 3.68271   2
   5  -8  12 4.59043 4.52169   1
   8   7 -12 13.1920 5.18118   3
  -8  -7  12 2.74767 4.06719   1
   7   7 -12 6.94165 4.24733   3
  -7  -7  12 1.54234 4.99211   1
   6   7 -12 8.01887 3.96790   3
  -6  -7  12 1.57688 3.55220   1
   5   7 -12 5.15115 3.17215   3
  -5  -7  12 6.26435 3.16334   1
   4   7 -12 21.9996 3.24082   3
  -4  -7  12 21.1778 3.29515   1
   3   7 -12 6.62318 2.67494   3
  -3  -7  12 5.01966 2.87886   1
   2   7 -12 227.725 8.71548   3
  -2  -7  12 239.709 9.00828   1
   1   7 -12 292.543 10.1247   3
   1   7 -12 295.517 9.37243   2
  -1  -7  12 284.443 10.3876   1
   0   7 -12 114.473 6.00071   3
   0   7 -12 143.782 5.68536   2
   0  -7  12 145.646 6.59309   1
  -1   7 -12 72.9888 4.41776   2
   1  -7  12 66.7711 5.20984   1
  -2   7 -12 112.535 5.78430   2
   2  -7  12 112.677 6.57953   1
  -3   7 -12 52.7635 5.11534   2
   3  -7  12 57.6022 5.72113   1
  -4   7 -12 1.96580 3.10940   2
   4  -7  12 -1.4576 3.90959   1
  -5   7 -12 -0.4053 3.41819   2
   5  -7  12 2.64110 4.47150   1
   8   6 -12 5.25781 4.72675   3
   7   6 -12 -2.9972 3.93653   3
  -7  -6  12 -4.3589 3.86294   1
   6   6 -12 84.4551 6.18857   3
  -6  -6  12 84.1323 6.00921   1
   5   6 -12 70.4599 5.47914   3
  -5  -6  12 73.0668 5.37510   1
   4   6 -12 81.1496 5.23269   3
  -4  -6  12 80.9544 5.48259   1
   3   6 -12 57.7816 4.30629   3
  -3  -6  12 59.1750 4.76016   1
   2   6 -12 4.80865 1.82431   2
   2   6 -12 7.44439 2.40466   3
  -2  -6  12 7.80964 2.54315   1
   1   6 -12 109.467 4.79766   2
  -1  -6  12 108.409 5.72026   1
   0   6 -12 68.9927 4.15093   2
   0  -6  12 76.5144 5.02781   1
  -1   6 -12 64.6078 4.28512   2
   1  -6  12 73.1974 5.15375   1
  -2   6 -12 6.91145 2.33707   2
   2  -6  12 4.82799 2.96942   1
  -3   6 -12 5.20816 2.72423   2
   3  -6  12 -1.5006 3.31628   1
  -4   6 -12 20.8329 3.63668   2
   4  -6  12 27.7420 4.33051   1
  -5   6 -12 -0.3115 3.51679   2
   5  -6  12 -0.1360 4.47563   1
   8   5 -12 30.7486 5.18382   3
   7   5 -12 28.2539 4.86640   3
  -7  -5  12 18.9498 4.02898   1
   6   5 -12 3.40339 3.12745   3
  -6  -5  12 1.16039 2.96137   1
   5   5 -12 300.774 11.2915   3
  -5  -5  12 313.734 10.8212   1
   4   5 -12 1.36253 2.61008   3
  -4  -5  12 0.28710 2.48278   1
  -4  -5  12 -1.6771 1.89155   2
   3   5 -12 20.5746 2.89638   3
  -3  -5  12 23.8389 3.07392   1
   2   5 -12 13.7047 2.08864   2
   2   5 -12 17.0017 2.77674   3
  -2  -5  12 15.6239 2.63908   1
   1   5 -12 184.590 6.95369   3
   1   5 -12 187.087 6.76556   2
  -1  -5  12 185.089 7.47838   1
   0   5 -12 7.78692 2.12809   3
   0   5 -12 5.65204 1.96443   2
   0  -5  12 3.86244 2.46706   1
  -1   5 -12 129.893 5.76187   2
   1  -5  12 138.939 6.64546   1
  -2   5 -12 174.318 7.24709   2
   2  -5  12 180.543 8.03640   1
  -3   5 -12 71.2038 5.27359   2
   3  -5  12 74.5558 6.13264   1
  -4   5 -12 30.4954 3.86471   2
   4  -5  12 36.8264 5.01298   1
  -5   5 -12 4.72601 3.48777   2
   5  -5  12 -2.9034 4.29817   1
   9   4 -12 -1.5269 4.79788   3
   8   4 -12 18.8373 4.46675   3
   7   4 -12 87.9458 7.45651   3
   6   4 -12 139.960 7.53916   3
  -6  -4  12 149.265 6.70265   1
   5   4 -12 -0.2079 2.68068   3
  -5  -4  12 -0.6579 1.88512   2
  -5  -4  12 3.62454 2.50426   1
   4   4 -12 81.3747 5.13988   3
  -4  -4  12 81.5417 4.19430   2
  -4  -4  12 76.7907 4.90989   1
   3   4 -12 0.43721 2.39336   3
   3   4 -12 0.47027 1.76278   2
  -3  -4  12 2.12733 2.26719   1
   2   4 -12 15.7317 3.49031   2
  -2  -4  12 19.0125 2.66936   1
   1   4 -12 130.346 5.45373   3
   1   4 -12 133.624 5.50434   2
  -1  -4  12 135.454 6.04028   1
   0   4 -12 120.692 5.16410   2
   0  -4  12 109.045 5.74541   1
  -1   4 -12 14.0751 2.37384   2
   1  -4  12 15.5814 2.99699   1
  -2   4 -12 2.77639 2.08881   2
   2  -4  12 0.84890 2.91647   1
  -3   4 -12 65.7722 5.08165   2
   3  -4  12 74.2096 6.18325   1
  -4   4 -12 112.392 6.82136   2
   4  -4  12 119.455 7.81635   1
  -5   4 -12 9.69924 3.71613   2
   5  -4  12 3.83554 4.64123   1
   9   3 -12 35.2535 5.42533   3
   8   3 -12 58.6256 6.56053   3
   7   3 -12 37.6501 5.54869   3
   6   3 -12 152.042 7.66998   3
  -6  -3  12 158.295 6.68330   1
  -6  -3  12 160.324 6.47240   2
   5   3 -12 279.264 10.5874   3
  -5  -3  12 301.441 9.93184   1
   4   3 -12 41.5757 4.12322   3
  -4  -3  12 34.6530 3.94383   1
   3   3 -12 19.4462 2.69406   3
   3   3 -12 16.6005 2.27031   2
  -3  -3  12 20.0177 2.57459   1
   2   3 -12 7.07624 1.95934   2
   2   3 -12 6.33607 2.67400   3
  -2  -3  12 6.11943 2.30506   1
   1   3 -12 13.7143 2.15483   2
   1   3 -12 15.7394 2.22469   3
  -1  -3  12 18.4806 2.79557   1
   0   3 -12 117.024 5.25645   2
   0  -3  12 115.060 5.85424   1
  -1   3 -12 7.08285 2.10241   2
   1  -3  12 8.57115 2.80998   1
  -2   3 -12 21.9750 2.84849   2
   2  -3  12 25.4597 3.69232   1
  -3   3 -12 42.6199 4.57011   2
   3  -3  12 39.5286 4.70024   1
  -4   3 -12 -1.0688 2.82043   2
   4  -3  12 1.46351 3.90532   1
  -5   3 -12 15.4903 3.80682   2
   5  -3  12 28.4885 5.20464   1
   9   2 -12 74.1320 7.99994   3
   8   2 -12 77.5180 7.09788   3
   7   2 -12 0.44122 3.52412   3
  -7  -2  12 2.36287 2.80903   2
   6   2 -12 80.7195 5.82448   3
  -6  -2  12 74.9188 4.70533   2
   5   2 -12 44.1028 4.42227   3
  -5  -2  12 45.8035 3.87031   1
  -5  -2  12 51.4237 4.19374   2
   4   2 -12 124.485 6.05055   3
  -4  -2  12 124.304 5.65966   1
  -4  -2  12 131.175 5.71026   2
   3   2 -12 12.1124 2.60726   3
   3   2 -12 9.80927 2.05120   2
   2   2 -12 28.5524 3.32607   2
   2   2 -12 26.7428 3.15781   3
  -2  -2  12 25.3057 3.64541   1
   1   2 -12 1.77559 1.80893   2
   1   2 -12 -1.1480 1.90374   3
  -1  -2  12 0.83238 2.21251   1
   0   2 -12 54.1721 3.92348   2
   0  -2  12 59.3957 4.58489   1
  -1   2 -12 0.92239 2.08450   2
   1  -2  12 -0.0973 2.62821   1
  -2   2 -12 4.95893 2.35709   2
   2  -2  12 9.75393 3.10454   1
  -3   2 -12 155.462 7.40273   2
   3  -2  12 159.509 8.21852   1
  -4   2 -12 22.0676 3.68051   2
   4  -2  12 19.2099 4.77884   1
  -5   2 -12 18.6811 4.02712   2
   5  -2  12 23.5896 5.17747   1
   9   1 -12 80.1662 8.25976   3
   8   1 -12 69.7026 7.00482   3
  -8  -1  12 63.5744 5.59869   2
   7   1 -12 26.1276 4.09300   3
  -7  -1  12 25.7668 3.15764   2
   6   1 -12 5.94074 2.98140   3
  -6  -1  12 7.14471 2.57259   2
   5   1 -12 22.7224 3.40154   3
  -5  -1  12 21.6039 2.79658   2
   4   1 -12 10.0515 2.61420   3
  -4  -1  12 8.55308 2.19874   1
  -4  -1  12 8.85988 2.50580   2
   3   1 -12 37.9951 3.61302   2
   3   1 -12 30.5668 3.82030   3
  -3  -1  12 31.8202 3.62477   1
   2   1 -12 25.2696 3.26066   3
   2   1 -12 27.7719 3.40829   2
  -2  -1  12 28.1194 3.47087   1
   1   1 -12 202.274 7.14644   3
   1   1 -12 205.367 7.70773   2
  -1  -1  12 213.634 7.89280   1
   0   1 -12 237.317 8.74445   2
   0  -1  12 248.270 9.03790   1
  -1   1 -12 1.33911 2.01479   2
   1  -1  12 3.36921 2.77926   1
  -2   1 -12 85.0107 5.33740   2
   2  -1  12 84.0002 6.26101   1
  -3   1 -12 25.0217 5.96641   2
   3  -1  12 23.5110 4.54535   1
  -4   1 -12 39.4949 5.59229   2
   4  -1  12 51.9387 7.05117   1
   5  -1  12 5.58967 4.93200   1
   9   0 -12 4.51816 4.61215   3
  -9   0  12 12.6047 4.02491   2
   8   0 -12 17.0364 4.32879   3
  -8   0  12 16.2845 3.57322   2
   7   0 -12 9.78405 3.59518   3
  -7   0  12 2.53498 2.79932   2
   6   0 -12 -2.1488 3.02814   3
  -6   0  12 -3.8723 2.52697   2
   5   0 -12 5.03303 2.86791   3
  -5   0  12 7.82075 2.54761   2
   4   0 -12 280.178 10.3664   3
  -4   0  12 299.376 10.1226   2
   3   0 -12 122.768 5.66111   2
   3   0 -12 118.314 5.76862   3
  -3   0  12 113.932 5.19349   1
   2   0 -12 11.1498 3.20590   3
   2   0 -12 8.80911 2.29056   2
  -2   0  12 10.3220 3.11198   1
   1   0 -12 182.712 6.62920   3
   1   0 -12 191.425 7.38078   2
  -1   0  12 182.175 7.28730   1
   0   0 -12 57.3479 4.19490   2
   0   0  12 55.5877 4.92333   1
  -1   0 -12 108.522 5.79920   2
   1   0  12 118.196 6.53500   1
  -2   0 -12 1.77606 2.48886   2
   2   0  12 -4.3116 3.49622   1
  -3   0 -12 13.7724 3.27462   2
   3   0  12 16.4646 4.44259   1
  -4   0 -12 6.96693 3.47744   2
   4   0  12 -0.8385 4.47791   1
   9  -1 -12 64.4550 8.16976   3
   8  -1 -12 62.8118 6.82549   3
  -8   1  12 76.8215 6.25389   2
  -7   1  12 8.15235 3.01106   2
   6  -1 -12 4.17828 3.28719   3
  -6   1  12 -0.6519 2.81812   2
   5  -1 -12 1.89189 2.81498   3
  -5   1  12 2.69130 2.62967   2
   4  -1 -12 7.90483 2.91126   3
  -4   1  12 5.55214 2.49687   2
   3  -1 -12 44.9883 4.07370   2
   3  -1 -12 49.2502 4.25679   3
   2  -1 -12 125.866 5.77761   3
   2  -1 -12 121.387 5.82712   2
   1  -1 -12 46.8691 4.22113   2
   1  -1 -12 39.1026 5.53573   3
  -1   1  12 53.2004 4.36692   1
   0  -1 -12 10.4069 2.54834   2
   0   1  12 7.34213 2.95948   1
  -1  -1 -12 48.5025 4.43412   2
   1   1  12 40.4196 5.54138   1
  -2  -1 -12 126.029 6.87724   2
   2   1  12 126.391 7.56258   1
  -3  -1 -12 6.09234 3.21197   2
   3   1  12 8.41189 4.46948   1
  -4  -1 -12 19.3951 3.99654   2
   4   1  12 18.9725 5.10235   1
   8  -2 -12 30.3182 4.85869   3
  -8   2  12 26.0129 4.00174   2
   7  -2 -12 -0.3700 3.59053   3
  -7   2  12 -0.3761 4.90582   2
   6  -2 -12 3.57174 3.29013   3
  -6   2  12 2.08048 3.03355   2
   5  -2 -12 68.8463 5.59067   3
  -5   2  12 67.8611 5.42202   2
   4  -2 -12 59.7340 5.00440   3
  -4   2  12 66.9002 4.86778   2
   3  -2 -12 82.5380 5.29046   3
   2  -2 -12 101.162 5.58618   3
   2  -2 -12 104.277 5.70631   2
   1  -2 -12 79.4333 5.10853   2
  -1   2  12 72.8747 5.13888   1
   0  -2 -12 5.75453 2.59911   2
   0   2  12 4.12024 3.12487   1
  -1  -2 -12 58.1856 5.08221   2
   1   2  12 62.9493 5.96667   1
  -2  -2 -12 1.93378 2.87381   2
   2   2  12 2.10568 4.17181   1
  -3  -2 -12 5.65890 3.49388   2
   3   2  12 10.9030 4.83821   1
   8  -3 -12 -1.4438 4.39628   3
  -8   3  12 3.59805 4.02371   2
   7  -3 -12 2.58020 3.96319   3
  -7   3  12 -3.2064 3.43577   2
   6  -3 -12 22.2996 4.03428   3
  -6   3  12 20.5481 4.13566   2
   5  -3 -12 99.1036 6.56162   3
  -5   3  12 115.753 6.50841   2
   4  -3 -12 34.1165 4.63799   3
  -4   3  12 35.6853 4.72047   2
   3  -3 -12 0.21007 2.77381   3
  -3   3  12 3.66695 3.01103   2
   2  -3 -12 6.28274 3.04597   3
   2  -3 -12 5.39429 2.54228   2
   1  -3 -12 69.7611 5.33279   2
  -1   3  12 77.4377 5.36614   1
   0  -3 -12 15.4211 3.24062   2
   0   3  12 17.1369 3.62589   1
  -1  -3 -12 74.2615 5.87239   2
   1   3  12 73.9508 6.99635   1
  -2  -3 -12 100.683 6.94652   2
   2   3  12 103.834 7.96472   1
  -3  -3 -12 7.02911 3.78180   2
   3   3  12 -1.0289 4.74788   1
   8  -4 -12 5.51540 4.80611   3
   7  -4 -12 10.0039 4.53434   3
  -7   4  12 16.1604 4.12877   2
   6  -4 -12 -5.4187 3.60884   3
  -6   4  12 -0.7922 3.83174   2
   5  -4 -12 -1.2841 3.59529   3
   4  -4 -12 30.6017 4.12744   3
  -4   4  12 38.2244 5.44165   2
   3  -4 -12 22.7833 3.71059   3
  -3   4  12 25.9692 3.89230   2
   2  -4 -12 9.76079 2.89376   2
   2  -4 -12 14.5930 3.48767   3
   1  -4 -12 83.7385 6.16146   2
   0   4  12 19.2224 3.96337   1
  -1  -4 -12 16.8536 3.72455   2
   1   4  12 23.9622 4.98276   1
   2   4  12 35.9747 5.25465   1
   7  -5 -12 102.825 8.73996   3
  -7   5  12 93.7658 7.87645   2
   6  -5 -12 107.892 8.24103   3
  -6   5  12 89.0812 7.81816   2
   5  -5 -12 7.33605 4.08977   3
  -5   5  12 4.51816 4.01402   2
   4  -5 -12 13.3163 3.97565   3
  -4   5  12 18.6507 3.92971   2
   3  -5 -12 11.5780 3.60996   3
  -3   5  12 6.60272 3.80368   2
   2  -5 -12 2.03522 3.86767   3
   1  -5 -12 5.91903 3.27632   2
   0  -5 -12 51.2331 6.13700   2
  -1  -5 -12 8.57167 3.93569   2
   1   5  12 6.98713 5.17098   1
   6  -6 -12 27.3960 5.45187   3
  -6   6  12 32.6236 5.33651   2
   5  -6 -12 3.79874 4.70568   3
  -5   6  12 3.54752 4.50173   2
   4  -6 -12 9.42894 4.25194   3
  -4   6  12 3.30564 4.22813   2
   3  -6 -12 5.91171 4.10610   3
  -3   6  12 5.10898 4.15872   2
  -2   6  12 1.93272 4.45899   2
   1  -6 -12 13.5509 4.02154   2
   0  -6 -12 0.05790 3.91366   2
   5  -7 -12 11.0578 5.05900   3
   4  -7 -12 5.46748 4.96181   3
  -4   7  12 4.23329 4.99213   2
   3  -7 -12 38.9792 5.35429   3
  -3   7  12 34.5664 5.20635   2
  -2   7  12 34.6527 5.55084   2
   2  13 -13 9.70617 4.94255   3
  -2 -13  13 1.66953 5.07156   1
   1  13 -13 83.4066 8.61344   3
  -1 -13  13 82.0154 8.22503   1
   0  13 -13 5.55919 4.81891   3
   0 -13  13 8.37583 4.88451   1
   4  12 -13 -4.9468 4.62792   3
  -4 -12  13 6.30204 5.02079   1
   3  12 -13 6.59125 4.55289   3
  -3 -12  13 3.09855 4.65359   1
   2  12 -13 -1.1269 4.31758   3
  -2 -12  13 7.68203 4.49532   1
   1  12 -13 30.8428 4.88912   3
  -1 -12  13 35.6390 5.15790   1
   0 -12  13 147.242 9.15823   1
   1 -12  13 40.6179 5.55391   1
   2 -12  13 64.9948 8.17935   1
   5  11 -13 69.9098 7.68257   3
  -5 -11  13 63.1309 7.77335   1
   4  11 -13 15.2007 4.48067   3
  -4 -11  13 12.0704 4.53817   1
   3  11 -13 41.5389 5.00011   3
  -3 -11  13 34.9076 5.01186   1
   2  11 -13 96.4530 8.04190   3
  -2 -11  13 96.5275 7.33996   1
   1  11 -13 10.1899 3.83328   3
  -1 -11  13 9.47863 4.05863   1
   0  11 -13 24.0476 4.05256   3
   0 -11  13 18.2005 4.37683   1
   1 -11  13 70.2072 7.37750   1
   2 -11  13 3.26510 4.21656   1
   3 -11  13 2.57895 4.66737   1
   6  10 -13 22.8497 4.94910   3
  -6 -10  13 15.2636 4.94685   1
   5  10 -13 16.5198 4.42513   3
  -5 -10  13 19.2680 4.72325   1
   4  10 -13 9.48589 4.07364   3
  -4 -10  13 13.2585 4.25187   1
   3  10 -13 7.87405 3.69140   3
  -3 -10  13 7.50267 4.46373   1
   2  10 -13 9.94521 3.68724   3
  -2 -10  13 12.6359 6.02923   1
   1  10 -13 4.23993 3.23102   3
  -1 -10  13 -2.3367 4.09961   1
   0  10 -13 63.0360 5.93414   3
   1 -10  13 77.7446 6.55716   1
   2 -10  13 16.4882 4.40906   1
   3 -10  13 16.4577 4.39446   1
   6   9 -13 1.28773 4.27009   3
  -6  -9  13 6.13483 4.25457   1
   5   9 -13 50.2490 6.18225   3
  -5  -9  13 33.2372 4.76393   1
   4   9 -13 1.75026 3.34517   3
  -4  -9  13 3.28109 3.48188   1
   3   9 -13 39.3938 4.37405   3
  -3  -9  13 38.2906 5.57208   1
   2   9 -13 126.682 6.71454   3
  -2  -9  13 143.272 7.51848   1
   1   9 -13 18.3469 3.21221   3
  -1  -9  13 16.8774 3.71918   1
   0   9 -13 45.4523 4.97934   3
   0  -9  13 38.1179 5.29139   1
   1  -9  13 64.2858 6.53509   1
  -2   9 -13 102.585 6.01675   2
   2  -9  13 86.0669 6.80919   1
  -3   9 -13 27.5545 4.66901   2
   3  -9  13 27.4470 4.74448   1
  -4   9 -13 -1.8279 3.23675   2
   4  -9  13 0.85326 4.36559   1
   7   8 -13 15.8175 4.86235   3
  -7  -8  13 2.26347 4.08110   1
   6   8 -13 37.7689 4.89499   3
  -6  -8  13 23.4919 4.69658   1
   5   8 -13 71.1994 7.09300   3
  -5  -8  13 75.7791 6.28015   1
   4   8 -13 11.7703 3.44471   3
  -4  -8  13 22.9831 3.78210   1
   3   8 -13 19.7301 3.46374   3
  -3  -8  13 22.5072 3.92669   1
   2   8 -13 34.2385 4.34032   3
  -2  -8  13 37.0537 4.94205   1
   1   8 -13 105.973 6.03723   3
  -1  -8  13 103.271 6.15876   1
   0   8 -13 11.0145 4.09435   3
   0  -8  13 16.4780 3.43254   1
  -1   8 -13 107.156 5.54909   2
   1  -8  13 92.1423 6.31155   1
  -2   8 -13 3.51525 2.83197   2
  -3   8 -13 4.03992 3.37475   2
   3  -8  13 7.45699 3.82158   1
  -4   8 -13 2.60250 3.37381   2
   4  -8  13 2.48261 4.27082   1
   7   7 -13 16.6882 4.90286   3
  -7  -7  13 13.8472 4.62663   1
   6   7 -13 0.79847 3.66935   3
  -6  -7  13 3.31827 3.76532   1
   5   7 -13 -1.0498 3.23868   3
  -5  -7  13 2.09534 3.34404   1
   4   7 -13 16.8999 3.38111   3
  -4  -7  13 10.6785 3.29443   1
   3   7 -13 6.92478 2.93473   3
  -3  -7  13 15.2365 3.30430   1
   2   7 -13 95.2766 5.46898   3
  -2  -7  13 101.828 6.00735   1
   1   7 -13 34.3715 4.11308   3
   1   7 -13 39.9407 3.71165   2
  -1  -7  13 37.4236 4.51810   1
   0   7 -13 42.1644 4.01527   2
   0  -7  13 43.6160 4.76459   1
  -1   7 -13 2.92364 2.34836   2
   1  -7  13 0.76123 3.19204   1
  -2   7 -13 165.389 7.20861   2
   2  -7  13 151.229 8.01342   1
  -3   7 -13 49.9124 5.55513   2
   3  -7  13 43.3799 6.11977   1
  -4   7 -13 11.3063 3.84969   2
   4  -7  13 9.98721 4.56764   1
   8   6 -13 17.2327 5.33530   3
   7   6 -13 121.351 8.49004   3
  -7  -6  13 129.626 7.95147   1
   6   6 -13 0.25394 3.78997   3
  -6  -6  13 3.16717 3.49658   1
   5   6 -13 14.5731 3.34199   3
  -5  -6  13 11.7249 3.34918   1
   4   6 -13 11.7630 3.13955   3
  -4  -6  13 8.32983 3.02645   1
   3   6 -13 7.52274 2.79237   3
  -3  -6  13 7.11810 2.87473   1
   2   6 -13 43.5384 4.22385   2
   2   6 -13 43.4002 4.48424   3
  -2  -6  13 53.8215 4.52920   1
   1   6 -13 349.904 11.8068   3
   1   6 -13 364.568 11.4971   2
  -1  -6  13 362.941 12.3614   1
   0   6 -13 23.4645 2.68407   2
   0  -6  13 25.6690 3.48422   1
  -1   6 -13 -2.3466 2.15875   2
   1  -6  13 0.95415 2.89027   1
  -2   6 -13 4.40783 2.65023   2
   2  -6  13 6.29324 3.50829   1
  -3   6 -13 36.3377 5.04431   2
   3  -6  13 38.5266 5.00385   1
  -4   6 -13 80.5886 6.63188   2
   4  -6  13 64.3709 7.64859   1
   8   5 -13 40.2246 5.47471   3
   7   5 -13 55.8262 6.69160   3
  -7  -5  13 61.4867 7.51954   1
   6   5 -13 8.43154 3.54005   3
  -6  -5  13 3.32852 3.32004   1
   5   5 -13 -4.6112 2.94168   3
  -5  -5  13 1.96537 2.76483   1
   4   5 -13 133.190 6.83418   3
  -4  -5  13 140.216 6.72315   1
   3   5 -13 36.2312 4.17634   3
  -3  -5  13 29.1053 3.42582   1
   2   5 -13 0.87448 2.56972   3
   2   5 -13 3.82269 2.01700   2
  -2  -5  13 2.23649 2.56578   1
   1   5 -13 9.40570 2.40747   3
   1   5 -13 8.73443 2.20510   2
  -1  -5  13 2.49345 2.61591   1
   0   5 -13 131.652 5.83613   2
   0  -5  13 134.860 6.56577   1
  -1   5 -13 62.3487 4.54419   2
   1  -5  13 68.5512 5.45933   1
  -2   5 -13 98.2013 5.62095   2
   2  -5  13 96.0275 6.74263   1
  -3   5 -13 -1.3114 3.43222   2
   3  -5  13 4.43861 3.86896   1
  -4   5 -13 16.4347 3.65296   2
   4  -5  13 19.5171 4.59397   1
   8   4 -13 31.6113 5.10771   3
   7   4 -13 48.7233 6.28574   3
   6   4 -13 120.933 7.03853   3
  -6  -4  13 115.543 6.29003   1
   5   4 -13 1.43078 2.98055   3
  -5  -4  13 4.93105 2.77887   1
  -5  -4  13 4.39779 2.59230   2
   4   4 -13 7.81370 2.95620   3
  -4  -4  13 4.30273 2.70777   1
  -4  -4  13 8.87744 2.57740   2
   3   4 -13 142.425 6.58236   3
   3   4 -13 142.706 6.02805   2
  -3  -4  13 145.446 6.60584   1
   2   4 -13 191.507 7.27145   2
   2   4 -13 196.850 7.62152   3
  -2  -4  13 188.807 7.65707   1
   1   4 -13 70.9180 4.29116   3
   1   4 -13 76.1688 4.45014   2
  -1  -4  13 74.4976 4.98725   1
   0   4 -13 -0.0084 2.00344   2
   0  -4  13 -3.3301 2.49889   1
  -1   4 -13 117.800 5.84867   2
   1  -4  13 127.796 6.74909   1
  -2   4 -13 40.9301 4.47060   2
   2  -4  13 36.9666 4.49753   1
  -3   4 -13 0.48034 3.44117   2
   3  -4  13 6.05925 3.99116   1
  -4   4 -13 -3.3311 3.22990   2
   4  -4  13 3.47024 4.35416   1
   8   3 -13 16.1564 4.66870   3
   7   3 -13 93.9660 6.87022   3
   6   3 -13 77.3024 6.08673   3
  -6  -3  13 81.5269 5.15824   2
   5   3 -13 8.17600 3.04561   3
  -5  -3  13 7.06009 2.61669   2
  -5  -3  13 0.76626 2.65764   1
   4   3 -13 31.0112 4.10987   3
  -4  -3  13 29.2757 3.31326   1
  -4  -3  13 41.4434 4.40847   2
   3   3 -13 37.3522 3.80359   2
   3   3 -13 33.1254 3.89692   3
  -3  -3  13 46.1121 4.13436   1
   2   3 -13 65.5380 4.34151   2
   2   3 -13 63.6004 4.40866   3
  -2  -3  13 63.5206 4.65238   1
   1   3 -13 8.33939 2.32405   3
   1   3 -13 6.54855 2.15162   2
  -1  -3  13 7.99946 2.67940   1
   0   3 -13 6.59136 2.22459   2
   0  -3  13 8.61013 2.94787   1
  -1   3 -13 24.5863 2.94813   2
   1  -3  13 23.2763 3.72013   1
  -2   3 -13 5.58640 2.66165   2
   2  -3  13 -1.2744 3.34431   1
  -3   3 -13 1.02914 2.82447   2
   3  -3  13 8.59432 3.98388   1
  -4   3 -13 1.29855 3.36584   2
   4  -3  13 0.58929 4.35449   1
   8   2 -13 18.5537 4.64865   3
   7   2 -13 18.8133 4.23023   3
  -7  -2  13 18.4578 3.17768   2
   6   2 -13 206.165 9.17280   3
  -6  -2  13 215.545 8.23308   2
   5   2 -13 3.91812 2.99169   3
  -5  -2  13 1.96902 2.51500   2
   4   2 -13 7.05257 2.88003   3
  -4  -2  13 5.51088 2.65952   2
  -4  -2  13 7.33248 2.59574   1
   3   2 -13 61.9982 4.34036   2
   3   2 -13 55.9476 4.60784   3
  -3  -2  13 59.6517 4.34735   1
   2   2 -13 45.5798 4.03233   3
   2   2 -13 41.9617 3.92093   2
  -2  -2  13 42.2709 4.18238   1
   1   2 -13 5.51414 2.15319   2
  -1  -2  13 4.90218 2.58777   1
   0   2 -13 0.58197 2.11002   2
   0  -2  13 0.69270 2.64016   1
  -1   2 -13 111.366 5.86321   2
   1  -2  13 116.013 6.56894   1
  -2   2 -13 186.230 8.17096   2
   2  -2  13 200.045 9.06728   1
  -3   2 -13 6.79855 3.18523   2
   3  -2  13 9.37687 4.18471   1
  -4   2 -13 11.0674 3.77930   2
   4  -2  13 11.8113 4.62140   1
   8   1 -13 6.42726 4.41653   3
  -8  -1  13 -4.9116 3.60850   2
   7   1 -13 -0.8347 3.88153   3
  -7  -1  13 2.33985 2.91276   2
   6   1 -13 169.678 8.34906   3
  -6  -1  13 174.876 7.49607   2
   5   1 -13 8.68190 3.06037   3
  -5  -1  13 9.92632 2.74274   2
   4   1 -13 5.67061 2.90459   3
  -4  -1  13 5.03815 2.65651   2
  -4  -1  13 8.58674 3.50769   1
   3   1 -13 243.102 9.07559   3
   3   1 -13 230.101 8.74005   2
  -3  -1  13 241.224 8.63450   1
   2   1 -13 112.479 5.42971   3
   2   1 -13 111.371 5.56945   2
  -2  -1  13 111.372 5.47319   1
   1   1 -13 21.5588 2.91118   2
  -1  -1  13 23.0520 3.18452   1
   0   1 -13 16.5917 2.64868   2
   0  -1  13 14.9584 3.14579   1
  -1   1 -13 -2.7741 2.28570   2
   1  -1  13 -0.0294 3.16289   1
  -2   1 -13 135.185 10.0332   2
   2  -1  13 157.484 8.10810   1
  -3   1 -13 35.8402 4.24939   2
   3  -1  13 39.2962 5.30024   1
  -4   1 -13 7.95047 3.64874   2
   4  -1  13 12.5448 5.29403   1
   8   0 -13 1.46825 4.23959   3
  -8   0  13 2.30630 3.59646   2
   7   0 -13 3.29530 3.86481   3
  -7   0  13 -2.2017 2.95248   2
   6   0 -13 168.806 8.35396   3
  -6   0  13 167.079 7.54749   2
   5   0 -13 119.735 6.71135   3
  -5   0  13 137.893 6.54052   2
   4   0 -13 2.90331 2.81950   3
  -4   0  13 8.13900 3.06160   2
   3   0 -13 36.4300 4.17786   2
   3   0 -13 44.1559 4.51233   3
  -3   0  13 46.8198 5.25101   1
   2   0 -13 52.5067 4.42848   2
   2   0 -13 54.5847 4.49233   3
  -2   0  13 48.2471 4.34733   1
   1   0 -13 87.8401 5.38511   2
  -1   0  13 89.6020 5.45920   1
   0   0 -13 27.8416 3.31926   2
   0   0  13 30.5597 3.81875   1
  -1   0 -13 6.89276 2.73080   2
   1   0  13 6.85529 3.45470   1
  -2   0 -13 31.8620 3.79005   2
  -3   0 -13 18.9267 3.71825   2
   8  -1 -13 11.2134 4.52496   3
  -8   1  13 7.64770 3.81572   2
   7  -1 -13 0.03822 3.92955   3
   6  -1 -13 23.4275 4.22570   3
  -6   1  13 24.6636 3.74211   2
   5  -1 -13 61.4927 5.62600   3
  -5   1  13 58.4586 5.30568   2
   4  -1 -13 53.7264 5.07378   3
  -4   1  13 40.3925 4.81203   2
   3  -1 -13 76.9135 5.38420   3
   3  -1 -13 70.4742 4.99307   2
   2  -1 -13 59.6032 4.83635   3
   2  -1 -13 55.2193 4.70078   2
  -2   1  13 53.6762 4.48105   1
   1  -1 -13 19.1835 3.00467   2
  -1   1  13 14.3879 3.13490   1
   0  -1 -13 197.337 8.31706   2
   0   1  13 190.599 8.44950   1
   1   1  13 19.9911 4.03226   1
  -2  -1 -13 15.3859 3.40107   2
   2   1  13 19.3660 4.63902   1
  -3  -1 -13 10.9873 3.87726   2
   3   1  13 8.63023 4.81053   1
   8  -2 -13 4.50553 4.49461   3
  -8   2  13 6.81200 4.03003   2
   7  -2 -13 20.8513 4.54748   3
  -7   2  13 20.2515 3.82673   2
   6  -2 -13 10.5542 7.07957   3
   5  -2 -13 10.0840 3.71850   3
  -5   2  13 12.3834 3.45417   2
   4  -2 -13 2.83462 2.99348   3
  -4   2  13 3.85526 3.07745   2
   3  -2 -13 18.2184 3.26386   3
   2  -2 -13 171.200 7.40211   3
   2  -2 -13 157.072 7.57145   2
   1  -2 -13 148.172 7.19697   2
  -1   2  13 137.159 6.82150   1
   0  -2 -13 0.96576 5.03309   2
   0   2  13 2.10597 3.49261   1
  -1  -2 -13 98.5098 6.41257   2
   1   2  13 89.3284 7.27060   1
  -2  -2 -13 5.55580 3.43691   2
   2   2  13 10.2791 4.57399   1
   7  -3 -13 67.0867 7.14179   3
  -7   3  13 62.0578 6.24430   2
   6  -3 -13 21.0206 4.34281   3
  -6   3  13 19.6748 4.16905   2
   5  -3 -13 3.33301 3.58153   3
  -5   3  13 -0.9228 3.70188   2
   4  -3 -13 14.5150 3.55841   3
  -4   3  13 12.8441 3.72181   2
   3  -3 -13 29.8297 3.75353   3
  -3   3  13 21.0119 3.94522   2
   2  -3 -13 4.22087 3.10574   2
   1  -3 -13 22.1564 4.10300   2
   0  -3 -13 163.603 8.25908   2
   0   3  13 160.786 8.26720   1
  -1  -3 -13 5.01527 3.58155   2
  -2  -3 -13 5.98221 4.06095   2
   2   3  13 2.07977 4.21198   1
   7  -4 -13 3.48878 4.79046   3
  -7   4  13 -2.9838 4.01449   2
   6  -4 -13 57.5448 7.27247   3
  -6   4  13 61.7299 6.98514   2
   5  -4 -13 14.2145 4.22575   3
  -5   4  13 12.2558 4.13192   2
   4  -4 -13 0.64008 3.60480   3
  -4   4  13 -5.2487 3.67588   2
   3  -4 -13 12.6162 3.86995   3
  -3   4  13 20.1798 4.26998   2
   2  -4 -13 31.6894 4.12059   2
   1  -4 -13 0.75797 3.43299   2
   0  -4 -13 12.9772 3.96977   2
   1   4  13 40.8659 5.26919   1
   6  -5 -13 16.6387 5.06249   3
  -6   5  13 19.2158 4.91990   2
   5  -5 -13 24.8781 5.24597   3
  -5   5  13 27.4255 4.91215   2
   4  -5 -13 13.0713 4.49757   3
  -4   5  13 2.27064 4.18569   2
   3  -5 -13 15.3050 4.35119   3
  -3   5  13 5.91550 4.32039   2
   1  -5 -13 27.3539 4.36704   2
   0  -5 -13 2.31825 4.09966   2
   5  -6 -13 12.2008 5.26602   3
   4  -6 -13 -0.6826 4.72064   3
  -4   6  13 -2.2573 4.74321   2
  -3   6  13 23.0849 5.22164   2
  -2   6  13 1.33367 4.93326   2
   3  12 -14 1.79925 4.62528   3
  -3 -12  14 6.16311 4.97310   1
   2  12 -14 46.9239 7.15221   3
  -2 -12  14 51.0730 5.87022   1
   1  12 -14 -3.6106 4.51876   3
  -1 -12  14 4.02066 4.57998   1
   0 -12  14 9.44320 4.90742   1
   1 -12  14 21.1279 5.15299   1
   4  11 -14 4.30089 4.45563   3
  -4 -11  14 2.53148 4.66815   1
   3  11 -14 7.75735 4.17426   3
  -3 -11  14 0.15506 4.39933   1
   2  11 -14 10.3535 4.23381   3
  -2 -11  14 -1.6387 4.34094   1
   1  11 -14 232.755 10.1083   3
  -1 -11  14 226.125 10.8051   1
   0 -11  14 7.33569 4.41443   1
   1 -11  14 6.32166 4.55475   1
   2 -11  14 26.4071 4.99976   1
   5  10 -14 98.1175 7.61153   3
  -5 -10  14 86.1507 7.84730   1
   4  10 -14 29.9322 4.72000   3
  -4 -10  14 32.4879 4.99980   1
  -3 -10  14 -0.0081 4.04267   1
   2  10 -14 20.4588 4.01395   3
  -2 -10  14 15.5834 4.19709   1
   1  10 -14 11.8260 3.76360   3
  -1 -10  14 16.3971 4.21349   1
   0 -10  14 60.6715 6.84867   1
   1 -10  14 6.29351 3.97953   1
   2 -10  14 4.59878 4.21144   1
   6   9 -14 8.75445 4.83935   3
  -6  -9  14 -1.2892 4.17047   1
   5   9 -14 21.3564 4.63943   3
  -5  -9  14 22.5656 4.46098   1
  -4  -9  14 12.3279 3.99814   1
   3   9 -14 20.3100 3.86840   3
  -3  -9  14 19.6131 6.46883   1
   2   9 -14 6.00733 3.26332   3
  -2  -9  14 1.08651 4.26366   1
   1   9 -14 65.6287 5.72668   3
  -1  -9  14 73.2618 10.9297   1
   0  -9  14 12.7373 3.83043   1
   1  -9  14 -2.3447 3.57346   1
  -2   9 -14 27.1662 5.05388   2
   2  -9  14 33.4380 4.96697   1
   7   8 -14 15.9918 5.52910   3
  -7  -8  14 4.91204 4.20564   1
   6   8 -14 18.6415 4.62141   3
  -6  -8  14 4.13695 4.21619   1
   5   8 -14 52.7413 5.90125   3
  -5  -8  14 43.9022 8.43801   1
  -4  -8  14 16.3301 4.10538   1
   3   8 -14 56.8846 5.45836   3
  -3  -8  14 60.8586 6.02329   1
   2   8 -14 49.4673 5.00601   3
  -2  -8  14 42.3775 5.42296   1
   1   8 -14 18.4705 3.44728   3
  -1  -8  14 24.2037 3.72686   1
   0  -8  14 95.7811 6.61954   1
  -1   8 -14 0.56747 2.76141   2
   1  -8  14 0.44100 3.41944   1
  -2   8 -14 2.36938 3.18930   2
   2  -8  14 1.31317 3.79955   1
  -3   8 -14 6.50242 3.28512   2
   3  -8  14 13.2099 4.38515   1
   7   7 -14 0.84263 4.32824   3
  -7  -7  14 1.61868 4.12336   1
   6   7 -14 -1.1989 4.00775   3
  -6  -7  14 -1.0375 3.97751   1
   5   7 -14 -2.4071 3.39554   3
  -5  -7  14 -1.0974 3.64371   1
   4   7 -14 65.2312 6.02755   3
  -4  -7  14 76.7952 6.13534   1
   3   7 -14 44.9088 4.79923   3
  -3  -7  14 54.4170 5.71301   1
   2   7 -14 27.1596 3.55031   3
  -2  -7  14 26.5172 3.81955   1
   1   7 -14 14.4731 5.02017   2
   1   7 -14 10.5798 3.23541   3
  -1  -7  14 5.18524 3.06343   1
   0   7 -14 34.2689 4.32056   2
   0  -7  14 37.1642 5.14022   1
  -1   7 -14 80.4613 5.33138   2
   1  -7  14 66.5851 7.38816   1
  -2   7 -14 56.9869 5.53871   2
   2  -7  14 59.3830 6.26688   1
  -3   7 -14 13.3809 3.62226   2
   3  -7  14 11.1703 4.53166   1
   7   6 -14 9.59468 4.44502   3
  -7  -6  14 9.64544 4.87136   1
   6   6 -14 2.35027 3.70397   3
  -6  -6  14 -2.5294 3.66684   1
   5   6 -14 22.0912 4.08218   3
  -5  -6  14 24.2123 3.82637   1
   4   6 -14 14.9800 3.35187   3
  -4  -6  14 16.3382 3.59626   1
   3   6 -14 104.516 6.11468   3
  -3  -6  14 105.200 6.25391   1
   2   6 -14 293.793 10.6325   3
   2   6 -14 293.734 9.87202   2
  -2  -6  14 286.316 10.6666   1
   1   6 -14 120.023 5.83518   2
  -1  -6  14 122.017 6.56625   1
   0   6 -14 63.7386 4.60753   2
   0  -6  14 64.4197 5.65072   1
  -1   6 -14 167.045 7.22206   2
   1  -6  14 155.844 8.05543   1
  -2   6 -14 78.5424 5.95514   2
   2  -6  14 89.7008 6.86109   1
  -3   6 -14 32.0260 4.15702   2
   3  -6  14 37.0979 5.06771   1
   4  -6  14 -4.5493 4.69596   1
   8   5 -14 52.9877 6.13879   3
   7   5 -14 4.94042 4.27330   3
  -6  -5  14 26.1062 4.04071   1
   5   5 -14 48.3684 5.61525   3
  -5  -5  14 44.3207 5.37470   1
   4   5 -14 184.990 8.24473   3
  -4  -5  14 192.418 8.28323   1
   3   5 -14 17.3892 3.25771   3
   3   5 -14 14.0922 2.65004   2
  -3  -5  14 20.4080 3.42814   1
   2   5 -14 194.872 7.44340   2
   2   5 -14 187.281 7.82566   3
  -2  -5  14 189.183 8.05005   1
   1   5 -14 144.144 6.31833   2
  -1  -5  14 141.484 7.04342   1
   0   5 -14 45.5111 4.29463   2
   0  -5  14 39.4669 5.07819   1
  -1   5 -14 2.49518 2.54875   2
   1  -5  14 4.88770 3.46230   1
  -2   5 -14 65.5020 5.39122   2
   2  -5  14 60.3833 6.48864   1
  -3   5 -14 29.1682 4.12744   2
   3  -5  14 33.2425 5.05032   1
   4  -5  14 10.2616 4.96191   1
   8   4 -14 17.3566 5.01537   3
   7   4 -14 11.1342 4.25374   3
   6   4 -14 3.30852 3.49806   3
   5   4 -14 126.924 7.09928   3
  -5  -4  14 126.442 6.77416   1
   4   4 -14 25.8857 3.54206   3
  -4  -4  14 29.2021 3.35586   2
  -4  -4  14 24.9533 3.57202   1
   3   4 -14 8.13147 2.51429   2
   3   4 -14 11.9062 3.02214   3
  -3  -4  14 13.6819 2.92999   1
   2   4 -14 -3.2370 2.67692   3
   2   4 -14 1.48882 2.23288   2
  -2  -4  14 2.27923 2.76827   1
   1   4 -14 6.95965 2.40490   2
  -1  -4  14 7.78293 3.00702   1
   0   4 -14 0.64767 2.31229   2
   0  -4  14 2.22112 3.07209   1
  -1   4 -14 39.3096 4.40507   2
   1  -4  14 38.2923 4.56799   1
  -2   4 -14 13.2552 5.76035   2
   2  -4  14 21.4619 4.09240   1
  -3   4 -14 10.4737 3.51385   2
   3  -4  14 11.9304 4.23054   1
   4  -4  14 25.9668 5.43450   1
   8   3 -14 123.494 8.76643   3
   7   3 -14 2.04886 3.86331   3
   6   3 -14 41.1833 4.80765   3
  -6  -3  14 43.8762 5.01308   2
   5   3 -14 2.92824 3.17059   3
  -5  -3  14 2.60669 2.80213   2
  -5  -3  14 -2.8640 3.55338   1
   4   3 -14 42.9175 4.95797   3
  -4  -3  14 34.8158 3.76182   1
  -4  -3  14 55.2339 4.98971   2
   3   3 -14 4.59943 2.99753   3
   3   3 -14 7.80804 2.44423   2
  -3  -3  14 11.4500 2.87061   1
   2   3 -14 16.3594 2.94835   3
   2   3 -14 7.79037 2.38311   2
  -2  -3  14 8.67687 2.87019   1
   1   3 -14 69.3375 4.80903   2
  -1  -3  14 70.0041 5.16460   1
   0   3 -14 20.0803 2.96773   2
   0  -3  14 23.2005 3.66054   1
  -1   3 -14 0.10811 2.53648   2
   1  -3  14 -2.5784 3.25244   1
  -2   3 -14 55.3410 5.35744   2
   2  -3  14 56.6142 6.43962   1
  -3   3 -14 5.55146 3.47163   2
   3  -3  14 9.98401 4.40266   1
   8   2 -14 28.6715 5.20497   3
   7   2 -14 21.4557 4.55960   3
  -7  -2  14 15.7560 4.25809   2
   6   2 -14 52.5308 5.83790   3
  -6  -2  14 50.9969 5.34702   2
   5   2 -14 326.194 12.0520   3
  -5  -2  14 330.523 11.3723   2
  -4  -2  14 8.23234 2.87595   2
  -4  -2  14 5.77770 2.81848   1
   3   2 -14 36.9647 4.64906   3
   3   2 -14 47.5060 4.44617   2
  -3  -2  14 35.6258 4.49341   1
   2   2 -14 59.9482 4.71779   2
   2   2 -14 65.2644 4.95161   3
  -2  -2  14 56.4269 4.91314   1
   1   2 -14 80.3872 5.18685   2
  -1  -2  14 79.8440 5.53089   1
   0   2 -14 68.6866 5.02168   2
   0  -2  14 73.4371 5.74179   1
  -1   2 -14 11.3332 2.94025   2
   1  -2  14 7.84040 3.57029   1
  -2   2 -14 -0.6865 2.91436   2
   2  -2  14 4.29575 3.88459   1
  -3   2 -14 17.6025 4.00675   2
   3  -2  14 28.8314 5.15348   1
   8   1 -14 146.352 9.20035   3
  -8  -1  14 185.183 12.5257   2
   7   1 -14 4.31943 4.28642   3
  -7  -1  14 3.47927 3.64717   2
   6   1 -14 23.5113 4.31884   3
  -6  -1  14 15.5511 3.52735   2
   5   1 -14 63.7163 5.85506   3
  -5  -1  14 71.4643 5.65273   2
   4   1 -14 139.413 7.16291   3
  -4  -1  14 146.636 7.08284   2
   3   1 -14 29.8128 3.75693   3
   3   1 -14 32.8167 4.21631   2
  -3  -1  14 26.7619 3.36912   1
   2   1 -14 2.88205 2.45856   2
   2   1 -14 -5.7508 4.13101   3
  -2  -1  14 -0.3428 2.67656   1
   1   1 -14 5.82982 2.63923   2
  -1  -1  14 1.74835 2.96824   1
   0   1 -14 0.07052 2.55113   2
   0  -1  14 2.04935 3.19492   1
  -1   1 -14 44.7543 6.03238   2
   1  -1  14 42.2186 5.72293   1
  -2   1 -14 26.6758 3.76052   2
   2  -1  14 23.2638 4.64119   1
  -3   1 -14 13.0514 3.65019   2
   3  -1  14 4.21394 4.75329   1
   8   0 -14 1.77060 4.80834   3
  -8   0  14 7.34469 3.87664   2
   7   0 -14 43.6024 6.49099   3
  -7   0  14 23.9653 4.18233   2
  -6   0  14 4.67265 3.42606   2
   5   0 -14 89.9570 6.20442   3
  -5   0  14 86.5973 6.11657   2
   4   0 -14 9.28187 3.20293   3
  -4   0  14 5.63315 3.31154   2
   3   0 -14 36.2831 4.98608   3
   3   0 -14 35.2914 4.44715   2
   2   0 -14 194.015 8.19214   2
  -2   0  14 197.593 8.01879   1
   1   0 -14 52.4909 4.96822   2
  -1   0  14 45.5868 5.16568   1
   0   0 -14 31.9411 4.09044   2
   0   0  14 37.1552 5.35994   1
  -1   0 -14 48.7807 5.26699   2
   1   0  14 48.2722 5.28387   1
  -2   0 -14 32.2649 4.23172   2
   2   0  14 36.3828 5.15287   1
   8  -1 -14 0.24462 4.60282   3
   7  -1 -14 12.5720 4.43793   3
  -7   1  14 6.74355 3.53898   2
   6  -1 -14 9.45447 4.05043   3
  -6   1  14 8.48330 4.31556   2
   5  -1 -14 3.93460 3.47667   3
  -5   1  14 4.24816 3.47833   2
   4  -1 -14 123.166 6.96136   3
  -4   1  14 113.269 6.99958   2
   3  -1 -14 20.0465 3.35839   2
   3  -1 -14 22.6345 3.71212   3
   2  -1 -14 10.7490 3.12042   2
   1  -1 -14 20.6194 4.19696   2
  -1   1  14 21.5139 3.57379   1
   0  -1 -14 14.1353 3.53692   2
   0   1  14 15.1058 3.96928   1
  -1  -1 -14 159.332 8.05841   2
   1   1  14 147.333 9.26206   1
  -2  -1 -14 6.92694 3.54439   2
   2   1  14 -0.3381 4.25798   1
   7  -2 -14 -3.5747 4.37674   3
  -7   2  14 5.77491 3.94089   2
   6  -2 -14 9.58624 4.19118   3
  -6   2  14 7.56385 3.99559   2
   5  -2 -14 26.0221 4.21811   3
  -5   2  14 28.2251 4.04723   2
   4  -2 -14 -1.3620 3.37694   3
  -4   2  14 1.07693 4.37151   2
   3  -2 -14 98.7190 6.83993   3
   2  -2 -14 176.214 8.19981   2
   1  -2 -14 4.58584 3.25574   2
   0  -2 -14 14.0963 3.65104   2
   0   2  14 12.3443 4.17506   1
   1   2  14 25.0925 4.71413   1
   7  -3 -14 3.27162 4.89760   3
   6  -3 -14 21.2645 4.87256   3
  -6   3  14 11.5796 4.63888   2
   5  -3 -14 2.14928 4.14816   3
  -5   3  14 1.37042 4.07769   2
   4  -3 -14 2.12777 4.03549   3
  -4   3  14 3.56986 3.99263   2
   3  -3 -14 77.5780 7.71467   3
  -3   3  14 80.4166 7.01875   2
   2  -3 -14 126.272 7.39505   2
   1  -3 -14 6.01759 3.53391   2
   0  -3 -14 58.5287 6.74343   2
   1   3  14 6.59053 4.47199   1
   6  -4 -14 26.0176 5.32899   3
  -6   4  14 9.38112 4.95764   2
  -5   4  14 15.3244 4.72261   2
   4  -4 -14 26.5711 5.02277   3
  -4   4  14 21.7824 4.73621   2
  -3   4  14 2.03776 4.48551   2
   2  -4 -14 16.0069 4.10656   2
   1  -4 -14 41.4928 4.98593   2
   4  -5 -14 67.1325 7.88068   3
  -4   5  14 72.8890 8.02225   2
  -3   5  14 71.2540 7.99139   2
   4  11 -15 7.50306 4.80855   3
   3  11 -15 56.1966 7.10535   3
  -3 -11  15 54.9582 7.56559   1
   2  11 -15 37.6453 5.17628   3
  -2 -11  15 42.5468 5.62715   1
  -1 -11  15 7.53660 4.72930   1
   0 -11  15 9.73278 4.69949   1
   5  10 -15 59.1159 7.54558   3
  -5 -10  15 41.8486 5.64462   1
   4  10 -15 14.5540 4.46255   3
  -4 -10  15 2.70183 4.47772   1
   3  10 -15 16.2512 4.27909   3
  -3 -10  15 10.8498 4.77495   1
   2  10 -15 81.9920 6.94749   3
  -2 -10  15 93.2785 7.74024   1
  -1 -10  15 3.16326 4.18299   1
   0 -10  15 11.7209 4.42391   1
   1 -10  15 8.04975 4.45453   1
   5   9 -15 56.8683 7.26139   3
  -5  -9  15 42.9471 5.33569   1
   4   9 -15 18.5520 4.37719   3
  -4  -9  15 24.6741 4.85314   1
   3   9 -15 1.76304 3.59369   3
  -3  -9  15 14.5604 4.25937   1
   2   9 -15 2.23157 3.58230   3
  -2  -9  15 0.28824 3.93187   1
  -1  -9  15 26.8102 4.54205   1
   0  -9  15 4.81019 4.02939   1
   1  -9  15 4.94515 4.17081   1
   2  -9  15 -0.0583 4.47608   1
   6   8 -15 4.38155 4.60695   3
  -6  -8  15 0.57500 3.87761   1
   5   8 -15 1.77919 4.10188   3
  -5  -8  15 4.71845 4.22900   1
   4   8 -15 8.34017 5.85445   3
  -4  -8  15 16.7935 4.51310   1
   3   8 -15 0.38644 3.38848   3
   2   8 -15 96.1878 6.40644   3
  -1  -8  15 41.8564 5.61468   1
   0  -8  15 54.5897 6.31799   1
  -1   8 -15 8.86377 3.45166   2
   1  -8  15 8.56816 3.94583   1
  -2   8 -15 22.9024 3.89463   2
   7   7 -15 3.31970 4.81143   3
  -7  -7  15 0.54814 4.95443   1
   6   7 -15 8.34077 4.22121   3
  -6  -7  15 -1.7928 4.07314   1
   5   7 -15 35.3917 4.93400   3
  -5  -7  15 32.5900 4.83331   1
   4   7 -15 85.5209 6.34903   3
  -4  -7  15 77.1928 6.73134   1
   3   7 -15 35.1437 4.88284   3
  -3  -7  15 36.3900 4.48934   1
   2   7 -15 8.45569 3.43339   3
  -2  -7  15 -0.8695 3.29791   1
  -1  -7  15 135.304 7.54678   1
   0   7 -15 78.4460 5.32193   2
   0  -7  15 63.9207 6.25169   1
  -1   7 -15 57.8516 5.62543   2
   1  -7  15 67.1686 6.50656   1
  -2   7 -15 14.8504 3.49975   2
   2  -7  15 21.9416 4.50851   1
   3  -7  15 7.08011 4.59896   1
   7   6 -15 3.07203 4.71274   3
   6   6 -15 18.4440 4.58062   3
  -6  -6  15 15.5442 4.36857   1
   5   6 -15 6.21695 4.99040   3
  -5  -6  15 14.1153 3.94514   1
   4   6 -15 37.8595 5.22808   3
  -4  -6  15 44.0900 5.87413   1
   3   6 -15 34.1241 4.95016   3
  -3  -6  15 40.8046 5.32598   1
   2   6 -15 72.7968 5.66789   3
  -2  -6  15 73.8357 5.84986   1
   1   6 -15 0.25534 2.65279   2
  -1  -6  15 -0.1888 3.27534   1
   0   6 -15 56.6281 4.93086   2
   0  -6  15 49.2724 7.10877   1
  -1   6 -15 119.021 6.72604   2
   1  -6  15 126.923 7.61980   1
  -2   6 -15 20.5439 3.73030   2
   2  -6  15 30.3202 4.80858   1
  -3   6 -15 1.58209 3.47553   2
   3  -6  15 3.10370 4.62778   1
   7   5 -15 50.5587 7.04103   3
   6   5 -15 45.5391 5.04562   3
   5   5 -15 4.10963 3.52877   3
  -5  -5  15 -2.2072 3.48390   1
   4   5 -15 13.9517 3.50030   3
  -4  -5  15 12.2935 3.69298   1
   3   5 -15 43.8319 4.64315   2
   3   5 -15 38.0617 5.05420   3
  -3  -5  15 36.4892 5.26688   1
   2   5 -15 79.9409 5.39447   2
   2   5 -15 75.7653 6.27754   3
  -2  -5  15 85.2693 5.86106   1
   1   5 -15 46.2692 4.75459   2
  -1  -5  15 48.8143 5.34912   1
   0   5 -15 54.1002 4.96084   2
   0  -5  15 44.0603 5.60940   1
  -1   5 -15 -0.1359 3.01338   2
   1  -5  15 -3.3172 3.57104   1
  -2   5 -15 8.09028 3.32076   2
   2  -5  15 8.39605 4.29154   1
  -3   5 -15 4.17685 3.75408   2
   3  -5  15 16.4254 5.09722   1
   7   4 -15 43.0114 5.30023   3
   6   4 -15 65.8063 6.54943   3
   5   4 -15 71.7800 6.02106   3
  -5  -4  15 65.1914 6.05329   1
   4   4 -15 0.18863 3.03259   3
  -4  -4  15 -5.4682 3.34956   1
  -4  -4  15 3.04119 3.29477   2
   3   4 -15 6.53900 2.89414   2
   3   4 -15 12.1111 3.38603   3
  -3  -4  15 16.3331 3.37429   1
   2   4 -15 18.7408 3.14979   2
  -2  -4  15 22.5734 3.58855   1
   1   4 -15 54.8535 4.93084   2
  -1  -4  15 42.0258 5.33707   1
   0   4 -15 3.18707 2.79032   2
   0  -4  15 4.74108 3.47533   1
   1  -4  15 4.48477 3.68604   1
  -2   4 -15 52.0561 5.87048   2
   2  -4  15 55.2302 7.07938   1
  -3   4 -15 36.2324 4.64845   2
   3  -4  15 38.9094 5.51768   1
   7   3 -15 38.5322 5.20888   3
   6   3 -15 3.55947 3.99590   3
   5   3 -15 11.4717 3.71537   3
  -5  -3  15 14.7718 3.34866   2
   4   3 -15 147.745 7.41308   3
  -4  -3  15 153.564 7.41380   2
  -4  -3  15 155.731 7.46246   1
   3   3 -15 131.847 6.98612   3
   3   3 -15 132.324 6.59500   2
  -3  -3  15 118.949 6.66539   1
   2   3 -15 38.3195 4.73562   2
  -2  -3  15 38.2352 4.98274   1
   1   3 -15 27.1399 3.51779   2
  -1  -3  15 32.2197 3.99799   1
   0   3 -15 70.7970 5.28607   2
   0  -3  15 62.9882 5.91910   1
  -1   3 -15 6.93693 3.11782   2
   1  -3  15 3.60988 3.84536   1
  -2   3 -15 -2.0212 3.16899   2
   2  -3  15 7.98720 4.40356   1
   7   2 -15 128.411 8.85883   3
   6   2 -15 93.9368 7.57794   3
   5   2 -15 10.5474 3.74572   3
  -5  -2  15 7.16308 3.31670   2
   4   2 -15 65.1221 5.89890   3
  -4  -2  15 62.8968 5.65169   2
   3   2 -15 81.2702 5.90272   3
   3   2 -15 80.1340 5.62182   2
  -3  -2  15 76.8044 5.72273   1
   2   2 -15 34.3703 4.74837   2
  -2  -2  15 34.2519 5.07968   1
   1   2 -15 31.1973 3.86181   2
  -1  -2  15 40.5514 5.17062   1
   0  -2  15 6.29601 3.58595   1
  -1   2 -15 15.0855 3.40135   2
   1  -2  15 15.3953 4.13933   1
  -2   2 -15 -0.8878 3.47537   2
   2  -2  15 3.66317 4.36869   1
   7   1 -15 23.7155 4.72923   3
  -7  -1  15 6.18699 3.97110   2
   6   1 -15 60.1571 6.74327   3
   5   1 -15 -6.1974 3.55268   3
  -5  -1  15 -0.5946 3.45327   2
   4   1 -15 38.5746 5.33375   3
  -4  -1  15 49.6716 5.68205   2
   3   1 -15 19.9700 3.76131   3
   3   1 -15 22.0509 3.38195   2
   2   1 -15 17.7060 3.22133   2
  -2  -1  15 15.7503 3.53234   1
   1   1 -15 43.2746 5.63696   2
  -1  -1  15 44.7166 5.43988   1
   0   1 -15 78.9509 6.07103   2
   0  -1  15 70.2771 6.46811   1
  -1   1 -15 16.0205 3.58447   2
   1  -1  15 19.4903 4.46379   1
  -2   1 -15 10.4757 3.71703   2
   2  -1  15 3.93862 4.31604   1
   7   0 -15 6.54876 4.56654   3
  -7   0  15 0.88072 3.73422   2
   6   0 -15 13.3569 4.33796   3
  -6   0  15 3.06313 3.88070   2
   5   0 -15 -2.4591 3.68692   3
   4   0 -15 5.27233 3.68916   3
  -4   0  15 6.80883 4.47570   2
   3   0 -15 38.1666 5.53759   3
   3   0 -15 35.9039 4.97174   2
   1   0 -15 65.7638 5.96790   2
  -1   0  15 68.1855 6.16590   1
   0   0 -15 3.15917 3.45475   2
   0   0  15 4.27830 3.98979   1
  -1   0 -15 67.4242 6.37666   2
   1   0  15 45.1014 6.52825   1
   7  -1 -15 2.50954 4.83938   3
  -7   1  15 1.18823 3.99474   2
   6  -1 -15 31.2296 4.80974   3
  -6   1  15 15.4329 4.23846   2
   5  -1 -15 30.8374 7.78487   3
  -5   1  15 28.8858 4.39984   2
   4  -1 -15 18.2689 3.92545   3
  -4   1  15 21.3686 4.11228   2
   2  -1 -15 41.9861 5.67438   2
   1  -1 -15 47.0211 6.04899   2
   0  -1 -15 31.2443 4.45261   2
   0   1  15 22.1423 5.93499   1
  -1  -1 -15 9.30876 4.07114   2
   1   1  15 2.12386 3.97526   1
   6  -2 -15 -0.8707 4.59260   3
  -6   2  15 -3.2768 4.35470   2
   5  -2 -15 172.070 9.63787   3
  -5   2  15 198.784 9.55291   2
   4  -2 -15 77.2636 7.04248   3
  -4   2  15 60.8915 6.83060   2
   2  -2 -15 46.3229 4.76656   2
   1  -2 -15 10.0659 3.84349   2
   0  -2 -15 19.2451 4.31094   2
   5  -3 -15 4.84184 4.67530   3
  -5   3  15 11.1057 4.77583   2
   4  -3 -15 110.096 8.23916   3
  -4   3  15 96.6993 7.95839   2
  -3   3  15 89.7350 8.06339   2
   2  -3 -15 4.48139 3.72961   2
   1  -3 -15 -4.1623 3.88437   2
   4  10 -16 2.09468 4.62131   3
  -4 -10  16 2.19897 4.70744   1
   3  10 -16 99.4876 8.12485   3
  -3 -10  16 89.0003 8.12398   1
  -2 -10  16 25.2346 5.14148   1
  -1 -10  16 14.2394 4.76806   1
   0 -10  16 -0.4430 4.56135   1
   5   9 -16 3.08195 4.56203   3
  -5  -9  16 3.06354 4.17712   1
   4   9 -16 30.6960 4.82118   3
  -4  -9  16 29.7077 5.10258   1
   3   9 -16 4.31960 4.17021   3
  -3  -9  16 4.47246 4.49417   1
  -2  -9  16 -2.2115 4.13533   1
  -1  -9  16 10.4757 4.45249   1
   0  -9  16 30.9033 4.83589   1
   1  -9  16 15.3099 4.77557   1
   5   8 -16 -0.1231 4.40118   3
  -5  -8  16 3.98391 4.13821   1
   4   8 -16 11.2321 4.25888   3
  -4  -8  16 10.8018 4.37668   1
   3   8 -16 64.7517 6.22795   3
  -3  -8  16 64.7362 6.90651   1
  -2  -8  16 47.9249 6.27838   1
  -1  -8  16 31.6257 4.67513   1
   0  -8  16 -3.4459 3.96006   1
   1  -8  16 48.1816 6.88851   1
   6   7 -16 52.1361 5.86575   3
   5   7 -16 4.62539 4.04613   3
  -5  -7  16 0.61599 3.86986   1
  -4  -7  16 4.54079 4.15753   1
   3   7 -16 -0.4968 3.54851   3
  -3  -7  16 6.58837 4.09846   1
  -2  -7  16 101.227 7.11993   1
  -1  -7  16 78.3464 6.73398   1
   0   7 -16 -3.6264 3.30338   2
   0  -7  16 0.50251 3.78359   1
  -1   7 -16 3.36402 3.19395   2
   1  -7  16 9.07955 4.31055   1
   6   6 -16 18.8958 4.83196   3
   5   6 -16 85.7029 7.03855   3
  -5  -6  16 63.0971 7.85711   1
   4   6 -16 12.9537 3.93892   3
  -4  -6  16 18.9949 4.33981   1
   3   6 -16 1.23404 3.58516   3
  -3  -6  16 -2.4208 3.62562   1
  -2  -6  16 81.9112 8.37018   1
   1   6 -16 13.2348 3.31073   2
  -1  -6  16 15.3542 4.03653   1
   0   6 -16 -3.1754 3.14217   2
   0  -6  16 2.92685 3.69509   1
  -1   6 -16 0.97439 3.03393   2
   1  -6  16 5.75698 4.14867   1
   2  -6  16 155.587 9.33128   1
   6   5 -16 -4.6486 4.07906   3
   5   5 -16 3.83452 3.82940   3
  -5  -5  16 10.4361 4.32095   1
   4   5 -16 68.1865 6.14148   3
  -4  -5  16 80.0055 6.83260   1
   3   5 -16 32.1199 4.32289   3
  -3  -5  16 28.4298 4.33922   1
   2   5 -16 4.94870 3.02274   2
  -2  -5  16 11.8180 3.73264   1
   1   5 -16 7.77619 3.24312   2
   0   5 -16 3.39912 5.63859   2
   0  -5  16 1.15186 3.79248   1
  -1   5 -16 1.93536 3.16118   2
   1  -5  16 4.00080 4.04504   1
   2  -5  16 8.62729 4.82036   1
   7   4 -16 19.3820 5.16816   3
   6   4 -16 51.9149 7.10050   3
   4   4 -16 8.47178 3.82144   3
  -4  -4  16 15.0011 3.85814   2
  -4  -4  16 0.87461 3.86575   1
   3   4 -16 152.030 8.32543   3
   3   4 -16 159.555 7.66349   2
  -3  -4  16 161.680 7.93974   1
   2   4 -16 154.722 7.48362   2
  -2  -4  16 150.312 7.85011   1
   1   4 -16 -0.1818 3.15717   2
  -1  -4  16 1.01098 3.84117   1
   0   4 -16 1.49849 3.21129   2
   0  -4  16 1.26210 3.70283   1
  -1   4 -16 6.07654 3.35309   2
   1  -4  16 2.29095 4.22569   1
   2  -4  16 29.4030 5.42468   1
   7   3 -16 26.6998 5.26102   3
   6   3 -16 156.548 8.89257   3
  -5  -3  16 53.1386 6.38158   2
   4   3 -16 58.0945 5.98588   3
  -4  -3  16 46.4737 6.09193   2
   3   3 -16 -0.6605 3.13538   2
  -3  -3  16 -0.4131 3.36712   1
   2   3 -16 49.4623 5.47065   2
  -2  -3  16 44.1628 5.66293   1
  -1  -3  16 3.60100 3.70600   1
   0   3 -16 3.43415 3.23825   2
   0  -3  16 2.98227 4.04211   1
  -1   3 -16 9.04658 3.57860   2
   1  -3  16 15.5392 4.56715   1
   7   2 -16 -0.6259 4.79168   3
   6   2 -16 -4.3796 4.33290   3
  -6  -2  16 -5.0440 5.47001   2
  -5  -2  16 1.93162 3.76000   2
   4   2 -16 7.66918 3.91877   3
  -4  -2  16 7.64435 3.75417   2
   3   2 -16 102.321 6.55751   2
  -2  -2  16 16.4200 3.89794   1
   1   2 -16 1.87975 3.25189   2
  -1  -2  16 1.13515 3.68754   1
   0   2 -16 3.37096 3.37100   2
   0  -2  16 -1.8926 3.66722   1
  -1   2 -16 17.4159 3.96417   2
   1  -2  16 12.6035 4.32608   1
   6   1 -16 80.8677 7.72869   3
   5   1 -16 2.61109 4.17388   3
  -5  -1  16 12.0225 4.00504   2
   4   1 -16 1.14463 3.90220   3
  -4  -1  16 4.24948 4.05338   2
   3   1 -16 -4.2777 3.06199   2
   2   1 -16 60.0878 5.83264   2
   1   1 -16 20.7196 3.80201   2
  -1  -1  16 18.9201 4.32878   1
   0   1 -16 18.4389 4.13635   2
   1  -1  16 4.28148 3.94164   1
   6   0 -16 1.17737 4.67870   3
  -6   0  16 -10.374 4.19372   2
   5   0 -16 54.6234 6.95554   3
  -5   0  16 71.0350 7.30085   2
   4   0 -16 3.24316 4.30408   3
  -4   0  16 2.12596 4.12146   2
   3   0 -16 54.5575 6.02375   2
   2   0 -16 27.8787 4.33084   2
   1   0 -16 9.01655 3.83490   2
   0   0 -16 49.2233 6.66733   2
   5  -1 -16 -6.4602 4.47342   3
  -5   1  16 -4.8394 4.50370   2
  -4   1  16 46.4405 5.40589   2
   2  -1 -16 136.627 8.08604   2
   1  -1 -16 10.1445 3.92072   2
  -4   2  16 38.4173 5.30846   2
  -3   2  16 16.0146 5.06314   2
  -3  -9  17 -2.1950 4.60232   1
  -2  -9  17 34.3816 5.34325   1
  -1  -9  17 30.5881 5.32665   1
   4   8 -17 11.9442 4.53923   3
  -4  -8  17 6.82008 4.15708   1
  -3  -8  17 2.98884 4.19267   1
  -2  -8  17 0.73715 4.08278   1
  -1  -8  17 10.5405 4.41447   1
   0  -8  17 24.4370 5.02558   1
   5   7 -17 -6.1781 4.51816   3
  -5  -7  17 1.42181 4.04116   1
  -4  -7  17 38.7867 4.94808   1
  -3  -7  17 8.06445 4.18914   1
  -2  -7  17 10.4406 4.17917   1
  -1  -7  17 15.1010 4.25985   1
   0  -7  17 20.9252 4.69432   1
   5   6 -17 11.3336 4.44783   3
  -5  -6  17 0.66835 4.27336   1
   4   6 -17 -0.5924 3.95061   3
  -4  -6  17 0.85495 3.92543   1
  -3  -6  17 14.9566 4.26235   1
  -2  -6  17 -2.0893 3.66855   1
  -1  -6  17 -1.5205 3.90367   1
   0  -6  17 57.8348 6.83755   1
   6   5 -17 22.3063 5.16720   3
   5   5 -17 26.7098 4.87379   3
  -3  -5  17 -0.7543 4.03428   1
   2   5 -17 -1.9807 3.27582   2
  -2  -5  17 0.41827 3.73203   1
   1   5 -17 -2.5262 3.39051   2
  -1  -5  17 -1.9546 3.74830   1
   0   5 -17 -0.2973 3.01234   2
   0  -5  17 -2.8970 4.08159   1
   6   4 -17 23.1799 4.97957   3
   5   4 -17 47.4594 6.62606   3
   4   4 -17 61.2168 6.97419   3
   3   4 -17 24.9369 4.20516   2
  -3  -4  17 23.9401 4.94919   1
   2   4 -17 -1.9102 3.37892   2
  -2  -4  17 6.72564 3.84437   1
   1   4 -17 -3.7203 3.13304   2
  -1  -4  17 -1.7827 3.65425   1
   0   4 -17 5.36395 3.36729   2
   0  -4  17 4.98048 3.90593   1
   6   3 -17 85.1838 8.39118   3
   5   3 -17 33.3189 5.16468   3
  -5  -3  17 1.17005 6.73740   2
  -4  -3  17 39.7087 4.94460   2
   3   3 -17 16.3144 3.58670   2
   2   3 -17 7.39842 3.53261   2
  -2  -3  17 8.04359 4.50258   1
   1   3 -17 12.9990 3.74608   2
  -1  -3  17 5.60316 3.72264   1
   0   3 -17 -0.0703 3.56723   2
   0  -3  17 1.71380 3.70320   1
   5   2 -17 55.4271 7.39688   3
  -5  -2  17 63.3061 7.45389   2
  -4  -2  17 61.1596 7.18009   2
   3   2 -17 4.46553 3.41551   2
   2   2 -17 1.10442 3.48168   2
   1   2 -17 2.78616 3.62893   2
  -1  -2  17 4.11050 3.61686   1
   5   1 -17 37.6134 5.24881   3
  -5  -1  17 25.7198 5.00743   2
  -4  -1  17 22.2749 4.85648   2
   3   1 -17 21.8314 3.97944   2
   2   1 -17 45.9939 5.00692   2
  -3  -6  18 -1.6689 3.64499   1
  -3  -5  18 1.76240 3.83530   1
  -2  -5  18 0.95771 3.68865   1
   0   0   0    0.00    0.00   0
 _exptl_absorpt_process_details 'SADABS 2014/5'
 _exptl_absorpt_correction_type   multi-scan
 _exptl_absorpt_correction_T_max  0.7465
 _exptl_absorpt_correction_T_min  0.6342
 _exptl_special_details
)
 The following wavelength and cell were deduced by SADABS from the
 direction cosines etc. They are given here for emergency use only:
 CELL 0.71057    6.677    9.673   11.745  108.861  106.056   93.606
)
;
_shelx_hkl_checksum              88967
_shelx_res_file
;
TITL lmr2_0m_a.res in P-1
    lmr2_0m_a.res
    created by SHELXL-2017/1 at 10:14:10 on 03-Mar-2019
CELL  0.71073   6.6151   9.5628  11.6345  108.645  105.994   93.828
ZERR    2.000   0.0018   0.0027   0.0032    0.004    0.004    0.004
LATT 1
SFAC C  H  N  O  S
UNIT 16  22  18  4  2
LIST 6 ! automatically inserted. Change 6 to 4 for CHECKCIF!!
L.S. 10
ACTA
BOND $H
FMAP 2
PLAN 2
SIZE 0.08 0.28 0.80
TEMP -173
WGHT    0.040100    0.356500
EXTI    0.021739
FVAR       0.87299
S1    5    0.588170    0.323609    0.118811    11.00000    0.01499    0.01799 =
         0.01287    0.00623    0.00554    0.00388
O1    4    0.651629    0.188287    0.053839    11.00000    0.02513    0.02602 =
         0.01684    0.00566    0.01069    0.01083
O2    4    0.664456    0.464148    0.114709    11.00000    0.02216    0.02415 =
         0.02111    0.01215    0.00755   -0.00009
N1    3    0.681238    0.338100    0.276041    11.00000    0.01572    0.01565 =
         0.01230    0.00493    0.00399    0.00370
N2    3    0.759620    0.423260    0.489766    11.00000    0.01203    0.01587 =
         0.01515    0.00547    0.00429    0.00102
N3    3    0.644963    0.592328    0.375203    11.00000    0.01981    0.01480 =
         0.01693    0.00525    0.00529    0.00265
N4    3    0.679465    0.696352    0.480068    11.00000    0.01297    0.01642 =
         0.02063    0.00663    0.00636    0.00207
N5    3    0.703996    0.800923    0.565960    11.00000    0.02212    0.02076 =
         0.02605    0.00250    0.00904    0.00258
N6    3    0.862417    0.183104    0.832850    11.00000    0.01756    0.03787 =
         0.01794    0.01288    0.00566    0.00394
N7    3    0.668973    0.151493    0.773287    11.00000    0.01884    0.02120 =
         0.02248    0.01048    0.01004    0.00477
N8    3    0.488930    0.126794    0.728926    11.00000    0.01852    0.03070 =
         0.03810    0.01340    0.00975    0.00261
N9    3    0.331022    0.297418    0.079618    11.00000    0.01387    0.01521 =
         0.01687    0.00596    0.00300    0.00263
C1    1    0.735813    0.217973    0.316034    11.00000    0.01536    0.01596 =
         0.01601    0.00626    0.00469    0.00342
AFIX  43
H1    2    0.738643    0.119381    0.263572    11.00000   -1.20000
AFIX   0
C2    1    0.697061    0.456588    0.386096    11.00000    0.01062    0.01480 =
         0.01593    0.00512    0.00441    0.00040
C3    1    0.784173    0.272274    0.446384    11.00000    0.01068    0.01695 =
         0.01555    0.00633    0.00367    0.00152
C4    1    0.852463    0.190771    0.532997    11.00000    0.01306    0.01782 =
         0.01682    0.00756    0.00445    0.00323
AFIX  43
H4    2    0.836577    0.084831    0.497346    11.00000   -1.20000
AFIX   0
C5    1    0.936373    0.256788    0.660049    11.00000    0.01322    0.01933 =
         0.01673    0.00776    0.00530    0.00307
AFIX  43
H5    2    0.954749    0.362879    0.695491    11.00000   -1.20000
AFIX   0
C6    1    1.002791    0.173138    0.749314    11.00000    0.01405    0.02545 =
         0.01670    0.00926    0.00506    0.00504
AFIX  23
H6A   2    1.152396    0.214636    0.803867    11.00000   -1.20000
H6B   2    0.996255    0.066642    0.699097    11.00000   -1.20000
AFIX   0
C7    1    0.230588    0.158532    0.086699    11.00000    0.01920    0.01951 =
         0.02452    0.00797    0.00282   -0.00168
AFIX 137
H7A   2    0.250179    0.171110    0.176261    11.00000   -1.50000
H7B   2    0.297367    0.074636    0.048982    11.00000   -1.50000
H7C   2    0.077775    0.137969    0.039540    11.00000   -1.50000
AFIX   0
C8    1    0.228752    0.428727    0.123386    11.00000    0.01798    0.02034 =
         0.02513    0.00573    0.00420    0.00737
AFIX 137
H8A   2    0.079649    0.408488    0.069371    11.00000   -1.50000
H8B   2    0.304630    0.516510    0.117531    11.00000   -1.50000
H8C   2    0.234224    0.448176    0.212252    11.00000   -1.50000
AFIX   0
HKLF 4
REM  lmr2_0m_a.res in P-1
REM R1 =  0.0428 for    4051 Fo > 4sig(Fo)  and  0.0622 for all    5171 data
REM    184 parameters refined using      0 restraints
END
WGHT      0.0370      0.3742
REM Highest difference peak  0.458,  deepest hole -0.598,  1-sigma level  0.076
Q1    1   0.8395  0.2344  0.4949  11.00000  0.05    0.46
Q2    1   0.6152  0.2160  0.0995  11.00000  0.05    0.42
;
_shelx_res_checksum              79083
loop_
_space_group_symop_operation_xyz
'x, y, z'
'-x, -y, -z'
loop_
_atom_site_type_symbol
_atom_site_label
_atom_site_fract_x
_atom_site_fract_y
_atom_site_fract_z
_atom_site_U_iso_or_equiv
_atom_site_adp_type
_atom_site_calc_flag
_atom_site_occupancy
S S1 0.58817(5) 0.32361(4) 0.11881(3) 0.01478(8) Uani d 1
O O1 0.65163(17) 0.18829(12) 0.05384(10) 0.0219(2) Uani d 1
O O2 0.66446(17) 0.46415(12) 0.11471(10) 0.0215(2) Uani d 1
N N1 0.68124(18) 0.33810(13) 0.27604(10) 0.0146(2) Uani d 1
N N2 0.75962(17) 0.42326(13) 0.48977(10) 0.0144(2) Uani d 1
N N3 0.64496(19) 0.59233(13) 0.37520(11) 0.0174(2) Uani d 1
N N4 0.67946(18) 0.69635(13) 0.48007(11) 0.0164(2) Uani d 1
N N5 0.7040(2) 0.80092(15) 0.56596(13) 0.0242(3) Uani d 1
N N6 0.8624(2) 0.18310(17) 0.83285(12) 0.0237(3) Uani d 1
N N7 0.66897(19) 0.15149(14) 0.77329(12) 0.0193(2) Uani d 1
N N8 0.4889(2) 0.12679(17) 0.72893(15) 0.0287(3) Uani d 1
N N9 0.33102(18) 0.29742(13) 0.07962(11) 0.0156(2) Uani d 1
C C1 0.7358(2) 0.21797(15) 0.31603(13) 0.0156(2) Uani d 1
H H1 0.738643 0.119381 0.263572 0.019 Uiso calc 1
C C2 0.69706(19) 0.45659(15) 0.38610(12) 0.0139(2) Uani d 1
C C3 0.78417(19) 0.27227(15) 0.44638(12) 0.0144(2) Uani d 1
C C4 0.8525(2) 0.19077(15) 0.53300(12) 0.0156(2) Uani d 1
H H4 0.836577 0.084831 0.497346 0.019 Uiso calc 1
C C5 0.9364(2) 0.25679(16) 0.66005(13) 0.0159(2) Uani d 1
H H5 0.954749 0.362879 0.695491 0.019 Uiso calc 1
C C6 1.0028(2) 0.17314(17) 0.74931(13) 0.0181(3) Uani d 1
H H6A 1.152396 0.214636 0.803867 0.022 Uiso calc 1
H H6B 0.996255 0.066642 0.699097 0.022 Uiso calc 1
C C7 0.2306(2) 0.15853(17) 0.08670(15) 0.0221(3) Uani d 1
H H7A 0.250179 0.171110 0.176261 0.033 Uiso calc 1
H H7B 0.297367 0.074636 0.048982 0.033 Uiso calc 1
H H7C 0.077775 0.137969 0.039540 0.033 Uiso calc 1
C C8 0.2288(2) 0.42873(17) 0.12339(15) 0.0221(3) Uani d 1
H H8A 0.079649 0.408488 0.069371 0.033 Uiso calc 1
H H8B 0.304630 0.516510 0.117531 0.033 Uiso calc 1
H H8C 0.234224 0.448176 0.212252 0.033 Uiso calc 1
loop_
_atom_site_aniso_label
_atom_site_aniso_U_11
_atom_site_aniso_U_22
_atom_site_aniso_U_33
_atom_site_aniso_U_12
_atom_site_aniso_U_13
_atom_site_aniso_U_23
S1 0.01499(14) 0.01799(16) 0.01287(14) 0.00388(11) 0.00554(11) 0.00623(11)
O1 0.0251(5) 0.0260(5) 0.0168(5) 0.0108(4) 0.0107(4) 0.0057(4)
O2 0.0222(5) 0.0242(5) 0.0211(5) -0.0001(4) 0.0076(4) 0.0122(4)
N1 0.0157(5) 0.0157(5) 0.0123(4) 0.0037(4) 0.0040(4) 0.0049(4)
N2 0.0120(4) 0.0159(5) 0.0151(5) 0.0010(4) 0.0043(4) 0.0055(4)
N3 0.0198(5) 0.0148(5) 0.0169(5) 0.0027(4) 0.0053(4) 0.0052(4)
N4 0.0130(5) 0.0164(5) 0.0206(5) 0.0021(4) 0.0064(4) 0.0066(4)
N5 0.0221(6) 0.0208(6) 0.0261(6) 0.0026(5) 0.0090(5) 0.0025(5)
N6 0.0176(5) 0.0379(7) 0.0179(5) 0.0039(5) 0.0057(4) 0.0129(5)
N7 0.0188(5) 0.0212(6) 0.0225(6) 0.0048(4) 0.0100(4) 0.0105(5)
N8 0.0185(6) 0.0307(7) 0.0381(8) 0.0026(5) 0.0097(5) 0.0134(6)
N9 0.0139(5) 0.0152(5) 0.0169(5) 0.0026(4) 0.0030(4) 0.0060(4)
C1 0.0154(5) 0.0160(6) 0.0160(5) 0.0034(4) 0.0047(4) 0.0063(5)
C2 0.0106(5) 0.0148(5) 0.0159(5) 0.0004(4) 0.0044(4) 0.0051(4)
C3 0.0107(5) 0.0169(6) 0.0156(5) 0.0015(4) 0.0037(4) 0.0063(5)
C4 0.0131(5) 0.0178(6) 0.0168(6) 0.0032(4) 0.0044(4) 0.0076(5)
C5 0.0132(5) 0.0193(6) 0.0167(6) 0.0031(4) 0.0053(4) 0.0078(5)
C6 0.0141(5) 0.0254(7) 0.0167(6) 0.0050(5) 0.0051(4) 0.0093(5)
C7 0.0192(6) 0.0195(7) 0.0245(7) -0.0017(5) 0.0028(5) 0.0080(5)
C8 0.0180(6) 0.0203(7) 0.0251(7) 0.0074(5) 0.0042(5) 0.0057(5)
loop_
_atom_type_symbol
_atom_type_description
_atom_type_scat_dispersion_real
_atom_type_scat_dispersion_imag
_atom_type_scat_source
C C 0.0033 0.0016 'International Tables Vol C Tables 4.2.6.8 and 6.1.1.4'
H H 0.0000 0.0000 'International Tables Vol C Tables 4.2.6.8 and 6.1.1.4'
N N 0.0061 0.0033 'International Tables Vol C Tables 4.2.6.8 and 6.1.1.4'
O O 0.0106 0.0060 'International Tables Vol C Tables 4.2.6.8 and 6.1.1.4'
S S 0.1246 0.1234 'International Tables Vol C Tables 4.2.6.8 and 6.1.1.4'
loop_
_geom_angle_atom_site_label_1
_geom_angle_atom_site_label_2
_geom_angle_atom_site_label_3
_geom_angle
O2 S1 O1 121.70(7)
O2 S1 N9 109.81(6)
O1 S1 N9 108.59(6)
O2 S1 N1 106.16(6)
O1 S1 N1 102.88(6)
N9 S1 N1 106.52(6)
C2 N1 C1 105.71(11)
C2 N1 S1 129.94(10)
C1 N1 S1 124.00(9)
C2 N2 C3 104.81(11)
N4 N3 C2 114.19(12)
N5 N4 N3 171.58(15)
N7 N6 C6 113.91(12)
N8 N7 N6 173.95(15)
C8 N9 C7 113.93(12)
C8 N9 S1 117.77(10)
C7 N9 S1 115.55(9)
C3 C1 N1 105.82(11)
C3 C1 H1 127.1
N1 C1 H1 127.1
N2 C2 N1 113.05(12)
N2 C2 N3 128.30(12)
N1 C2 N3 118.64(11)
C1 C3 N2 110.59(11)
C1 C3 C4 126.98(13)
N2 C3 C4 122.43(12)
C5 C4 C3 123.73(13)
C5 C4 H4 118.1
C3 C4 H4 118.1
C4 C5 C6 123.82(13)
C4 C5 H5 118.1
C6 C5 H5 118.1
C5 C6 N6 111.84(11)
C5 C6 H6A 109.2
N6 C6 H6A 109.2
C5 C6 H6B 109.2
N6 C6 H6B 109.2
H6A C6 H6B 107.9
N9 C7 H7A 109.5
N9 C7 H7B 109.5
H7A C7 H7B 109.5
N9 C7 H7C 109.5
H7A C7 H7C 109.5
H7B C7 H7C 109.5
N9 C8 H8A 109.5
N9 C8 H8B 109.5
H8A C8 H8B 109.5
N9 C8 H8C 109.5
H8A C8 H8C 109.5
H8B C8 H8C 109.5
loop_
_geom_bond_atom_site_label_1
_geom_bond_atom_site_label_2
_geom_bond_distance
S1 O2 1.4237(11)
S1 O1 1.4297(11)
S1 N9 1.6146(12)
S1 N1 1.7177(12)
N1 C2 1.3846(17)
N1 C1 1.4039(17)
N2 C2 1.3099(17)
N2 C3 1.4058(18)
N3 N4 1.2531(16)
N3 C2 1.4002(18)
N4 N5 1.1291(17)
N6 N7 1.2389(17)
N6 C6 1.5053(18)
N7 N8 1.1342(18)
N9 C8 1.4792(18)
N9 C7 1.4814(19)
C1 C3 1.3707(18)
C1 H1 0.9500
C3 C4 1.4579(18)
C4 C5 1.3402(19)
C4 H4 0.9500
C5 C6 1.4961(19)
C5 H5 0.9500
C6 H6A 0.9900
C6 H6B 0.9900
C7 H7A 0.9800
C7 H7B 0.9800
C7 H7C 0.9800
C8 H8A 0.9800
C8 H8B 0.9800
C8 H8C 0.9800
loop_
_geom_hbond_atom_site_label_D
_geom_hbond_atom_site_label_H
_geom_hbond_atom_site_label_A
_geom_hbond_site_symmetry_A
_geom_hbond_distance_DH
_geom_hbond_distance_HA
_geom_hbond_distance_DA
_geom_hbond_angle_DHA
C7 H7B O1 2_655 0.98 2.51 3.444(2) 160
C6 H6A N8 1_655 0.99 2.70 3.337(2) 123
C7 H7C N6 1_454 0.98 2.62 3.357(2) 132

_cod_database_fobs_code 2242920
