#------------------------------------------------------------------------------
#$Date: 2018-02-14 10:11:25 +0200 (Wed, 14 Feb 2018) $
#$Revision: 206432 $
#$URL: file:///home/coder/svn-repositories/cod/cif/2/24/23/2242382.cif $
#------------------------------------------------------------------------------
#
# This file is available in the Crystallography Open Database (COD),
# http://www.crystallography.net/. The original data for this entry
# were provided by IUCr Journals, http://journals.iucr.org/.
#
# The file may be used within the scientific community so long as
# proper attribution is given to the journal article from which the
# data were obtained.
#
data_2242382
loop_
_publ_author_name
'Lastovickova, Dominika N.'
'La Scala, John J.'
'Sausa, Rosario C.'
_publ_section_title
;
 Synthesis and crystal structures of
 (2<i>E</i>)-1,4-bis(4-chlorophenyl)but-2-ene-1,4-dione and
 (2<i>E</i>)-1,4-bis(4-bromophenyl)but-2-ene-1,4-dione
;
_journal_coeditor_code           ZL2724
_journal_issue                   3
_journal_name_full               'Acta Crystallographica Section E'
_journal_page_first              352
_journal_page_last               356
_journal_paper_doi               10.1107/S205698901800230X
_journal_volume                  74
_journal_year                    2018
_chemical_formula_iupac          'C16 H10 Cl2 O2'
_chemical_formula_moiety         'C16 H10 Cl2 O2'
_chemical_formula_sum            'C16 H10 Cl2 O2'
_chemical_formula_weight         305.14
_chemical_name_systematic
;
(2<i>E</i>)-1,4-Bis(4-chlorophenyl)but-2-ene-1,4-dione
;
_space_group_crystal_system      triclinic
_space_group_IT_number           2
_space_group_name_Hall           '-P 1'
_space_group_name_H-M_alt        'P -1'
_symmetry_space_group_name_Hall  '-P 1'
_symmetry_space_group_name_H-M   'P -1'
_atom_sites_solution_hydrogens   geom
_audit_creation_method
;
Olex2 1.2
(compiled 2016.09.09 svn.r3337 for OlexSys, GUI svn.r5227)
;
_cell_angle_alpha                82.653(6)
_cell_angle_beta                 88.638(6)
_cell_angle_gamma                84.601(7)
_cell_formula_units_Z            1
_cell_length_a                   3.9455(3)
_cell_length_b                   6.0809(5)
_cell_length_c                   14.6836(11)
_cell_measurement_reflns_used    2009
_cell_measurement_temperature    298.00(10)
_cell_measurement_theta_max      26.2700
_cell_measurement_theta_min      2.7840
_cell_volume                     347.82(5)
_computing_cell_refinement
;
CrysAlisPro (Rigaku OD, 2015)
;
_computing_data_collection
;
CrysAlisPro (Rigaku OD, 2015)
;
_computing_data_reduction
;
CrysAlisPro (Rigaku OD, 2015)
;
_computing_molecular_graphics
;
<i>OLEX2</i> (Dolomanov et al., 2009)
;
_computing_publication_material
;
Mercury (Macrae <i>et al.</i>,  2008)
;
_computing_structure_refinement
;
SHELXL (Sheldrick, 2015b)
;
_computing_structure_solution
;
SHELXT (Sheldrick, 2015a)
;
_diffrn_ambient_temperature      298.00(10)
_diffrn_detector_area_resol_mean 8.0945
_diffrn_measured_fraction_theta_full 0.999
_diffrn_measured_fraction_theta_max 0.999
_diffrn_measurement_device       'four-circle diffractometer'
_diffrn_measurement_device_type  'Agilent SuperNova, Dualflex, EosS2'
_diffrn_measurement_method       '\w scans'
_diffrn_radiation_type           MoK\a
_diffrn_radiation_wavelength     0.71073
_diffrn_reflns_av_R_equivalents  0.0226
_diffrn_reflns_limit_h_max       4
_diffrn_reflns_limit_h_min       -4
_diffrn_reflns_limit_k_max       7
_diffrn_reflns_limit_k_min       -7
_diffrn_reflns_limit_l_max       18
_diffrn_reflns_limit_l_min       -18
_diffrn_reflns_number            5641
_diffrn_reflns_theta_full        26.000
_diffrn_reflns_theta_max         26.364
_diffrn_reflns_theta_min         2.798
_exptl_absorpt_coefficient_mu    0.463
_exptl_absorpt_correction_T_max  1.00000
_exptl_absorpt_correction_T_min  0.92776
_exptl_absorpt_correction_type   multi-scan
_exptl_absorpt_process_details
;
(CrysAlisPro; Bourhis <i>et al.</i>,  2015)
;
_exptl_crystal_colour            orange
_exptl_crystal_density_diffrn    1.457
_exptl_crystal_description       irregular
_exptl_crystal_F_000             156
_exptl_crystal_size_max          0.34
_exptl_crystal_size_mid          0.22
_exptl_crystal_size_min          0.15
_refine_diff_density_max         0.178
_refine_diff_density_min         -0.195
_refine_ls_extinction_method     none
_refine_ls_goodness_of_fit_ref   1.155
_refine_ls_hydrogen_treatment    constr
_refine_ls_matrix_type           full
_refine_ls_number_parameters     91
_refine_ls_number_reflns         1416
_refine_ls_number_restraints     0
_refine_ls_restrained_S_all      1.155
_refine_ls_R_factor_all          0.0549
_refine_ls_R_factor_gt           0.0475
_refine_ls_shift/su_max          0.000
_refine_ls_shift/su_mean         0.000
_refine_ls_structure_factor_coef Fsqd
_refine_ls_weighting_details
'w=1/[\s^2^(Fo^2^)+(0.0335P)^2^+0.1180P] where P=(Fo^2^+2Fc^2^)/3'
_refine_ls_weighting_scheme      calc
_refine_ls_wR_factor_gt          0.0997
_refine_ls_wR_factor_ref         0.1036
_reflns_number_gt                1256
_reflns_number_total             1416
_reflns_threshold_expression     'I > 2\s(I)'
_cod_data_source_file            zl2724sup1.cif
_cod_data_source_block           1
_cod_database_code               2242382
_shelx_space_group_comment
;
The symmetry employed for this shelxl refinement is uniquely defined
by the following loop, which should always be used as a source of
symmetry information in preference to the above space-group names.
They are only intended as comments.
;
_shelx_hkl_file
;
   0   0  -2  276.28    4.78
   0   0  -2  313.55    4.74
   0   0  -3   37.81    1.39
   0   0  -3   31.71    1.41
   0   0   3   36.15    0.98
   0   0   4  442.10    6.37
   0   0  -4  436.14    7.59
   0   0  -4  434.95    7.42
   0   0   4  426.67    7.60
   0   0  -5   76.54    2.71
   0   0   5   75.32    1.87
   0   0   5   71.64    2.68
   0   0  -5   73.51    2.58
   0   0  -6  153.71    4.24
   0   0   6  158.30    4.49
   0   0  -6  154.07    4.41
   0   0   6  158.70    3.23
   0   0  -7  484.61    9.59
   0   0   7  492.38    9.75
   0   0  -7  485.14    9.36
   0   0  -8   53.12    2.69
   0   0   8   54.21    2.86
   0   0  -8   54.29    2.83
   0   0  -9  194.54    5.75
   0   0   9  206.97    6.18
   0   0   9  197.03    6.12
   0   0  -9  192.93    5.98
   0   0  10   18.79    1.91
   0   0  10   24.85    2.24
   0   0 -10   20.04    1.83
   0   0  11    1.47    0.69
   0   0  11    2.51    0.99
   0   0 -11    3.80    0.87
   0   0  12   11.45    1.72
   0   0 -12   13.21    1.65
   0   0  12   11.60    1.75
   0   0  13  465.96   12.45
   0   0 -13  483.55   11.96
   0   0  13  504.30   12.61
   0   0  14    2.49    1.09
   0   0  14    2.05    1.06
   0   0 -14    0.09    0.47
   0   0  15    3.99    1.33
   0   0 -15    3.30    1.05
   0   0  15    6.64    1.56
   0   0  16    7.18    1.72
   0   0  16    8.48    1.86
   0   0  17    2.27    1.12
   0   0  17    2.94    1.26
   0   0  18    2.94    1.37
   0   0  18    0.54    0.89
   0  -1  17   18.93    2.77
   0  -1  17   14.57    2.50
   0   1 -17   15.77    2.50
   0  -1  16   15.55    2.47
   0  -1  16   13.10    2.26
   0   1 -16   17.17    2.45
   0  -1  15    4.67    1.38
   0  -1  15    6.94    1.70
   0   1 -15    4.45    1.27
   0  -1  14    1.89    0.94
   0   1 -14    2.11    0.85
   0   1 -13    7.69    1.41
   0  -1  13   10.08    1.77
   0  -1  12    1.37    1.02
   0   1 -12    0.19    0.59
   0   1 -11  108.11    5.21
   0  -1  11  120.35    5.40
   0   1 -11  116.32    5.30
   0   1 -11  112.72    5.14
   0  -1  10   37.88    2.86
   0   1 -10   35.54    2.81
   0   1 -10   39.40    2.87
   0   1 -10   38.34    2.80
   0   1  -9  141.52    5.38
   0   1  -9  138.60    5.36
   0   1  -9  140.12    5.25
   0   1  -9  122.66    3.53
   0  -1   9  143.47    5.33
   0  -1   9  140.88    3.61
   0   1  -8   14.52    1.62
   0   1  -8   15.63    1.73
   0   1  -8   15.25    1.64
   0   1  -8   13.22    1.03
   0  -1   8   15.17    1.05
   0  -1   7   31.35    1.48
   0   1  -7   29.40    1.49
   0   1  -7   30.64    2.20
   0   1  -7   31.93    2.22
   0   1  -7   32.40    2.28
   0  -1   6 1149.21   16.33
   0   1  -6 1127.19   18.46
   0   1  -6 1142.59   16.45
   0   1  -6 1154.10   18.55
   0  -1   5  400.58    6.89
   0   1  -5  398.37    6.96
   0   1  -5  411.95    8.34
   0   1  -5  410.99    8.27
   0  -1   5  424.11    6.84
   0  -1   4 1034.12   14.58
   0  -1   4 1040.95   14.34
   0   1  -4 1038.56   15.91
   0   1  -4 1034.58   14.69
   0   1  -3  542.01    9.14
   0  -1   3  546.75    9.02
   0   1  -3  540.18    8.46
   0  -1   3  549.79    8.13
   0  -1   3  541.41    8.42
   0   1  -2 2224.41   29.20
   0  -1   2 2228.25   28.49
   0   1  -2 2215.08   28.78
   0  -1   2 2238.13   28.78
   0  -1   2 2208.54   29.10
   0   1  -1 1515.12   20.03
   0  -1   1 1521.90   20.08
   0  -1   1 1510.33   19.91
   0   1  -1 1508.87   20.02
   0  -1   1 1514.22   19.88
   0  -1   0 1418.46   18.66
   0   1   0 1400.71   18.30
   0   1   0 1403.74   18.48
   0   1   0 1428.56   18.70
   0  -1   0 1398.72   18.30
   0  -1   0 1420.50   18.07
   0  -1  -1    1.45    0.22
   0   1   1    2.07    0.27
   0   1   1    2.12    0.30
   0  -1  -1    2.12    0.26
   0   1   1    2.26    0.32
   0   1   2  724.50    9.91
   0   1   2  726.40   10.32
   0  -1  -2  702.11   10.13
   0   1   3   29.23    1.21
   0   1   3   27.87    1.20
   0  -1  -3   26.64    1.27
   0   1   3   27.06    1.18
   0  -1  -3   27.48    1.07
   0   1   4  966.17   13.91
   0  -1  -4  976.19   13.39
   0  -1  -4  950.91   14.09
   0   1   4  927.22   14.02
   0   1   5  513.82    8.95
   0  -1  -5  525.62    9.11
   0   1   5  533.51    9.51
   0  -1  -5  522.14    8.45
   0   1   6   60.16    2.54
   0  -1  -6   65.32    2.67
   0  -1  -6   61.57    2.29
   0   1   6   69.49    2.90
   0   1   7  965.37   15.63
   0   1   7  991.65   16.27
   0  -1  -7  934.36   15.01
   0  -1  -7  988.70   15.85
   0  -1  -8   68.94    2.83
   0  -1  -8   67.45    3.16
   0   1   8   71.19    3.17
   0   1   8   67.17    3.30
   0   1   9   97.12    3.97
   0  -1  -9   89.56    3.51
   0   1   9   91.88    4.13
   0  -1  -9   99.23    4.07
   0   1  10   58.45    3.22
   0  -1 -10   63.32    3.06
   0  -1 -10   57.56    3.24
   0   1  10   62.75    3.51
   0   1  11  577.79   13.04
   0   1  11  587.12   12.59
   0  -1 -11  578.14   12.62
   0  -1 -11  552.90   11.63
   0  -1 -12  131.71    5.10
   0   1  12  137.74    5.61
   0   1  12  133.72    5.83
   0  -1 -12  138.46    5.73
   0   1  13   96.04    4.88
   0  -1 -13  101.16    4.61
   0   1  13   96.45    5.12
   0  -1 -13  110.26    5.25
   0   1  14   17.16    2.30
   0   1  14   16.76    2.10
   0   1  15    1.54    0.99
   0   1  15    0.68    1.06
   0   1  16    2.62    1.15
   0   1  16    1.82    1.12
   0   1  17   10.33    2.02
   0   1  17   13.18    2.28
   0   1  18    6.55    1.69
   0   1  18    9.37    2.14
   0   2 -16    0.76    0.76
   0  -2  16    6.24    1.59
   0   2 -15    0.49    0.51
   0  -2  15    0.39    0.79
   0   2 -14    0.36    0.53
   0   2 -14    1.10    0.71
   0   2 -14    0.38    0.56
   0  -2  14    1.24    0.76
   0  -2  13    7.11    1.59
   0   2 -13    9.60    1.78
   0   2 -13    9.71    1.79
   0   2 -13    8.66    1.78
   0   2 -12   76.76    4.70
   0   2 -12   75.21    4.69
   0  -2  12   85.43    4.94
   0   2 -12   74.26    4.67
   0  -2  11   32.79    2.90
   0   2 -11   31.57    2.91
   0   2 -11   37.49    3.19
   0   2 -11   32.13    2.90
   0   2 -10    0.80    0.71
   0   2 -10    0.40    0.60
   0  -2  10    0.18    0.66
   0   2 -10    0.85    0.60
   0   2  -9    3.52    0.68
   0   2  -9    2.45    1.02
   0   2  -9    4.51    1.08
   0   2  -9    3.35    1.16
   0  -2   9    3.35    0.66
   0  -2   9    5.70    1.17
   0  -2   8    8.03    1.29
   0   2  -8   10.26    1.44
   0  -2   8    9.50    1.06
   0   2  -8    9.02    1.40
   0   2  -8    6.49    0.87
   0  -2   7   11.88    1.16
   0  -2   7    9.10    1.25
   0  -2   7   10.51    0.97
   0   2  -7    9.99    1.41
   0   2  -7   11.86    1.15
   0   2  -7   12.36    1.54
   0   2  -6  570.12   10.38
   0  -2   6  596.13    9.91
   0  -2   6  611.99   11.65
   0   2  -6  587.17   11.79
   0  -2   6  582.46   10.48
   0   2  -5  159.21    4.97
   0  -2   5  159.44    4.04
   0  -2   5  161.67    4.44
   0  -2   5  160.78    4.84
   0   2  -5  157.00    4.35
   0   2  -4  334.62    7.44
   0  -2   4  333.55    7.01
   0   2  -4  345.53    6.97
   0  -2   4  331.36    6.55
   0  -2   4  345.15    7.41
   0  -2   3  123.39    3.50
   0   2  -3  129.74    3.77
   0  -2   3  127.84    3.76
   0   2  -3  124.07    3.88
   0  -2   3  133.24    3.86
   0  -2   2  259.60    5.55
   0   2  -2  264.17    5.77
   0  -2   2  260.44    5.57
   0  -2   2  256.31    5.73
   0   2  -2  256.77    5.69
   0  -2   1    6.96    0.72
   0  -2   1    7.53    0.88
   0  -2   1    7.82    0.84
   0   2  -1    7.77    0.92
   0   2  -1    6.65    0.79
   0   2  -1    6.32    0.74
   0   2   0  617.12    9.77
   0  -2   0  615.51    8.93
   0   2   0  613.80   10.03
   0  -2   0  621.42    9.72
   0   2   0  608.43   10.37
   0  -2   0  630.63   10.38
   0  -2   0  614.63    9.30
   0  -2  -1 1142.35   15.81
   0   2   1 1138.89   16.11
   0  -2  -1 1191.79   17.20
   0  -2  -1 1150.12   15.70
   0   2   1 1164.75   17.11
   0   2   1 1165.46   16.69
   0   2   2  453.78    7.89
   0  -2  -2  434.00    7.10
   0   2   2  426.41    7.14
   0   2   2  435.62    8.06
   0  -2  -2  434.39    7.23
   0   2   3  329.04    6.59
   0  -2  -3  314.84    5.89
   0  -2  -3  313.51    6.15
   0   2   3  322.02    5.76
   0   2   4   10.89    0.86
   0  -2  -4    9.74    1.11
   0   2   4    8.96    0.91
   0  -2  -4    9.25    0.88
   0   2   5  456.13    8.27
   0  -2  -5  491.23    9.50
   0  -2  -5  480.70    8.65
   0   2   5  478.45    8.80
   0   2   6   10.80    1.04
   0  -2  -6    9.64    0.84
   0   2   6   11.48    1.33
   0  -2  -6   10.14    1.11
   0   2   6    9.24    0.99
   0  -2  -7 1293.60   18.91
   0   2   7 1339.38   21.31
   0   2   7 1278.63   19.63
   0  -2  -7 1321.81   20.14
   0   2   8  165.80    5.04
   0   2   8  164.35    4.96
   0   2   8  175.19    5.88
   0  -2  -8  173.68    4.56
   0  -2  -8  171.92    5.24
   0  -2  -9  182.54    4.99
   0   2   9  183.98    5.56
   0  -2  -9  186.90    5.81
   0   2   9  187.12    6.35
   0   2   9  187.02    5.62
   0  -2 -10   22.08    1.70
   0   2  10   23.02    1.98
   0   2  10   20.64    1.87
   0   2  10   21.85    2.14
   0   2  11   17.88    1.89
   0  -2 -11   20.68    2.08
   0   2  11   18.38    1.86
   0   2  11   20.82    2.19
   0  -2 -11   18.17    1.62
   0   2  12    5.16    1.19
   0   2  12    3.07    0.83
   0   2  12    5.32    1.17
   0  -2 -12    3.33    1.04
   0   2  13    0.65    0.72
   0   2  13    0.36    0.54
   0   2  13    1.66    0.80
   0  -2 -13    0.35    0.52
   0   2  14   18.95    2.48
   0   2  14   21.51    2.42
   0  -2 -14   18.36    2.21
   0   2  14   21.34    2.36
   0   2  15   23.48    2.66
   0   2  15   18.52    2.29
   0   2  15   18.11    2.50
   0  -2 -15   25.97    2.76
   0   2  16   54.41    4.12
   0   2  16   49.08    4.24
   0   2  17    5.38    1.51
   0   2  17    5.59    1.56
   0   2  18   10.23    2.07
   0   2  18   13.11    2.47
   0  -3  15    5.01    1.65
   0   3 -15    3.00    1.37
   0   3 -15    2.59    1.34
   0   3 -15    2.81    1.33
   0   3 -14    2.88    1.20
   0  -3  14    7.34    1.77
   0   3 -14    6.58    1.63
   0   3 -14    6.63    1.64
   0   3 -13   23.86    2.88
   0   3 -13   19.52    2.69
   0  -3  13   25.89    2.94
   0   3 -13   16.38    2.50
   0   3 -12   17.09    2.45
   0  -3  12   18.34    2.41
   0   3 -12   16.76    2.37
   0   3 -12   22.15    2.78
   0  -3  11    3.59    1.10
   0   3 -11    3.37    1.17
   0   3 -11    3.13    1.10
   0   3 -11    4.59    1.36
   0   3 -10    0.66    0.77
   0  -3  10    0.46    0.83
   0   3 -10    1.58    0.82
   0   3 -10    0.43    0.67
   0  -3   9   74.12    4.18
   0   3  -9   67.22    4.15
   0   3  -9   66.56    3.27
   0   3  -9   71.83    4.35
   0   3  -8    0.15    0.52
   0  -3   8    0.54    0.48
   0  -3   8    1.07    0.66
   0   3  -8    0.97    0.66
   0   3  -8    0.31    0.37
   0  -3   7   28.67    2.34
   0   3  -7   26.03    2.40
   0   3  -7   22.52    1.84
   0  -3   7   26.02    1.79
   0  -3   7   25.94    2.07
   0   3  -7   22.86    2.21
   0  -3   6   15.34    1.38
   0   3  -6   19.07    1.97
   0   3  -6   15.44    1.74
   0   3  -6   15.47    1.53
   0  -3   6   16.42    1.72
   0  -3   6   15.89    1.60
   0  -3   5   83.37    3.33
   0   3  -5   83.81    3.55
   0  -3   5   85.17    3.73
   0  -3   5   84.71    3.67
   0   3  -5   85.71    4.07
   0   3  -5   83.58    3.82
   0   3  -4    2.78    0.79
   0   3  -4    3.20    0.76
   0  -3   4    4.74    0.84
   0  -3   4    3.62    0.79
   0  -3   4    3.18    0.79
   0   3  -3   62.34    2.99
   0  -3   3   63.80    3.10
   0   3  -3   67.47    3.12
   0  -3   3   64.07    2.94
   0  -3   3   64.04    2.93
   0  -3   2  253.38    6.66
   0  -3   2  260.17    6.47
   0   3  -2  257.96    6.57
   0   3  -2  253.65    6.39
   0  -3   2  255.12    6.17
   0   3  -1  317.34    8.05
   0  -3   1  310.74    6.44
   0  -3   1  327.23    7.53
   0   3  -1  325.57    7.27
   0  -3   1  327.71    6.95
   0  -3   1  330.42    7.78
   0   3  -1  342.26    7.72
   0   3   0  822.75   13.85
   0   3   0  844.75   14.46
   0  -3   0  829.16   13.31
   0  -3   0  870.09   14.71
   0  -3   0  815.55   12.15
   0   3   0  839.43   13.40
   0  -3   0  800.59   12.70
   0  -3   0  844.75   14.37
   0   3   1  186.81    5.05
   0   3   1  200.25    5.54
   0   3   1  183.75    4.63
   0  -3  -1  188.50    4.62
   0  -3  -1  194.68    5.51
   0  -3  -1  182.06    4.24
   0  -3  -1  178.04    4.08
   0   3   2    1.60    0.43
   0   3   2    1.63    0.41
   0  -3  -2    2.11    0.58
   0   3   2    1.28    0.50
   0  -3  -2    1.31    0.40
   0  -3  -2    1.74    0.43
   0   3   3   51.97    2.67
   0   3   3   52.54    2.53
   0  -3  -3   48.61    2.03
   0  -3  -3   47.48    2.15
   0   3   3   48.37    2.07
   0   3   4  167.34    4.26
   0  -3  -4  166.53    4.32
   0   3   4  172.63    5.20
   0   3   4  180.71    5.14
   0  -3  -4  170.99    4.64
   0   3   5  159.22    4.99
   0  -3  -5  153.38    4.64
   0  -3  -5  144.11    4.24
   0   3   5  150.39    4.07
   0  -3  -6  361.84    8.35
   0   3   6  380.37    7.59
   0   3   6  386.68    9.57
   0  -3  -6  372.56    7.81
   0   3   6  382.39    8.61
   0  -3  -6  377.63    9.14
   0  -3  -7  106.57    4.53
   0  -3  -7  101.08    4.16
   0   3   7   99.47    4.60
   0   3   7  100.82    4.01
   0   3   7  103.11    3.57
   0  -3  -7  102.75    3.78
   0  -3  -8   19.94    1.98
   0  -3  -8   20.65    1.74
   0  -3  -8   21.45    1.98
   0   3   8   20.40    1.64
   0   3   8   18.74    1.69
   0   3   8   21.83    2.16
   0   3   9    3.34    1.05
   0  -3  -9    4.02    0.95
   0  -3  -9    3.05    0.86
   0   3   9    3.12    0.80
   0   3  10    3.01    0.76
   0  -3 -10    4.57    1.09
   0   3  10    2.68    0.95
   0  -3 -10    2.90    0.88
   0  -3 -11   85.02    4.22
   0  -3 -11   82.74    4.43
   0   3  11   87.39    4.85
   0  -3 -12   81.88    4.31
   0   3  12   76.22    4.68
   0  -3 -12   71.90    4.24
   0  -3 -13   86.66    4.64
   0   3  13   80.39    4.99
   0  -3 -13   74.28    4.46
   0  -3 -14    2.75    1.11
   0  -3 -14    2.35    1.20
   0   3  14    2.98    1.21
   0  -3 -15   15.70    2.21
   0  -3 -15   16.64    2.25
   0   3  15   17.39    2.54
   0  -3 -16    4.41    1.50
   0  -3 -16    7.63    1.76
   0   3  16    2.92    1.14
   0  -3 -17    1.56    0.95
   0   3  17    1.52    1.22
   0   4 -14    3.51    1.34
   0   4 -14    3.45    1.35
   0   4 -14    1.35    1.22
   0  -4  14    0.23    0.79
   0   4 -13    2.53    1.31
   0   4 -13    0.55    1.06
   0  -4  13    1.86    1.10
   0   4 -13    1.98    1.23
   0  -4  12    3.49    1.31
   0   4 -12    2.50    1.15
   0   4 -12    0.60    0.92
   0   4 -12    0.47    0.87
   0   4 -11    1.88    1.07
   0   4 -11    2.72    1.06
   0  -4  11    2.01    1.09
   0   4 -11    4.16    1.31
   0   4 -10    1.94    0.95
   0  -4  10    1.83    0.94
   0   4 -10    1.85    0.83
   0   4 -10    0.51    0.95
   0   4  -9    2.78    1.21
   0   4  -9    1.31    0.90
   0  -4   9    2.64    1.13
   0   4  -8    2.52    0.85
   0   4  -8    1.55    0.83
   0  -4   8    2.36    0.99
   0   4  -8    2.69    1.13
   0  -4   8    3.06    1.09
   0  -4   7   15.98    1.96
   0   4  -7   15.07    1.95
   0   4  -7   13.06    1.65
   0   4  -7   15.33    2.17
   0  -4   7   16.00    1.95
   0   4  -6   98.12    4.47
   0  -4   6   92.73    4.06
   0  -4   6  101.78    4.68
   0   4  -6  102.59    5.23
   0   4  -6  101.92    4.85
   0  -4   6  100.28    4.64
   0  -4   5  599.87   12.11
   0  -4   5  595.10   12.54
   0   4  -5  553.04   12.50
   0   4  -5  597.67   13.79
   0   4  -5  562.02   12.45
   0  -4   5  572.34   12.79
   0  -4   4   82.49    3.87
   0  -4   4   85.59    4.19
   0  -4   4   79.35    3.77
   0   4  -4   84.23    4.05
   0   4  -4   84.35    4.08
   0   4  -4   85.37    4.52
   0   4  -3    7.24    1.22
   0  -4   3    8.66    1.35
   0   4  -3    8.20    1.27
   0  -4   3    6.36    1.07
   0  -4   3    7.98    1.22
   0  -4   2   84.20    3.61
   0  -4   2   79.30    3.29
   0  -4   2   84.19    4.11
   0  -4   2   89.22    4.02
   0   4  -2   81.54    3.74
   0   4  -2   81.91    3.98
   0   4  -1    2.92    0.92
   0  -4   1    4.44    0.85
   0  -4   1    2.60    0.62
   0   4  -1    2.20    0.79
   0   4  -1    2.93    0.79
   0  -4   1    3.04    0.83
   0  -4   1    3.76    0.90
   0   4   0   56.66    3.54
   0  -4   0   52.98    2.66
   0   4   0   55.00    2.90
   0   4   0   51.66    3.11
   0  -4   0   52.50    3.11
   0  -4   0   56.36    3.30
   0  -4   0   52.70    2.39
   0  -4  -1   37.54    2.65
   0  -4  -1   34.01    2.55
   0   4   1   30.46    2.14
   0   4   1   31.85    2.41
   0  -4  -1   29.77    1.72
   0   4   1   29.64    1.96
   0  -4  -1   33.08    2.02
   0  -4  -1   33.09    1.66
   0   4   1   33.53    2.70
   0  -4  -2  108.74    3.39
   0   4   2  104.15    4.48
   0  -4  -2  107.74    3.36
   0  -4  -2  107.60    4.59
   0   4   2  109.04    4.91
   0  -4  -2  108.22    3.78
   0   4   2  104.98    3.70
   0   4   2  111.04    4.22
   0  -4  -2  114.44    4.80
   0  -4  -3   35.64    2.01
   0   4   3   39.96    2.17
   0  -4  -3   40.38    2.81
   0   4   3   41.28    2.52
   0   4   3   39.31    2.71
   0  -4  -3   41.76    2.03
   0   4   3   37.62    2.86
   0  -4  -4   93.39    3.54
   0   4   4   98.09    4.75
   0  -4  -4   98.30    3.37
   0   4   4   98.61    3.46
   0   4   4  107.70    4.24
   0   4   4   95.71    4.34
   0  -4  -4   97.87    4.52
   0  -4  -5  139.47    4.30
   0  -4  -5  142.75    5.69
   0   4   5  142.05    5.88
   0  -4  -5  136.89    4.63
   0   4   5  141.99    4.30
   0   4   5  150.16    5.24
   0   4   5  142.44    5.40
   0   4   6   35.82    2.53
   0   4   6   35.76    2.95
   0  -4  -6   33.38    2.29
   0  -4  -6   31.03    2.64
   0  -4  -6   36.89    2.15
   0   4   6   32.21    2.50
   0   4   6   29.80    1.93
   0  -4  -7   22.50    1.79
   0  -4  -7   21.82    1.95
   0   4   7   21.83    2.08
   0   4   7   20.10    2.37
   0  -4  -7   23.63    2.41
   0   4   7   22.84    2.11
   0  -4  -8  340.05    8.03
   0   4   8  319.06    8.82
   0   4   8  333.08   10.14
   0  -4  -8  316.23    8.62
   0  -4  -8  319.90    9.51
   0  -4  -9   45.84    2.78
   0   4   9   35.53    2.73
   0  -4  -9   39.35    2.90
   0  -4  -9   39.56    3.18
   0   4   9   42.78    3.45
   0   4  10   25.34    2.73
   0  -4 -10   26.51    2.65
   0  -4 -10   30.92    2.43
   0  -4 -10   27.52    2.53
   0   4  11   73.88    4.90
   0  -4 -11   74.04    4.59
   0  -4 -11   78.42    4.07
   0  -4 -11   73.06    4.37
   0  -4 -12    4.53    1.17
   0  -4 -12    2.55    1.14
   0  -4 -12    3.11    1.02
   0   4  12    3.12    1.30
   0  -4 -13    0.24    0.70
   0   4  13    1.10    1.05
   0  -4 -13    1.71    0.81
   0  -4 -13    2.51    1.09
   0   4  14   14.54    2.44
   0  -4 -14   13.65    2.00
   0  -4 -14   11.60    2.05
   0  -4 -14    8.38    1.74
   0  -4 -15   10.01    1.81
   0  -4 -15   12.21    2.17
   0  -4 -15    9.72    1.97
   0   4  15   10.92    2.20
   0  -4 -16   15.62    2.52
   0   4  16   12.28    2.45
   0  -4 -16   16.39    2.36
   0  -4 -16   14.48    2.40
   0   5 -12   10.24    2.25
   0   5 -12    5.04    1.65
   0   5 -12    9.70    2.27
   0  -5  12    8.13    1.86
   0  -5  11   23.87    2.96
   0   5 -11   19.42    2.95
   0   5 -11   24.69    3.28
   0   5 -11   22.47    3.00
   0  -5  10    3.40    1.22
   0   5 -10    1.55    1.00
   0   5 -10    2.36    1.28
   0   5 -10    6.11    1.80
   0   5  -9    7.95    1.84
   0   5  -9    7.22    1.59
   0  -5   9    9.24    1.78
   0   5  -8    6.58    1.66
   0   5  -8    5.12    1.23
   0  -5   8    3.97    1.20
   0   5  -8    4.56    1.41
   0  -5   7   29.77    2.89
   0   5  -7   32.63    3.32
   0   5  -7   24.48    2.75
   0  -5   7   27.89    2.78
   0   5  -7   29.63    2.78
   0  -5   6  116.96    5.42
   0   5  -6  121.19    6.33
   0   5  -6  110.45    5.37
   0   5  -6  108.96    5.43
   0  -5   6  117.18    5.68
   0   5  -5   57.18    3.79
   0  -5   5   59.55    3.71
   0   5  -5   61.45    4.35
   0  -5   5   60.88    4.09
   0   5  -5   59.59    3.86
   0   5  -4    5.18    1.22
   0   5  -4    4.48    1.15
   0  -5   4    4.80    1.19
   0  -5   4    4.43    1.06
   0  -5   4    1.83    1.03
   0   5  -4    4.28    1.25
   0   5  -3    2.32    0.75
   0  -5   3    4.58    1.08
   0  -5   3    4.24    1.14
   0   5  -3    1.92    0.84
   0  -5   3    3.92    0.97
   0  -5   2    5.07    1.17
   0  -5   2    4.87    1.03
   0   5  -2    7.70    1.32
   0  -5   2    8.05    1.47
   0   5  -2    5.38    1.19
   0   5  -1    2.45    0.89
   0   5  -1    2.10    0.85
   0  -5   1    1.61    0.69
   0  -5   1    3.60    1.09
   0   5  -1    3.23    0.96
   0  -5   1    2.31    0.78
   0   5   0   73.71    3.82
   0   5   0   64.94    3.97
   0  -5   0   65.30    4.07
   0   5   0   73.63    4.55
   0  -5   0   64.10    3.26
   0  -5   0   69.47    4.12
   0   5   1    2.36    0.81
   0  -5  -1    2.01    0.94
   0  -5  -1    1.78    0.69
   0   5   1    0.96    0.70
   0   5   1    3.31    1.06
   0  -5  -1    3.03    0.97
   0  -5  -2   85.30    4.61
   0  -5  -2   88.95    4.74
   0   5   2   80.50    4.76
   0   5   2   86.55    4.62
   0   5   2   80.47    3.98
   0   5   3   26.23    2.29
   0   5   3   26.54    2.77
   0  -5  -3   29.14    2.74
   0   5   3   29.44    2.67
   0  -5  -3   30.44    2.74
   0   5   4    3.08    0.97
   0  -5  -4    2.88    0.95
   0   5   4    2.90    0.86
   0   5   4    3.09    0.94
   0  -5  -4    4.91    1.28
   0   5   5   16.42    1.83
   0   5   5   11.56    1.98
   0  -5  -5   17.61    2.11
   0   5   5   14.01    1.85
   0  -5  -5   13.02    1.89
   0  -5  -6  176.14    7.10
   0   5   6  174.37    6.34
   0   5   6  172.94    7.34
   0   5   6  161.79    6.59
   0   5   7  261.64    9.43
   0   5   7  264.44    8.65
   0   5   7  272.70    8.39
   0  -5  -7  265.01    9.16
   0  -5  -8   53.70    4.01
   0   5   8   58.03    3.90
   0   5   8   59.79    4.39
   0   5   8   57.80    3.74
   0   5   9   24.64    2.89
   0  -5  -9   21.24    2.54
   0   5   9   24.44    2.53
   0   5   9   16.08    2.05
   0   5  10    7.01    1.70
   0  -5 -10    9.37    1.78
   0  -5 -10    7.97    1.52
   0   5  10    6.92    1.41
   0   5  10    9.17    1.68
   0   5  11    2.19    1.10
   0  -5 -11    3.28    0.99
   0  -5 -12    1.02    0.97
   0   5  12    0.82    0.99
   0  -5 -12    1.77    1.07
   0  -5 -13   13.29    2.25
   0   5  13   15.12    2.57
   0  -5 -13   12.33    2.11
   0  -5 -14   15.70    2.39
   0   5  14   14.76    2.64
   0  -5 -14   12.66    2.22
   0   5  15   23.15    3.28
   0  -5 -15   21.98    3.10
   0  -5 -15   20.52    2.97
   0  -6   9    0.74    0.93
   0   6  -9    2.43    1.21
   0  -6   8    1.31    1.00
   0   6  -8    3.51    1.53
   0  -6   7   -0.09    0.86
   0  -6   7    0.35    0.72
   0   6  -7   -0.15    0.61
   0   6  -7    1.28    1.14
   0   6  -6    5.78    1.62
   0   6  -6    2.21    1.01
   0  -6   6    4.30    1.31
   0  -6   6    4.15    1.38
   0   6  -5   -0.64    0.65
   0   6  -5    1.33    0.87
   0  -6   5    2.18    1.11
   0  -6   4   10.46    1.94
   0   6  -4    9.31    1.88
   0   6  -4    9.88    1.78
   0  -6   3    3.12    1.16
   0   6  -3    1.38    0.86
   0  -6   3    2.16    1.09
   0   6  -2   24.01    2.73
   0  -6   2   21.78    2.55
   0  -6   2   20.65    2.59
   0  -6   1    1.96    0.97
   0   6  -1    0.91    0.73
   0  -6   1    1.94    1.03
   0  -6   0   20.58    2.59
   0  -6   0   15.57    2.24
   0   6   0   18.96    2.55
   0   6   0   18.69    2.43
   0   6   1   31.86    3.36
   0  -6  -1   32.45    3.22
   0   6   1   37.54    3.36
   0  -6  -1   33.45    3.25
   0   6   2   58.48    4.21
   0  -6  -2   60.35    4.35
   0  -6  -2   58.03    4.27
   0   6   2   55.15    4.38
   0  -6  -3    3.66    1.29
   0   6   3    3.59    1.31
   0   6   3    1.54    1.13
   0  -6  -3    1.06    0.80
   0  -6  -4   10.48    1.87
   0   6   4   14.71    2.36
   0   6   4   11.31    1.97
   0  -6  -4   10.95    1.89
   0  -6  -5   25.29    2.90
   0   6   5   26.04    3.07
   0  -6  -5   26.89    2.94
   0   6   5   32.72    3.20
   0   6   6    2.61    0.95
   0   6   6    2.92    1.13
   0  -6  -6    2.51    0.91
   0  -6  -6    2.95    1.16
   0   6   7    0.09    0.48
   0  -6  -7    1.17    0.86
   0   6   7    0.34    0.80
   0  -6  -7    1.54    1.10
   0   6   8    4.33    1.27
   0  -6  -8    4.35    1.29
   0  -6  -8    5.41    1.43
   0   6   8    5.46    1.60
   0  -6  -9    1.52    1.03
   0   6   9    0.09    0.76
   0  -6  -9    0.80    0.72
   0   6   9    0.15    0.78
   0  -6 -10    2.09    1.09
   0  -6 -10    0.59    0.94
   0   6  10    0.40    0.76
   0   6  10    1.25    1.35
   0  -6 -11   33.01    3.62
   0   6  11   34.45    3.89
   0  -6 -11   33.39    3.49
   0   6  12    6.91    1.80
   0  -6 -12    3.79    1.36
   0  -7   4    3.03    1.34
   0   7  -4    2.82    1.19
   0   7  -4   -0.39    0.86
   0  -7   3   -0.36    0.76
   0   7  -3    1.46    1.01
   0  -7   2    3.59    1.36
   0   7  -2    2.22    1.11
   0   7  -1    3.52    1.24
   0  -7   1    4.14    1.60
   0  -7   1    4.02    1.43
   0  -7   0    6.35    1.70
   0  -7   0    4.12    1.45
   0   7   0    4.24    1.34
   0   7   1    8.57    1.92
   0  -7  -1    8.62    2.10
   0  -7  -1    5.80    1.59
   0   7   1    9.21    1.93
   0   7   2    1.75    0.98
   0   7   2    0.57    0.90
   0  -7  -2    2.22    1.08
   0  -7  -2    1.04    0.98
   0  -7  -3    5.82    1.71
   0   7   3    3.21    1.27
   0   7   3    4.36    1.50
   0  -7  -3    3.22    1.20
   0   7   4    1.21    0.98
   0  -7  -4   -0.40    0.75
   0   7   4    0.55    0.73
   0  -7  -4    1.38    1.14
   0  -7  -5   18.38    2.68
   0   7   5   19.49    2.76
   0   7   5   18.44    2.87
   0  -7  -5   19.06    2.85
   0   7   6    2.91    1.33
   0  -7  -6    4.67    1.42
   0  -7  -6    2.87    1.27
   0   7   6    0.21    0.72
   0   7   7    5.91    1.83
   0  -7  -7    6.31    1.74
   0   7   7    6.46    1.63
   0  -7  -7    5.28    1.76
   0   7   8    3.56    1.65
   0  -7  -8    2.00    1.11
   0   7   8    7.61    1.84
   0  -7  -8    5.21    1.58
   0   7   9    1.14    1.08
   0   7   9    0.52    0.85
   0  -7  -9    0.61    0.86
   0  -7  -9    2.51    1.21
   1  -7  -6    7.14    1.81
  -1   7   6    8.99    2.15
  -1   7   5    3.47    1.29
  -1   7   5    2.17    1.16
   1  -7  -5    1.42    1.03
   1  -7  -4   -1.78    1.03
   1  -7  -4    1.56    1.11
  -1   7   4    0.84    0.86
  -1   7   4    2.32    1.20
  -1   7   3    9.71    2.07
   1  -7  -3    7.71    1.89
   1  -7  -3    9.21    1.99
  -1   7   3    8.51    2.12
   1  -7  -2    1.36    0.99
  -1   7   2    2.32    1.54
   1  -7  -2    1.24    1.05
  -1   7   2    1.34    1.09
   1  -7  -1   11.74    2.26
  -1   7   1    8.12    2.02
   1  -7  -1   12.73    2.31
  -1   7   0    2.90    1.29
   1  -7   0    3.24    1.47
  -1   7  -1    1.68    1.04
   1  -7   1    1.98    1.19
  -1   7  -2    0.69    0.68
   1  -7   2    1.19    1.12
  -1   7  -2    2.95    1.38
  -1   6  11   29.89    3.62
   1  -6 -11   24.25    3.25
   1  -6 -10    2.03    1.17
  -1   6  10    1.20    0.88
   1  -6  -9   18.85    2.79
  -1   6   9   19.70    2.88
  -1   6   8    1.20    0.90
   1  -6  -8    4.60    1.51
  -1   6   7    3.04    1.26
   1  -6  -7    1.43    1.00
   1  -6  -6    2.99    1.30
  -1   6   6    3.23    1.40
   1  -6  -5   21.20    2.73
  -1   6   5   24.19    2.89
  -1   6   5   28.60    3.28
  -1   6   4   10.60    2.04
  -1   6   4   13.72    2.22
   1  -6  -4    7.01    1.68
   1  -6  -3    1.15    0.82
  -1   6   3    0.43    0.59
  -1   6   3    0.65    0.73
   1  -6  -2   11.05    2.00
  -1   6   2   10.30    2.01
  -1   6   2    9.45    1.85
   1  -6  -1    1.04    1.00
   1  -6  -1   -0.36    0.56
  -1   6   1    1.89    1.01
  -1   6   1   -0.25    0.49
  -1   6   1    1.58    1.10
   1  -6   0   20.84    2.59
  -1   6   0   22.94    2.56
   1  -6   0   24.82    2.90
   1  -6   0   19.42    2.38
  -1   6   0   20.94    2.64
   1  -6   1   23.58    2.91
  -1   6  -1   23.60    2.79
   1  -6   1   20.89    2.49
  -1   6  -2   16.35    2.31
  -1   6  -2   17.98    2.39
   1  -6   2   15.06    2.35
   1  -6   2   14.81    2.19
  -1   6  -3    1.77    0.99
  -1   6  -3    4.78    1.31
  -1   6  -3    2.63    1.14
   1  -6   3    2.81    1.16
   1  -6   3    3.10    1.29
  -1   6  -4    3.98    1.21
   1  -6   4    1.60    1.17
   1  -6   4    2.21    1.23
  -1   6  -4    1.71    1.07
  -1   6  -4    1.91    1.24
  -1   6  -5   -0.37    0.79
  -1   6  -5    0.47    0.63
   1  -6   5    1.02    0.97
   1  -6   5    0.58    0.84
  -1   6  -6   14.92    2.56
  -1   6  -6   15.76    2.55
   1  -6   6   11.02    2.06
   1  -6   7   -0.02    0.87
  -1   6  -7   -0.28    0.84
  -1   6  -8    6.46    1.80
   1  -6   8   12.06    2.22
  -1   6  -8    7.83    1.86
  -1   5  14   14.86    2.67
   1  -5 -14   11.95    2.39
  -1   5  13   53.06    4.72
   1  -5 -13   50.68    4.53
   1  -5 -12    7.36    1.75
  -1   5  12   12.76    2.39
   1  -5 -11   12.14    2.16
  -1   5  11   15.42    2.48
   1  -5 -10    0.29    0.63
  -1   5  10   -0.09    0.98
   1  -5 -10    1.70    1.00
   1  -5  -9   38.38    3.10
   1  -5  -9   34.61    3.45
  -1   5   9   37.91    3.60
   1  -5  -8    7.81    1.62
  -1   5   8    8.54    1.75
   1  -5  -8   11.36    1.75
   1  -5  -7   31.27    3.11
  -1   5   7   28.37    3.08
   1  -5  -7   32.82    2.72
  -1   5   6   19.58    2.15
   1  -5  -6   18.98    2.41
  -1   5   6   20.17    2.57
   1  -5  -6   17.15    1.98
   1  -5  -5  142.03    5.58
  -1   5   5  137.82    5.69
  -1   5   5  142.61    6.39
  -1   5   5  142.14    6.71
   1  -5  -5  125.31    6.08
   1  -5  -4   54.80    3.88
  -1   5   4   53.36    4.09
  -1   5   4   59.97    3.71
  -1   5   4   57.04    3.95
   1  -5  -4   54.53    3.36
  -1   5   3   12.43    1.92
  -1   5   3   11.29    1.68
   1  -5  -3   12.59    1.84
  -1   5   3   14.65    2.03
   1  -5  -3   12.04    1.50
   1  -5  -2    7.30    1.38
  -1   5   2    8.23    1.45
   1  -5  -2    7.09    1.20
  -1   5   2    8.21    1.63
  -1   5   2    6.45    1.24
   1  -5  -2    7.96    1.50
  -1   5   1   24.82    2.55
  -1   5   1   17.69    2.39
  -1   5   1   21.81    2.30
   1  -5  -1   22.51    2.35
   1  -5  -1   21.71    2.31
   1  -5  -1   18.12    1.99
  -1   5   0  125.47    5.79
   1  -5   0  113.48    5.32
   1  -5   0  116.45    5.33
   1  -5   0  114.90    5.07
   1  -5   1    3.23    1.02
  -1   5  -1    1.10    0.89
  -1   5  -1    1.38    0.81
   1  -5   1    1.14    0.79
   1  -5   1    0.45    0.81
   1  -5   2   19.43    2.10
   1  -5   2   19.06    2.21
  -1   5  -2   19.99    2.28
   1  -5   2   23.21    2.37
   1  -5   2   22.45    2.50
   1  -5   3    1.65    0.88
  -1   5  -3    2.61    0.95
  -1   5  -3    3.50    1.30
   1  -5   3    2.12    0.86
   1  -5   3    4.50    1.22
  -1   5  -3    2.19    1.03
   1  -5   4    7.06    1.43
  -1   5  -4    7.84    1.46
  -1   5  -4    9.49    1.67
   1  -5   4    7.15    1.58
   1  -5   4    7.42    1.43
  -1   5  -4   10.33    1.90
   1  -5   5    3.52    1.12
  -1   5  -5    4.57    1.52
   1  -5   5    4.60    1.22
  -1   5  -5    4.58    1.18
  -1   5  -5    7.57    1.65
   1  -5   5    6.13    1.44
   1  -5   6   22.73    2.61
   1  -5   6   21.03    2.55
  -1   5  -6   20.62    2.67
   1  -5   6   17.92    2.24
  -1   5  -6   22.19    2.87
  -1   5  -6   19.92    2.27
  -1   5  -7    5.46    1.40
  -1   5  -7    6.41    1.80
   1  -5   7    6.84    1.64
  -1   5  -8    3.67    1.23
   1  -5   8    7.53    1.72
  -1   5  -8    5.70    1.56
  -1   5  -9    1.96    1.16
  -1   5  -9    1.46    1.00
   1  -5   9    0.93    1.10
  -1   5 -10    2.85    1.45
   1  -5  10    1.16    0.88
  -1   5 -10    4.78    1.58
  -1   5 -11    8.43    2.10
  -1   5 -11    6.08    1.69
   1  -5  11    5.53    1.71
  -1   4  15   28.03    3.45
   1  -4 -15   35.07    3.47
   1  -4 -14   14.08    2.14
  -1   4  14   14.40    2.38
  -1   4  13    4.04    1.34
   1  -4 -13    7.96    1.60
  -1   4  12   23.18    2.86
   1  -4 -12   20.10    2.37
  -1   4  11   12.08    2.05
   1  -4 -11    8.48    1.58
   1  -4 -10   31.71    2.78
  -1   4  10   30.08    2.69
  -1   4  10   30.23    3.07
  -1   4   9   81.00    4.33
  -1   4   9   83.23    4.92
   1  -4  -9   81.99    4.41
   1  -4  -8    0.66    0.67
  -1   4   8    0.15    0.57
  -1   4   8    1.65    0.79
  -1   4   7   31.11    2.85
  -1   4   7   29.04    2.46
   1  -4  -7   32.52    2.58
   1  -4  -6  522.23   11.72
  -1   4   6  512.09   11.72
  -1   4   6  550.12   13.09
  -1   4   5  103.62    4.59
   1  -4  -5  110.58    4.66
  -1   4   5  110.66    5.23
   1  -4  -5  117.85    5.31
  -1   4   4   87.46    4.47
   1  -4  -4   90.53    4.56
  -1   4   4   98.01    4.92
  -1   4   4   92.07    4.24
   1  -4  -4   93.96    4.20
   1  -4  -3   89.29    4.40
  -1   4   3   86.07    4.38
  -1   4   3   90.36    4.20
  -1   4   3   92.71    4.70
   1  -4  -3   86.10    3.99
  -1   4   2  156.14    6.22
  -1   4   2  150.58    5.81
   1  -4  -2  149.77    5.37
  -1   4   2  147.04    5.50
   1  -4  -2  150.68    5.72
   1  -4  -1    8.49    1.30
  -1   4   1    7.30    1.43
  -1   4   1    9.78    1.45
  -1   4   1    7.03    1.24
   1  -4  -1    5.65    1.07
   1  -4   0   48.45    3.01
  -1   4   0   41.68    2.99
   1  -4   0   41.55    2.80
   1  -4   0   47.81    3.12
  -1   4   0   41.98    3.20
  -1   4   0   48.23    3.09
  -1   4  -1    3.51    0.91
  -1   4  -1    3.74    1.04
   1  -4   1    5.31    1.10
   1  -4   1    4.16    0.98
   1  -4   1    3.72    0.86
   1  -4   2    5.41    1.08
  -1   4  -2    6.88    1.26
   1  -4   2    4.85    1.12
  -1   4  -2    7.76    1.35
  -1   4  -2    7.71    1.31
   1  -4   2    7.13    1.13
  -1   4  -3    4.30    1.07
   1  -4   3    3.78    0.85
  -1   4  -3    2.61    0.97
  -1   4  -3    4.76    1.10
   1  -4   3    2.61    0.91
   1  -4   3    5.39    1.22
   1  -4   4   10.52    1.56
   1  -4   4   13.97    1.83
  -1   4  -4   12.69    1.61
  -1   4  -4   13.61    1.88
   1  -4   4   12.07    1.67
  -1   4  -4   12.99    1.83
   1  -4   5    7.78    1.42
  -1   4  -5    8.24    1.54
  -1   4  -5   10.20    1.69
  -1   4  -5    6.89    1.20
   1  -4   5    4.71    1.12
   1  -4   6   25.28    2.57
  -1   4  -6   24.70    2.21
  -1   4  -6   27.57    2.79
   1  -4   6   22.35    2.29
  -1   4  -7  276.00    7.95
  -1   4  -7  283.64    9.61
  -1   4  -7  301.78    9.72
   1  -4   7  275.62    9.12
  -1   4  -7  264.48    8.04
  -1   4  -8   64.96    4.60
   1  -4   8   65.24    4.30
  -1   4  -8   56.05    3.64
  -1   4  -8   63.12    4.50
   1  -4   9    3.47    1.16
  -1   4  -9    3.91    1.38
  -1   4  -9    1.82    0.91
  -1   4  -9    3.12    1.16
  -1   4 -10    1.32    0.82
  -1   4 -10    1.37    0.77
  -1   4 -10    3.06    1.35
   1  -4  10    0.80    0.82
  -1   4 -11   16.85    2.73
  -1   4 -11   17.37    2.68
   1  -4  11   14.09    2.23
  -1   4 -12    0.54    0.93
   1  -4  12    1.00    1.08
  -1   4 -12    0.77    0.80
  -1   4 -13    2.28    1.33
   1  -4  13    2.01    1.11
  -1   4 -13   -0.46    0.76
   1  -3 -17   22.70    2.96
  -1   3  17   23.05    3.07
  -1   3  16    6.50    1.80
   1  -3 -16   11.73    2.07
   1  -3 -15    1.45    1.09
  -1   3  15   -0.23    0.89
  -1   3  15    1.32    1.11
  -1   3  14   23.31    2.79
  -1   3  14   33.15    3.18
   1  -3 -14   29.42    2.97
  -1   3  13   38.48    3.42
   1  -3 -13   39.79    3.33
  -1   3  13   43.58    3.50
   1  -3 -12    2.88    1.01
  -1   3  12    3.21    1.14
  -1   3  12    4.31    1.20
  -1   3  11  147.00    6.37
  -1   3  11  146.89    6.09
   1  -3 -11  142.92    6.08
  -1   3  10   61.01    3.73
   1  -3 -10   66.30    3.90
  -1   3  10   67.41    4.10
  -1   3   9   41.60    3.12
  -1   3   9   38.56    2.85
   1  -3  -9   41.66    3.00
  -1   3   8    1.69    0.77
  -1   3   8    1.85    0.82
   1  -3  -8    1.89    0.78
   1  -3  -7   15.88    1.74
  -1   3   7   14.78    1.80
  -1   3   7   14.09    1.73
  -1   3   6  295.90    8.23
  -1   3   6  280.95    7.66
   1  -3  -6  276.49    7.61
  -1   3   5  255.07    7.37
  -1   3   5  245.47    6.91
   1  -3  -5  243.65    6.91
  -1   3   4  183.81    4.32
   1  -3  -4  175.80    5.62
  -1   3   4  186.13    3.75
  -1   3   4  183.25    6.07
  -1   3   4  188.60    5.80
  -1   3   3   12.69    1.56
  -1   3   3   12.22    0.89
   1  -3  -3   13.09    1.42
  -1   3   3   14.08    1.49
  -1   3   2   68.67    3.52
  -1   3   2   68.46    3.33
  -1   3   2   63.93    1.95
  -1   3   2   62.68    3.30
   1  -3  -2   69.90    3.31
  -1   3   1   78.74    3.80
   1  -3  -1   81.09    3.46
  -1   3   1   90.48    3.81
  -1   3   1   88.51    3.73
  -1   3   1   81.64    2.08
   1  -3  -1   83.75    3.58
  -1   3   0   17.36    1.83
  -1   3   0   17.22    0.98
   1  -3   0   18.77    1.72
  -1   3   0   18.98    1.71
  -1   3   0   17.24    1.67
   1  -3   0   18.49    1.58
  -1   3   0   21.25    1.63
   1  -3   1   68.09    3.42
  -1   3  -1   73.42    3.51
  -1   3  -1   74.50    3.32
   1  -3   1   65.41    3.30
  -1   3  -1   71.81    3.36
  -1   3  -1   71.34    2.29
   1  -3   1   69.78    3.02
   1  -3   2  430.58    9.97
   1  -3   2  432.52    9.86
  -1   3  -2  476.93   10.05
  -1   3  -2  414.92    9.33
   1  -3   2  412.83    8.63
  -1   3  -2  420.75    7.76
  -1   3  -2  463.82   10.15
  -1   3  -3   43.96    2.56
  -1   3  -3   55.92    3.18
  -1   3  -3   49.84    3.05
   1  -3   3   51.84    3.07
   1  -3   3   44.24    2.25
  -1   3  -3   47.63    2.92
  -1   3  -3   47.37    2.21
  -1   3  -4   55.18    3.32
  -1   3  -4   43.35    2.53
   1  -3   4   52.18    3.14
   1  -3   4   44.55    2.20
  -1   3  -4   52.58    3.15
  -1   3  -4   45.15    2.34
  -1   3  -5  179.33    6.27
  -1   3  -5  170.80    5.28
  -1   3  -5  167.32    5.16
  -1   3  -5  187.88    6.52
   1  -3   5  187.11    6.34
   1  -3   5  163.19    5.37
  -1   3  -6    0.64    0.59
  -1   3  -6    2.55    1.03
  -1   3  -6    1.11    0.75
   1  -3   6    3.08    1.04
  -1   3  -6    0.56    0.47
   1  -3   6    0.97    0.55
   1  -3   7  297.75    8.74
  -1   3  -7  286.49    7.06
  -1   3  -7  285.86    8.75
   1  -3   7  281.72    7.07
  -1   3  -7  275.54    8.74
   1  -3   8    3.07    1.07
  -1   3  -8    1.93    0.84
  -1   3  -8    4.12    1.13
  -1   3  -8    3.02    1.09
  -1   3  -9    2.47    0.96
  -1   3  -9    3.05    1.05
  -1   3  -9    2.48    1.13
   1  -3   9    2.13    1.00
   1  -3  10    0.09    0.51
  -1   3 -10    0.26    0.66
  -1   3 -10    0.27    0.78
  -1   3 -10    1.61    0.96
  -1   3 -11   11.83    1.98
   1  -3  11    9.07    1.75
  -1   3 -11   13.77    2.19
   1  -3  12    0.89    1.07
  -1   3 -12    2.73    1.21
  -1   3 -12    1.95    1.14
   1  -3  13    1.56    1.05
  -1   3 -13    1.98    1.18
  -1   3 -13    1.02    0.86
  -1   3 -14    4.36    1.44
   1  -3  14    4.36    1.45
  -1   3 -14    3.40    1.46
  -1   3 -15    4.32    1.53
   1  -3  15    5.79    1.64
  -1   3 -15    4.15    1.51
  -1   2  17    3.73    1.55
  -1   2  17    2.44    1.27
   1  -2 -17    2.08    1.32
  -1   2  16   39.65    3.74
  -1   2  16   49.00    4.16
   1  -2 -16   45.44    3.96
  -1   2  15   24.07    2.84
   1  -2 -15   21.27    2.65
  -1   2  15   21.96    2.71
   1  -2 -14   55.48    4.05
  -1   2  14   59.88    4.25
  -1   2  14   56.65    4.09
   1  -2 -13   31.81    2.92
  -1   2  13   26.74    2.71
  -1   2  13   28.99    2.83
  -1   2  12   53.06    3.61
  -1   2  12   59.26    3.94
   1  -2 -12   53.37    3.71
  -1   2  11    8.60    1.45
   1  -2 -11    9.63    1.58
  -1   2  11    6.73    1.39
  -1   2  10   23.86    2.23
  -1   2  10   30.73    2.58
   1  -2 -10   27.36    2.49
   1  -2  -9  214.13    6.90
  -1   2   9  214.70    6.90
  -1   2   9  209.14    6.63
  -1   2   8   12.18    1.49
  -1   2   8   10.96    1.37
   1  -2  -8   13.08    1.58
  -1   2   7  267.36    7.09
  -1   2   7  257.37    7.17
   1  -2  -7  264.22    7.29
  -1   2   6  196.42    5.92
   1  -2  -6  201.00    5.96
  -1   2   6  196.82    5.76
  -1   2   5  498.26    9.96
  -1   2   5  480.18   10.03
   1  -2  -5  466.65    9.93
  -1   2   4    1.64    0.53
  -1   2   4    2.02    0.51
   1  -2  -4    2.89    0.75
  -1   2   3  317.19    7.30
  -1   2   3  299.20    4.66
  -1   2   3  322.28    7.15
   1  -2  -3  320.55    7.34
  -1   2   2  107.92    3.70
  -1   2   2  110.22    2.49
  -1   2   2  107.52    3.78
   1  -2  -2  108.69    3.81
  -1   2   1   36.18    2.15
   1  -2  -1   37.03    2.17
  -1   2   1   38.62    2.18
  -1   2   1   36.66    1.59
  -1   2   0  369.26    8.02
  -1   2   0  364.91    8.02
  -1   2   0  364.32    7.00
   1  -2   0  377.37    8.13
  -1   2  -1 1109.83   17.17
   1  -2   1 1113.94   17.92
  -1   2  -1 1145.73   17.01
  -1   2  -1 1126.52   17.93
  -1   2  -1 1088.32   14.78
   1  -2   2  100.82    2.99
  -1   2  -2  103.97    3.45
  -1   2  -2  105.37    2.68
   1  -2   2  107.38    4.02
  -1   2  -2   95.11    2.11
  -1   2  -2  115.27    3.79
  -1   2  -2  107.66    3.70
  -1   2  -3   14.94    1.23
  -1   2  -3   15.44    1.45
  -1   2  -3   13.57    0.80
  -1   2  -3   13.22    1.02
   1  -2   3   11.21    0.89
  -1   2  -3   15.62    1.45
  -1   2  -4  166.17    5.20
  -1   2  -4  156.77    4.37
  -1   2  -4  150.04    4.22
  -1   2  -4  178.18    5.45
  -1   2  -4  163.64    3.65
   1  -2   4  151.16    3.43
  -1   2  -5    3.78    0.69
  -1   2  -5    4.14    0.59
  -1   2  -5    3.78    0.85
  -1   2  -5    3.69    0.64
  -1   2  -5    4.63    1.00
   1  -2   5    2.53    0.39
  -1   2  -6  225.44    5.28
  -1   2  -6  222.04    6.87
  -1   2  -6  230.28    6.80
   1  -2   6  237.95    6.85
  -1   2  -6  204.81    5.96
  -1   2  -6  214.26    5.15
   1  -2   6  205.05    5.19
   1  -2   7   11.91    1.54
  -1   2  -7   13.96    1.72
  -1   2  -7   11.58    1.20
  -1   2  -7   10.16    0.95
  -1   2  -7   10.35    1.53
   1  -2   7    9.50    0.93
  -1   2  -7    9.79    1.31
  -1   2  -8   50.58    3.39
  -1   2  -8   47.49    3.28
   1  -2   8   51.62    3.28
   1  -2   9    8.22    1.40
  -1   2  -9    9.76    1.68
  -1   2  -9    8.42    1.49
  -1   2 -10    0.60    0.83
  -1   2 -10    2.06    0.80
   1  -2  10    0.12    0.50
   1  -2  11    1.91    0.77
  -1   2 -11    6.49    1.44
  -1   2 -11    4.96    1.28
   1  -2  12    0.17    0.53
  -1   2 -12    1.11    0.90
  -1   2 -12    0.25    0.76
  -1   2 -13   12.79    2.12
  -1   2 -13   10.86    1.95
   1  -2  13   11.03    1.95
   1  -2  14   41.87    3.75
  -1   2 -14   41.56    3.98
   1  -2  15    2.06    1.09
  -1   2 -15    1.15    1.02
   1  -2  16    3.55    1.47
  -1   2 -16    1.18    0.98
  -1   1  17   14.69    2.39
  -1   1  17   17.17    2.69
  -1   1  17   16.45    2.71
   1  -1 -17   17.84    2.61
  -1   1  16   19.49    2.64
  -1   1  16   18.11    2.55
  -1   1  16   24.05    3.03
   1  -1 -16   22.32    2.80
  -1   1  15   29.93    3.18
  -1   1  15   36.13    3.29
  -1   1  15   37.69    3.60
   1  -1 -15   41.03    3.59
   1  -1 -14   11.98    2.03
  -1   1  14   12.77    2.00
  -1   1  14   16.37    2.39
  -1   1  14   13.66    2.00
  -1   1  13    1.57    0.83
  -1   1  13    0.52    0.77
  -1   1  13    1.35    1.00
   1  -1 -13    0.82    0.54
   1  -1 -12   62.20    3.92
  -1   1  12   54.93    3.73
  -1   1  12   53.89    3.47
  -1   1  12   53.78    3.80
  -1   1  11    1.56    0.74
   1  -1 -11    0.76    0.61
  -1   1  11   -0.38    0.65
  -1   1  11    1.50    0.95
  -1   1  10  147.62    5.34
   1  -1 -10  149.60    5.78
  -1   1  10  148.44    5.76
  -1   1  10  155.64    6.04
   1  -1  -9  369.66    9.29
  -1   1   9  356.76    9.16
  -1   1   9  352.86    8.53
   1  -1  -9  365.95    7.05
  -1   1   9  368.44    9.51
  -1   1   8   78.34    3.39
   1  -1  -8   87.01    3.95
  -1   1   8   82.43    3.92
   1  -1  -8   84.61    2.59
  -1   1   7  199.22    5.40
  -1   1   7  192.77    6.06
   1  -1  -7  204.27    4.06
   1  -1  -7  209.64    6.11
   1  -1  -7  196.10    5.46
  -1   1   6   79.77    3.01
  -1   1   6   79.09    3.49
   1  -1  -6   78.38    3.00
   1  -1  -6   79.68    1.99
   1  -1  -6   77.79    3.39
  -1   1   5 2470.10   32.69
  -1   1   5 2476.20   34.06
   1  -1  -5 2511.05   34.05
   1  -1  -5 2503.53   32.54
   1  -1  -4  226.84    4.66
  -1   1   4  215.80    4.84
  -1   1   4  216.48    5.65
   1  -1  -4  209.27    5.50
  -1   1   3  259.18    5.26
  -1   1   3  247.53    5.92
   1  -1  -3  243.07    5.89
   1  -1  -3  255.03    4.61
   1  -1  -2  882.92   14.09
  -1   1   2  844.98   11.70
  -1   1   2  863.34   12.94
  -1   1   1    0.21    0.25
   1  -1  -1    0.46    0.37
  -1   1   1    0.61    0.24
  -1   1   0  675.99   10.23
   1  -1   0  665.38   11.45
  -1   1  -1  393.19    7.09
  -1   1  -1  388.88    6.44
  -1   1  -1  383.31    6.66
   1  -1   1  392.21    7.82
  -1   1  -2  173.33    4.07
  -1   1  -2  163.10    3.58
  -1   1  -2  176.88    4.45
  -1   1  -3  138.94    4.20
  -1   1  -3  136.88    4.13
  -1   1  -3  137.90    3.87
  -1   1  -3  136.30    3.37
  -1   1  -4  186.99    5.05
   1  -1   4  174.23    5.02
  -1   1  -4  174.94    5.07
  -1   1  -4  186.35    4.31
  -1   1  -4  175.43    4.84
   1  -1   5  395.55    8.43
  -1   1  -5  395.72    8.65
  -1   1  -5  377.06    8.26
  -1   1  -5  379.35    7.43
  -1   1  -6  221.95    6.15
   1  -1   6  227.05    6.15
  -1   1  -6  227.49    6.37
  -1   1  -6  228.39    5.48
  -1   1  -7   68.77    3.52
  -1   1  -7   66.42    2.94
  -1   1  -7   68.09    3.40
   1  -1   7   69.01    3.34
  -1   1  -8  406.10    9.04
  -1   1  -8  391.46    9.92
   1  -1   8  415.51    9.71
  -1   1  -8  403.62    9.80
  -1   1  -9    0.90    0.73
  -1   1  -9    1.70    0.73
   1  -1   9    1.45    0.75
  -1   1 -10    7.54    1.37
  -1   1 -10    9.58    1.60
   1  -1  10    6.41    1.26
  -1   1 -11   53.64    3.75
   1  -1  11   50.82    3.47
  -1   1 -12   27.65    2.78
   1  -1  12   30.39    2.80
   1  -1  13   32.40    3.06
  -1   1 -13   30.87    3.11
  -1   1 -14   15.22    2.24
  -1   1 -14   13.54    2.19
   1  -1  14   15.94    2.28
  -1   1 -15    0.02    0.77
  -1   1 -15    0.69    0.68
   1  -1  15    2.29    1.13
   1  -1  16    2.50    1.14
   1  -1  16    0.58    0.88
  -1   1 -16    1.44    0.98
  -1   1 -16    0.36    0.86
  -1   1 -17    1.21    1.17
   1  -1  17    0.64    0.94
   1  -1  17    3.40    1.36
  -1   1 -17    3.10    1.33
  -1   0  17   -0.94    0.78
  -1   0  17    1.33    1.18
   1   0 -17    1.35    0.98
  -1   0  16    0.75    0.67
  -1   0  16    1.61    0.93
  -1   0  16    2.39    1.34
   1   0 -16    0.26    0.77
   1   0 -15    6.22    1.52
  -1   0  15    5.00    1.34
  -1   0  15    6.07    1.41
  -1   0  14   19.47    2.47
  -1   0  14   18.70    2.28
   1   0 -14   18.99    2.34
  -1   0  13    0.77    0.57
   1   0 -13   -0.52    0.55
  -1   0  13    0.85    0.78
   1   0 -13    0.16    0.60
  -1   0  12    1.34    0.78
  -1   0  12    1.77    0.93
   1   0 -12    2.41    0.81
   1   0 -12    1.31    0.76
   1   0 -12    1.13    0.50
  -1   0  11  943.47   18.52
   1   0 -11  978.78   16.90
  -1   0  11  921.96   17.29
   1   0 -11  916.28   18.30
   1   0 -11  953.35   18.19
  -1   0  10    8.05    1.40
  -1   0  10    6.07    1.08
  -1   0  10    7.27    1.05
   1   0 -10    7.29    1.13
   1   0 -10    6.70    1.26
   1   0 -10    7.15    1.34
   1   0  -9   61.24    3.38
   1   0  -9   61.50    2.98
  -1   0   9   57.92    3.36
  -1   0   9   58.51    2.87
   1   0  -9   61.59    3.49
  -1   0   9   55.11    2.89
  -1   0   8   22.78    1.99
   1   0  -8   25.17    2.04
   1   0  -8   27.48    2.18
  -1   0   8   22.69    1.73
  -1   0   8   26.21    1.87
  -1   0   7  606.56   10.84
  -1   0   7  608.20   11.22
   1   0  -7  612.77   11.84
   1   0  -7  625.25   11.98
  -1   0   6  255.34    5.60
   1   0  -6  264.81    6.47
  -1   0   6  254.14    6.08
   1   0  -6  254.77    6.41
  -1   0   5  215.67    5.37
   1   0  -5  219.75    5.60
  -1   0   5  218.53    4.64
   1   0  -5  220.99    5.50
  -1   0   4  347.50    5.88
   1   0  -4  342.67    7.14
   1   0  -4  350.16    6.95
  -1   0   4  346.28    7.09
  -1   0   3   22.63    0.90
   1   0  -3   21.12    1.29
   1   0  -3   20.66    1.38
  -1   0   3   19.16    1.33
   1   0  -2    0.07    0.42
  -1   0   2    0.51    0.46
   1   0  -2   -0.02    0.20
  -1   0   1    0.14    0.29
   1   0  -1    0.40    0.36
   1   0  -1    0.22    0.19
   1   0   0    1.19    0.33
  -1   0   0    0.72    0.32
  -1   0   0    1.05    0.37
   1   0   0    0.90    0.32
  -1   0   0    0.70    0.29
  -1   0   0    0.80    0.30
  -1   0  -1   29.48    1.49
   1   0   1   32.49    1.65
  -1   0  -1   32.49    1.35
  -1   0  -1   31.60    1.49
  -1   0  -1   31.16    1.39
  -1   0  -1   33.71    1.61
   1   0   1   32.03    1.40
  -1   0  -2 9857.75  122.07
  -1   0  -2 9889.53  121.29
  -1   0  -2 9890.12  122.48
  -1   0  -2 9647.85  121.00
   1   0   2 9999.00  122.03
  -1   0  -2 9983.21  122.15
  -1   0  -3    0.31    0.23
  -1   0  -3   -0.08    0.16
   1   0   3    0.15    0.26
  -1   0  -3    0.26    0.27
  -1   0  -3    0.30    0.38
  -1   0  -3    0.12    0.39
   1   0   4    3.42    0.62
  -1   0  -4    3.36    0.64
  -1   0  -4    3.03    0.71
  -1   0  -4    3.37    0.37
  -1   0  -5   27.56    1.03
   1   0   5   27.89    1.70
  -1   0  -5   33.74    1.97
  -1   0  -5   31.54    2.01
  -1   0  -6  735.39   12.41
   1   0   6  695.22   11.39
  -1   0  -6  716.46   11.73
  -1   0  -7  203.88    6.00
  -1   0  -7  193.82    5.52
   1   0   7  202.87    5.42
  -1   0  -8    0.44    0.55
  -1   0  -8    0.69    0.23
  -1   0  -8    0.24    0.49
   1   0   8    0.18    0.45
  -1   0  -9  149.59    5.44
  -1   0  -9  152.96    5.68
   1   0   9  160.98    5.37
  -1   0 -10   18.00    1.94
   1   0  10   19.53    1.94
  -1   0 -10   19.76    2.08
  -1   0 -11   24.69    2.36
   1   0  11   24.80    2.30
   1   0  11   28.19    2.63
  -1   0 -11   30.00    2.64
   1   0  12    1.18    0.78
   1   0  12    0.59    0.76
  -1   0 -12    1.56    0.87
  -1   0 -12    1.37    0.86
   1   0  13    8.80    1.66
  -1   0 -13   12.64    1.91
  -1   0 -13    8.33    1.55
   1   0  13   12.54    1.82
  -1   0 -14    3.26    1.37
   1   0  14    1.35    1.01
  -1   0 -14    1.48    1.00
   1   0  14    2.52    1.18
  -1   0 -15   61.57    4.55
   1   0  15   73.29    4.74
   1   0  15   76.85    5.18
  -1   0 -15   70.84    4.84
   1   0  16    2.43    1.15
  -1   0 -16    1.58    0.94
  -1   0 -16    1.15    0.99
   1   0  16    1.09    0.89
   1   0  17    7.80    1.99
  -1   0 -17    8.52    1.93
   1   0  17    6.04    1.66
  -1   0 -17   12.29    2.24
  -1  -1  17   10.59    2.21
  -1  -1  16   14.15    2.40
  -1  -1  15   26.62    3.05
  -1  -1  15   20.01    2.54
   1   1 -15   26.10    3.04
  -1  -1  14    6.68    1.47
   1   1 -14   11.41    1.79
  -1  -1  14    9.43    1.82
   1   1 -14    9.90    1.90
   1   1 -14    8.80    1.69
  -1  -1  13   43.01    3.28
  -1  -1  13   51.22    3.88
   1   1 -13   51.50    3.59
   1   1 -13   50.69    3.68
   1   1 -13   44.34    3.67
   1   1 -12   32.65    2.83
  -1  -1  12   35.09    3.11
  -1  -1  12   34.66    2.80
   1   1 -12   32.10    2.81
   1   1 -12   29.22    2.87
   1   1 -11  127.32    4.89
   1   1 -11  134.34    6.03
   1   1 -11  151.72    5.93
  -1  -1  11  153.23    6.31
   1   1 -11  147.07    5.83
  -1  -1  11  139.48    4.95
  -1  -1  10   31.71    2.69
   1   1 -10   27.83    2.13
  -1  -1  10   30.82    2.17
   1   1 -10   35.55    2.60
   1   1 -10   29.64    2.65
   1   1 -10   29.73    2.43
   1   1  -9  206.58    6.13
  -1  -1   9  220.11    7.06
   1   1  -9  226.55    7.31
   1   1  -9  228.98    6.79
  -1  -1   9  219.23    6.10
   1   1  -9  206.08    6.55
   1   1  -8   32.86    2.20
   1   1  -8   32.40    2.25
  -1  -1   8   34.27    2.53
   1   1  -8   33.47    2.54
  -1  -1   8   35.52    2.23
   1   1  -8   34.57    2.36
   1   1  -7  108.11    4.08
   1   1  -7  113.37    4.19
  -1  -1   7  116.01    4.46
  -1  -1   7  118.69    4.08
   1   1  -7  115.36    4.09
   1   1  -7  113.80    4.56
   1   1  -6   73.80    3.24
  -1  -1   6   84.68    3.53
   1   1  -6   78.85    3.21
   1   1  -6   76.12    3.08
  -1  -1   6   77.51    3.18
   1   1  -6   82.15    3.62
   1   1  -5  164.90    4.57
  -1  -1   5  165.01    4.80
   1   1  -5  160.68    4.98
   1   1  -5  173.39    4.90
   1   1  -5  158.69    4.37
  -1  -1   5  165.00    4.86
  -1  -1   5  167.73    4.74
  -1  -1   4  427.92    8.42
  -1  -1   4  434.11    8.63
   1   1  -4  435.79    8.09
   1   1  -4  420.31    8.83
   1   1  -4  427.91    7.76
  -1  -1   4  438.53    8.50
   1   1  -4  453.73    8.74
  -1  -1   3  537.07    9.30
   1   1  -3  548.97    9.80
   1   1  -3  511.66    8.96
  -1  -1   3  529.30    9.64
  -1  -1   3  531.88    9.59
   1   1  -3  526.12    8.61
   1   1  -3  527.23    9.87
   1   1  -2  462.73    8.63
   1   1  -2  441.99    7.56
   1   1  -2  461.20    8.61
  -1  -1   2  455.93    7.83
   1   1  -1  102.31    3.25
  -1  -1   1  107.01    2.87
   1   1  -1  102.58    2.21
   1   1  -1  101.42    2.60
   1   1  -1  103.46    3.27
   1   1   0 5239.56   63.70
  -1  -1   0 5085.33   63.98
  -1  -1   0 5120.28   65.09
   1   1   0 5152.60   65.28
   1   1   0 5080.15   63.94
   1   1   0 5065.90   65.54
   1   1   1 1992.43   26.21
   1   1   1 2037.38   27.25
  -1  -1  -1 2019.67   27.31
   1   1   1 2022.99   26.25
  -1  -1  -1 2019.71   27.05
  -1  -1  -1 1990.91   25.83
   1   1   1 2016.22   27.71
   1   1   2 4496.48   57.15
  -1  -1  -2 4539.44   55.97
   1   1   2 4528.09   55.95
  -1  -1  -2 4491.68   57.64
  -1  -1  -2 4514.88   57.22
  -1  -1  -2 4495.20   58.15
   1   1   2 4499.63   57.39
   1   1   2 4510.63   58.29
   1   1   3   75.34    2.37
   1   1   3   78.83    2.67
  -1  -1  -3   80.33    1.95
   1   1   3   77.39    1.98
  -1  -1  -3   75.78    2.62
  -1  -1  -3   77.67    2.92
  -1  -1  -3   80.40    2.38
   1   1   4  325.74    5.86
   1   1   4  341.02    6.96
   1   1   4  318.62    5.71
  -1  -1  -4  330.10    5.79
  -1  -1  -4  330.41    6.45
  -1  -1  -4  332.70    7.14
   1   1   5   26.07    1.16
   1   1   5   29.91    1.91
   1   1   5   26.33    1.40
  -1  -1  -5   26.87    1.52
  -1  -1  -5   27.31    1.85
  -1  -1  -5   26.45    1.20
   1   1   6  198.54    5.62
   1   1   6  200.20    4.66
   1   1   6  180.58    3.52
  -1  -1  -6  210.25    5.69
  -1  -1  -6  184.76    4.61
  -1  -1  -6  192.65    3.65
   1   1   7  206.66    6.06
   1   1   7  184.76    3.36
  -1  -1  -7  204.91    5.86
  -1  -1  -7  189.58    4.63
  -1  -1  -7  183.85    3.44
   1   1   7  204.64    5.04
  -1  -1  -8    2.69    0.28
   1   1   8    5.25    1.09
  -1  -1  -8    2.69    0.70
   1   1   8    4.36    0.79
  -1  -1  -8    5.36    1.08
  -1  -1  -8    3.55    0.63
  -1  -1  -9   60.88    3.48
   1   1   9   63.56    3.61
   1   1   9   60.86    2.99
  -1  -1  -9   58.17    2.51
  -1  -1  -9   62.58    3.39
  -1  -1 -10   17.16    1.88
  -1  -1 -10   15.36    1.89
   1   1  10   15.84    1.89
   1   1  10   18.00    1.74
  -1  -1 -10   16.69    1.36
  -1  -1 -11   27.95    2.55
   1   1  11   26.42    2.58
   1   1  11   29.81    2.35
  -1  -1 -11   23.81    2.27
   1   1  12   33.11    3.03
   1   1  12   37.45    2.80
  -1  -1 -12   32.90    2.80
  -1  -1 -12   36.88    3.06
  -1  -1 -13  246.52    8.62
   1   1  13  231.27    8.60
   1   1  13  240.23    7.81
  -1  -1 -13  237.35    8.17
  -1  -1 -14   43.26    3.68
   1   1  14   48.66    3.98
   1   1  14   48.62    3.51
  -1  -1 -14   44.39    3.55
  -1  -1 -15   68.88    4.79
   1   1  15   67.59    4.86
   1   1  15   71.44    4.50
  -1  -1 -15   76.60    4.80
  -1  -1 -16    2.83    1.15
   1   1  16    4.62    1.71
   1   1  16    3.54    1.28
  -1  -1 -16    4.00    1.25
   1   1  17    1.57    1.10
   1   1  17    2.82    1.30
  -1  -1 -17    2.33    1.08
   1   1  18    3.70    1.42
  -1  -1 -18    0.85    1.08
   1   1  18    0.31    0.98
  -1  -2  16    2.07    1.22
   1   2 -16    1.55    1.05
   1   2 -16   -0.03    0.57
   1   2 -15   -0.14    0.54
  -1  -2  15    2.16    1.21
   1   2 -15    0.32    0.89
  -1  -2  14   23.29    2.84
   1   2 -14   18.34    2.46
   1   2 -14   17.20    2.53
   1   2 -14   24.53    2.91
   1   2 -13    1.82    0.96
   1   2 -13    0.17    0.66
  -1  -2  13    2.52    1.23
   1   2 -13    0.10    0.89
   1   2 -12    3.24    1.14
  -1  -2  12    5.33    1.39
   1   2 -12    2.59    1.11
  -1  -2  11   27.41    2.70
   1   2 -11   28.56    2.66
   1   2 -11   26.47    2.84
   1   2 -11   27.81    2.36
  -1  -2  10   55.35    3.68
   1   2 -10   51.13    3.70
  -1  -2  10   53.37    3.08
   1   2 -10   54.73    3.33
   1   2 -10   51.29    3.41
   1   2 -10   44.52    2.94
   1   2  -9   26.42    2.21
  -1  -2   9   24.13    2.06
  -1  -2   9   24.98    2.35
   1   2  -9   23.15    2.07
   1   2  -9   22.20    2.37
   1   2  -9   25.74    2.32
   1   2  -8    0.57    0.57
  -1  -2   8    0.86    0.49
  -1  -2   8    0.13    0.44
   1   2  -8    0.13    0.56
   1   2  -8    0.29    0.33
  -1  -2   8    0.06    0.54
   1   2  -8   -0.04    0.35
   1   2  -7   63.31    3.29
  -1  -2   7   65.75    3.43
  -1  -2   7   69.40    3.32
   1   2  -7   66.20    3.11
   1   2  -7   64.32    3.41
  -1  -2   7   64.97    3.22
   1   2  -7   68.74    3.76
  -1  -2   6   33.09    2.26
  -1  -2   6   32.41    2.23
   1   2  -6   30.29    2.19
   1   2  -6   32.56    2.01
  -1  -2   6   32.13    2.20
   1   2  -6   31.52    2.42
   1   2  -6   30.63    2.21
  -1  -2   5    3.68    0.78
   1   2  -5    3.85    0.90
   1   2  -5    5.75    0.98
  -1  -2   5    5.46    0.96
  -1  -2   5    5.37    0.98
   1   2  -5    5.28    0.80
   1   2  -4 1425.46   22.30
  -1  -2   4 1435.34   21.44
  -1  -2   4 1419.06   21.91
   1   2  -4 1400.10   21.55
   1   2  -4 1446.58   20.39
  -1  -2   4 1413.54   21.94
   1   2  -3  141.84    4.63
  -1  -2   3  134.60    3.93
  -1  -2   3  134.98    4.44
   1   2  -3  134.52    3.42
  -1  -2   3  137.60    4.48
   1   2  -2  260.12    6.45
  -1  -2   2  246.08    6.17
  -1  -2   2  244.85    5.22
   1   2  -2  238.86    4.50
  -1  -2   2  236.40    6.15
   1   2  -1   54.46    2.65
   1   2  -1   45.56    2.04
  -1  -2   1   49.72    1.79
   1   2  -1   49.22    1.40
  -1  -2   1   50.71    2.54
   1   2   0   17.09    1.48
   1   2   0   13.54    1.11
  -1  -2   0   16.00    0.81
  -1  -2   0   15.57    1.38
   1   2   1  426.73    8.51
   1   2   1  411.19    7.87
  -1  -2  -1  407.97    8.25
  -1  -2  -2  209.75    5.58
   1   2   2  218.65    5.30
  -1  -2  -2  210.98    5.65
   1   2   2  219.47    5.52
  -1  -2  -2  214.61    5.37
   1   2   3  168.89    4.52
   1   2   3  156.92    4.55
  -1  -2  -3  154.35    4.73
  -1  -2  -3  155.13    4.70
  -1  -2  -3  162.56    4.44
   1   2   4  105.43    3.43
  -1  -2  -4  103.08    3.86
  -1  -2  -4  111.16    3.84
  -1  -2  -4  107.80    3.51
   1   2   4  102.65    2.02
   1   2   5  270.14    5.84
   1   2   5  266.90    4.68
  -1  -2  -5  278.09    6.78
  -1  -2  -5  266.41    6.56
  -1  -2  -5  263.79    6.83
   1   2   5  264.45    6.76
  -1  -2  -5  266.88    5.93
   1   2   6    5.70    0.63
   1   2   6    5.36    0.71
   1   2   6    5.35    0.99
  -1  -2  -6    4.91    0.97
  -1  -2  -6    5.57    0.92
  -1  -2  -6    5.59    0.75
  -1  -2  -6    5.32    0.88
  -1  -2  -7   68.88    3.33
   1   2   7   75.31    2.61
   1   2   7   75.11    3.63
   1   2   7   71.23    2.56
  -1  -2  -7   72.30    2.65
  -1  -2  -7   74.49    3.26
  -1  -2  -7   71.59    3.54
   1   2   8   18.17    1.23
   1   2   8   17.40    1.83
  -1  -2  -8   18.75    1.93
  -1  -2  -8   19.48    1.81
   1   2   8   19.72    1.43
  -1  -2  -8   17.67    1.65
  -1  -2  -8   16.80    1.24
  -1  -2  -9  536.44   11.66
   1   2   9  549.03   10.36
  -1  -2  -9  544.28    9.32
   1   2   9  559.11   12.48
  -1  -2  -9  524.70   10.84
  -1  -2  -9  536.46   12.28
   1   2  10   43.90    3.21
   1   2  10   41.63    2.47
  -1  -2 -10   44.00    2.66
  -1  -2 -10   42.16    2.87
  -1  -2 -10   42.42    3.10
  -1  -2 -11  115.61    5.44
   1   2  11  127.97    5.84
   1   2  11  125.23    4.66
  -1  -2 -11  107.91    4.37
  -1  -2 -11  115.17    5.08
   1   2  12   31.31    2.99
   1   2  12   31.09    2.43
  -1  -2 -12   33.04    2.77
  -1  -2 -12   30.71    2.90
   1   2  13   25.17    2.81
   1   2  13   23.20    2.23
  -1  -2 -13   30.83    3.01
  -1  -2 -13   27.03    2.55
   1   2  14   38.26    3.55
  -1  -2 -14   37.59    3.13
  -1  -2 -14   37.18    3.44
  -1  -2 -15    5.64    1.48
   1   2  15    5.58    1.48
  -1  -2 -15    5.34    1.22
   1   2  16    4.83    1.51
  -1  -2 -16    4.96    1.40
   1   2  17    9.63    2.13
  -1  -2 -17    7.39    1.86
  -1  -3  15    2.68    1.14
   1   3 -15    2.89    1.46
   1   3 -15    1.03    0.86
   1   3 -15    1.34    0.93
  -1  -3  14    1.65    0.97
   1   3 -14    0.77    0.82
   1   3 -14   -1.17    0.93
   1   3 -14    0.69    0.87
  -1  -3  13    8.64    1.77
   1   3 -13    7.77    1.71
   1   3 -13    4.10    1.32
  -1  -3  12   16.48    2.32
   1   3 -12   19.00    2.45
   1   3 -12   18.66    2.54
  -1  -3  11   33.30    3.11
   1   3 -11   35.63    3.22
   1   3 -11   31.02    3.20
   1   3 -10   27.42    2.47
   1   3 -10   26.80    2.74
  -1  -3  10   29.63    2.52
   1   3 -10   24.44    2.74
  -1  -3  10   26.32    2.63
   1   3  -9   26.48    2.39
  -1  -3   9   22.36    2.37
  -1  -3   9   20.03    2.00
   1   3  -9   23.63    2.43
  -1  -3   9   24.75    2.27
   1   3  -9   21.98    2.52
  -1  -3   8    0.85    0.56
  -1  -3   8    1.55    0.79
  -1  -3   8    1.36    0.72
   1   3  -8    1.57    0.81
   1   3  -8    2.27    0.99
   1   3  -8    3.02    0.92
  -1  -3   7   65.78    3.60
  -1  -3   7   62.58    3.42
   1   3  -7   69.15    3.80
   1   3  -7   68.06    3.85
  -1  -3   7   67.36    3.63
   1   3  -7   66.00    4.02
   1   3  -6   30.76    2.49
  -1  -3   6   33.14    2.38
  -1  -3   6   29.24    2.32
   1   3  -6   33.12    2.54
  -1  -3   6   32.06    2.45
   1   3  -6   34.19    2.78
   1   3  -5  122.20    4.94
  -1  -3   5  119.34    4.79
  -1  -3   5  117.18    4.40
  -1  -3   5  122.54    4.72
   1   3  -5  113.10    4.73
   1   3  -5  124.30    5.23
   1   3  -4    1.20    0.69
   1   3  -4    0.71    0.51
  -1  -3   4    1.79    0.68
  -1  -3   4    1.51    0.66
  -1  -3   4    0.34    0.48
   1   3  -3   14.72    1.68
  -1  -3   3   15.01    1.35
   1   3  -3   14.82    1.71
  -1  -3   3   14.31    1.59
  -1  -3   3   15.00    1.64
   1   3  -2   43.79    2.78
   1   3  -2   38.75    2.37
  -1  -3   2   41.00    2.63
  -1  -3   2   40.22    1.99
  -1  -3   2   41.90    2.65
   1   3  -2   39.08    2.63
   1   3  -1   -0.63    0.62
   1   3  -1   -0.24    0.42
   1   3  -1    1.24    0.66
  -1  -3   1    1.00    0.38
  -1  -3   1    1.17    0.67
   1   3   0  426.55    9.45
  -1  -3   0  399.91    6.73
  -1  -3   0  401.99    9.39
  -1  -3   0  394.70    8.75
   1   3   0  414.84    9.51
   1   3   0  398.22    8.80
   1   3   1  328.20    7.95
   1   3   1  318.14    7.54
  -1  -3  -1  304.83    5.01
  -1  -3  -1  311.93    7.49
  -1  -3  -1  314.68    7.80
   1   3   1  314.67    8.08
   1   3   2  331.33    7.96
   1   3   2  323.32    7.89
  -1  -3  -2  337.05    7.99
  -1  -3  -2  313.56    7.72
   1   3   2  343.48    8.42
   1   3   3   66.43    3.15
   1   3   3   66.81    3.30
  -1  -3  -3   59.54    3.05
  -1  -3  -3   62.65    3.06
   1   3   3   68.60    3.46
   1   3   4   13.46    1.73
  -1  -3  -4   18.10    1.74
  -1  -3  -4   12.52    1.41
   1   3   4   14.85    1.45
  -1  -3  -4   12.71    1.39
   1   3   4   14.59    1.61
   1   3   5    1.16    0.55
   1   3   5   -0.01    0.43
   1   3   5    0.57    0.38
  -1  -3  -5    0.87    0.54
  -1  -3  -5    1.51    0.67
  -1  -3  -5    0.68    0.60
   1   3   6   61.56    2.94
   1   3   6   64.84    3.58
  -1  -3  -6   66.91    3.11
  -1  -3  -6   71.28    3.62
  -1  -3  -6   66.95    3.50
   1   3   7  296.86    8.34
  -1  -3  -7  287.51    7.90
   1   3   7  287.41    7.01
  -1  -3  -7  284.96    7.10
  -1  -3  -7  302.91    8.29
   1   3   8  273.28    6.74
   1   3   8  287.28    8.54
  -1  -3  -8  272.46    7.83
  -1  -3  -8  274.42    6.92
  -1  -3  -8  271.39    8.09
  -1  -3  -9    1.12    0.63
   1   3   9    0.98    0.78
   1   3   9    0.34    0.46
  -1  -3  -9    0.86    0.76
  -1  -3  -9    0.96    0.54
  -1  -3 -10   -0.09    0.47
   1   3  10    0.08    0.65
  -1  -3 -10    0.88    0.60
  -1  -3 -10   -0.24    0.50
  -1  -3 -11    2.43    0.89
   1   3  11    1.95    0.92
  -1  -3 -11    2.88    0.91
  -1  -3 -11    2.24    0.94
  -1  -3 -12    2.92    0.93
   1   3  12    2.42    1.03
  -1  -3 -12    2.21    0.82
  -1  -3 -12    2.58    0.98
   1   3  13   37.49    3.47
  -1  -3 -13   40.08    3.57
  -1  -3 -13   41.14    3.13
  -1  -3 -14   11.96    2.16
   1   3  14   10.05    1.97
   1   3  15   26.72    3.27
  -1  -3 -15   27.57    3.17
  -1  -3 -16    3.32    1.30
   1   3  16    2.44    1.19
  -1  -3 -17    4.03    1.38
   1   3  17    3.75    1.59
  -1  -4  13    3.46    1.34
   1   4 -13    4.64    1.47
   1   4 -13    4.32    1.53
  -1  -4  12    8.83    1.85
   1   4 -12    6.22    1.76
   1   4 -12    4.89    1.51
  -1  -4  11   13.94    2.15
   1   4 -11   15.43    2.41
   1   4 -11   18.63    2.70
   1   4 -10    1.79    0.97
   1   4 -10    0.29    0.60
   1   4 -10    2.83    1.25
  -1  -4  10    1.66    0.87
   1   4  -9   13.28    2.14
   1   4  -9   12.39    1.79
  -1  -4   9   14.34    1.97
  -1  -4   9   13.24    1.92
   1   4  -9   15.01    2.21
   1   4  -8    1.28    0.71
  -1  -4   8    1.11    0.74
  -1  -4   8    2.63    0.98
   1   4  -8    2.18    0.87
   1   4  -8    3.84    1.31
  -1  -4   8    3.29    1.09
   1   4  -7    4.17    1.21
   1   4  -7    2.79    0.92
  -1  -4   7    3.58    1.07
   1   4  -7    3.06    1.16
  -1  -4   7    3.17    1.00
  -1  -4   7    2.34    0.90
   1   4  -6    9.77    1.72
  -1  -4   6    7.00    1.31
  -1  -4   6    8.36    1.36
   1   4  -6   10.19    1.57
   1   4  -6    7.83    1.48
  -1  -4   6    7.62    1.34
   1   4  -5    0.23    0.57
   1   4  -5    1.27    0.77
  -1  -4   5    0.97    0.69
   1   4  -5    1.71    0.97
  -1  -4   5    0.19    0.55
  -1  -4   5    0.38    0.46
   1   4  -4   33.14    2.73
  -1  -4   4   30.06    2.18
  -1  -4   4   26.90    2.46
  -1  -4   4   27.54    2.53
   1   4  -4   25.53    2.57
   1   4  -3  374.53    9.90
  -1  -4   3  358.18    8.09
   1   4  -3  355.62   10.00
  -1  -4   3  356.53    9.52
  -1  -4   3  355.06    9.69
   1   4  -2   70.32    3.95
   1   4  -2   68.01    3.78
  -1  -4   2   71.19    2.93
   1   4  -2   63.13    3.76
  -1  -4   2   69.29    3.86
  -1  -4   2   69.01    3.87
   1   4  -1    5.03    0.94
   1   4  -1    8.82    1.41
  -1  -4   1    8.13    0.99
   1   4  -1    9.45    1.50
  -1  -4   1    8.39    1.43
  -1  -4   1    7.92    1.26
  -1  -4   0  106.22    4.81
   1   4   0  102.93    4.67
  -1  -4   0  102.29    3.07
  -1  -4   0  107.21    4.81
   1   4   0  109.99    4.88
   1   4   0  104.08    4.60
   1   4   1   45.22    3.02
   1   4   1   43.31    2.94
  -1  -4  -1   42.39    2.64
  -1  -4  -1   43.27    3.02
  -1  -4  -1   40.28    2.84
   1   4   1   41.00    2.96
   1   4   2  204.27    6.75
   1   4   2  198.06    6.63
  -1  -4  -2  197.00    6.16
  -1  -4  -2  205.08    6.98
  -1  -4  -2  213.87    6.81
   1   4   2  204.07    6.95
   1   4   3   26.22    2.25
   1   4   3   28.56    2.43
  -1  -4  -3   25.61    2.26
  -1  -4  -3   28.06    2.46
  -1  -4  -3   26.98    2.18
   1   4   3   18.25    1.99
   1   4   4   90.56    4.25
   1   4   4   87.01    4.45
  -1  -4  -4   92.24    4.61
  -1  -4  -4   83.16    3.93
   1   4   4   99.27    4.70
  -1  -4  -4   93.36    4.27
   1   4   5   59.07    3.34
   1   4   5   57.58    3.68
  -1  -4  -5   62.11    3.73
  -1  -4  -5   55.42    3.34
  -1  -4  -5   61.76    3.50
   1   4   5   63.45    3.81
   1   4   6   50.35    3.07
   1   4   6   48.01    3.44
  -1  -4  -6   48.02    3.35
  -1  -4  -6   50.92    3.22
   1   4   6   52.23    3.51
  -1  -4  -6   53.80    3.26
   1   4   7   53.78    3.16
   1   4   7   49.13    3.61
  -1  -4  -7   55.53    3.29
  -1  -4  -7   48.92    3.26
   1   4   7   55.95    3.77
  -1  -4  -7   54.74    3.62
  -1  -4  -8    6.73    1.40
   1   4   8    8.00    1.50
   1   4   8   10.20    1.74
   1   4   8   10.43    1.39
  -1  -4  -8    8.54    1.51
  -1  -4  -8    6.91    1.27
  -1  -4  -9    0.38    0.63
   1   4   9    0.11    0.58
   1   4   9    1.02    0.64
  -1  -4  -9    0.65    0.69
  -1  -4  -9    1.63    0.80
   1   4  10   68.95    4.54
  -1  -4 -10   71.29    4.30
  -1  -4 -10   64.08    4.18
  -1  -4 -10   71.70    3.77
  -1  -4 -11   18.09    2.25
  -1  -4 -11   14.52    2.13
   1   4  11   17.86    2.40
   1   4  12   49.14    4.09
  -1  -4 -12   45.36    3.60
  -1  -4 -12   47.46    3.84
  -1  -4 -13   20.97    2.52
  -1  -4 -13   18.60    2.49
   1   4  13   18.00    2.61
  -1  -4 -14    1.54    1.22
   1   4  14    1.86    1.25
  -1  -4 -14    1.59    1.05
  -1  -4 -15    2.57    1.29
   1   4  15    2.93    1.14
   1   4  16    3.37    1.40
  -1  -4 -16    1.36    1.30
   1   5 -11    0.98    0.88
  -1  -5  11    1.96    1.13
  -1  -5  10    4.59    1.39
   1   5 -10    6.00    1.67
   1   5 -10    5.48    1.64
  -1  -5   9    8.50    1.75
   1   5  -9    9.39    1.71
   1   5  -9    7.30    1.85
  -1  -5   9   10.31    1.89
   1   5  -9    6.34    1.71
   1   5  -8   -0.16    0.72
  -1  -5   8    0.98    0.98
   1   5  -8    1.15    0.76
  -1  -5   8    0.16    0.72
   1   5  -8   -0.35    0.84
   1   5  -7    2.74    1.04
   1   5  -7    2.75    0.95
  -1  -5   7    3.10    1.09
  -1  -5   7    1.77    0.85
  -1  -5   7    3.32    1.15
   1   5  -6   16.21    2.31
   1   5  -6   18.48    2.26
  -1  -5   6   19.09    2.43
  -1  -5   6   17.63    2.25
  -1  -5   6   17.27    1.99
   1   5  -6   16.03    2.28
   1   5  -5   69.44    4.47
  -1  -5   5   75.60    4.47
   1   5  -5   77.20    4.93
  -1  -5   5   75.06    4.66
   1   5  -5   71.12    4.69
   1   5  -4  247.00    8.62
   1   5  -4  234.64    8.64
  -1  -5   4  243.95    8.67
  -1  -5   4  252.76    8.51
   1   5  -3  133.04    6.06
   1   5  -3  127.26    6.05
  -1  -5   3  133.80    6.10
  -1  -5   3  127.73    5.92
   1   5  -2    0.57    0.70
   1   5  -2    2.83    1.03
  -1  -5   2    0.26    0.64
  -1  -5   2    0.78    0.71
   1   5  -1    2.30    0.97
  -1  -5   1    2.49    0.79
   1   5  -1    2.95    1.02
   1   5  -1    2.35    0.84
  -1  -5   1    4.14    1.11
   1   5   0    8.31    1.54
   1   5   0    9.40    1.65
   1   5   0    8.82    1.51
  -1  -5   0    9.84    1.57
  -1  -5   0   12.23    1.81
   1   5   1    1.33    0.76
   1   5   1    1.10    0.78
   1   5   1    2.06    0.92
  -1  -5  -1    1.69    0.80
  -1  -5  -1    2.09    0.82
   1   5   2   25.25    2.51
   1   5   2   28.00    2.73
   1   5   2   30.57    2.79
  -1  -5  -2   26.50    2.35
  -1  -5  -2   28.08    2.74
  -1  -5  -2   31.45    2.79
   1   5   3    9.43    1.66
   1   5   3   14.04    1.93
   1   5   3   10.28    1.63
  -1  -5  -3   12.49    1.62
  -1  -5  -3   12.83    1.79
  -1  -5  -3   14.23    2.05
   1   5   4   25.66    2.58
   1   5   4   23.47    2.45
   1   5   4   24.27    2.59
  -1  -5  -4   20.35    2.11
  -1  -5  -4   23.25    2.57
  -1  -5  -4   21.26    2.36
   1   5   5   12.61    1.93
   1   5   5   11.22    1.85
   1   5   5   10.59    1.61
  -1  -5  -5   10.05    1.51
  -1  -5  -5   11.94    1.76
  -1  -5  -5   14.00    2.02
  -1  -5  -6    1.04    0.81
   1   5   6    3.29    1.08
   1   5   6    1.83    0.92
   1   5   6    2.00    0.88
  -1  -5  -6    2.44    1.06
  -1  -5  -6    2.63    1.08
   1   5   7    0.15    0.74
  -1  -5  -7    0.73    0.62
   1   5   7    1.98    1.06
   1   5   7    1.79    0.95
  -1  -5  -7    1.67    0.83
  -1  -5  -7    1.28    0.95
   1   5   8  111.84    5.30
   1   5   8  122.99    6.46
  -1  -5  -8  113.83    5.43
  -1  -5  -8  118.98    6.09
  -1  -5  -8  115.07    5.55
   1   5   8  127.17    6.25
   1   5   9  134.12    6.64
   1   5   9  141.64    6.03
   1   5   9  131.10    6.75
  -1  -5  -9  132.52    6.52
  -1  -5  -9  140.94    6.08
  -1  -5  -9  123.43    5.99
  -1  -5 -10   30.49    2.81
   1   5  10   31.25    2.78
   1   5  10   27.99    3.28
  -1  -5 -10   25.24    2.89
  -1  -5 -10   25.93    2.78
   1   5  10   32.44    3.31
  -1  -5 -11   13.77    2.12
   1   5  11   13.41    2.21
   1   5  11   14.96    2.39
  -1  -5 -11   13.65    2.15
  -1  -5 -12    0.63    0.92
   1   5  12    0.23    0.70
   1   5  12    0.72    1.00
  -1  -5 -12    2.20    1.23
  -1  -5 -13    3.25    1.40
   1   5  13    5.03    1.55
  -1  -5 -13    4.22    1.50
  -1  -5 -14    1.89    1.05
  -1  -5 -14    1.76    1.18
   1   5  14    2.18    1.28
  -1  -5 -15    4.68    1.70
   1   5  15    2.53    1.43
  -1  -5 -15    3.30    1.43
   1   6  -9   21.19    3.03
   1   6  -9   27.11    3.10
   1   6  -9   20.69    3.15
   1   6  -8    1.34    1.18
  -1  -6   8    0.41    1.11
   1   6  -8    1.17    0.88
   1   6  -8    1.56    1.27
   1   6  -7    2.08    1.24
   1   6  -7    0.24    0.91
   1   6  -7    0.54    0.79
  -1  -6   7    3.61    1.32
   1   6  -6    6.99    1.78
   1   6  -6    6.65    1.65
   1   6  -6    6.57    1.68
  -1  -6   6    5.12    1.47
   1   6  -5    1.53    1.23
   1   6  -5    3.38    1.22
   1   6  -5    2.72    1.41
  -1  -6   5    1.19    1.06
  -1  -6   5    2.23    1.18
   1   6  -4   13.31    2.18
  -1  -6   4   10.73    1.93
  -1  -6   4   13.38    2.15
   1   6  -4   14.91    2.27
   1   6  -3    1.64    1.04
   1   6  -3    1.51    0.87
  -1  -6   3    3.08    1.18
  -1  -6   3    2.04    1.03
   1   6  -2    1.36    0.88
   1   6  -2    3.96    1.17
  -1  -6   2    2.43    0.99
  -1  -6   2    2.91    1.11
   1   6  -1    1.40    0.91
   1   6  -1    2.19    1.12
   1   6  -1    1.46    0.97
  -1  -6   1    1.66    0.96
  -1  -6   1    1.65    0.92
   1   6   0   35.49    3.33
  -1  -6   0   33.34    3.33
  -1  -6   0   26.52    2.88
   1   6   0   39.01    3.56
   1   6   0   36.81    3.43
   1   6   1   -0.92    1.03
   1   6   1   -1.02    0.85
   1   6   1    0.95    0.91
  -1  -6  -1    0.99    0.97
  -1  -6  -1   -0.23    0.58
   1   6   2    4.79    1.31
   1   6   2    2.33    1.06
   1   6   2    5.89    1.44
  -1  -6  -2    6.86    1.59
  -1  -6  -2    5.65    1.40
  -1  -6  -3   18.98    2.46
   1   6   3   15.47    2.17
   1   6   3   19.95    2.51
   1   6   3   17.77    2.51
  -1  -6  -3   17.35    2.41
   1   6   4   42.10    3.58
   1   6   4   47.11    3.98
  -1  -6  -4   48.61    4.08
  -1  -6  -4   47.49    3.86
   1   6   4   49.08    3.92
   1   6   5    0.55    0.80
  -1  -6  -5    0.55    0.65
   1   6   5    3.13    1.32
   1   6   5    0.11    0.77
  -1  -6  -5    0.30    0.88
   1   6   6   18.03    2.53
   1   6   6   22.32    2.64
   1   6   6   21.43    2.78
  -1  -6  -6   23.79    2.92
  -1  -6  -6   19.62    2.52
   1   6   7   65.00    4.49
   1   6   7   68.99    5.03
  -1  -6  -7   76.83    5.25
  -1  -6  -7   70.47    4.71
   1   6   7   73.71    4.97
   1   6   8    2.95    1.44
   1   6   8    2.32    1.30
   1   6   8    3.89    1.33
  -1  -6  -8    4.38    1.39
  -1  -6  -8    2.51    1.14
   1   6   9   20.70    2.80
   1   6   9   24.61    3.17
   1   6   9   21.76    2.62
  -1  -6  -9   22.66    2.96
  -1  -6  -9   32.13    3.24
   1   6  10    7.40    1.86
   1   6  10    8.71    2.13
   1   6  10    6.00    1.43
  -1  -6 -10   10.88    1.98
  -1  -6 -10    7.07    1.79
   1   6  11    1.53    1.24
   1   6  11    0.78    1.12
  -1  -6 -11    0.30    0.88
   1   6  12    0.49    0.89
   1   6  12    2.34    1.29
  -1  -6 -12    3.16    1.29
   1   7  -4    7.45    1.98
   1   7  -4    3.72    1.37
  -1  -7   4    7.19    1.85
   1   7  -3    1.64    1.18
   1   7  -3    4.75    1.54
  -1  -7   3    2.94    1.17
  -1  -7   3    2.21    1.33
   1   7  -2    0.51    1.07
   1   7  -2    1.24    0.89
  -1  -7   2    1.72    0.94
  -1  -7   2    0.93    1.06
   1   7  -1   -1.10    1.01
   1   7  -1    0.62    0.64
  -1  -7   1    0.51    0.65
  -1  -7   1    1.39    1.02
   1   7   0    1.10    1.16
   1   7   0    0.19    0.66
  -1  -7   0    0.62    0.69
  -1  -7   0    0.11    0.72
   1   7   1    3.90    1.47
   1   7   1    7.97    1.92
  -1  -7  -1    8.58    1.93
  -1  -7  -1    5.74    1.70
   1   7   2   11.37    2.30
   1   7   2    9.88    1.98
  -1  -7  -2   11.20    2.16
  -1  -7  -2   12.51    2.40
   1   7   3   23.09    2.97
   1   7   3   21.04    3.01
  -1  -7  -3   22.23    2.97
  -1  -7  -3   18.88    2.77
   1   7   4    1.21    1.19
   1   7   4    2.30    1.14
  -1  -7  -4    1.07    0.96
  -1  -7  -4    0.09    0.59
   1   7   5    3.78    1.46
   1   7   5    3.82    1.38
  -1  -7  -5    3.79    1.32
  -1  -7  -5    4.46    1.54
   1   7   6    1.46    0.94
   1   7   6    1.27    1.15
  -1  -7  -6   -0.60    0.77
  -1  -7  -6    1.73    1.32
   1   7   7    2.71    1.22
   1   7   7    0.96    0.82
  -1  -7  -7    3.37    1.44
  -1  -7  -7   -0.43    0.70
   1   7   8    4.07    1.51
   1   7   8    5.52    1.53
  -1  -7  -8    6.32    1.76
  -1  -7  -8    4.64    1.54
   2  -6  -8   -0.17    0.78
  -2   6   8   -0.72    1.01
   2  -6  -7    1.72    1.04
  -2   6   7    1.83    1.34
   2  -6  -6    1.45    1.14
  -2   6   6    0.70    0.98
   2  -6  -5    5.26    1.50
  -2   6   5    4.64    1.56
  -2   6   5    7.02    1.77
   2  -6  -4    4.65    1.50
  -2   6   4    4.92    1.65
  -2   6   4    4.58    1.38
   2  -6  -3   19.41    2.69
   2  -6  -3   22.08    2.92
  -2   6   3   22.97    2.91
   2  -6  -2    2.68    1.24
   2  -6  -2    7.64    1.96
  -2   6   2    5.94    1.62
   2  -6  -1    1.04    1.04
  -2   6   1   -0.77    0.84
   2  -6   0    7.98    1.89
  -2   6   0    7.03    1.76
  -2   6  -1    0.22    0.86
   2  -6   1    2.65    1.09
  -2   6  -1    1.99    1.18
   2  -6   2    2.89    1.28
  -2   6  -2    2.26    1.40
  -2   6  -2    3.97    1.52
   2  -6   3    3.79    1.41
  -2   6  -3    4.38    1.57
   2  -6   4    4.41    1.55
  -2   6  -4    3.98    1.62
   2  -6   5    0.52    0.90
  -2   6  -5    0.11    0.93
   2  -5 -12   15.70    2.50
   2  -5 -11   63.40    4.83
  -2   5  10    2.03    1.09
  -2   5  10    2.37    1.35
   2  -5 -10    3.25    1.28
  -2   5   9    3.44    1.46
  -2   5   9    2.69    1.27
   2  -5  -9    4.09    1.31
  -2   5   8    3.02    1.45
  -2   5   8    0.96    0.85
   2  -5  -8    1.52    0.94
  -2   5   7   33.85    3.39
  -2   5   7   29.14    3.10
   2  -5  -7   34.33    3.28
  -2   5   6   -0.15    0.96
  -2   5   6   -0.26    0.67
   2  -5  -6    0.91    0.70
  -2   5   5   52.57    4.26
  -2   5   5   51.87    4.05
   2  -5  -5   52.05    3.93
   2  -5  -5   43.44    3.73
   2  -5  -4    0.17    0.72
  -2   5   4    0.16    0.96
  -2   5   4    1.97    1.07
   2  -5  -4   -0.05    0.82
   2  -5  -3   11.75    1.96
  -2   5   3   10.56    2.03
  -2   5   3   11.19    1.91
   2  -5  -3    7.88    1.61
   2  -5  -2    3.04    1.15
  -2   5   2    1.36    1.03
   2  -5  -2    1.67    0.84
   2  -5  -1    0.81    0.79
   2  -5  -1    1.37    0.83
  -2   5   1    0.47    0.78
   2  -5  -1    1.06    0.69
   2  -5   0    2.55    1.11
   2  -5   0    2.29    1.11
  -2   5   0    3.57    1.10
  -2   5   0    4.99    1.38
   2  -5   1    9.31    1.84
  -2   5  -1    8.34    1.81
  -2   5  -1    6.89    1.62
   2  -5   1    9.91    1.92
  -2   5  -2   80.90    5.17
   2  -5   2   70.33    4.80
   2  -5   2   70.57    4.82
  -2   5  -2   76.94    4.76
   2  -5   3    3.13    1.19
  -2   5  -3    2.90    1.25
  -2   5  -3    6.17    1.68
   2  -5   3    7.92    1.83
   2  -5   4   -0.95    0.81
  -2   5  -4    1.14    0.85
  -2   5  -4    0.85    1.04
   2  -5   4    0.91    0.87
   2  -5   5    2.37    1.08
  -2   5  -5    0.54    0.74
   2  -5   5    1.30    0.83
  -2   5  -5    3.61    1.51
   2  -5   6    0.53    1.01
  -2   5  -6   -0.09    0.50
  -2   5  -6    2.17    1.22
   2  -5   6    1.96    1.21
   2  -5   7    1.17    0.95
  -2   5  -7    3.07    1.22
  -2   5  -7    4.88    1.62
   2  -5   7    2.53    1.23
   2  -5   8   22.58    2.99
  -2   5  -8   19.49    2.89
  -2   5  -8   20.36    2.92
   2  -5   8   17.55    2.82
  -2   5  -9    2.64    1.24
  -2   5  -9    3.44    1.54
   2  -5   9    3.65    1.64
   2  -5   9    2.47    1.17
   2  -4 -14   16.80    2.61
  -2   4  14   24.13    3.17
  -2   4  13   31.02    3.53
   2  -4 -13   34.10    3.56
  -2   4  12    5.12    1.62
   2  -4 -12    4.02    1.36
  -2   4  11   -0.15    0.72
   2  -4 -11    1.34    1.02
  -2   4  10   16.05    2.33
  -2   4  10   15.66    2.32
   2  -4 -10   17.75    2.49
  -2   4   9   44.53    3.62
  -2   4   9   37.95    3.46
   2  -4  -9   39.08    3.48
  -2   4   8   44.16    3.52
  -2   4   8   40.52    3.53
   2  -4  -8   47.96    3.76
  -2   4   7   25.43    2.64
  -2   4   7   24.98    2.76
   2  -4  -7   25.35    2.75
  -2   4   6    3.54    1.15
  -2   4   6    2.08    0.97
   2  -4  -6    2.07    0.90
  -2   4   5    6.53    1.42
  -2   4   5    5.89    1.38
   2  -4  -5    6.53    1.45
  -2   4   4  241.27    8.32
  -2   4   4  240.11    8.46
   2  -4  -4  240.62    8.45
  -2   4   3  105.90    5.35
  -2   4   3  110.67    5.54
   2  -4  -3   97.96    5.21
  -2   4   2   33.39    3.04
  -2   4   2   41.19    3.36
   2  -4  -2   36.15    3.11
  -2   4   1   19.94    2.38
   2  -4  -1   18.44    2.24
   2  -4   0  102.19    5.36
  -2   4   0  107.71    5.53
  -2   4   0  117.63    5.01
   2  -4   0   97.21    4.59
   2  -4   1    2.42    0.82
   2  -4   1    2.28    1.07
  -2   4  -1    1.73    1.04
  -2   4  -1    1.66    0.71
  -2   4  -1    3.15    1.10
   2  -4   1    1.76    0.81
   2  -4   2    0.51    0.79
  -2   4  -2    1.26    0.98
  -2   4  -2    0.42    0.43
  -2   4  -2    1.39    0.91
   2  -4   2    0.65    0.85
   2  -4   3    0.58    0.76
  -2   4  -3    0.71    1.00
  -2   4  -3    1.78    0.97
  -2   4  -3    0.15    0.55
   2  -4   3    0.92    0.96
   2  -4   4   15.65    2.21
  -2   4  -4   15.22    2.16
  -2   4  -4   10.85    1.70
  -2   4  -4   13.54    1.94
   2  -4   4   13.88    2.15
   2  -4   5    2.70    1.01
  -2   4  -5    2.98    1.16
  -2   4  -5    3.25    1.05
  -2   4  -5    3.11    1.25
   2  -4   5    2.25    1.04
   2  -4   6    1.13    0.80
  -2   4  -6    2.69    1.06
  -2   4  -6    0.55    0.97
   2  -4   6    1.03    1.07
   2  -4   7    1.19    0.87
  -2   4  -7    0.25    0.52
  -2   4  -7    0.31    0.78
   2  -4   7    1.52    1.02
   2  -4   8    0.97    1.00
  -2   4  -8   -0.52    0.85
  -2   4  -8    1.13    0.90
  -2   4  -9   38.39    3.75
   2  -4   9   38.53    3.76
  -2   4  -9   41.57    3.87
  -2   4 -10    9.81    1.98
  -2   4 -10    8.75    1.95
   2  -4  10   10.12    2.07
  -2   4 -11    0.69    1.00
  -2   4 -11    3.67    1.39
   2  -4  11    0.93    0.88
  -2   3  15   15.49    2.60
   2  -3 -15   14.50    2.36
  -2   3  14    1.49    1.01
   2  -3 -14    2.17    1.11
  -2   3  13    3.01    1.33
   2  -3 -13    3.34    1.32
  -2   3  12   36.66    3.49
   2  -3 -12   41.95    3.71
  -2   3  11   59.57    4.41
   2  -3 -11   60.58    4.38
  -2   3  10    4.83    1.29
  -2   3  10    4.09    1.18
   2  -3 -10    5.31    1.45
  -2   3   9  108.63    5.12
  -2   3   9   96.45    5.35
   2  -3  -9  103.26    5.47
  -2   3   8    5.93    1.20
  -2   3   8    6.09    1.39
   2  -3  -8    6.48    1.50
  -2   3   7    1.12    0.82
  -2   3   7    0.42    0.57
   2  -3  -7    1.27    0.70
  -2   3   6   48.61    3.15
  -2   3   6   54.65    3.67
   2  -3  -6   43.60    3.35
  -2   3   5    8.61    1.42
  -2   3   5    9.47    1.63
   2  -3  -5    9.93    1.64
  -2   3   4  492.62   11.41
  -2   3   4  497.25   12.22
   2  -3  -4  501.91   12.32
  -2   3   3   87.06    4.26
  -2   3   3   92.60    4.75
   2  -3  -3  101.37    4.96
  -2   3   2   55.82    3.41
  -2   3   2   54.18    3.58
   2  -3  -2   60.90    3.82
  -2   3   1    0.00    0.51
  -2   3   1    0.00    0.33
   2  -3  -1    0.18    0.60
  -2   3   0    1.98    0.93
   2  -3   0    0.38    0.57
  -2   3   0    0.83    0.48
  -2   3   0    0.75    0.48
   2  -3   1   20.01    2.31
  -2   3  -1   22.03    2.25
  -2   3  -1   20.21    1.80
  -2   3  -1   19.80    1.85
  -2   3  -2   40.16    2.69
  -2   3  -2   42.30    3.22
   2  -3   2   39.88    3.11
   2  -3   2   42.75    3.29
  -2   3  -2   38.46    2.61
   2  -3   3    0.26    0.48
  -2   3  -3    0.33    0.60
  -2   3  -3    0.98    0.71
  -2   3  -3    0.83    0.72
   2  -3   3    1.54    0.88
  -2   3  -4   59.52    3.90
   2  -3   4   62.84    4.04
  -2   3  -4   62.87    3.68
   2  -3   4   58.34    4.03
  -2   3  -4   63.41    3.57
   2  -3   5    1.09    0.81
  -2   3  -5    0.50    0.77
  -2   3  -5    0.40    0.64
  -2   3  -5    1.25    0.89
   2  -3   5    0.70    0.89
   2  -3   6    6.98    1.51
  -2   3  -6    8.37    1.53
  -2   3  -6    7.33    1.47
   2  -3   7  104.29    5.60
  -2   3  -7   93.33    5.17
  -2   3  -7  105.39    5.29
   2  -3   8    3.71    1.31
  -2   3  -8    1.81    1.00
  -2   3  -8    2.50    1.16
   2  -3   9  160.87    7.20
  -2   3  -9  159.04    7.34
  -2   3  -9  170.19    7.36
  -2   3 -10    5.35    1.55
  -2   3 -10    2.49    1.26
   2  -3  10    2.59    1.12
  -2   3 -11    1.07    0.82
  -2   3 -11    1.97    1.20
   2  -3  11    2.42    1.05
  -2   3 -12    0.19    1.14
  -2   3 -12    1.38    1.19
   2  -3  12   -0.76    0.87
  -2   3 -13    1.42    1.11
  -2   3 -13    1.22    1.27
   2  -3  13    0.63    0.62
  -2   2  16    2.92    1.38
   2  -2 -16    4.83    1.55
  -2   2  15    8.30    1.99
   2  -2 -15    4.91    1.59
  -2   2  14   62.48    4.82
   2  -2 -14   56.50    4.46
  -2   2  13   33.59    3.46
   2  -2 -13   35.78    3.46
  -2   2  12   20.36    2.56
   2  -2 -12   24.24    2.78
  -2   2  11   13.85    2.08
   2  -2 -11   20.48    2.49
  -2   2  10   46.42    3.67
   2  -2 -10   60.75    4.07
  -2   2   9    1.17    0.75
  -2   2   9    0.69    0.85
   2  -2  -9    1.71    0.91
  -2   2   8   39.84    2.65
  -2   2   8   37.66    3.14
   2  -2  -8   42.65    3.29
  -2   2   7  196.74    5.96
  -2   2   7  183.77    6.98
   2  -2  -7  191.87    7.01
  -2   2   6   52.17    2.79
  -2   2   6   48.44    3.36
   2  -2  -6   54.47    3.52
  -2   2   5  273.22    6.92
  -2   2   5  273.17    8.33
   2  -2  -5  276.08    8.30
  -2   2   4   20.72    1.73
  -2   2   4   23.97    2.30
   2  -2  -4   26.31    2.37
  -2   2   3    5.84    0.65
  -2   2   3    7.29    1.06
  -2   2   3    6.07    1.23
   2  -2  -3    6.97    1.23
  -2   2   2    3.90    0.90
  -2   2   2    2.95    0.50
  -2   2   2    3.98    0.88
   2  -2  -2    3.00    0.95
  -2   2   1  104.23    4.60
   2  -2  -1  101.39    4.67
  -2   2   1   95.62    3.32
  -2   2   1  100.28    3.17
  -2   2   0   94.08    4.36
   2  -2   0   94.89    4.55
  -2   2   0   95.30    3.21
  -2   2   0   95.63    3.53
  -2   2  -1   -0.33    0.68
  -2   2  -1    0.39    0.39
  -2   2  -1    0.00    0.43
   2  -2   1    0.05    0.64
  -2   2  -2   78.61    4.01
  -2   2  -2   74.05    3.12
  -2   2  -2   77.49    3.52
   2  -2   2   75.35    4.14
  -2   2  -3  290.43    8.34
  -2   2  -3  277.63    6.28
   2  -2   3  283.23    8.56
   2  -2   3  284.07    8.32
  -2   2  -3  286.28    7.12
  -2   2  -3  270.02    7.52
  -2   2  -4    0.13    0.35
   2  -2   4    1.69    0.72
  -2   2  -4    1.25    0.85
  -2   2  -4    0.98    0.81
   2  -2   4    0.90    0.79
  -2   2  -4    0.74    0.63
   2  -2   5    1.61    0.75
  -2   2  -5    1.66    0.91
  -2   2  -5    2.35    0.84
  -2   2  -5    3.49    0.97
  -2   2  -5    1.69    0.54
  -2   2  -6   23.62    2.31
  -2   2  -6   24.29    2.26
  -2   2  -6   25.36    2.46
   2  -2   6   24.59    2.42
  -2   2  -6   22.73    1.77
   2  -2   7   87.60    4.69
  -2   2  -7   78.11    4.46
  -2   2  -7   80.57    4.27
   2  -2   8  101.41    5.26
  -2   2  -8   97.24    5.22
  -2   2  -8   95.79    4.89
   2  -2   9   16.52    2.20
  -2   2  -9   15.94    2.28
  -2   2  -9   16.94    2.18
  -2   2 -10    1.42    0.87
  -2   2 -10   -0.07    0.98
   2  -2  10    1.90    0.84
  -2   2 -11    2.30    1.07
  -2   2 -11    0.70    0.69
   2  -2  11    1.32    1.03
  -2   2 -12    1.70    0.94
   2  -2  12    0.42    0.64
  -2   2 -13    3.20    1.47
   2  -2  13    0.06    0.77
   2  -2  14   -0.81    0.81
  -2   2 -14   -1.96    1.03
  -2   2 -15    1.75    1.18
   2  -2  15    1.40    1.04
  -2   1  16   72.15    5.54
   2  -1 -16   78.54    5.47
  -2   1  15   22.55    3.06
   2  -1 -15   23.48    2.87
  -2   1  14   10.13    1.95
   2  -1 -14   11.62    2.02
  -2   1  13   18.32    2.52
   2  -1 -13   28.45    2.99
  -2   1  12   13.16    2.16
   2  -1 -12   16.10    2.21
  -2   1  11    1.14    0.99
   2  -1 -11    0.62    0.73
   2  -1 -11    0.04    0.43
  -2   1  10  105.86    5.55
   2  -1 -10  112.86    4.83
  -2   1   9   77.69    4.52
   2  -1  -9   88.84    4.66
   2  -1  -9   74.96    3.73
  -2   1   8   65.55    3.01
  -2   1   8   62.72    3.91
   2  -1  -8   69.43    3.37
   2  -1  -8   64.78    3.90
  -2   1   7   43.86    2.30
  -2   1   7   45.58    3.22
   2  -1  -7   52.28    3.35
   2  -1  -7   47.10    2.60
  -2   1   6   68.50    2.71
  -2   1   6   64.17    3.72
   2  -1  -6   63.09    3.60
   2  -1  -6   68.92    2.94
  -2   1   5   41.32    1.94
  -2   1   5   40.88    2.85
   2  -1  -5   42.57    2.90
   2  -1  -5   38.55    2.03
   2  -1  -4    2.43    0.46
  -2   1   4    3.33    0.58
  -2   1   4    2.81    0.85
   2  -1  -4    4.84    1.22
  -2   1   3 1027.39   15.18
   2  -1  -3 1013.81   18.17
   2  -1  -3 1023.96   14.93
   2  -1  -2  127.47    4.87
  -2   1   2  128.70    4.78
   2  -1  -2  127.69    2.96
  -2   1   1   49.51    2.32
   2  -1  -1   44.95    2.83
  -2   1   1   50.09    2.92
  -2   1   1   46.57    1.38
   2  -1  -1   46.01    1.67
  -2   1   0  164.95    4.74
  -2   1   0  173.73    5.61
   2  -1   0  181.72    5.99
  -2   1   0  171.55    3.58
   2  -1   0  167.17    3.70
  -2   1  -1   39.42    2.27
   2  -1   1   37.58    2.65
  -2   1  -1   38.55    2.52
  -2   1  -1   39.70    2.27
  -2   1  -1   39.05    1.69
   2  -1   1   34.52    1.58
  -2   1  -2  146.30    4.76
  -2   1  -2  144.68    5.09
   2  -1   2  145.00    5.42
  -2   1  -2  134.50    4.39
  -2   1  -2  140.44    3.83
   2  -1   2  127.59    3.56
  -2   1  -3  329.47    8.30
   2  -1   3  326.13    8.24
  -2   1  -3  310.42    7.37
  -2   1  -3  314.66    7.90
   2  -1   3  316.97    8.61
  -2   1  -3  314.75    6.87
  -2   1  -4  161.35    5.56
   2  -1   4  158.61    5.53
  -2   1  -4  159.53    4.97
  -2   1  -4  164.21    4.88
  -2   1  -4  160.49    5.57
  -2   1  -5   31.01    2.52
  -2   1  -5   35.17    2.60
   2  -1   5   34.15    2.54
  -2   1  -5   32.63    2.26
  -2   1  -5   33.52    2.22
  -2   1  -6   23.68    1.96
  -2   1  -6   23.93    2.16
   2  -1   6   26.24    2.27
  -2   1  -6   27.87    2.46
  -2   1  -6   24.34    2.05
   2  -1   7   57.95    3.51
  -2   1  -7   59.35    3.71
  -2   1  -7   59.22    3.19
   2  -1   8    1.59    0.87
  -2   1  -8    1.47    0.80
  -2   1  -8    2.21    0.98
  -2   1  -9    4.90    1.23
  -2   1  -9    6.86    1.28
   2  -1   9    7.54    1.44
   2  -1  10   48.93    3.54
  -2   1 -10   39.75    3.40
  -2   1 -10   42.87    3.10
  -2   1 -11    1.24    0.83
  -2   1 -11    0.48    0.77
   2  -1  11    1.62    1.03
  -2   1 -12    3.36    1.19
   2  -1  12    1.03    0.83
  -2   1 -13    6.08    1.45
  -2   1 -13    6.58    1.67
   2  -1  13    4.70    1.35
  -2   1 -14   12.62    2.27
  -2   1 -14    9.72    1.89
   2  -1  14   12.26    2.08
  -2   1 -15    4.05    1.51
   2  -1  15    3.49    1.36
  -2   1 -16    8.62    1.94
   2  -1  16   10.10    2.20
   2  -1  16   14.63    2.44
  -2   0  16   -0.43    0.77
   2   0 -16    3.58    1.49
  -2   0  15    1.31    0.89
   2   0 -15    0.88    0.92
   2   0 -15    0.45    1.17
  -2   0  14   13.64    2.38
   2   0 -14   14.40    2.20
   2   0 -14   12.89    2.24
  -2   0  13   35.18    3.55
   2   0 -13   30.33    3.01
   2   0 -12   19.28    2.39
   2   0 -12   17.86    2.26
  -2   0  11   12.51    1.95
  -2   0  11    7.47    1.38
   2   0 -11   10.02    1.71
   2   0 -11   10.02    1.68
  -2   0  10    4.11    1.37
  -2   0  10    1.74    0.82
   2   0 -10    2.16    0.95
   2   0 -10    4.54    1.11
  -2   0   9  525.14   12.97
   2   0  -9  497.58   12.06
  -2   0   9  506.38   11.93
   2   0  -9  507.90   11.76
  -2   0   8    2.73    1.07
  -2   0   8    1.35    0.74
   2   0  -8    1.82    1.00
   2   0  -8    1.82    0.69
  -2   0   7   34.07    2.74
   2   0  -7   34.05    2.60
  -2   0   7   27.36    2.35
   2   0  -7   33.24    2.40
   2   0  -6    6.29    1.02
  -2   0   6    5.72    0.62
  -2   0   6    6.11    1.23
  -2   0   6    7.71    1.24
   2   0  -6    7.22    1.27
  -2   0   5  740.98   14.24
   2   0  -5  756.42   14.03
  -2   0   5  725.85   14.09
   2   0  -5  769.08   13.11
  -2   0   4  416.78    9.00
   2   0  -4  423.32    8.88
   2   0  -4  412.29    7.88
   2   0  -3    0.71    0.36
  -2   0   3    0.88    0.65
   2   0  -3    0.84    0.56
  -2   0   2  105.18    4.10
   2   0  -2  105.20    4.15
   2   0  -2  102.59    3.52
  -2   0   1   28.47    2.04
   2   0  -1   27.67    2.08
  -2   0   1   29.14    2.10
   2   0  -1   27.71    1.72
  -2   0   0   17.06    1.55
   2   0   0   17.91    1.68
  -2   0   0   16.01    1.52
  -2   0   0   18.76    1.56
   2   0   0   14.52    1.31
  -2   0  -1   11.93    1.27
  -2   0  -1   12.85    1.43
  -2   0  -1   12.63    1.27
   2   0   1   12.20    1.42
   2   0   1   10.99    1.12
  -2   0  -1   13.29    1.38
  -2   0  -2  311.68    7.52
  -2   0  -2  308.61    7.28
  -2   0  -2  302.11    6.66
  -2   0  -2  314.63    7.71
   2   0   2  309.35    7.83
  -2   0  -2  307.37    6.96
   2   0   2  292.92    6.84
  -2   0  -3    1.60    0.49
   2   0   3    2.08    0.60
   2   0   3    1.67    0.55
  -2   0  -3    1.70    0.56
  -2   0  -3    0.72    0.38
  -2   0  -3    1.14    0.51
  -2   0  -3    1.04    0.38
   2   0   3    2.46    0.73
  -2   0  -4  581.47   12.09
  -2   0  -4  616.06   11.52
  -2   0  -4  580.95   10.01
   2   0   4  598.68   11.52
  -2   0  -4  607.31   11.95
  -2   0  -4  588.14   10.41
  -2   0  -5    1.17    0.72
   2   0   5    0.89    0.58
  -2   0  -5    0.62    0.54
  -2   0  -5    1.90    0.92
  -2   0  -5    0.51    0.31
  -2   0  -6   31.63    2.22
   2   0   6   30.86    2.19
  -2   0  -6   26.87    1.40
  -2   0  -6   28.39    2.41
  -2   0  -6   27.30    2.20
   2   0   7    2.11    0.75
  -2   0  -7    0.65    0.72
  -2   0  -7    0.74    0.81
   2   0   8  234.89    6.92
  -2   0  -8  232.24    7.74
  -2   0  -8  231.77    7.28
   2   0   9   74.28    3.83
  -2   0  -9   77.19    4.46
  -2   0  -9   77.96    4.16
  -2   0 -10    3.62    1.09
   2   0  10    5.35    1.14
  -2   0 -10    4.35    1.17
   2   0  11   21.05    2.54
   2   0  11   25.57    2.40
  -2   0 -11   20.74    2.49
  -2   0 -11   22.49    2.43
  -2   0 -12    4.65    1.29
   2   0  12    4.49    1.18
  -2   0 -12    4.25    1.24
   2   0  12    4.80    1.18
   2   0  13    2.04    1.15
  -2   0 -13    1.41    0.82
  -2   0 -13    3.05    1.17
   2   0  13    3.46    1.10
   2   0  14    3.91    1.43
  -2   0 -14    1.49    1.06
  -2   0 -14    2.40    1.22
   2   0  14    3.43    1.17
   2   0  15   13.54    2.37
  -2   0 -15   13.05    2.26
  -2   0 -15   13.71    2.43
   2   0  15   14.13    2.22
   2   0  16    0.55    0.68
  -2   0 -16    1.14    1.09
  -2   0 -16    1.10    1.01
   2   0  16    3.69    1.47
  -2  -1  16   15.52    2.63
  -2  -1  16   21.88    3.18
   2   1 -16   23.06    2.93
   2   1 -16   18.34    2.78
  -2  -1  15    3.24    1.27
  -2  -1  15    3.84    1.54
   2   1 -15    1.75    1.15
   2   1 -15    2.31    1.10
  -2  -1  14   17.11    2.54
  -2  -1  14   16.96    2.63
   2   1 -14   15.81    2.32
   2   1 -14   15.17    2.44
  -2  -1  13    4.65    1.38
  -2  -1  13    9.02    1.98
   2   1 -13    7.74    1.62
   2   1 -13    6.75    1.78
   2   1 -12    1.05    0.70
  -2  -1  12    1.93    0.96
  -2  -1  12    1.95    1.02
  -2  -1  12    0.57    0.66
   2   1 -12    1.94    0.94
   2   1 -12    1.46    0.81
   2   1 -11  108.03    5.27
  -2  -1  11  114.42    5.78
  -2  -1  11  115.56    6.03
  -2  -1  11  105.35    5.17
   2   1 -11  101.78    5.43
  -2  -1  10   67.86    4.24
  -2  -1  10   76.23    4.75
  -2  -1  10   66.53    3.96
   2   1 -10   75.27    4.42
   2   1 -10   73.18    4.19
   2   1 -10   59.94    3.92
  -2  -1   9  378.58   10.38
  -2  -1   9  405.45   11.07
   2   1  -9  372.01    9.79
  -2  -1   9  374.42   10.06
   2   1  -9  378.93   10.33
  -2  -1   8   52.79    3.45
  -2  -1   8   64.03    3.97
   2   1  -8   56.83    3.39
  -2  -1   8   55.29    3.46
   2   1  -8   60.23    3.64
   2   1  -8   53.77    3.54
  -2  -1   7  182.66    6.62
   2   1  -7  186.13    4.93
   2   1  -7  181.07    6.06
  -2  -1   7  173.01    6.18
   2   1  -7  172.45    6.18
   2   1  -7  171.06    6.41
  -2  -1   6   40.83    2.87
   2   1  -6   40.70    1.97
   2   1  -6   41.21    2.64
  -2  -1   6   38.35    2.71
   2   1  -6   41.65    2.83
   2   1  -6   39.53    2.90
  -2  -1   5   13.77    1.60
   2   1  -5   16.60    1.15
   2   1  -5   14.13    1.52
  -2  -1   5   12.17    1.49
   2   1  -5   14.76    1.64
  -2  -1   4   33.54    2.37
  -2  -1   4   28.00    2.27
   2   1  -4   31.50    1.46
   2   1  -4   29.32    2.11
  -2  -1   4   32.57    2.42
   2   1  -4   28.79    2.21
  -2  -1   3  135.69    4.66
   2   1  -3  126.98    3.04
   2   1  -3  127.94    4.35
   2   1  -3  132.94    4.73
   2   1  -2    0.04    0.33
  -2  -1   2    1.06    0.63
  -2  -1   2    0.65    0.46
   2   1  -2    0.59    0.49
  -2  -1   1  154.75    4.72
  -2  -1   1  153.69    5.13
   2   1  -1  153.65    4.70
  -2  -1   1  152.47    5.11
   2   1  -1  161.17    5.09
   2   1  -1  164.61    5.39
   2   1   0   32.15    1.22
  -2  -1   0   42.53    2.25
  -2  -1   0   41.76    2.46
   2   1   0   36.34    2.14
  -2  -1   0   41.20    2.47
   2   1   0   37.61    2.36
   2   1   0   37.45    2.41
   2   1   1   23.00    1.17
  -2  -1  -1   19.35    1.40
  -2  -1  -1   20.92    1.90
  -2  -1  -1   24.03    1.84
  -2  -1  -1   24.78    1.86
   2   1   1   22.16    1.72
   2   1   1   21.69    1.80
   2   1   1   25.56    1.90
   2   1   2 1374.47   19.49
  -2  -1  -2 1380.44   20.35
   2   1   2 1361.51   21.30
  -2  -1  -2 1378.97   21.19
  -2  -1  -2 1413.46   22.63
  -2  -1  -2 1392.13   22.12
  -2  -1  -2 1363.32   21.05
   2   1   2 1384.41   21.94
   2   1   2 1393.80   21.41
   2   1   3  378.03    8.10
   2   1   3  378.98    7.52
  -2  -1  -3  389.27    7.66
  -2  -1  -3  372.98    8.08
  -2  -1  -3  383.60    9.12
   2   1   3  368.97    8.39
  -2  -1  -3  390.79    9.36
  -2  -1  -3  382.59    8.01
   2   1   3  381.03    8.89
   2   1   4 1209.57   18.74
   2   1   4 1223.93   18.96
  -2  -1  -4 1258.95   18.54
   2   1   4 1232.64   18.53
  -2  -1  -4 1220.33   18.98
  -2  -1  -4 1240.33   20.81
  -2  -1  -4 1224.64   20.77
  -2  -1  -4 1215.42   18.67
   2   1   4 1256.34   20.49
  -2  -1  -5    4.03    1.06
   2   1   5    3.43    0.66
   2   1   5    3.72    0.72
   2   1   5    3.93    0.93
  -2  -1  -5    4.31    0.76
  -2  -1  -5    4.72    1.19
  -2  -1  -5    4.36    0.71
  -2  -1  -5    5.56    0.90
   2   1   6  166.90    4.45
  -2  -1  -6  187.38    6.41
   2   1   6  173.36    5.72
   2   1   6  171.35    4.86
  -2  -1  -6  178.43    4.86
  -2  -1  -6  175.18    4.44
  -2  -1  -6  172.75    6.09
   2   1   7   83.08    4.03
   2   1   7   80.60    3.32
  -2  -1  -7   85.38    3.18
  -2  -1  -7   82.19    2.73
  -2  -1  -7   78.98    4.14
  -2  -1  -7   87.89    4.41
   2   1   8    3.42    0.97
  -2  -1  -8    4.01    1.09
  -2  -1  -8    1.14    0.66
  -2  -1  -8    4.10    0.73
   2   1   8    3.53    0.80
   2   1   9    9.70    1.58
  -2  -1  -9    6.43    1.31
  -2  -1  -9    6.62    1.34
   2   1   9    7.95    1.16
  -2  -1 -10    3.88    1.03
   2   1  10    3.10    1.00
  -2  -1 -10    4.03    1.20
   2   1  10    0.81    0.59
  -2  -1 -11    1.43    0.75
   2   1  11   -0.12    0.68
  -2  -1 -11    0.37    0.57
   2   1  11    0.49    0.61
  -2  -1 -12    5.01    1.34
   2   1  12    4.13    1.21
   2   1  12    5.09    1.17
  -2  -1 -12    5.74    1.41
  -2  -1 -13    8.68    1.71
   2   1  13    7.37    1.70
  -2  -1 -13    9.22    1.88
   2   1  13    8.17    1.50
  -2  -1 -14   10.66    2.02
   2   1  14   10.65    2.10
  -2  -1 -14    8.09    1.78
   2   1  15   26.00    3.25
  -2  -1 -15   30.00    3.35
  -2  -1 -15   24.11    3.03
   2   1  16    6.72    1.78
  -2  -1 -16    7.46    1.83
  -2  -1 -16    9.36    1.99
  -2  -2  15   27.40    3.32
  -2  -2  15   39.11    4.19
   2   2 -15   30.87    3.29
   2   2 -15   30.34    3.59
  -2  -2  14    0.36    0.83
  -2  -2  14    1.63    1.04
   2   2 -14    1.48    1.06
   2   2 -14    1.61    1.19
  -2  -2  13    1.43    1.00
  -2  -2  13    2.74    1.37
   2   2 -13    2.54    1.04
   2   2 -13    1.76    1.04
   2   2 -12    7.25    1.49
  -2  -2  12    6.52    1.55
  -2  -2  12    6.76    1.76
  -2  -2  12    8.38    1.60
   2   2 -12    8.58    1.60
   2   2 -12    6.44    1.63
  -2  -2  11   24.32    2.72
   2   2 -11   16.65    2.15
  -2  -2  11   23.46    2.54
   2   2 -11   20.40    2.28
   2   2 -11   20.33    2.59
   2   2 -10   52.15    3.73
  -2  -2  10   59.35    4.03
  -2  -2  10   61.38    3.94
   2   2 -10   62.98    3.76
   2   2 -10   61.66    4.29
   2   2  -9   19.39    2.25
   2   2  -9   19.77    2.34
  -2  -2   9   15.69    2.12
  -2  -2   9   17.24    2.25
   2   2  -9   17.53    1.85
  -2  -2   9   17.31    2.11
   2   2  -9   17.98    1.93
   2   2  -8   11.42    1.72
   2   2  -8   13.07    1.82
  -2  -2   8   12.98    1.85
  -2  -2   8   15.32    2.04
   2   2  -8   13.27    1.48
   2   2  -8   15.17    1.69
  -2  -2   8   12.15    1.67
   2   2  -7    1.12    0.66
   2   2  -7   -0.17    0.57
  -2  -2   7    1.31    0.83
  -2  -2   7    2.58    0.98
   2   2  -7    0.61    0.60
  -2  -2   7    1.28    0.75
  -2  -2   7    0.35    0.61
   2   2  -7    0.37    0.60
   2   2  -6    0.02    0.77
   2   2  -6    0.74    0.64
  -2  -2   6    0.84    0.69
  -2  -2   6    0.81    0.72
   2   2  -6    0.15    0.36
  -2  -2   6    0.36    0.62
  -2  -2   6    0.16    0.57
   2   2  -6    0.48    0.50
   2   2  -5   87.95    4.41
  -2  -2   5   87.04    3.91
  -2  -2   5   99.01    4.37
  -2  -2   5   91.55    4.40
   2   2  -5   90.77    3.48
   2   2  -5   95.40    3.73
  -2  -2   5   81.17    4.14
   2   2  -5   89.29    4.44
   2   2  -4   -0.15    0.42
   2   2  -4    0.17    0.44
  -2  -2   4    0.39    0.66
   2   2  -4    0.80    0.48
  -2  -2   4    0.62    0.69
  -2  -2   4    0.63    0.50
   2   2  -4    0.44    0.42
   2   2  -3    5.58    1.13
   2   2  -3    3.59    1.03
  -2  -2   3    5.47    1.00
  -2  -2   3    4.94    1.06
  -2  -2   3    4.33    0.97
   2   2  -3    4.00    0.80
   2   2  -2  658.37   13.67
  -2  -2   2  687.57   12.43
  -2  -2   2  666.33   13.67
   2   2  -2  675.14   11.52
  -2  -2   2  664.04   13.51
   2   2  -2  711.13   13.96
   2   2  -1    2.27    0.66
   2   2  -1    3.70    0.53
   2   2  -1    4.27    1.05
  -2  -2   1    4.42    0.99
  -2  -2   1    3.59    0.80
  -2  -2   1    4.94    1.07
   2   2  -1    2.99    0.58
   2   2   0  177.55    5.88
   2   2   0  177.04    4.18
  -2  -2   0  182.75    6.26
  -2  -2   0  181.83    4.71
  -2  -2   0  179.57    5.91
   2   2   0  167.81    4.40
  -2  -2   0  177.69    5.74
   2   2   0  182.99    6.12
   2   2   1   44.74    2.74
   2   2   1   43.45    2.02
   2   2   1   41.83    2.03
  -2  -2  -1   44.18    2.02
  -2  -2  -1   44.22    2.76
  -2  -2  -1   41.30    2.57
   2   2   1   41.44    2.81
   2   2   2  389.47    8.93
   2   2   2  377.45    7.60
  -2  -2  -2  378.01    6.93
  -2  -2  -2  378.53    9.01
   2   2   2  376.68    7.59
  -2  -2  -2  383.29    8.73
   2   2   2  385.74    9.50
   2   2   3  733.88   13.49
   2   2   3  713.21   12.45
  -2  -2  -3  739.34   11.08
   2   2   3  712.33   10.79
  -2  -2  -3  741.33   13.82
  -2  -2  -3  728.23   14.73
   2   2   3  706.52   12.22
  -2  -2  -3  708.93   13.19
   2   2   3  723.97   14.62
   2   2   4    0.37    0.25
   2   2   4    1.00    0.64
   2   2   4    0.65    0.44
   2   2   4    0.44    0.44
  -2  -2  -4    0.05    0.25
  -2  -2  -4    1.05    0.56
  -2  -2  -4    0.66    0.50
  -2  -2  -4    1.35    0.83
   2   2   5   16.21    1.51
   2   2   5   15.91    1.56
   2   2   5   15.97    1.04
  -2  -2  -5   17.40    1.70
  -2  -2  -5   16.96    1.50
  -2  -2  -5   13.66    1.71
  -2  -2  -5   15.45    1.84
   2   2   5   16.19    1.84
  -2  -2  -6    8.20    1.37
   2   2   6    7.99    1.06
   2   2   6    9.54    1.35
   2   2   6    9.45    0.88
  -2  -2  -6    9.31    1.48
  -2  -2  -6    9.19    1.07
  -2  -2  -6    9.11    1.22
   2   2   7   38.52    2.16
   2   2   7   41.55    2.87
  -2  -2  -7   43.20    2.64
  -2  -2  -7   38.56    2.97
  -2  -2  -7   43.59    2.28
  -2  -2  -7   44.27    3.19
   2   2   8    6.25    1.30
  -2  -2  -8    7.65    1.42
  -2  -2  -8    6.91    1.36
  -2  -2  -8    7.88    1.20
   2   2   9    0.18    0.60
  -2  -2  -9    0.55    0.70
  -2  -2  -9   -0.36    0.42
  -2  -2  -9    0.39    0.57
   2   2  10   10.95    1.79
  -2  -2 -10    9.04    1.64
  -2  -2 -10   13.14    1.99
   2   2  11   92.83    5.13
  -2  -2 -11   92.35    5.21
  -2  -2 -11   92.22    5.21
   2   2  12    6.32    1.46
  -2  -2 -12    8.29    1.66
  -2  -2 -12    6.28    1.55
   2   2  13   37.64    3.55
  -2  -2 -13   41.82    3.68
  -2  -2 -13   45.00    3.88
  -2  -2 -14   12.51    2.20
   2   2  14   11.09    2.18
  -2  -2 -14   10.59    2.07
   2   2  15   31.17    3.47
  -2  -2 -15   27.99    3.23
  -2  -2 -15   30.38    3.48
  -2  -2 -16   23.86    3.15
   2   2  16   25.39    3.27
  -2  -2 -16   20.37    2.84
  -2  -3  14    5.67    1.74
   2   3 -14    2.03    1.09
  -2  -3  13    9.23    1.87
   2   3 -13    5.47    1.71
   2   3 -12    1.30    0.74
   2   3 -12    1.81    0.81
  -2  -3  12    0.36    0.85
   2   3 -11    6.05    1.54
   2   3 -11    7.69    1.58
  -2  -3  11    8.70    1.77
  -2  -3  11    9.55    1.77
   2   3 -10    6.97    1.62
   2   3 -10    9.12    1.72
  -2  -3  10    8.27    1.61
  -2  -3  10    6.92    1.50
   2   3  -9   11.60    1.97
   2   3  -9    9.31    1.70
  -2  -3   9   10.13    1.73
   2   3  -9   10.16    1.67
  -2  -3   9   10.31    1.86
  -2  -3   9    9.31    1.67
   2   3  -8   19.38    2.40
  -2  -3   8   23.15    2.42
  -2  -3   8   19.67    2.37
   2   3  -8   24.10    2.36
  -2  -3   8   22.23    2.49
   2   3  -8   25.45    2.77
   2   3  -7   41.36    3.32
  -2  -3   7   38.25    2.90
  -2  -3   7   39.12    3.18
   2   3  -7   38.41    2.82
  -2  -3   7   44.53    3.36
   2   3  -7   38.44    3.34
   2   3  -6    0.59    0.73
   2   3  -6    3.24    1.04
   2   3  -6    1.37    0.79
  -2  -3   6    1.70    0.75
  -2  -3   6    0.22    0.69
  -2  -3   6    1.83    0.80
   2   3  -5   10.36    1.68
   2   3  -5    9.91    1.62
  -2  -3   5   10.79    1.44
   2   3  -5   11.30    1.51
  -2  -3   5   11.06    1.73
  -2  -3   5   11.17    1.64
   2   3  -4   78.84    4.43
  -2  -3   4   72.99    3.47
  -2  -3   4   77.29    4.28
  -2  -3   4   80.71    4.33
   2   3  -4   80.74    4.53
   2   3  -3  128.14    5.64
  -2  -3   3  127.51    4.36
  -2  -3   3  143.36    4.99
  -2  -3   3  126.27    5.52
  -2  -3   3  131.27    5.56
   2   3  -3  138.77    5.87
   2   3  -2   27.52    2.50
  -2  -3   2   27.30    1.94
  -2  -3   2   30.23    2.60
  -2  -3   2   29.07    2.49
   2   3  -2   29.83    2.67
   2   3  -1   50.10    3.34
   2   3  -1   48.78    2.48
  -2  -3   1   51.76    2.50
  -2  -3   1   49.15    3.27
  -2  -3   1   44.93    3.05
   2   3  -1   53.14    3.51
   2   3   0   65.59    3.76
   2   3   0   65.48    2.94
  -2  -3   0   63.81    3.83
  -2  -3   0   72.39    2.71
  -2  -3   0   61.21    3.67
  -2  -3   0   65.75    3.63
   2   3   0   69.79    3.98
   2   3   1    7.45    1.25
   2   3   1    9.57    1.12
   2   3   1   10.48    1.52
  -2  -3  -1    7.56    1.27
  -2  -3  -1    8.53    0.83
  -2  -3  -1   10.20    1.52
  -2  -3  -1    9.67    1.52
   2   3   2  180.52    6.26
   2   3   2  175.26    5.39
  -2  -3  -2  169.71    6.37
  -2  -3  -2  170.11    6.17
  -2  -3  -2  172.75    5.99
   2   3   2  182.26    6.68
   2   3   3   13.79    1.69
   2   3   3   11.14    1.76
   2   3   3   11.13    1.32
  -2  -3  -3   12.39    1.67
  -2  -3  -3   12.26    1.59
  -2  -3  -3   11.86    1.61
   2   3   4   32.91    2.52
   2   3   4   34.68    2.44
  -2  -3  -4   33.54    2.78
  -2  -3  -4   33.04    2.59
  -2  -3  -4   34.89    2.52
   2   3   4   32.56    2.79
   2   3   5    3.15    0.93
   2   3   5    4.63    1.06
   2   3   5    4.88    1.12
  -2  -3  -5    4.08    0.95
  -2  -3  -5    5.20    1.12
  -2  -3  -5    5.30    1.22
  -2  -3  -6    5.96    1.30
   2   3   6    7.60    1.46
   2   3   6    4.88    1.07
   2   3   6    7.09    1.11
  -2  -3  -6    8.21    1.22
   2   3   7    9.95    1.63
  -2  -3  -7    6.30    1.33
   2   3   7    7.96    1.37
   2   3   7    8.46    1.16
  -2  -3  -7    8.95    1.26
  -2  -3  -7   10.59    1.50
   2   3   8   13.79    2.11
   2   3   8   15.76    1.95
  -2  -3  -8   11.93    1.93
  -2  -3  -8   14.56    1.57
  -2  -3  -8   13.06    1.79
   2   3   9  123.97    5.79
  -2  -3  -9  119.11    5.20
  -2  -3  -9  117.46    5.83
   2   3  10   66.67    4.34
  -2  -3 -10   68.29    4.38
  -2  -3 -10   76.37    4.19
  -2  -3 -10   73.93    4.68
   2   3  11    4.02    1.37
  -2  -3 -11    6.67    1.57
  -2  -3 -11    6.02    1.35
  -2  -3 -12   -0.24    0.70
  -2  -3 -12    0.26    0.68
   2   3  13   11.19    2.09
  -2  -3 -13    9.15    1.80
  -2  -3 -13   13.78    2.31
   2   3  14   16.52    2.59
  -2  -3 -14   19.77    2.79
  -2  -3 -14   16.77    2.44
   2   3  15    3.37    1.33
  -2  -3 -15    3.01    1.21
  -2  -3 -15    3.65    1.38
   2   3  16    0.94    1.05
  -2  -3 -16    1.88    1.15
   2   4 -12    1.66    1.19
  -2  -4  12    0.35    0.89
   2   4 -11    6.27    1.70
   2   4 -11    6.14    1.63
  -2  -4  11    8.03    1.76
  -2  -4  11    1.64    1.13
   2   4 -10   10.57    2.13
   2   4 -10   12.78    2.09
  -2  -4  10   14.26    2.15
   2   4 -10   16.43    2.35
  -2  -4  10   10.69    1.86
  -2  -4  10    9.89    1.94
   2   4  -9   32.07    3.25
  -2  -4   9   31.72    3.05
  -2  -4   9   33.02    3.23
   2   4  -9   36.80    3.30
  -2  -4   9   34.39    3.31
   2   4  -9   31.27    3.41
   2   4  -8    2.10    1.12
   2   4  -8    3.94    1.33
  -2  -4   8    2.25    1.14
   2   4  -8    1.80    1.04
  -2  -4   8    0.91    0.94
  -2  -4   8    2.65    1.11
   2   4  -7    9.76    1.87
   2   4  -7   10.43    1.84
  -2  -4   7   10.10    1.56
   2   4  -7   11.27    1.81
  -2  -4   7   11.22    1.91
  -2  -4   7    6.37    1.45
   2   4  -6    3.72    1.17
   2   4  -6    2.46    1.21
  -2  -4   6    3.62    1.09
   2   4  -6    4.06    1.28
  -2  -4   6    3.24    1.11
  -2  -4   6    4.92    1.31
   2   4  -5    1.64    0.92
   2   4  -5    2.12    1.07
   2   4  -5    1.39    0.89
  -2  -4   5    3.24    1.11
  -2  -4   5    1.21    0.72
   2   4  -4    5.55    1.40
   2   4  -4    4.15    1.24
  -2  -4   4    5.82    1.34
  -2  -4   4    3.45    1.10
   2   4  -3   41.88    3.41
  -2  -4   3   47.34    3.57
  -2  -4   3   42.41    3.36
   2   4  -3   46.81    3.65
   2   4  -2    1.85    1.04
   2   4  -2    0.56    0.73
  -2  -4   2    1.72    1.05
  -2  -4   2    0.38    0.78
   2   4  -1   70.10    4.29
   2   4  -1   69.43    3.60
  -2  -4   1   67.97    4.26
  -2  -4   1   74.54    4.29
   2   4  -1   71.79    4.46
   2   4   0   18.41    2.22
   2   4   0   15.58    2.05
   2   4   0   13.61    1.62
  -2  -4   0   18.31    2.23
  -2  -4   0   17.28    2.07
   2   4   1   40.02    3.16
   2   4   1   39.85    2.75
  -2  -4  -1   39.07    3.19
  -2  -4  -1   37.82    3.14
  -2  -4  -1   43.45    3.19
   2   4   1   39.40    3.26
   2   4   2   25.09    2.48
   2   4   2   23.75    2.15
  -2  -4  -2   25.26    2.48
  -2  -4  -2   19.75    2.27
  -2  -4  -2   20.51    2.20
   2   4   2   21.83    2.46
   2   4   3   42.99    3.22
   2   4   3   41.40    2.90
  -2  -4  -3   44.72    3.38
  -2  -4  -3   45.48    3.43
  -2  -4  -3   50.15    3.37
   2   4   3   43.76    3.49
   2   4   4  108.17    5.10
   2   4   4  112.95    5.07
  -2  -4  -4  108.91    5.40
  -2  -4  -4  113.53    5.51
  -2  -4  -4  114.08    5.11
   2   4   4  116.80    5.77
   2   4   5    5.44    1.34
   2   4   5    1.97    0.90
   2   4   5    2.96    0.95
  -2  -4  -5    2.19    1.00
  -2  -4  -5    3.49    1.00
  -2  -4  -5    3.39    1.12
   2   4   6   27.12    2.45
   2   4   6   30.06    2.75
  -2  -4  -6   28.68    2.73
  -2  -4  -6   28.23    2.80
  -2  -4  -6   29.08    2.51
   2   4   6   31.48    3.02
   2   4   7   29.84    2.52
   2   4   7   29.50    2.79
  -2  -4  -7   33.64    2.99
  -2  -4  -7   29.32    2.86
  -2  -4  -7   36.27    2.78
   2   4   7   31.59    3.19
   2   4   8   28.33    2.36
   2   4   8   32.40    2.96
  -2  -4  -8   29.26    2.88
  -2  -4  -8   34.14    3.19
  -2  -4  -8   31.09    2.56
   2   4   8   31.49    3.21
   2   4   9    1.21    0.88
   2   4   9    0.78    0.93
  -2  -4  -9    0.56    0.79
  -2  -4  -9    2.56    1.08
   2   4  10   37.92    3.43
  -2  -4 -10   40.00    3.38
  -2  -4 -10   39.27    3.56
   2   4  10   46.15    4.01
   2   4  11    2.90    1.21
   2   4  11   -0.31    0.73
  -2  -4 -11    0.83    0.92
  -2  -4 -11    0.85    0.86
   2   4  12   10.66    2.06
  -2  -4 -12   10.93    2.06
   2   4  13    5.02    1.40
  -2  -4 -13    2.93    1.38
   2   4  14   13.37    2.43
  -2  -4 -14    8.85    2.02
   2   4  15    0.92    0.74
  -2  -4 -15    1.84    1.13
   2   5 -10    3.07    1.35
   2   5 -10    1.47    1.13
   2   5 -10    0.97    0.94
  -2  -5  10    0.90    1.01
   2   5  -9    2.04    1.25
   2   5  -9    1.74    1.03
   2   5  -9   -0.11    0.81
  -2  -5   9   -0.07    0.80
  -2  -5   9    0.89    0.90
   2   5  -8    0.09    0.66
   2   5  -8    1.25    0.85
   2   5  -8    2.58    1.20
  -2  -5   8    1.30    1.04
  -2  -5   8    0.84    0.68
   2   5  -7   -0.43    0.66
   2   5  -7    0.89    0.73
   2   5  -7   -0.24    0.76
  -2  -5   7   -0.22    0.79
  -2  -5   7    1.32    0.99
   2   5  -6    1.41    1.10
   2   5  -6    2.01    0.92
   2   5  -6    2.62    1.07
  -2  -5   6   -0.35    0.67
  -2  -5   6   -0.03    0.62
   2   5  -5    0.50    0.84
   2   5  -5    0.81    0.88
   2   5  -5   -0.04    0.69
  -2  -5   5    1.88    1.05
  -2  -5   5    0.85    0.89
   2   5  -4    5.31    1.57
   2   5  -4    7.80    1.69
  -2  -5   4    5.02    1.45
  -2  -5   4    6.61    1.60
   2   5  -3   40.06    3.61
  -2  -5   3   38.45    3.47
  -2  -5   3   40.64    3.57
   2   5  -3   42.89    3.81
   2   5  -2  145.34    6.81
  -2  -5   2  136.73    6.64
  -2  -5   2  137.75    6.63
   2   5  -2  134.53    6.76
   2   5  -1   77.74    4.92
   2   5  -1   82.48    4.55
  -2  -5   1   77.10    4.92
  -2  -5   1   80.32    4.92
   2   5  -1   83.12    5.22
   2   5   0    5.01    1.38
   2   5   0    3.81    1.06
   2   5   0    6.10    1.43
  -2  -5   0    3.90    1.31
  -2  -5   0    4.57    1.34
   2   5   1    9.69    1.91
  -2  -5  -1    9.94    1.76
   2   5   1    6.57    1.36
   2   5   1   10.08    1.68
  -2  -5  -1    6.88    1.48
  -2  -5  -1   11.33    1.92
   2   5   2   41.67    3.47
   2   5   2   51.05    3.58
  -2  -5  -2   41.14    3.51
  -2  -5  -2   45.17    3.72
  -2  -5  -2   48.22    3.65
   2   5   2   49.33    3.95
  -2  -5  -3    1.77    0.87
   2   5   3   -0.31    0.68
   2   5   3    0.19    0.54
   2   5   3    0.01    0.62
  -2  -5  -3    0.14    0.86
  -2  -5  -3    1.92    1.00
   2   5   4    1.46    0.95
   2   5   4    2.05    0.99
   2   5   4    2.96    1.10
  -2  -5  -4    0.25    0.57
  -2  -5  -4    3.63    1.21
  -2  -5  -4    2.30    0.87
   2   5   5   10.24    1.85
   2   5   5   12.40    1.96
   2   5   5    8.62    1.53
  -2  -5  -5    8.38    1.67
  -2  -5  -5   10.24    1.77
  -2  -5  -5   10.26    1.86
   2   5   6    4.71    1.31
   2   5   6    2.38    1.04
   2   5   6    3.48    1.07
  -2  -5  -6    4.77    1.34
  -2  -5  -6    2.54    1.04
  -2  -5  -6    2.82    1.08
   2   5   7    3.75    1.40
   2   5   7    1.43    1.01
   2   5   7    1.60    0.85
  -2  -5  -7    2.26    1.12
  -2  -5  -7    2.21    1.01
  -2  -5  -7    1.43    0.87
   2   5   8    5.30    1.56
   2   5   8    3.78    1.23
   2   5   8    6.72    1.37
  -2  -5  -8    5.84    1.40
  -2  -5  -8    5.66    1.52
  -2  -5  -8    2.60    1.05
  -2  -5  -9    7.17    1.57
   2   5   9    4.75    1.50
   2   5   9    8.92    1.87
  -2  -5  -9    5.22    1.46
   2   5  10   19.10    2.82
  -2  -5 -10   18.87    2.63
   2   5  10   21.18    2.92
  -2  -5 -10   20.85    2.73
   2   5  11   20.64    2.94
  -2  -5 -11   26.33    3.13
  -2  -5 -11   28.86    3.35
   2   5  11   27.67    3.42
   2   5  12    3.71    1.58
   2   5  12    4.78    1.49
  -2  -5 -12    3.65    1.52
  -2  -5 -12    4.58    1.52
   2   5  13    8.09    2.04
   2   5  13    7.27    1.87
  -2  -5 -13    5.22    1.76
   2   6  -7   18.73    2.90
   2   6  -7   12.97    2.34
   2   6  -7   16.52    2.64
  -2  -6   7   18.78    2.78
  -2  -6   7   13.55    2.48
   2   6  -6    3.17    1.51
   2   6  -6    4.76    1.41
   2   6  -6    1.64    1.18
  -2  -6   6    3.64    1.49
  -2  -6   6    0.16    0.95
   2   6  -5    4.45    1.51
   2   6  -5    3.82    1.54
   2   6  -5    0.85    0.93
  -2  -6   5    3.55    1.55
  -2  -6   5    4.76    1.42
   2   6  -4   35.34    3.73
  -2  -6   4   33.33    3.56
  -2  -6   4   38.49    3.82
   2   6  -4   36.31    3.82
   2   6  -3    6.82    1.83
   2   6  -3    9.89    2.11
  -2  -6   3    9.39    1.96
  -2  -6   3   11.01    2.15
   2   6  -2   47.68    4.13
  -2  -6   2   51.19    4.38
  -2  -6   2   52.83    4.36
   2   6  -2   51.71    4.47
   2   6  -1    6.73    1.76
   2   6  -1    5.48    1.56
  -2  -6   1    4.00    1.25
  -2  -6   1    7.10    1.77
   2   6   0    2.42    1.13
   2   6   0    1.64    1.11
   2   6   0    2.49    1.27
  -2  -6   0    4.48    1.38
  -2  -6   0    4.71    1.45
   2   6   1    1.63    1.23
   2   6   1    0.83    0.89
   2   6   1    0.34    0.67
  -2  -6  -1    0.75    0.83
  -2  -6  -1    0.95    0.72
   2   6   2   12.25    2.22
   2   6   2   12.15    2.11
   2   6   2    8.91    1.76
  -2  -6  -2   14.74    2.30
  -2  -6  -2   12.36    2.13
   2   6   3    0.09    0.77
   2   6   3    2.15    1.18
   2   6   3    1.52    1.06
  -2  -6  -3   -0.05    0.76
  -2  -6  -3    0.31    0.79
   2   6   4    0.73    0.81
   2   6   4   -0.05    0.65
   2   6   4   -0.53    0.65
  -2  -6  -4    1.20    0.87
  -2  -6  -4    1.13    1.15
   2   6   5    2.91    1.36
   2   6   5    3.84    1.38
   2   6   5    2.70    0.93
  -2  -6  -5    3.85    1.25
  -2  -6  -5    3.46    1.32
  -2  -6  -5    4.76    1.55
   2   6   6   22.72    3.07
   2   6   6   13.99    2.33
   2   6   6   17.37    2.41
  -2  -6  -6   13.98    2.26
  -2  -6  -6   16.67    2.45
  -2  -6  -6   13.78    2.35
   2   6   7    3.45    1.69
   2   6   7    1.93    1.14
   2   6   7    1.78    1.12
  -2  -6  -7    3.63    1.57
  -2  -6  -7   -0.01    0.84
  -2  -6  -7    1.80    1.13
   2   6   8   16.99    2.75
   2   6   8   15.11    2.49
   2   6   8   16.63    2.37
  -2  -6  -8   19.02    2.78
  -2  -6  -8   18.79    2.60
  -2  -6  -8   16.76    2.66
   2   6   9   37.09    3.97
  -2  -6  -9   32.85    3.69
  -2  -6  -9   31.87    3.50
   2   6   9   29.42    3.62
   2   6  10    5.68    1.98
   2   6  10    5.55    1.81
  -2  -6 -10    5.67    1.75
  -2  -6 -10    9.24    2.08
   2   6  11   20.17    3.14
   2   6  11   20.84    3.22
  -2  -6 -11   17.11    2.77
  -2  -6 -11   14.20    2.53
   2   7  -1    1.80    1.14
   2   7  -1    0.87    0.86
  -2  -7   1    0.91    1.13
  -2  -7   1    0.68    0.77
   2   7   0    1.60    1.25
   2   7   0    2.56    1.11
  -2  -7   0    1.91    1.06
  -2  -7   0   -0.65    0.72
   2   7   1   -1.52    1.09
   2   7   1    2.29    1.41
  -2  -7  -1    1.35    0.94
  -2  -7  -1    0.82    0.88
   2   7   2    1.17    1.07
   2   7   2    0.95    1.17
   2   7   2    1.98    1.08
  -2  -7  -2    2.43    1.16
  -2  -7  -2    1.21    0.81
   2   7   3    2.75    1.52
   2   7   3    6.37    1.82
   2   7   3    4.96    1.48
  -2  -7  -3    4.22    1.44
  -2  -7  -3    4.27    1.50
   2   7   4    7.98    2.04
   2   7   4    9.62    2.05
   2   7   4    6.85    1.83
  -2  -7  -4    8.88    2.02
  -2  -7  -4    7.14    1.88
   2   7   5   11.11    2.47
   2   7   5   12.61    2.31
   2   7   5   15.12    2.52
  -2  -7  -5   13.24    2.39
  -2  -7  -5    9.82    2.18
   2   7   6    1.37    1.33
   2   7   6    2.74    1.35
   2   7   6    2.71    1.29
  -2  -7  -6    2.89    1.24
  -2  -7  -6    2.77    1.28
  -3   5   7    1.71    1.24
   3  -5  -7    0.15    0.73
  -3   5   6    1.64    1.08
   3  -5  -6    2.08    1.12
  -3   5   5    3.00    1.41
   3  -5  -5    4.93    1.58
  -3   5   4    0.40    1.12
   3  -5  -4    1.60    1.35
  -3   5   3   33.36    3.78
   3  -5  -3   36.94    3.90
  -3   5   2    3.92    1.67
   3  -5  -2    5.98    1.83
   3  -5  -1    2.15    1.31
  -3   5   1    0.92    1.03
   3  -5  -1   -0.06    0.85
   3  -5   0    2.99    1.26
  -3   5   0   -0.23    1.19
   3  -5   0    1.73    1.15
   3  -5   1    0.51    0.83
  -3   5  -1    0.57    1.04
   3  -5   1    0.66    1.17
   3  -5   2    1.69    1.21
  -3   5  -2    0.55    0.85
   3  -5   2    2.33    1.32
   3  -5   3    2.19    1.10
  -3   5  -3    2.45    1.09
   3  -5   3    1.23    1.14
   3  -5   4   13.76    2.49
  -3   5  -4   15.90    2.66
   3  -5   4   13.99    2.69
  -3   4  10    3.66    1.59
   3  -4 -10    1.04    1.20
  -3   4   9    4.46    1.75
   3  -4  -9    6.02    1.73
  -3   4   8    6.32    1.76
   3  -4  -8    7.10    1.83
  -3   4   7   27.96    3.33
   3  -4  -7   23.78    3.07
  -3   4   6   15.32    2.51
   3  -4  -6   18.51    2.79
  -3   4   5    2.70    1.38
   3  -4  -5    4.67    1.40
  -3   4   4    2.27    1.17
   3  -4  -4    2.93    1.21
  -3   4   3    1.68    1.00
   3  -4  -3    0.14    0.90
  -3   4   2   26.58    3.06
   3  -4  -2   19.21    2.72
  -3   4   1   26.68    3.14
   3  -4  -1   22.89    2.98
  -3   4   0    1.16    0.92
   3  -4   0    0.33    0.84
   3  -4   1    4.24    1.38
  -3   4  -1    3.00    1.18
   3  -4   1    5.27    1.48
  -3   4  -2   49.65    4.29
   3  -4   2   39.02    3.79
   3  -4   2   46.22    4.35
   3  -4   3    1.72    1.10
  -3   4  -3    1.03    0.83
   3  -4   3    2.86    1.59
   3  -4   4    6.71    1.64
  -3   4  -4    7.16    1.76
   3  -4   4    8.12    2.01
   3  -4   5    1.13    1.02
  -3   4  -5    0.60    0.69
   3  -4   5    1.05    1.07
   3  -4   6    2.20    0.87
  -3   4  -6    2.81    1.35
  -3   4  -6    0.08    0.61
   3  -4   6    2.63    1.38
   3  -4   7    0.87    0.91
  -3   4  -7    2.13    1.13
   3  -4   7   -0.77    0.85
   3  -4   8    1.07    1.00
  -3   4  -8    2.12    1.20
  -3   3  12    2.18    1.18
   3  -3 -12    1.09    1.23
  -3   3  11    9.74    2.12
   3  -3 -11   12.72    2.37
  -3   3  10   24.85    3.14
   3  -3 -10   20.22    2.88
  -3   3   9   40.80    3.98
   3  -3  -9   45.29    4.10
  -3   3   8    3.86    1.41
   3  -3  -8    7.71    1.82
  -3   3   7   19.49    2.66
   3  -3  -7   21.43    2.73
  -3   3   6    8.38    1.84
   3  -3  -6    7.57    1.69
  -3   3   5    1.42    0.86
   3  -3  -5    2.10    0.93
  -3   3   4   44.29    3.77
   3  -3  -4   45.12    3.90
  -3   3   3    6.42    1.66
   3  -3  -3    6.02    1.79
  -3   3   2  255.80    9.36
   3  -3  -2  235.81    9.21
  -3   3   1    8.14    1.85
   3  -3  -1    8.69    2.01
  -3   3   0   17.41    2.45
   3  -3   0   15.15    2.39
  -3   3  -1    1.09    0.97
   3  -3   1   -0.20    1.09
   3  -3   2    7.02    1.65
  -3   3  -2    7.51    1.60
   3  -3   2    7.32    1.70
   3  -3   3    6.13    1.51
  -3   3  -3    5.37    1.53
  -3   3  -3    5.27    1.20
   3  -3   3    7.28    1.73
   3  -3   4   12.76    2.11
  -3   3  -4    8.22    1.78
  -3   3  -4    8.52    1.55
   3  -3   4    7.65    1.92
   3  -3   5    1.47    0.92
  -3   3  -5    2.24    1.14
  -3   3  -5    1.65    0.97
   3  -3   5    1.31    0.98
   3  -3   6    6.46    1.55
  -3   3  -6    3.68    1.15
  -3   3  -6    3.81    1.18
   3  -3   6    3.27    1.44
   3  -3   7    2.41    1.15
  -3   3  -7    1.19    1.23
  -3   3  -7    0.99    0.74
   3  -3   7    1.77    1.09
   3  -3   8    1.95    1.10
  -3   3  -8    1.32    0.78
   3  -3   8    2.29    1.33
   3  -3   9   13.16    2.38
  -3   3  -9    9.61    1.98
   3  -3   9   13.28    2.50
   3  -3  10    0.26    0.75
  -3   3 -10    2.53    1.47
   3  -3  10    2.07    1.65
  -3   3 -11   23.79    3.30
   3  -3  11   26.01    3.32
  -3   2  13   10.54    2.23
   3  -2 -13   13.17    2.45
  -3   2  12   39.37    4.06
   3  -2 -12   33.52    3.59
  -3   2  11   33.40    3.67
   3  -2 -11   25.71    3.13
  -3   2  10    3.52    1.28
   3  -2 -10    2.37    1.15
  -3   2   9    2.16    1.02
   3  -2  -9    1.48    1.15
  -3   2   8   17.90    2.48
   3  -2  -8   16.17    2.36
  -3   2   7   17.39    2.43
   3  -2  -7   14.97    2.22
  -3   2   6    2.96    1.02
   3  -2  -6    3.19    1.35
  -3   2   5   28.65    3.00
   3  -2  -5   32.18    3.24
  -3   2   4   95.59    5.37
   3  -2  -4   94.71    5.40
  -3   2   3  151.76    6.82
   3  -2  -3  149.35    6.87
  -3   2   2   13.11    2.02
   3  -2  -2    9.89    1.93
  -3   2   1    4.64    1.26
   3  -2  -1    2.65    1.10
  -3   2   0    9.90    1.68
   3  -2   0    7.50    1.52
  -3   2  -1   23.19    2.57
  -3   2  -1   22.58    2.12
   3  -2   1   21.77    2.60
  -3   2  -2   29.05    2.89
  -3   2  -2   22.56    2.21
   3  -2   2   28.17    3.03
   3  -2   3    0.48    0.71
  -3   2  -3    0.75    0.66
  -3   2  -3    1.79    0.68
   3  -2   3    1.51    0.94
   3  -2   4    5.75    1.40
  -3   2  -4    4.81    1.34
  -3   2  -4    5.75    1.30
   3  -2   4    4.13    1.31
  -3   2  -5   23.08    2.68
   3  -2   5   22.21    2.64
  -3   2  -5   20.63    2.35
   3  -2   5   19.31    2.64
   3  -2   6    4.64    1.44
  -3   2  -6    4.75    1.36
  -3   2  -6    3.52    1.09
   3  -2   6    7.44    1.86
   3  -2   7    9.57    1.95
  -3   2  -7   15.38    2.33
  -3   2  -7   10.79    1.90
   3  -2   7    9.79    1.97
   3  -2   8    2.44    1.05
  -3   2  -8    2.95    1.14
   3  -2   8    2.77    1.50
   3  -2   9   56.45    4.40
  -3   2  -9   54.98    4.48
   3  -2  10   24.91    2.99
  -3   2 -10   24.02    3.17
  -3   2 -11   17.46    2.76
   3  -2  11   17.25    2.64
  -3   2 -12    2.27    1.27
   3  -2  12    0.70    0.94
  -3   1  14   54.94    5.00
   3  -1 -14   52.71    4.60
  -3   1  13   20.23    2.97
   3  -1 -13   17.55    2.61
  -3   1  12    0.90    0.95
   3  -1 -12    2.84    1.36
  -3   1  11    2.88    1.23
   3  -1 -11    3.89    1.36
  -3   1  10    6.45    1.69
   3  -1 -10    7.04    1.73
  -3   1   9    2.22    1.20
   3  -1  -9    1.01    1.06
  -3   1   8  107.46    5.94
   3  -1  -8   97.49    5.49
  -3   1   7   71.90    4.75
   3  -1  -7   72.49    4.67
  -3   1   6   24.04    2.78
   3  -1  -6   25.99    2.75
  -3   1   5    5.11    1.40
   3  -1  -5    4.81    1.28
  -3   1   4   11.59    1.83
   3  -1  -4   12.21    1.92
  -3   1   3   12.99    1.89
   3  -1  -3   14.53    2.17
  -3   1   2    3.50    1.11
   3  -1  -2    1.25    0.86
  -3   1   1  161.28    6.49
   3  -1  -1  153.79    6.65
  -3   1   0   34.16    2.93
  -3   1   0   31.36    2.42
   3  -1   0   31.61    3.01
  -3   1  -1    2.46    0.80
  -3   1  -1    2.21    0.77
   3  -1   1    2.73    0.89
  -3   1  -2    7.86    1.44
  -3   1  -2    7.76    1.30
   3  -1   2    5.69    1.42
  -3   1  -3   21.30    2.36
  -3   1  -3   19.30    2.10
   3  -1   3   16.96    2.08
  -3   1  -3   20.85    2.18
   3  -1   3   17.86    2.31
   3  -1   4   15.36    2.01
  -3   1  -4   12.53    1.76
   3  -1   4   11.58    2.02
  -3   1  -4   12.54    1.77
  -3   1  -4   10.74    1.69
  -3   1  -5   91.55    4.84
   3  -1   5   82.29    4.61
  -3   1  -5   91.26    4.63
  -3   1  -5   83.14    4.65
   3  -1   5   84.23    5.10
   3  -1   6   15.35    2.10
  -3   1  -6   15.75    2.11
  -3   1  -6   14.38    1.89
  -3   1  -6   11.59    1.86
   3  -1   6   15.56    2.34
  -3   1  -7   25.85    2.66
   3  -1   7   24.42    2.64
  -3   1  -7   20.40    2.46
  -3   1  -7   18.41    2.23
   3  -1   7   19.20    2.65
   3  -1   8   14.10    2.08
  -3   1  -8   14.67    2.17
  -3   1  -8   17.60    2.16
   3  -1   9    1.26    0.89
  -3   1  -9    0.11    0.87
   3  -1  10   12.75    1.99
  -3   1 -10   12.93    2.24
  -3   1 -11    2.97    1.39
   3  -1  11    4.22    1.26
  -3   1 -12    3.40    1.40
   3  -1  12    3.30    1.26
  -3   1 -13    1.77    1.02
   3  -1  13    2.47    1.24
   3   0 -14    2.22    1.30
  -3   0  14    2.73    1.55
   3   0 -14    5.25    1.72
  -3   0  13    0.40    0.96
   3   0 -13    1.57    1.07
  -3   0  12   14.65    2.38
   3   0 -12   17.16    2.53
  -3   0  11   32.92    3.51
   3   0 -11   29.13    3.10
  -3   0  10   11.61    2.12
  -3   0  10    8.62    1.64
   3   0 -10    9.49    1.83
  -3   0   9   44.80    3.84
   3   0  -9   38.43    3.37
  -3   0   9   42.16    3.61
   3   0  -9   43.68    3.24
   3   0  -8    3.18    0.94
  -3   0   8    4.50    1.27
  -3   0   8    2.02    0.89
   3   0  -8    4.90    1.34
  -3   0   7   65.38    4.40
   3   0  -7   58.55    3.97
  -3   0   7   54.83    3.96
   3   0  -7   59.88    3.51
   3   0  -6    9.19    1.35
  -3   0   6    8.76    1.69
  -3   0   6    6.36    1.46
   3   0  -6   10.90    1.85
   3   0  -5    2.63    0.82
  -3   0   5    3.89    1.28
  -3   0   5    0.22    0.50
   3   0  -5    2.43    0.97
   3   0  -4    6.03    1.05
  -3   0   4    4.65    1.36
  -3   0   4    5.57    1.25
   3   0  -4    5.97    1.45
  -3   0   3  302.67    9.06
   3   0  -3  283.62    8.87
  -3   0   3  299.85    9.03
   3   0  -3  290.62    7.53
  -3   0   2  154.30    6.11
   3   0  -2  145.28    6.08
  -3   0   2  141.01    5.87
   3   0  -2  141.03    4.89
   3   0  -1    8.40    1.18
  -3   0   1   15.34    1.94
  -3   0   1   10.72    1.60
   3   0  -1   15.96    2.02
   3   0   0    6.53    1.04
  -3   0   0    6.96    1.28
  -3   0   0    7.76    1.31
   3   0   0    7.78    1.37
   3   0   1    3.78    0.91
  -3   0  -1    4.83    1.19
  -3   0  -1    3.48    0.99
  -3   0  -1    3.73    0.95
   3   0   1    5.60    1.20
   3   0   2    2.86    0.85
  -3   0  -2    2.43    0.87
  -3   0  -2    2.49    1.00
  -3   0  -2    3.11    0.95
  -3   0  -2    3.69    1.01
   3   0   2    1.99    0.92
  -3   0  -3   28.86    2.44
  -3   0  -3   31.15    2.74
  -3   0  -3   28.27    2.57
   3   0   3   29.29    2.83
  -3   0  -3   24.52    2.22
   3   0   3   27.05    2.19
  -3   0  -4  179.14    6.33
   3   0   4  171.57    6.21
  -3   0  -4  178.42    6.79
  -3   0  -4  175.14    6.75
   3   0   4  170.70    6.90
   3   0   4  163.49    5.88
   3   0   5    0.56    0.65
   3   0   5    0.88    0.63
  -3   0  -5    1.06    0.74
  -3   0  -5    2.20    0.99
  -3   0  -5    2.15    0.84
   3   0   5    1.36    0.93
  -3   0  -6   27.56    2.51
   3   0   6   19.98    2.11
  -3   0  -6   19.77    2.37
  -3   0  -6   24.72    2.55
   3   0   6   21.14    2.51
   3   0   6   18.95    2.07
   3   0   7   -0.25    0.60
  -3   0  -7    1.31    0.89
  -3   0  -7    1.59    0.79
  -3   0  -7    1.64    0.92
   3   0   8    2.22    1.01
   3   0   8    4.81    1.25
  -3   0  -8    1.43    0.64
  -3   0  -8    2.97    1.17
  -3   0  -9    4.65    1.32
   3   0   9    3.42    1.06
   3   0   9    2.68    1.03
  -3   0  -9    5.78    1.41
   3   0  10   23.28    2.73
   3   0  10   26.34    2.64
  -3   0 -10   22.41    2.87
  -3   0 -10   24.32    2.78
  -3   0 -11   13.84    2.20
   3   0  11    7.69    1.72
  -3   0 -11   14.95    2.42
   3   0  11   13.37    2.02
  -3   0 -12   -0.21    0.74
   3   0  12    0.74    1.04
  -3   0 -12    1.94    1.19
   3   0  13    4.47    1.54
  -3   0 -13    3.84    1.57
  -3   0 -13    2.04    1.12
   3   0  14    0.28    0.97
  -3   0 -14    2.18    1.26
  -3   0 -14    3.06    1.23
   3   1 -13    1.16    1.02
  -3  -1  13    1.99    1.01
  -3  -1  13    2.92    1.16
   3   1 -13    1.81    1.01
   3   1 -13    2.00    1.20
  -3  -1  12   15.18    2.50
  -3  -1  12    9.12    1.89
   3   1 -12   12.08    2.07
   3   1 -12   14.54    2.32
   3   1 -11    2.51    1.30
  -3  -1  11    3.23    1.27
  -3  -1  11   -0.28    0.80
   3   1 -11    1.83    0.87
   3   1 -11    0.44    0.78
   3   1 -10    4.45    1.33
   3   1 -10    4.75    1.45
  -3  -1  10    4.67    1.42
  -3  -1  10    2.90    1.07
   3   1 -10    5.55    1.28
  -3  -1   9   49.92    4.06
   3   1  -9   45.16    3.58
  -3  -1   9   36.04    3.36
   3   1  -9   46.59    3.63
   3   1  -9   39.69    3.66
  -3  -1   8   43.06    3.65
   3   1  -8   43.07    3.40
  -3  -1   8   31.70    3.11
   3   1  -8   37.41    3.15
   3   1  -8   32.67    3.25
  -3  -1   7  260.53    8.92
   3   1  -7  243.57    8.14
  -3  -1   7  235.74    8.59
   3   1  -7  249.14    8.23
   3   1  -6   13.41    1.88
   3   1  -6   14.83    2.21
  -3  -1   6   13.64    2.14
  -3  -1   6   14.08    2.07
   3   1  -6   17.19    2.09
  -3  -1   5   96.33    4.95
   3   1  -5   94.95    4.67
  -3  -1   5   83.63    4.77
   3   1  -5   91.57    4.63
  -3  -1   4   53.61    3.58
   3   1  -4   54.06    3.42
  -3  -1   4   55.62    3.74
   3   1  -4   54.22    3.46
   3   1  -3    6.93    1.30
  -3  -1   3    4.46    1.18
  -3  -1   3    6.82    1.43
   3   1  -3    5.82    1.22
   3   1  -2    3.23    0.94
  -3  -1   2    4.49    1.15
  -3  -1   2    4.16    1.08
  -3  -1   2    5.21    1.18
   3   1  -2    4.44    1.02
  -3  -1   1   31.17    2.52
  -3  -1   1   28.72    2.59
   3   1  -1   26.41    2.39
  -3  -1   1   31.42    2.70
   3   1  -1   26.31    2.39
   3   1  -1   29.16    2.71
   3   1   0   11.17    1.56
   3   1   0   11.63    1.69
  -3  -1   0   15.43    1.76
  -3  -1   0   15.32    1.90
   3   1   0   16.37    1.86
  -3  -1   0   14.69    1.86
  -3  -1  -1   28.09    2.29
  -3  -1  -1   32.04    2.90
  -3  -1  -1   28.05    2.45
   3   1   1   25.72    2.35
  -3  -1  -1   25.13    2.34
   3   1   1   25.10    2.34
   3   1   1   25.73    2.46
   3   1   2   11.68    1.62
   3   1   2   12.81    1.67
  -3  -1  -2   13.84    1.91
  -3  -1  -2   14.61    1.73
  -3  -1  -2   13.72    1.62
  -3  -1  -2   12.45    1.63
   3   1   2   11.51    1.52
   3   1   3   10.27    1.54
   3   1   3   11.08    1.56
  -3  -1  -3   10.17    1.75
  -3  -1  -3    9.13    1.39
  -3  -1  -3    8.04    1.34
  -3  -1  -3   10.86    1.48
   3   1   3   12.41    1.70
   3   1   4   57.08    3.34
  -3  -1  -4   69.01    3.49
  -3  -1  -4   56.71    3.27
   3   1   4   69.45    3.48
  -3  -1  -4   66.53    4.23
  -3  -1  -4   66.13    4.09
   3   1   4   69.63    3.99
  -3  -1  -4   57.79    3.35
   3   1   4   64.55    3.89
   3   1   5   22.97    2.07
   3   1   5   25.53    2.13
  -3  -1  -5   24.86    2.11
   3   1   5   23.68    2.06
  -3  -1  -5   25.89    2.18
  -3  -1  -5   26.74    2.73
  -3  -1  -5   30.42    2.84
   3   1   5   27.24    2.56
  -3  -1  -5   24.28    2.11
   3   1   5   21.85    2.37
   3   1   6  128.32    5.11
  -3  -1  -6  145.88    5.19
   3   1   6  138.58    5.08
  -3  -1  -6  130.35    6.16
   3   1   6  137.19    5.93
  -3  -1  -6  137.56    6.29
   3   1   6  123.47    5.67
   3   1   7    1.54    0.91
   3   1   7    0.59    0.74
  -3  -1  -7    1.41    0.97
  -3  -1  -7    2.07    1.10
   3   1   8   65.98    3.98
  -3  -1  -8   69.19    4.70
  -3  -1  -8   61.48    4.26
   3   1   9   25.39    2.62
  -3  -1  -9   29.59    3.13
  -3  -1  -9   26.95    2.91
  -3  -1 -10    2.93    1.17
   3   1  10    3.35    1.21
  -3  -1 -10    2.65    1.19
  -3  -1 -11    2.65    1.22
   3   1  11   -0.61    0.76
  -3  -1 -11    2.72    1.22
  -3  -1 -12    0.90    1.11
   3   1  12    1.78    0.97
  -3  -1 -12    1.21    0.94
   3   1  13   -1.16    0.82
  -3  -1 -13    1.43    1.10
  -3  -1 -13    0.80    0.80
   3   1  14    4.71    1.59
  -3  -1 -14    2.05    1.26
  -3  -1 -14    1.47    1.03
   3   2 -13   13.31    2.48
  -3  -2  13   18.85    2.92
  -3  -2  13   13.51    2.47
   3   2 -13   10.84    1.98
   3   2 -13   16.66    2.66
   3   2 -12    4.70    1.45
  -3  -2  12    3.73    1.58
  -3  -2  12    2.50    1.08
   3   2 -12    3.29    1.21
   3   2 -12    3.76    1.43
   3   2 -11    3.75    1.32
   3   2 -11    1.23    0.83
  -3  -2  11    3.78    1.46
  -3  -2  11    3.50    1.37
   3   2 -11    3.40    1.13
   3   2 -10    5.30    1.56
   3   2 -10    1.36    0.83
  -3  -2  10    6.48    1.66
  -3  -2  10    1.42    1.10
   3   2 -10    4.77    1.32
   3   2  -9   40.29    3.71
  -3  -2   9   52.84    4.20
   3   2  -9   51.57    3.60
  -3  -2   9   41.50    3.73
   3   2  -9   44.87    3.83
   3   2  -8  100.15    5.80
  -3  -2   8  117.05    6.06
   3   2  -8  113.42    5.26
  -3  -2   8  108.94    5.91
   3   2  -8  112.26    5.94
   3   2  -7    1.82    0.95
   3   2  -7    3.23    1.28
  -3  -2   7    1.19    1.16
  -3  -2   7    1.20    0.94
   3   2  -7    1.29    0.87
   3   2  -6    2.07    1.03
   3   2  -6    1.20    1.00
  -3  -2   6    1.41    0.99
  -3  -2   6    3.07    1.11
  -3  -2   6    0.46    0.56
   3   2  -6    1.34    0.79
   3   2  -5    4.27    1.26
   3   2  -5    5.21    1.46
  -3  -2   5    5.74    1.29
  -3  -2   5    5.00    1.34
  -3  -2   5    4.98    1.31
   3   2  -5    6.06    1.16
   3   2  -4    2.27    0.93
   3   2  -4    0.62    0.86
  -3  -2   4    3.07    1.08
  -3  -2   4    2.63    1.04
  -3  -2   4    1.42    0.95
   3   2  -4    3.09    1.00
   3   2  -3   34.68    3.19
  -3  -2   3   38.53    2.87
  -3  -2   3   40.08    3.26
   3   2  -3   41.04    2.73
  -3  -2   3   39.53    3.25
   3   2  -3   38.41    3.12
   3   2  -2    9.57    1.48
   3   2  -2   10.66    1.81
  -3  -2   2   10.54    1.54
  -3  -2   2    9.36    1.60
  -3  -2   2   11.08    1.70
   3   2  -2   11.29    1.46
   3   2  -1    1.99    0.74
   3   2  -1    3.67    1.14
  -3  -2   1    4.73    1.16
  -3  -2   1    3.84    1.02
  -3  -2   1    2.92    1.03
   3   2  -1    2.16    0.66
   3   2   0   84.60    4.66
  -3  -2   0   95.23    4.11
  -3  -2   0   91.79    4.76
   3   2   0   89.12    3.97
  -3  -2   0   91.42    4.72
   3   2   0   89.73    4.78
   3   2   1    4.66    1.08
   3   2   1    3.35    1.20
  -3  -2  -1    2.85    0.93
  -3  -2  -1    4.86    0.98
  -3  -2  -1    6.00    1.25
  -3  -2  -1    4.64    1.23
   3   2   1    1.92    0.59
   3   2   2   60.82    3.79
  -3  -2  -2   69.20    4.50
  -3  -2  -2   65.38    3.89
   3   2   2   64.22    3.44
  -3  -2  -2   73.38    4.04
   3   2   2   74.37    4.41
   3   2   3   30.01    2.60
  -3  -2  -3   30.47    3.01
  -3  -2  -3   26.47    2.57
   3   2   3   28.57    2.33
  -3  -2  -3   35.23    2.77
   3   2   3   29.50    2.85
   3   2   4  199.72    6.86
  -3  -2  -4  203.25    6.96
  -3  -2  -4  225.76    8.35
   3   2   4  217.58    6.87
  -3  -2  -4  209.13    6.83
   3   2   4  210.38    7.81
   3   2   5  201.93    6.82
  -3  -2  -5  222.92    7.25
  -3  -2  -5  233.68    8.56
   3   2   5  223.71    7.11
  -3  -2  -5  222.96    6.91
   3   2   5  218.25    8.12
   3   2   6   10.16    1.82
   3   2   6    9.60    1.51
  -3  -2  -6   12.14    1.97
   3   2   6   10.94    1.60
  -3  -2  -6    9.59    1.53
  -3  -2  -6   10.10    1.48
   3   2   7   11.23    1.86
   3   2   7   13.08    1.74
  -3  -2  -7   13.19    2.10
   3   2   7   11.07    1.68
  -3  -2  -7   12.75    2.09
  -3  -2  -7    9.45    1.45
   3   2   8    0.56    0.91
   3   2   8    1.02    0.89
  -3  -2  -8    1.99    0.99
  -3  -2  -8    0.43    0.74
   3   2   9    0.90    0.67
   3   2   9    0.80    0.90
  -3  -2  -9    2.00    1.19
  -3  -2  -9    0.76    0.73
  -3  -2 -10    1.45    0.96
   3   2  10    1.02    0.91
  -3  -2 -10    2.66    1.21
  -3  -2 -11    2.06    1.11
   3   2  11   -0.17    0.84
  -3  -2 -11    0.23    0.81
  -3  -2 -12    3.46    1.26
   3   2  12    2.60    1.27
  -3  -2 -12    2.20    1.14
   3   2  13    6.68    1.77
  -3  -2 -13    7.59    1.87
  -3  -2 -13   10.66    2.16
   3   2  14    1.70    1.28
  -3  -2 -14    1.73    1.12
  -3  -2 -14    1.45    1.02
   3   3 -12    3.66    1.36
   3   3 -12    0.86    0.76
  -3  -3  12    2.90    1.36
  -3  -3  12    0.71    0.92
   3   3 -11    9.14    2.07
   3   3 -11   11.13    2.18
  -3  -3  11    8.44    2.00
  -3  -3  11    3.43    1.30
   3   3 -10    0.44    0.89
   3   3 -10    0.75    0.95
  -3  -3  10   -0.05    0.86
  -3  -3  10    1.21    0.97
   3   3  -9    6.13    1.67
   3   3  -9    5.06    1.42
  -3  -3   9    6.04    1.52
  -3  -3   9    5.16    1.50
   3   3  -8    3.81    1.42
   3   3  -8    1.17    0.89
  -3  -3   8    1.89    1.15
  -3  -3   8    3.60    1.33
  -3  -3   8    2.02    1.28
   3   3  -7    1.67    1.19
   3   3  -7   -0.32    0.62
  -3  -3   7    0.89    0.93
  -3  -3   7   -0.09    0.54
  -3  -3   7    0.34    0.65
   3   3  -6    8.96    1.79
   3   3  -6    9.50    1.83
  -3  -3   6    9.56    1.78
  -3  -3   6   11.39    2.05
  -3  -3   6    7.18    1.65
   3   3  -5   16.70    2.41
  -3  -3   5   23.38    2.46
  -3  -3   5   19.39    2.50
  -3  -3   5   16.45    2.29
   3   3  -5   23.04    2.75
   3   3  -4    3.10    1.13
   3   3  -4    3.30    1.31
  -3  -3   4    4.32    1.23
  -3  -3   4    2.04    1.04
  -3  -3   4    3.13    1.12
   3   3  -3    0.32    0.73
   3   3  -3    0.17    0.72
  -3  -3   3    0.75    0.83
  -3  -3   3    1.05    0.73
  -3  -3   3    1.73    0.90
   3   3  -2   31.26    3.06
  -3  -3   2   29.85    2.98
  -3  -3   2   33.60    3.14
   3   3  -2   33.02    3.10
   3   3  -1   38.32    3.34
  -3  -3   1   43.65    3.52
  -3  -3   1   38.30    3.25
   3   3  -1   37.93    3.31
   3   3   0   32.53    3.07
  -3  -3   0   32.19    3.03
  -3  -3   0   31.91    2.96
   3   3   0   35.18    3.21
   3   3   1   -0.14    0.71
  -3  -3  -1    1.45    1.02
   3   3   1    4.62    1.29
  -3  -3  -1    3.74    1.21
  -3  -3  -1    2.79    1.08
   3   3   2   47.09    3.53
  -3  -3  -2   49.74    4.02
  -3  -3  -2   48.20    3.62
  -3  -3  -2   50.68    3.58
   3   3   2   50.70    4.04
   3   3   3   72.25    4.36
  -3  -3  -3   73.58    4.85
  -3  -3  -3   79.11    4.58
  -3  -3  -3   74.25    4.27
   3   3   3   73.26    4.77
   3   3   4   12.99    2.11
   3   3   4   13.74    1.92
  -3  -3  -4   14.54    2.26
  -3  -3  -4   17.72    2.21
  -3  -3  -4   19.54    2.18
   3   3   5   28.55    2.63
  -3  -3  -5   24.39    2.52
  -3  -3  -5   25.81    2.96
  -3  -3  -5   23.63    2.39
   3   3   5   29.20    3.05
   3   3   6    4.51    1.37
   3   3   6    5.75    1.19
  -3  -3  -6    5.05    1.47
  -3  -3  -6    7.61    1.36
  -3  -3  -6    6.21    1.39
   3   3   7    0.30    0.59
   3   3   7    0.96    0.72
  -3  -3  -7    0.88    0.69
  -3  -3  -7    0.93    0.84
   3   3   8    0.46    0.68
   3   3   8    2.53    1.09
  -3  -3  -8    2.17    0.94
  -3  -3  -8    2.38    1.03
   3   3   9    6.06    1.66
   3   3   9    5.87    1.47
  -3  -3  -9    6.17    1.60
   3   3  10    1.37    0.87
   3   3  10    2.60    1.19
  -3  -3 -10    2.05    1.12
  -3  -3 -11   17.22    2.59
   3   3  11   18.18    2.77
   3   3  11   13.60    2.19
   3   3  12    7.65    2.00
  -3  -3 -12    9.55    2.04
   3   3  12    5.12    1.52
  -3  -3 -12    7.30    1.92
  -3  -3 -13    2.54    1.25
   3   3  13    0.93    1.03
  -3  -3 -13    2.28    1.25
  -3  -3 -14    1.07    1.10
   3   3  14    3.10    1.47
  -3  -3 -14    3.00    1.30
   3   4 -10    1.31    1.12
   3   4 -10    1.15    0.74
  -3  -4  10    1.99    1.35
  -3  -4  10   -0.48    0.76
   3   4  -9    4.78    1.66
   3   4  -9    2.77    1.33
  -3  -4   9    4.31    1.46
  -3  -4   9    2.72    1.28
  -3  -4   9    2.49    1.29
   3   4  -8    9.13    2.07
   3   4  -8   11.25    2.25
  -3  -4   8   13.50    2.33
  -3  -4   8    9.32    2.01
   3   4  -7   23.61    3.07
  -3  -4   7   28.51    3.35
  -3  -4   7   27.47    3.24
   3   4  -7   27.33    3.35
   3   4  -6    1.45    1.14
   3   4  -6    0.12    0.57
  -3  -4   6    1.93    1.01
  -3  -4   6    1.00    0.99
   3   4  -5   -0.60    0.71
   3   4  -5    0.74    0.86
  -3  -4   5   -0.73    0.68
  -3  -4   5    0.97    0.88
   3   4  -4    2.88    1.14
   3   4  -4    3.31    1.20
  -3  -4   4    1.74    0.96
  -3  -4   4    2.86    1.13
   3   4  -3    1.14    0.54
   3   4  -3    2.40    1.03
  -3  -4   3    2.27    0.98
  -3  -4   3    0.56    0.83
   3   4  -2    0.45    0.80
   3   4  -2    1.18    1.10
  -3  -4   2    2.89    1.19
  -3  -4   2    1.95    1.02
   3   4  -1   61.99    4.55
  -3  -4   1   68.06    4.72
  -3  -4   1   67.74    4.57
   3   4  -1   70.66    4.96
   3   4   0   -0.34    0.64
   3   4   0    1.53    1.03
  -3  -4   0    1.32    1.05
  -3  -4   0    0.63    0.69
   3   4   1    7.80    1.82
   3   4   1   10.30    1.89
  -3  -4  -1    8.25    1.65
  -3  -4  -1    9.91    1.83
   3   4   2    2.50    1.01
  -3  -4  -2    2.86    1.26
   3   4   2    0.52    0.80
  -3  -4  -2    2.68    1.22
  -3  -4  -2    1.37    0.92
   3   4   3    5.11    1.46
   3   4   3    7.64    1.67
  -3  -4  -3    8.38    1.84
  -3  -4  -3    5.93    1.53
  -3  -4  -3    6.24    1.52
   3   4   4    0.64    0.71
   3   4   4    1.35    0.94
  -3  -4  -4    1.89    1.19
  -3  -4  -4    0.50    0.94
  -3  -4  -4    2.30    1.11
   3   4   5    9.17    1.91
   3   4   5    9.23    1.66
  -3  -4  -5   10.19    2.01
  -3  -4  -5   10.00    1.83
  -3  -4  -5    9.63    1.92
   3   4   6   18.94    2.29
  -3  -4  -6   25.36    3.07
  -3  -4  -6   24.20    2.57
  -3  -4  -6   20.32    2.60
   3   4   6   26.95    3.16
   3   4   7    0.71    0.88
  -3  -4  -7    1.03    0.98
  -3  -4  -7    1.48    0.94
   3   4   8    6.76    1.69
  -3  -4  -8    5.21    1.56
  -3  -4  -8    4.57    1.32
   3   4   9    7.19    1.79
   3   4   9    7.26    1.66
  -3  -4  -9    6.66    1.81
  -3  -4  -9    7.52    1.69
   3   4  10    7.35    1.92
   3   4  10    9.13    1.83
  -3  -4 -10   10.11    2.07
   3   4  11    3.77    1.66
   3   4  11    2.38    1.30
  -3  -4 -11    3.28    1.51
  -3  -4 -12   15.35    2.61
   3   4  12   12.59    2.46
   3   4  12   14.93    2.45
   3   5  -7    0.17    0.83
  -3  -5   7   -0.16    0.73
  -3  -5   7    0.30    0.69
   3   5  -6   -0.57    0.66
  -3  -5   6    0.05    0.83
  -3  -5   6    1.30    1.10
   3   5  -5    0.17    0.75
   3   5  -5    0.91    0.91
  -3  -5   5   -0.03    0.72
  -3  -5   5    1.73    1.09
   3   5  -4   -0.06    0.85
   3   5  -4    1.15    1.12
  -3  -5   4    0.67    0.86
  -3  -5   4    0.85    1.03
   3   5  -3    2.54    1.20
   3   5  -3    1.55    1.15
  -3  -5   3    2.02    1.17
  -3  -5   3    2.75    1.23
   3   5  -2    3.73    1.35
   3   5  -2    1.42    1.12
  -3  -5   2    1.99    1.03
  -3  -5   2    0.66    0.98
   3   5  -1    3.55    1.41
   3   5  -1    3.05    1.26
  -3  -5   1    4.72    1.55
  -3  -5   1    2.11    1.02
   3   5   0   22.54    3.00
   3   5   0   24.10    2.99
  -3  -5   0   21.88    2.87
  -3  -5   0   29.51    3.23
   3   5   1   14.80    2.52
   3   5   1   17.85    2.58
  -3  -5  -1   21.40    2.81
  -3  -5  -1   20.52    2.65
   3   5   2    2.06    1.21
  -3  -5  -2    5.33    1.65
   3   5   2    2.02    1.23
  -3  -5  -2    3.38    1.30
  -3  -5  -2    5.57    1.56
   3   5   3   15.90    2.56
  -3  -5  -3   13.36    2.50
   3   5   3   12.36    2.14
  -3  -5  -3   14.89    2.29
  -3  -5  -3   13.29    2.26
   3   5   4   24.37    2.93
  -3  -5  -4   29.12    3.34
  -3  -5  -4   23.51    2.99
  -3  -5  -4   25.20    2.96
   3   5   4   27.52    3.39
   3   5   5   -1.22    1.22
   3   5   5    1.78    0.95
  -3  -5  -5   -1.16    0.91
  -3  -5  -5    0.40    0.98
  -3  -5  -5    1.43    1.13
   3   5   6    0.77    0.81
   3   5   6    1.67    0.90
  -3  -5  -6   -1.85    1.31
  -3  -5  -6    0.81    0.92
  -3  -5  -6    4.16    1.38
   3   5   7    4.86    1.57
  -3  -5  -7    5.10    1.62
  -3  -5  -7    6.75    1.73
   3   5   8    1.18    0.98
  -3  -5  -8    1.34    1.09
  -3  -5  -8    0.87    0.95
   3   5   9    0.18    0.79
  -3  -5  -9    0.00    0.96
  -3  -5  -9    2.51    1.37
   3   5  10    8.87    2.21
  -3  -5 -10    8.36    2.06
  -3  -5 -10    8.44    1.97
   3   5  11    3.89    1.64
   3   5  11    2.39    1.39
  -3  -5 -11    4.19    1.70
   3   6  -3    4.21    1.54
   3   6  -3    2.94    1.36
  -3  -6   3    3.33    1.53
  -3  -6   3    4.34    1.61
   3   6  -2   25.04    3.41
   3   6  -2   26.96    3.49
  -3  -6   2   26.43    3.37
  -3  -6   2   24.26    3.29
   3   6  -1    7.83    2.15
   3   6  -1    8.51    2.01
  -3  -6   1    8.12    2.03
  -3  -6   1   11.89    2.34
   3   6   0   33.31    3.73
  -3  -6   0   33.49    3.81
  -3  -6   0   32.60    3.67
   3   6   0   31.90    3.83
   3   6   1    5.48    2.03
   3   6   1    4.38    1.67
  -3  -6  -1    9.43    2.13
  -3  -6  -1    6.94    1.70
   3   6   2    5.10    1.64
   3   6   2    3.78    1.39
  -3  -6  -2    6.65    1.78
  -3  -6  -2    5.85    1.69
   3   6   3    1.38    1.09
  -3  -6  -3    0.23    1.10
   3   6   3   -0.29    0.63
  -3  -6  -3    0.56    0.75
  -3  -6  -3    2.52    1.31
   3   6   4    0.64    0.80
  -3  -6  -4    1.34    1.16
   3   6   4    0.54    0.98
  -3  -6  -4    1.36    1.12
  -3  -6  -4    2.97    1.25
   3   6   5    0.58    1.05
   3   6   5    0.12    0.79
  -3  -6  -5   -0.76    0.87
  -3  -6  -5    0.22    0.82
   3   6   6    0.82    0.90
   3   6   6    1.80    1.05
  -3  -6  -6    1.40    1.21
  -3  -6  -6    0.81    1.05
  -3  -6  -6    1.77    1.06
   3   6   7    0.70    1.19
  -3  -6  -7    1.27    1.44
  -3  -6  -7    0.70    0.87
  -4   3   6    5.16    1.77
   4  -3  -6    4.26    1.64
  -4   3   5    1.17    1.10
   4  -3  -5    2.61    1.49
  -4   3   4    3.99    1.47
   4  -3  -4    8.61    2.10
  -4   3   3    1.93    1.11
   4  -3  -3    1.25    1.15
  -4   3   2    5.61    1.60
   4  -3  -2    4.31    1.59
  -4   3   1    0.60    0.88
   4  -3  -1    0.45    1.48
  -4   3   0   41.36    4.18
   4  -3   0   31.84    3.87
   4  -3   1    4.80    1.69
  -4   3  -1    2.14    1.24
   4  -3   1    3.68    1.56
   4  -3   2    8.47    1.98
  -4   3  -2    6.85    1.83
   4  -3   2    6.90    2.04
   4  -3   3    2.03    1.25
  -4   3  -3    1.23    1.09
   4  -3   3    1.17    1.30
   4  -3   4    6.87    1.84
  -4   3  -4    5.60    1.75
   4  -3   4    5.22    1.70
   4  -3   5    3.07    1.31
  -4   3  -5    1.77    1.36
   4  -3   5    0.48    1.13
  -4   2   9    5.24    1.77
   4  -2  -9   10.25    2.34
  -4   2   8    0.35    0.65
   4  -2  -8    2.90    1.50
  -4   2   7    1.26    1.16
   4  -2  -7    0.14    1.03
  -4   2   6    2.51    1.24
   4  -2  -6    3.36    1.23
  -4   2   5   10.56    2.23
   4  -2  -5   16.16    2.65
  -4   2   4    1.16    1.24
   4  -2  -4    1.78    1.05
  -4   2   3    0.11    0.75
   4  -2  -3    3.48    1.63
  -4   2   2   52.88    4.54
   4  -2  -2   62.83    5.04
  -4   2   1   41.66    4.03
   4  -2  -1   38.11    4.06
  -4   2   0   18.10    2.78
   4  -2   0   19.25    2.93
  -4   2  -1    2.64    1.18
   4  -2   1    1.98    1.22
   4  -2   2    7.44    1.81
  -4   2  -2    7.92    1.88
   4  -2   2    8.37    1.96
   4  -2   3    5.72    1.61
  -4   2  -3    6.88    1.74
   4  -2   3    3.08    1.33
   4  -2   4    1.79    1.16
  -4   2  -4    3.88    1.51
   4  -2   4    2.33    1.28
   4  -2   5   -0.07    0.89
  -4   2  -5    2.34    1.26
  -4   2  -5    0.73    0.87
   4  -2   5    1.83    1.32
   4  -2   6    0.69    0.97
  -4   2  -6    1.03    1.07
  -4   2  -6    1.11    0.87
   4  -2   6    0.17    1.04
   4  -2   7    0.69    0.85
  -4   2  -7    2.07    1.16
  -4   2  -7    0.62    1.03
   4  -2   7    0.54    0.95
   4  -2   8    0.48    0.89
  -4   2  -8    3.94    1.56
  -4   2  -8    0.78    1.16
   4  -2   8    2.27    1.38
  -4   1  10    0.34    0.92
   4  -1 -10    0.84    0.83
  -4   1   9    0.84    0.78
   4  -1  -9    1.55    1.21
  -4   1   8    1.26    1.05
   4  -1  -8    2.98    1.41
  -4   1   7    0.00    0.65
   4  -1  -7    1.21    1.21
  -4   1   6   37.19    3.80
   4  -1  -6   34.14    3.64
  -4   1   5    4.05    1.31
   4  -1  -5    8.93    2.01
  -4   1   4    9.80    2.02
   4  -1  -4   11.46    2.09
  -4   1   3    6.99    1.58
   4  -1  -3    7.98    1.87
  -4   1   2    1.41    1.06
   4  -1  -2    3.05    1.34
  -4   1   1   36.57    3.67
   4  -1  -1   36.90    3.72
  -4   1   0    1.38    1.02
   4  -1   0    1.65    1.26
  -4   1  -1   15.34    2.39
   4  -1   1   13.64    2.33
  -4   1  -2    5.04    1.51
  -4   1  -2    4.67    1.31
   4  -1   2    2.81    1.28
   4  -1   3    0.70    0.71
  -4   1  -3    1.54    1.06
  -4   1  -3    2.04    0.84
   4  -1   3   -0.47    1.04
   4  -1   4    0.61    0.82
  -4   1  -4    0.88    0.97
  -4   1  -4    1.37    1.02
   4  -1   4    0.40    0.89
   4  -1   5    1.28    0.99
  -4   1  -5    2.17    1.28
  -4   1  -5    2.06    1.00
   4  -1   5    2.20    1.28
   4  -1   6    2.89    1.30
  -4   1  -6    0.21    1.05
  -4   1  -6    0.98    0.78
   4  -1   6   -0.13    0.71
   4  -1   7   11.36    2.05
  -4   1  -7    9.07    1.96
  -4   1  -7    7.20    1.79
   4  -1   7   11.85    2.40
   4  -1   8    2.57    1.26
  -4   1  -8    0.90    1.15
  -4   1  -8    1.45    1.06
   4  -1   8    2.45    1.07
   4  -1   9   10.32    2.10
  -4   1  -9   11.89    2.27
   4  -1   9   13.70    2.60
  -4   0  10    9.02    2.22
   4   0 -10    7.58    1.95
  -4   0   9    5.01    1.75
   4   0  -9    4.01    1.46
  -4   0   8    3.64    1.26
   4   0  -8    6.77    1.84
  -4   0   7   39.83    3.98
   4   0  -7   38.15    3.68
  -4   0   6    4.26    1.51
   4   0  -6    4.81    1.63
  -4   0   5    1.68    1.10
  -4   0   5    0.59    0.63
   4   0  -5    2.95    1.33
  -4   0   4    6.82    1.70
  -4   0   4    8.65    1.83
   4   0  -4    9.65    1.98
  -4   0   3    0.56    0.94
  -4   0   3    3.07    0.93
   4   0  -3    2.34    1.16
  -4   0   2    6.85    1.64
  -4   0   2    6.92    1.68
   4   0  -2    8.31    1.76
  -4   0   1   39.59    3.53
   4   0  -1   34.22    3.42
  -4   0   1   31.95    3.27
  -4   0   0   22.04    2.63
   4   0   0   17.18    2.51
  -4   0  -1    8.87    1.76
   4   0   1   10.20    1.96
  -4   0  -2    1.57    1.22
   4   0   2    0.45    0.72
   4   0   3    1.51    1.02
  -4   0  -3    3.34    1.36
  -4   0  -3    1.29    0.83
   4   0   3    0.04    0.80
  -4   0  -4    0.23    0.94
   4   0   4    0.50    0.75
  -4   0  -4    0.71    0.99
  -4   0  -4    1.94    0.96
   4   0   4    0.71    1.12
   4   0   5   12.20    2.01
  -4   0  -5   12.25    2.22
  -4   0  -5   11.70    2.02
  -4   0  -5   10.87    2.05
   4   0   5    9.01    1.98
  -4   0  -6   31.50    3.42
  -4   0  -6   28.70    3.35
   4   0   6   29.33    3.42
  -4   0  -7    2.01    1.23
  -4   0  -7    1.94    1.37
   4   0   7    3.68    1.38
  -4   0  -8    2.14    1.29
  -4   0  -8    3.80    1.43
   4   0   8    6.82    1.83
  -4   0  -9    1.34    1.26
  -4   0  -9    1.12    1.23
   4   0   9    2.44    1.37
  -4   0 -10    1.98    1.15
   4   0  10    4.42    1.60
   4   1 -10    4.28    1.56
  -4  -1  10    4.35    1.79
  -4  -1  10    3.93    1.38
   4   1 -10    5.07    1.63
   4   1  -9    1.99    1.14
  -4  -1   9    1.19    0.93
  -4  -1   9   -0.45    0.65
   4   1  -9    2.04    1.26
   4   1  -8    0.35    0.85
  -4  -1   8    1.06    1.01
  -4  -1   8    2.13    1.02
   4   1  -8    1.67    1.02
   4   1  -7    1.65    1.24
  -4  -1   7    1.33    1.05
  -4  -1   7    0.90    1.19
   4   1  -7    3.54    1.25
   4   1  -6    5.39    1.62
  -4  -1   6    7.24    1.88
  -4  -1   6    3.61    1.36
   4   1  -6    5.31    1.52
  -4  -1   5   56.07    4.42
   4   1  -5   57.82    4.25
  -4  -1   5   49.98    4.29
   4   1  -5   47.48    4.38
   4   1  -4    4.40    1.72
  -4  -1   4    1.35    1.11
  -4  -1   4    0.96    1.07
   4   1  -4    1.95    1.18
  -4  -1   3   34.85    3.37
   4   1  -3   30.79    3.04
  -4  -1   3   30.38    3.24
   4   1  -3   30.70    3.35
  -4  -1   2   25.30    2.84
  -4  -1   2   20.98    2.67
   4   1  -2   20.85    2.53
   4   1  -2   20.15    2.79
   4   1  -1   10.79    2.12
  -4  -1   1   11.11    2.01
   4   1  -1   14.34    2.15
   4   1   0    8.48    1.83
  -4  -1   0    9.09    1.80
  -4  -1   0   12.15    2.02
   4   1   0   14.37    2.16
   4   1   1    3.43    1.14
  -4  -1  -1    2.42    1.24
  -4  -1  -1    3.75    1.33
   4   1   1    4.23    1.33
   4   1   2    3.90    1.25
  -4  -1  -2    2.79    1.19
   4   1   2    3.21    1.23
   4   1   3    3.74    1.20
  -4  -1  -3    6.18    1.51
   4   1   3    4.08    1.23
  -4  -1  -4   11.02    2.16
   4   1   4    6.71    1.56
  -4  -1  -5    1.92    1.05
   4   1   5    4.23    1.35
  -4  -1  -6    2.92    1.35
  -4  -1  -6    2.68    1.04
   4   1   6    4.75    1.48
  -4  -1  -7    1.82    1.14
  -4  -1  -7    1.38    1.10
   4   1   7    1.74    1.13
  -4  -1  -8   11.83    2.28
  -4  -1  -8   12.58    2.34
   4   1   8    8.66    1.89
  -4  -1  -9    1.69    1.22
  -4  -1  -9    1.92    1.09
   4   1   9    0.47    0.86
  -4  -1 -10    9.15    2.17
  -4  -1 -10    8.55    2.10
   4   1  10    8.73    2.03
  -4  -1 -11    1.19    0.99
  -4  -1 -11    2.21    1.39
   4   1  11    3.37    1.47
   4   2  -9    2.64    1.26
   4   2  -9    3.61    1.40
  -4  -2   9    4.47    1.72
  -4  -2   9    3.52    1.50
   4   2  -8    6.15    1.72
   4   2  -8    3.31    1.49
  -4  -2   8    8.07    2.06
  -4  -2   8    5.08    1.62
   4   2  -7   22.83    3.20
  -4  -2   7   30.94    3.50
  -4  -2   7   32.60    3.67
   4   2  -7   33.44    3.49
   4   2  -6   47.50    4.46
  -4  -2   6   62.92    4.68
  -4  -2   6   49.25    4.43
   4   2  -6   60.23    4.64
   4   2  -5    3.81    1.50
   4   2  -5    5.55    1.76
  -4  -2   5    2.64    1.38
  -4  -2   5    5.41    1.54
   4   2  -4    1.97    0.92
   4   2  -4    1.15    1.25
  -4  -2   4    2.65    1.41
  -4  -2   4    2.52    1.11
   4   2  -3    6.58    1.69
   4   2  -3    7.85    1.82
  -4  -2   3    6.61    1.74
   4   2  -2    9.10    1.75
   4   2  -2    9.99    2.05
  -4  -2   2    8.66    1.83
  -4  -2   2   10.21    1.99
   4   2  -1    4.76    1.46
   4   2  -1    9.59    1.99
  -4  -2   1    8.47    1.81
  -4  -2   1    7.31    1.64
   4   2   0    1.99    1.08
   4   2   0    2.93    1.16
  -4  -2   0    4.78    1.43
  -4  -2   0    2.23    1.33
   4   2   1    1.24    0.81
   4   2   1    0.70    0.65
  -4  -2  -1    1.44    1.10
  -4  -2  -1    0.80    0.94
   4   2   2    4.93    1.42
   4   2   2    4.87    1.37
  -4  -2  -2    6.76    1.56
  -4  -2  -2    4.75    1.39
   4   2   3    2.87    1.23
  -4  -2  -3    4.21    1.40
   4   2   3    3.91    1.30
  -4  -2  -3    3.31    1.30
  -4  -2  -3    2.30    1.01
   4   2   4   10.89    2.09
   4   2   4    9.30    1.76
  -4  -2  -4    9.23    2.05
  -4  -2  -4    8.43    1.69
  -4  -2  -4    6.05    1.48
   4   2   5    3.43    1.38
  -4  -2  -5    4.12    1.63
  -4  -2  -6   30.68    3.60
   4   2   6   30.43    3.29
  -4  -2  -7   22.89    3.21
   4   2   7   26.04    3.14
   4   2   8    5.87    1.67
  -4  -2  -8    4.76    1.65
   4   2   9    2.63    1.35
  -4  -2  -9    7.00    1.93
   4   2  10    3.03    1.46
  -4  -2 -10    3.26    1.31
  -4  -2 -10    5.87    1.93
   4   3  -7    2.23    1.33
   4   3  -7    0.14    0.87
  -4  -3   7    1.91    1.10
   4   3  -6   10.77    2.21
   4   3  -6   11.83    2.37
  -4  -3   6   14.52    2.57
   4   3  -5    0.80    0.92
   4   3  -5    1.86    1.25
  -4  -3   5    1.69    1.24
  -4  -3   5    0.86    0.76
   4   3  -4    3.15    1.38
   4   3  -4    3.11    1.29
  -4  -3   4    6.20    1.63
  -4  -3   4    4.42    1.56
   4   3  -3    3.75    1.31
   4   3  -3    4.20    1.40
  -4  -3   3    3.48    1.50
  -4  -3   3    3.90    1.42
   4   3  -2    1.76    1.30
   4   3  -2    2.93    1.34
  -4  -3   2    1.50    1.01
  -4  -3   2   -0.66    0.86
   4   3  -1    1.69    0.98
   4   3  -1   -0.14    0.57
  -4  -3   1    0.69    0.97
  -4  -3   1    0.67    0.79
   4   3   0    2.91    1.16
   4   3   0    2.42    1.15
  -4  -3   0    3.55    1.26
  -4  -3   0    3.82    1.36
   4   3   1    2.88    1.29
   4   3   1    2.21    1.20
  -4  -3  -1    4.24    1.36
  -4  -3  -1    4.38    1.50
   4   3   2    6.26    1.64
   4   3   2    7.99    1.79
  -4  -3  -2    8.57    1.90
  -4  -3  -2    7.35    1.78
   4   3   3    3.87    1.51
  -4  -3  -3    4.59    1.61
   4   3   3    4.89    1.47
  -4  -3  -3    2.33    1.07
  -4  -3  -3    2.44    1.16
   4   3   4   20.38    2.63
   4   3   4   23.32    3.09
  -4  -3  -4   28.62    3.55
  -4  -3  -4   25.85    3.04
  -4  -3  -4   22.14    2.74
  -4  -3  -5   38.31    4.10
  -4  -3  -5   35.44    3.53
   4   3   5   44.29    4.27
   4   3   6    0.52    0.84
  -4  -3  -6    1.46    1.26
   4   3   7   21.11    3.02
  -4  -3  -7   16.82    2.80
   4   3   8    2.45    1.32
  -4  -3  -8    3.18    1.44
   4   3   9    2.42    1.30
  -4  -3  -9    2.11    0.90
   4   3  10    3.35    1.49
   4   4  -5    6.64    1.88
   4   4  -5    6.24    1.89
  -4  -4   5    9.25    2.25
  -4  -4   5    5.67    1.66
   4   4  -4    2.02    1.22
   4   4  -4    0.88    0.94
  -4  -4   4    1.67    1.24
  -4  -4   4   -0.09    0.78
   4   4  -3    0.33    0.82
   4   4  -3    1.37    1.01
  -4  -4   3   -0.29    0.83
  -4  -4   3    1.23    1.06
   4   4  -2    1.94    1.26
   4   4  -2    0.25    0.81
  -4  -4   2    0.24    0.89
  -4  -4   2    1.44    1.04
   4   4  -1    2.35    1.25
   4   4  -1    1.88    1.05
  -4  -4   1    1.81    1.12
  -4  -4   1    1.55    1.15
   4   4   0    4.82    1.69
   4   4   0    2.96    1.18
  -4  -4   0    0.81    0.84
  -4  -4   0    4.24    1.42
   4   4   1   25.28    3.24
   4   4   1   23.34    3.20
  -4  -4  -1   22.63    3.07
  -4  -4  -1   26.61    3.21
   4   4   2    0.05    1.04
   4   4   2    2.67    1.24
  -4  -4  -2    2.97    1.44
  -4  -4  -2    1.90    1.19
   4   4   3    9.89    2.28
  -4  -4  -3    7.16    1.96
   4   4   3    6.41    1.79
  -4  -4  -3    7.14    1.87
  -4  -4  -3    5.87    1.78
   4   4   4   -0.30    0.80
  -4  -4  -4    0.20    0.91
   4   4   4    1.16    1.08
  -4  -4  -4    1.84    1.31
  -4  -4  -4    1.95    1.29
   4   4   5    5.42    1.70
  -4  -4  -5    3.89    1.48
  -4  -4  -5    3.62    1.39
   4   4   6    1.97    1.27
  -4  -4  -6    3.63    1.43
  -4  -4  -6    1.04    0.99
   4   4   7    0.36    0.86
  -4  -4  -7    1.47    1.21
   4   4   8    3.43    1.48
  -4  -4  -8    4.66    1.82
   4   5   2    2.15    1.26
  -4  -5  -2    2.69    1.23
   0   0   0    0.00    0.00
;
_shelx_hkl_checksum              31333
_shelx_res_file
;
TITL dc1_a.res in P-1
 (1).res created by SHELXL-2016/4 at 14:36:58 on 31-Jan-2018
REM Old TITL
REM SHELXT solution in P-1
REM R1 0.323, Rweak 0.083, Alpha 0.048, Orientation as input
REM Formula found by SHELXT: C8 O2
CELL 0.71073 3.9455 6.0809 14.6836 82.653 88.638 84.601
ZERR 1 0.0003 0.0005 0.0011 0.006 0.006 0.007
LATT 1
SFAC C H Cl O
UNIT 16 10 2 2
L.S. 4 0 0
PLAN  4
BOND $H
LIST 6
MORE -1
CONF
fmap 2 53
acta 52
REM <olex2.extras>
REM <HklSrc "%.\\(1).hkl">
REM </olex2.extras>
WGHT    0.033500    0.118000
FVAR       1.17016
C1    1    0.380035    0.494884    0.308315    11.00000    0.03888    0.04294 =
         0.04192   -0.00384   -0.00049   -0.00807
C2    1    0.514577    0.273231    0.318646    11.00000    0.05654    0.04212 =
         0.04496   -0.00035    0.00166   -0.00665
AFIX  43
H2    2    0.493021    0.185559    0.374837    11.00000   -1.20000
AFIX   0
C3    1    0.678823    0.182608    0.246749    11.00000    0.05583    0.04473 =
         0.05871   -0.01150   -0.00092   -0.00127
AFIX  43
H3    2    0.771626    0.035173    0.254438    11.00000   -1.20000
AFIX   0
C4    1    0.704755    0.311129    0.163689    11.00000    0.04627    0.05951 =
         0.04715   -0.01641    0.00211   -0.00759
C5    1    0.574916    0.531390    0.150961    11.00000    0.06163    0.06224 =
         0.04131    0.00168    0.00493   -0.00542
AFIX  43
H5    2    0.595485    0.617285    0.094315    11.00000   -1.20000
AFIX   0
C6    1    0.414885    0.621384    0.223413    11.00000    0.05395    0.04366 =
         0.04813    0.00168    0.00308   -0.00085
AFIX  43
H6    2    0.327970    0.770037    0.215556    11.00000   -1.20000
AFIX   0
C7    1    0.204736    0.600388    0.384152    11.00000    0.04796    0.04400 =
         0.04501   -0.00174    0.00217   -0.00665
C8    1    0.081954    0.458170    0.466048    11.00000    0.04767    0.04305 =
         0.04395   -0.00232    0.00146   -0.00459
AFIX  43
H8    2    0.123290    0.304322    0.469025    11.00000   -1.20000
AFIX   0
CL1   3    0.903534    0.192443    0.072523    11.00000    0.07989    0.09262 =
         0.06212   -0.03258    0.01479   -0.00215
O1    4    0.155787    0.802146    0.380031    11.00000    0.10342    0.04102 =
         0.06168   -0.00147    0.02447   -0.00062
HKLF 4
REM  dc1_a.res in P-1
REM R1 =  0.0475 for    1256 Fo > 4sig(Fo)  and  0.0549 for all    1416 data
REM     91 parameters refined using      0 restraints
END
WGHT      0.0335      0.1180
REM Highest difference peak  0.178,  deepest hole -0.195,  1-sigma level  0.033
Q1    1   0.1813  0.5044  0.4205  11.00000  0.05    0.18
Q2    1   0.3425  0.3795  0.3040  11.00000  0.05    0.18
Q3    1   0.7300  0.1167  0.0632  11.00000  0.05    0.17
Q4    1   0.2789  0.5423  0.3402  11.00000  0.05    0.16
;
_shelx_res_checksum              45840
loop_
_space_group_symop_operation_xyz
'x, y, z'
'-x, -y, -z'
loop_
_atom_site_type_symbol
_atom_site_label
_atom_site_fract_x
_atom_site_fract_y
_atom_site_fract_z
_atom_site_U_iso_or_equiv
_atom_site_adp_type
_atom_site_calc_flag
_atom_site_occupancy
C C1 0.3800(5) 0.4949(3) 0.30832(13) 0.0411(4) Uani d 1
C C2 0.5146(5) 0.2732(3) 0.31865(14) 0.0482(5) Uani d 1
H H2 0.493021 0.185559 0.374837 0.058 Uiso calc 1
C C3 0.6788(6) 0.1826(4) 0.24675(15) 0.0529(5) Uani d 1
H H3 0.771626 0.035173 0.254438 0.063 Uiso calc 1
C C4 0.7048(5) 0.3111(4) 0.16369(14) 0.0500(5) Uani d 1
C C5 0.5749(6) 0.5314(4) 0.15096(15) 0.0559(6) Uani d 1
H H5 0.595485 0.617285 0.094315 0.067 Uiso calc 1
C C6 0.4149(5) 0.6214(3) 0.22341(14) 0.0495(5) Uani d 1
H H6 0.327970 0.770037 0.215556 0.059 Uiso calc 1
C C7 0.2047(5) 0.6004(3) 0.38415(14) 0.0459(5) Uani d 1
C C8 0.0820(5) 0.4582(3) 0.46605(13) 0.0452(5) Uani d 1
H H8 0.123290 0.304322 0.469025 0.054 Uiso calc 1
Cl Cl1 0.90353(18) 0.19244(12) 0.07252(4) 0.0768(3) Uani d 1
O O1 0.1558(5) 0.8021(2) 0.38003(11) 0.0699(5) Uani d 1
loop_
_atom_site_aniso_label
_atom_site_aniso_U_11
_atom_site_aniso_U_22
_atom_site_aniso_U_33
_atom_site_aniso_U_12
_atom_site_aniso_U_13
_atom_site_aniso_U_23
C1 0.0389(10) 0.0429(10) 0.0419(10) -0.0081(8) -0.0005(8) -0.0038(8)
C2 0.0565(13) 0.0421(11) 0.0450(11) -0.0066(9) 0.0017(9) -0.0003(9)
C3 0.0558(13) 0.0447(11) 0.0587(13) -0.0013(10) -0.0009(10) -0.0115(10)
C4 0.0463(12) 0.0595(13) 0.0471(12) -0.0076(10) 0.0021(9) -0.0164(10)
C5 0.0616(14) 0.0622(13) 0.0413(11) -0.0054(11) 0.0049(10) 0.0017(10)
C6 0.0539(12) 0.0437(11) 0.0481(12) -0.0008(9) 0.0031(9) 0.0017(9)
C7 0.0480(11) 0.0440(11) 0.0450(11) -0.0066(9) 0.0022(9) -0.0017(8)
C8 0.0477(12) 0.0431(10) 0.0440(11) -0.0046(9) 0.0015(8) -0.0023(8)
Cl1 0.0799(5) 0.0926(5) 0.0621(4) -0.0021(4) 0.0148(3) -0.0326(3)
O1 0.1034(14) 0.0410(8) 0.0617(10) -0.0006(8) 0.0245(9) -0.0015(7)
loop_
_atom_type_symbol
_atom_type_description
_atom_type_scat_dispersion_real
_atom_type_scat_dispersion_imag
_atom_type_scat_source
C C 0.0033 0.0016 'International Tables Vol C Tables 4.2.6.8 and 6.1.1.4'
H H 0.0000 0.0000 'International Tables Vol C Tables 4.2.6.8 and 6.1.1.4'
Cl Cl 0.1484 0.1585 'International Tables Vol C Tables 4.2.6.8 and 6.1.1.4'
O O 0.0106 0.0060 'International Tables Vol C Tables 4.2.6.8 and 6.1.1.4'
loop_
_geom_angle_atom_site_label_1
_geom_angle_atom_site_label_2
_geom_angle_atom_site_label_3
_geom_angle_site_symmetry_1
_geom_angle
C2 C1 C7 . 122.61(18)
C6 C1 C2 . 118.30(19)
C6 C1 C7 . 119.08(18)
C1 C2 H2 . 119.6
C3 C2 C1 . 120.72(19)
C3 C2 H2 . 119.6
C2 C3 H3 . 120.3
C4 C3 C2 . 119.4(2)
C4 C3 H3 . 120.3
C3 C4 C5 . 121.4(2)
C3 C4 Cl1 . 118.98(17)
C5 C4 Cl1 . 119.60(17)
C4 C5 H5 . 120.6
C6 C5 C4 . 118.8(2)
C6 C5 H5 . 120.6
C1 C6 H6 . 119.3
C5 C6 C1 . 121.3(2)
C5 C6 H6 . 119.3
C1 C7 C8 . 119.63(17)
O1 C7 C1 . 120.95(18)
O1 C7 C8 . 119.41(19)
C7 C8 H8 . 118.8
C8 C8 C7 2_566 122.3(2)
C8 C8 H8 2_566 118.8
loop_
_geom_bond_atom_site_label_1
_geom_bond_atom_site_label_2
_geom_bond_site_symmetry_2
_geom_bond_distance
C1 C2 . 1.392(3)
C1 C6 . 1.390(3)
C1 C7 . 1.481(3)
C2 H2 . 0.9300
C2 C3 . 1.374(3)
C3 H3 . 0.9300
C3 C4 . 1.369(3)
C4 C5 . 1.379(3)
C4 Cl1 . 1.737(2)
C5 H5 . 0.9300
C5 C6 . 1.372(3)
C6 H6 . 0.9300
C7 C8 . 1.488(3)
C7 O1 . 1.218(2)
C8 C8 2_566 1.307(4)
C8 H8 . 0.9300
loop_
_geom_torsion_atom_site_label_1
_geom_torsion_atom_site_label_2
_geom_torsion_atom_site_label_3
_geom_torsion_atom_site_label_4
_geom_torsion_site_symmetry_4
_geom_torsion
C1 C2 C3 C4 . -1.1(3)
C1 C7 C8 C8 2_566 -178.2(2)
C2 C1 C6 C5 . 0.5(3)
C2 C1 C7 C8 . -17.0(3)
C2 C1 C7 O1 . 163.9(2)
C2 C3 C4 C5 . 1.2(3)
C2 C3 C4 Cl1 . -178.37(16)
C3 C4 C5 C6 . -0.4(3)
C4 C5 C6 C1 . -0.4(3)
C6 C1 C2 C3 . 0.3(3)
C6 C1 C7 C8 . 163.48(18)
C6 C1 C7 O1 . -15.6(3)
C7 C1 C2 C3 . -179.24(19)
C7 C1 C6 C5 . -179.94(19)
Cl1 C4 C5 C6 . 179.15(16)
O1 C7 C8 C8 2_566 0.9(4)

_cod_database_fobs_code 2242382
